MODEL 1
REMARK VINA RESULT:    -2.712      0.000      0.000
REMARK INTER + INTRA:          -7.742
REMARK INTER:                  -5.091
REMARK INTRA:                  -2.652
REMARK UNBOUND:                -2.652
REMARK SMILES O=C([O-])CCCCCCCCCCCCCCC(=O)[O-]
REMARK SMILES IDX 10 1 9 2 8 3 7 4 6 5 5 6 4 7 2 8 1 9 3 10 11 11 12 12 13 13
REMARK SMILES IDX 14 14 15 15 16 16 17 17 18 18 19 19 20 20
REMARK H PARENT
REMARK Flexibility Score: inf
ROOT
ATOM      1  C   UNL     1       8.530 -17.994   8.752  1.00  0.00     0.000 C 
ENDROOT
BRANCH   1   2
ATOM      2  C   UNL     1       9.938 -18.096   9.358  1.00  0.00     0.000 C 
BRANCH   2   3
ATOM      3  C   UNL     1      11.000 -18.235   8.257  1.00  0.00     0.000 C 
BRANCH   3   4
ATOM      4  C   UNL     1      10.384 -18.423   6.861  1.00  0.00     0.000 C 
BRANCH   4   5
ATOM      5  C   UNL     1      11.033 -17.519   5.801  1.00  0.00     0.000 C 
BRANCH   5   6
ATOM      6  C   UNL     1      10.017 -17.120   4.725  1.00  0.00     0.006 C 
BRANCH   6   7
ATOM      7  C   UNL     1       8.894 -18.155   4.618  1.00  0.00     0.053 C 
BRANCH   7   8
ATOM      8  C   UNL     1       8.467 -18.322   3.194  1.00  0.00     0.041 C 
ATOM      9  O   UNL     1       7.420 -18.965   2.917  1.00  0.00    -0.550 OA
ATOM     10  O   UNL     1       9.254 -17.811   2.169  1.00  0.00    -0.550 OA
ENDBRANCH   7   8
ENDBRANCH   6   7
ENDBRANCH   5   6
ENDBRANCH   4   5
ENDBRANCH   3   4
ENDBRANCH   2   3
ENDBRANCH   1   2
BRANCH   1  11
ATOM     11  C   UNL     1       7.940 -16.576   8.844  1.00  0.00     0.000 C 
BRANCH  11  12
ATOM     12  C   UNL     1       7.775 -15.852   7.492  1.00  0.00     0.000 C 
BRANCH  12  13
ATOM     13  C   UNL     1       8.784 -14.716   7.228  1.00  0.00     0.000 C 
BRANCH  13  14
ATOM     14  C   UNL     1       9.833 -14.511   8.336  1.00  0.00     0.000 C 
BRANCH  14  15
ATOM     15  C   UNL     1      11.274 -14.547   7.807  1.00  0.00     0.000 C 
BRANCH  15  16
ATOM     16  C   UNL     1      12.275 -14.743   8.952  1.00  0.00     0.006 C 
BRANCH  16  17
ATOM     17  C   UNL     1      11.671 -14.308  10.290  1.00  0.00     0.053 C 
BRANCH  17  18
ATOM     18  C   UNL     1      12.472 -13.194  10.887  1.00  0.00     0.041 C 
ATOM     19  O   UNL     1      13.110 -13.375  11.957  1.00  0.00    -0.550 OA
ATOM     20  O   UNL     1      12.475 -11.942  10.287  1.00  0.00    -0.550 OA
ENDBRANCH  17  18
ENDBRANCH  16  17
ENDBRANCH  15  16
ENDBRANCH  14  15
ENDBRANCH  13  14
ENDBRANCH  12  13
ENDBRANCH  11  12
ENDBRANCH   1  11
TORSDOF 15
ENDMDL
MODEL 2
REMARK VINA RESULT:    -2.613      4.194      6.381
REMARK INTER + INTRA:          -7.556
REMARK INTER:                  -6.210
REMARK INTRA:                  -1.346
REMARK UNBOUND:                -2.652
REMARK SMILES O=C([O-])CCCCCCCCCCCCCCC(=O)[O-]
REMARK SMILES IDX 10 1 9 2 8 3 7 4 6 5 5 6 4 7 2 8 1 9 3 10 11 11 12 12 13 13
REMARK SMILES IDX 14 14 15 15 16 16 17 17 18 18 19 19 20 20
REMARK H PARENT
REMARK Flexibility Score: inf
ROOT
ATOM      1  C   UNL     1       5.431 -17.659   7.927  1.00  0.00     0.000 C 
ENDROOT
BRANCH   1   2
ATOM      2  C   UNL     1       6.221 -18.799   7.267  1.00  0.00     0.000 C 
BRANCH   2   3
ATOM      3  C   UNL     1       5.321 -19.620   6.332  1.00  0.00     0.000 C 
BRANCH   3   4
ATOM      4  C   UNL     1       3.928 -18.996   6.151  1.00  0.00     0.000 C 
BRANCH   4   5
ATOM      5  C   UNL     1       3.250 -19.432   4.843  1.00  0.00     0.000 C 
BRANCH   5   6
ATOM      6  C   UNL     1       4.292 -19.753   3.766  1.00  0.00     0.006 C 
BRANCH   6   7
ATOM      7  C   UNL     1       4.135 -18.828   2.555  1.00  0.00     0.053 C 
BRANCH   7   8
ATOM      8  C   UNL     1       3.302 -19.482   1.498  1.00  0.00     0.041 C 
ATOM      9  O   UNL     1       3.767 -19.653   0.341  1.00  0.00    -0.550 OA
ATOM     10  O   UNL     1       1.994 -19.855   1.778  1.00  0.00    -0.550 OA
ENDBRANCH   7   8
ENDBRANCH   6   7
ENDBRANCH   5   6
ENDBRANCH   4   5
ENDBRANCH   3   4
ENDBRANCH   2   3
ENDBRANCH   1   2
BRANCH   1  11
ATOM     11  C   UNL     1       6.338 -16.569   8.525  1.00  0.00     0.000 C 
BRANCH  11  12
ATOM     12  C   UNL     1       7.743 -16.475   7.895  1.00  0.00     0.000 C 
BRANCH  12  13
ATOM     13  C   UNL     1       8.035 -15.164   7.137  1.00  0.00     0.000 C 
BRANCH  13  14
ATOM     14  C   UNL     1       9.414 -15.102   6.454  1.00  0.00     0.000 C 
BRANCH  14  15
ATOM     15  C   UNL     1       9.977 -16.491   6.122  1.00  0.00     0.000 C 
BRANCH  15  16
ATOM     16  C   UNL     1       9.705 -16.859   4.659  1.00  0.00     0.006 C 
BRANCH  16  17
ATOM     17  C   UNL     1       8.876 -18.143   4.561  1.00  0.00     0.053 C 
BRANCH  17  18
ATOM     18  C   UNL     1       8.513 -18.423   3.136  1.00  0.00     0.041 C 
ATOM     19  O   UNL     1       7.659 -19.306   2.861  1.00  0.00    -0.550 OA
ATOM     20  O   UNL     1       9.152 -17.740   2.109  1.00  0.00    -0.550 OA
ENDBRANCH  17  18
ENDBRANCH  16  17
ENDBRANCH  15  16
ENDBRANCH  14  15
ENDBRANCH  13  14
ENDBRANCH  12  13
ENDBRANCH  11  12
ENDBRANCH   1  11
TORSDOF 15
ENDMDL
MODEL 3
REMARK VINA RESULT:    -2.609      4.288      6.617
REMARK INTER + INTRA:          -7.549
REMARK INTER:                  -5.798
REMARK INTRA:                  -1.751
REMARK UNBOUND:                -2.652
REMARK SMILES O=C([O-])CCCCCCCCCCCCCCC(=O)[O-]
REMARK SMILES IDX 10 1 9 2 8 3 7 4 6 5 5 6 4 7 2 8 1 9 3 10 11 11 12 12 13 13
REMARK SMILES IDX 14 14 15 15 16 16 17 17 18 18 19 19 20 20
REMARK H PARENT
REMARK Flexibility Score: inf
ROOT
ATOM      1  C   UNL     1       4.556 -19.734   6.402  1.00  0.00     0.000 C 
ENDROOT
BRANCH   1   2
ATOM      2  C   UNL     1       3.793 -18.425   6.654  1.00  0.00     0.000 C 
BRANCH   2   3
ATOM      3  C   UNL     1       2.481 -18.393   5.856  1.00  0.00     0.000 C 
BRANCH   3   4
ATOM      4  C   UNL     1       2.636 -18.966   4.438  1.00  0.00     0.000 C 
BRANCH   4   5
ATOM      5  C   UNL     1       2.784 -17.872   3.369  1.00  0.00     0.000 C 
BRANCH   5   6
ATOM      6  C   UNL     1       3.829 -18.269   2.320  1.00  0.00     0.006 C 
BRANCH   6   7
ATOM      7  C   UNL     1       3.963 -19.792   2.226  1.00  0.00     0.053 C 
BRANCH   7   8
ATOM      8  C   UNL     1       3.290 -20.304   0.993  1.00  0.00     0.041 C 
ATOM      9  O   UNL     1       3.756 -20.031  -0.144  1.00  0.00    -0.550 OA
ATOM     10  O   UNL     1       2.116 -21.041   1.098  1.00  0.00    -0.550 OA
ENDBRANCH   7   8
ENDBRANCH   6   7
ENDBRANCH   5   6
ENDBRANCH   4   5
ENDBRANCH   3   4
ENDBRANCH   2   3
ENDBRANCH   1   2
BRANCH   1  11
ATOM     11  C   UNL     1       5.999 -19.503   5.920  1.00  0.00     0.000 C 
BRANCH  11  12
ATOM     12  C   UNL     1       6.528 -20.553   4.922  1.00  0.00     0.000 C 
BRANCH  12  13
ATOM     13  C   UNL     1       7.780 -20.131   4.127  1.00  0.00     0.000 C 
BRANCH  13  14
ATOM     14  C   UNL     1       7.575 -18.935   3.179  1.00  0.00     0.000 C 
BRANCH  14  15
ATOM     15  C   UNL     1       8.726 -17.922   3.238  1.00  0.00     0.000 C 
BRANCH  15  16
ATOM     16  C   UNL     1       9.500 -18.046   4.556  1.00  0.00     0.006 C 
BRANCH  16  17
ATOM     17  C   UNL     1       9.094 -16.944   5.538  1.00  0.00     0.053 C 
BRANCH  17  18
ATOM     18  C   UNL     1      10.112 -15.847   5.541  1.00  0.00     0.041 C 
ATOM     19  O   UNL     1      10.242 -15.105   6.551  1.00  0.00    -0.550 OA
ATOM     20  O   UNL     1      10.885 -15.612   4.412  1.00  0.00    -0.550 OA
ENDBRANCH  17  18
ENDBRANCH  16  17
ENDBRANCH  15  16
ENDBRANCH  14  15
ENDBRANCH  13  14
ENDBRANCH  12  13
ENDBRANCH  11  12
ENDBRANCH   1  11
TORSDOF 15
ENDMDL
MODEL 4
REMARK VINA RESULT:    -2.564      4.134      7.279
REMARK INTER + INTRA:          -7.465
REMARK INTER:                  -5.979
REMARK INTRA:                  -1.486
REMARK UNBOUND:                -2.652
REMARK SMILES O=C([O-])CCCCCCCCCCCCCCC(=O)[O-]
REMARK SMILES IDX 10 1 9 2 8 3 7 4 6 5 5 6 4 7 2 8 1 9 3 10 11 11 12 12 13 13
REMARK SMILES IDX 14 14 15 15 16 16 17 17 18 18 19 19 20 20
REMARK H PARENT
REMARK Flexibility Score: inf
ROOT
ATOM      1  C   UNL     1       8.220 -17.182   7.862  1.00  0.00     0.000 C 
ENDROOT
BRANCH   1   2
ATOM      2  C   UNL     1       7.734 -15.727   7.775  1.00  0.00     0.000 C 
BRANCH   2   3
ATOM      3  C   UNL     1       8.542 -14.940   6.734  1.00  0.00     0.000 C 
BRANCH   3   4
ATOM      4  C   UNL     1       9.900 -15.589   6.423  1.00  0.00     0.000 C 
BRANCH   4   5
ATOM      5  C   UNL     1      10.215 -15.614   4.919  1.00  0.00     0.000 C 
BRANCH   5   6
ATOM      6  C   UNL     1      10.428 -17.049   4.427  1.00  0.00     0.006 C 
BRANCH   6   7
ATOM      7  C   UNL     1       9.121 -17.846   4.471  1.00  0.00     0.053 C 
BRANCH   7   8
ATOM      8  C   UNL     1       8.642 -18.148   3.086  1.00  0.00     0.041 C 
ATOM      9  O   UNL     1       8.936 -17.380   2.133  1.00  0.00    -0.550 OA
ATOM     10  O   UNL     1       7.829 -19.251   2.858  1.00  0.00    -0.550 OA
ENDBRANCH   7   8
ENDBRANCH   6   7
ENDBRANCH   5   6
ENDBRANCH   4   5
ENDBRANCH   3   4
ENDBRANCH   2   3
ENDBRANCH   1   2
BRANCH   1  11
ATOM     11  C   UNL     1       7.082 -18.177   8.146  1.00  0.00     0.000 C 
BRANCH  11  12
ATOM     12  C   UNL     1       6.825 -19.208   7.028  1.00  0.00     0.000 C 
BRANCH  12  13
ATOM     13  C   UNL     1       5.347 -19.595   6.819  1.00  0.00     0.000 C 
BRANCH  13  14
ATOM     14  C   UNL     1       4.334 -18.480   7.134  1.00  0.00     0.000 C 
BRANCH  14  15
ATOM     15  C   UNL     1       2.879 -18.916   6.911  1.00  0.00     0.000 C 
BRANCH  15  16
ATOM     16  C   UNL     1       2.738 -19.713   5.608  1.00  0.00     0.006 C 
BRANCH  16  17
ATOM     17  C   UNL     1       2.142 -18.847   4.496  1.00  0.00     0.053 C 
BRANCH  17  18
ATOM     18  C   UNL     1       3.193 -18.484   3.495  1.00  0.00     0.041 C 
ATOM     19  O   UNL     1       3.055 -17.462   2.771  1.00  0.00    -0.550 OA
ATOM     20  O   UNL     1       4.305 -19.299   3.328  1.00  0.00    -0.550 OA
ENDBRANCH  17  18
ENDBRANCH  16  17
ENDBRANCH  15  16
ENDBRANCH  14  15
ENDBRANCH  13  14
ENDBRANCH  12  13
ENDBRANCH  11  12
ENDBRANCH   1  11
TORSDOF 15
ENDMDL
MODEL 5
REMARK VINA RESULT:    -2.543      3.141      6.458
REMARK INTER + INTRA:          -7.425
REMARK INTER:                  -5.777
REMARK INTRA:                  -1.648
REMARK UNBOUND:                -2.652
REMARK SMILES O=C([O-])CCCCCCCCCCCCCCC(=O)[O-]
REMARK SMILES IDX 10 1 9 2 8 3 7 4 6 5 5 6 4 7 2 8 1 9 3 10 11 11 12 12 13 13
REMARK SMILES IDX 14 14 15 15 16 16 17 17 18 18 19 19 20 20
REMARK H PARENT
REMARK Flexibility Score: inf
ROOT
ATOM      1  C   UNL     1      10.812 -14.299   9.370  1.00  0.00     0.000 C 
ENDROOT
BRANCH   1   2
ATOM      2  C   UNL     1      11.005 -15.312  10.508  1.00  0.00     0.000 C 
BRANCH   2   3
ATOM      3  C   UNL     1       9.853 -16.327  10.540  1.00  0.00     0.000 C 
BRANCH   3   4
ATOM      4  C   UNL     1       9.136 -16.368  11.898  1.00  0.00     0.000 C 
BRANCH   4   5
ATOM      5  C   UNL     1       7.622 -16.594  11.762  1.00  0.00     0.000 C 
BRANCH   5   6
ATOM      6  C   UNL     1       7.247 -16.934  10.315  1.00  0.00     0.006 C 
BRANCH   6   7
ATOM      7  C   UNL     1       5.737 -16.807  10.094  1.00  0.00     0.053 C 
BRANCH   7   8
ATOM      8  C   UNL     1       5.421 -16.768   8.632  1.00  0.00     0.041 C 
ATOM      9  O   UNL     1       5.072 -15.688   8.088  1.00  0.00    -0.550 OA
ATOM     10  O   UNL     1       5.465 -17.936   7.881  1.00  0.00    -0.550 OA
ENDBRANCH   7   8
ENDBRANCH   6   7
ENDBRANCH   5   6
ENDBRANCH   4   5
ENDBRANCH   3   4
ENDBRANCH   2   3
ENDBRANCH   1   2
BRANCH   1  11
ATOM     11  C   UNL     1      11.637 -14.643   8.117  1.00  0.00     0.000 C 
BRANCH  11  12
ATOM     12  C   UNL     1      10.805 -15.002   6.868  1.00  0.00     0.000 C 
BRANCH  12  13
ATOM     13  C   UNL     1       9.276 -14.903   7.048  1.00  0.00     0.000 C 
BRANCH  13  14
ATOM     14  C   UNL     1       8.523 -16.242   6.951  1.00  0.00     0.000 C 
BRANCH  14  15
ATOM     15  C   UNL     1       9.433 -17.411   6.552  1.00  0.00     0.000 C 
BRANCH  15  16
ATOM     16  C   UNL     1       8.897 -18.124   5.305  1.00  0.00     0.006 C 
BRANCH  16  17
ATOM     17  C   UNL     1       9.456 -17.490   4.028  1.00  0.00     0.053 C 
BRANCH  17  18
ATOM     18  C   UNL     1       8.879 -18.156   2.818  1.00  0.00     0.041 C 
ATOM     19  O   UNL     1       7.752 -18.716   2.879  1.00  0.00    -0.550 OA
ATOM     20  O   UNL     1       9.606 -18.200   1.636  1.00  0.00    -0.550 OA
ENDBRANCH  17  18
ENDBRANCH  16  17
ENDBRANCH  15  16
ENDBRANCH  14  15
ENDBRANCH  13  14
ENDBRANCH  12  13
ENDBRANCH  11  12
ENDBRANCH   1  11
TORSDOF 15
ENDMDL
MODEL 6
REMARK VINA RESULT:    -2.536      1.127      6.872
REMARK INTER + INTRA:          -7.411
REMARK INTER:                  -5.271
REMARK INTRA:                  -2.140
REMARK UNBOUND:                -2.652
REMARK SMILES O=C([O-])CCCCCCCCCCCCCCC(=O)[O-]
REMARK SMILES IDX 10 1 9 2 8 3 7 4 6 5 5 6 4 7 2 8 1 9 3 10 11 11 12 12 13 13
REMARK SMILES IDX 14 14 15 15 16 16 17 17 18 18 19 19 20 20
REMARK H PARENT
REMARK Flexibility Score: inf
ROOT
ATOM      1  C   UNL     1       8.346 -17.537   8.082  1.00  0.00     0.000 C 
ENDROOT
BRANCH   1   2
ATOM      2  C   UNL     1       8.915 -17.826   9.479  1.00  0.00     0.000 C 
BRANCH   2   3
ATOM      3  C   UNL     1       8.664 -16.646  10.429  1.00  0.00     0.000 C 
BRANCH   3   4
ATOM      4  C   UNL     1       9.920 -15.790  10.655  1.00  0.00     0.000 C 
BRANCH   4   5
ATOM      5  C   UNL     1      11.165 -16.369   9.965  1.00  0.00     0.000 C 
BRANCH   5   6
ATOM      6  C   UNL     1      12.112 -15.251   9.515  1.00  0.00     0.006 C 
BRANCH   6   7
ATOM      7  C   UNL     1      11.492 -13.872   9.760  1.00  0.00     0.053 C 
BRANCH   7   8
ATOM      8  C   UNL     1      12.389 -13.037  10.617  1.00  0.00     0.041 C 
ATOM      9  O   UNL     1      12.770 -13.463  11.739  1.00  0.00    -0.550 OA
ATOM     10  O   UNL     1      12.764 -11.767  10.199  1.00  0.00    -0.550 OA
ENDBRANCH   7   8
ENDBRANCH   6   7
ENDBRANCH   5   6
ENDBRANCH   4   5
ENDBRANCH   3   4
ENDBRANCH   2   3
ENDBRANCH   1   2
BRANCH   1  11
ATOM     11  C   UNL     1       7.394 -16.328   8.063  1.00  0.00     0.000 C 
BRANCH  11  12
ATOM     12  C   UNL     1       7.843 -15.160   7.161  1.00  0.00     0.000 C 
BRANCH  12  13
ATOM     13  C   UNL     1       9.369 -15.016   6.986  1.00  0.00     0.000 C 
BRANCH  13  14
ATOM     14  C   UNL     1       9.896 -15.359   5.581  1.00  0.00     0.000 C 
BRANCH  14  15
ATOM     15  C   UNL     1      10.908 -16.513   5.589  1.00  0.00     0.000 C 
BRANCH  15  16
ATOM     16  C   UNL     1      10.587 -17.533   4.490  1.00  0.00     0.006 C 
BRANCH  16  17
ATOM     17  C   UNL     1       9.110 -17.935   4.529  1.00  0.00     0.053 C 
BRANCH  17  18
ATOM     18  C   UNL     1       8.575 -18.099   3.141  1.00  0.00     0.041 C 
ATOM     19  O   UNL     1       9.003 -17.370   2.207  1.00  0.00    -0.550 OA
ATOM     20  O   UNL     1       7.571 -19.024   2.888  1.00  0.00    -0.550 OA
ENDBRANCH  17  18
ENDBRANCH  16  17
ENDBRANCH  15  16
ENDBRANCH  14  15
ENDBRANCH  13  14
ENDBRANCH  12  13
ENDBRANCH  11  12
ENDBRANCH   1  11
TORSDOF 15
ENDMDL
MODEL 7
REMARK VINA RESULT:    -2.531      4.902      7.912
REMARK INTER + INTRA:          -7.402
REMARK INTER:                  -5.610
REMARK INTRA:                  -1.791
REMARK UNBOUND:                -2.652
REMARK SMILES O=C([O-])CCCCCCCCCCCCCCC(=O)[O-]
REMARK SMILES IDX 10 1 9 2 8 3 7 4 6 5 5 6 4 7 2 8 1 9 3 10 11 11 12 12 13 13
REMARK SMILES IDX 14 14 15 15 16 16 17 17 18 18 19 19 20 20
REMARK H PARENT
REMARK Flexibility Score: inf
ROOT
ATOM      1  C   UNL     1       3.918 -18.408   2.303  1.00  0.00     0.000 C 
ENDROOT
BRANCH   1   2
ATOM      2  C   UNL     1       2.589 -18.054   2.987  1.00  0.00     0.000 C 
BRANCH   2   3
ATOM      3  C   UNL     1       1.492 -19.059   2.606  1.00  0.00     0.000 C 
BRANCH   3   4
ATOM      4  C   UNL     1       0.752 -19.621   3.831  1.00  0.00     0.000 C 
BRANCH   4   5
ATOM      5  C   UNL     1       1.645 -20.515   4.704  1.00  0.00     0.000 C 
BRANCH   5   6
ATOM      6  C   UNL     1       1.833 -19.907   6.099  1.00  0.00     0.006 C 
BRANCH   6   7
ATOM      7  C   UNL     1       3.318 -19.768   6.443  1.00  0.00     0.053 C 
BRANCH   7   8
ATOM      8  C   UNL     1       3.643 -18.355   6.810  1.00  0.00     0.041 C 
ATOM      9  O   UNL     1       4.611 -18.105   7.576  1.00  0.00    -0.550 OA
ATOM     10  O   UNL     1       2.846 -17.316   6.345  1.00  0.00    -0.550 OA
ENDBRANCH   7   8
ENDBRANCH   6   7
ENDBRANCH   5   6
ENDBRANCH   4   5
ENDBRANCH   3   4
ENDBRANCH   2   3
ENDBRANCH   1   2
BRANCH   1  11
ATOM     11  C   UNL     1       4.119 -19.925   2.133  1.00  0.00     0.000 C 
BRANCH  11  12
ATOM     12  C   UNL     1       5.094 -20.569   3.140  1.00  0.00     0.000 C 
BRANCH  12  13
ATOM     13  C   UNL     1       5.980 -19.577   3.920  1.00  0.00     0.000 C 
BRANCH  13  14
ATOM     14  C   UNL     1       7.492 -19.722   3.669  1.00  0.00     0.000 C 
BRANCH  14  15
ATOM     15  C   UNL     1       8.120 -18.461   3.060  1.00  0.00     0.000 C 
BRANCH  15  16
ATOM     16  C   UNL     1       9.620 -18.390   3.368  1.00  0.00     0.006 C 
BRANCH  16  17
ATOM     17  C   UNL     1       9.863 -18.044   4.839  1.00  0.00     0.053 C 
BRANCH  17  18
ATOM     18  C   UNL     1       9.738 -16.568   5.057  1.00  0.00     0.041 C 
ATOM     19  O   UNL     1       9.017 -16.123   5.988  1.00  0.00    -0.550 OA
ATOM     20  O   UNL     1      10.382 -15.683   4.201  1.00  0.00    -0.550 OA
ENDBRANCH  17  18
ENDBRANCH  16  17
ENDBRANCH  15  16
ENDBRANCH  14  15
ENDBRANCH  13  14
ENDBRANCH  12  13
ENDBRANCH  11  12
ENDBRANCH   1  11
TORSDOF 15
ENDMDL
MODEL 8
REMARK VINA RESULT:    -2.501      8.681     11.578
REMARK INTER + INTRA:          -7.345
REMARK INTER:                  -4.978
REMARK INTRA:                  -2.367
REMARK UNBOUND:                -2.652
REMARK SMILES O=C([O-])CCCCCCCCCCCCCCC(=O)[O-]
REMARK SMILES IDX 10 1 9 2 8 3 7 4 6 5 5 6 4 7 2 8 1 9 3 10 11 11 12 12 13 13
REMARK SMILES IDX 14 14 15 15 16 16 17 17 18 18 19 19 20 20
REMARK H PARENT
REMARK Flexibility Score: inf
ROOT
ATOM      1  C   UNL     1       4.918 -20.456   3.708  1.00  0.00     0.000 C 
ENDROOT
BRANCH   1   2
ATOM      2  C   UNL     1       4.991 -20.354   5.239  1.00  0.00     0.000 C 
BRANCH   2   3
ATOM      3  C   UNL     1       3.593 -20.158   5.843  1.00  0.00     0.000 C 
BRANCH   3   4
ATOM      4  C   UNL     1       3.396 -18.755   6.439  1.00  0.00     0.000 C 
BRANCH   4   5
ATOM      5  C   UNL     1       1.926 -18.454   6.772  1.00  0.00     0.000 C 
BRANCH   5   6
ATOM      6  C   UNL     1       1.317 -19.575   7.622  1.00  0.00     0.006 C 
BRANCH   6   7
ATOM      7  C   UNL     1      -0.204 -19.426   7.720  1.00  0.00     0.053 C 
BRANCH   7   8
ATOM      8  C   UNL     1      -0.571 -18.519   8.852  1.00  0.00     0.041 C 
ATOM      9  O   UNL     1      -0.467 -18.917  10.042  1.00  0.00    -0.550 OA
ATOM     10  O   UNL     1      -1.077 -17.252   8.590  1.00  0.00    -0.550 OA
ENDBRANCH   7   8
ENDBRANCH   6   7
ENDBRANCH   5   6
ENDBRANCH   4   5
ENDBRANCH   3   4
ENDBRANCH   2   3
ENDBRANCH   1   2
BRANCH   1  11
ATOM     11  C   UNL     1       5.148 -19.106   3.007  1.00  0.00     0.000 C 
BRANCH  11  12
ATOM     12  C   UNL     1       3.970 -18.613   2.141  1.00  0.00     0.000 C 
BRANCH  12  13
ATOM     13  C   UNL     1       2.810 -17.962   2.921  1.00  0.00     0.000 C 
BRANCH  13  14
ATOM     14  C   UNL     1       1.470 -18.714   2.839  1.00  0.00     0.000 C 
BRANCH  14  15
ATOM     15  C   UNL     1       1.619 -20.140   2.291  1.00  0.00     0.000 C 
BRANCH  15  16
ATOM     16  C   UNL     1       0.865 -21.147   3.168  1.00  0.00     0.006 C 
BRANCH  16  17
ATOM     17  C   UNL     1       0.038 -20.432   4.240  1.00  0.00     0.053 C 
BRANCH  17  18
ATOM     18  C   UNL     1      -1.420 -20.704   4.044  1.00  0.00     0.041 C 
ATOM     19  O   UNL     1      -1.930 -20.629   2.895  1.00  0.00    -0.550 OA
ATOM     20  O   UNL     1      -2.226 -20.996   5.137  1.00  0.00    -0.550 OA
ENDBRANCH  17  18
ENDBRANCH  16  17
ENDBRANCH  15  16
ENDBRANCH  14  15
ENDBRANCH  13  14
ENDBRANCH  12  13
ENDBRANCH  11  12
ENDBRANCH   1  11
TORSDOF 15
ENDMDL
MODEL 9
REMARK VINA RESULT:    -2.501      2.949      4.400
REMARK INTER + INTRA:          -7.345
REMARK INTER:                  -5.278
REMARK INTRA:                  -2.067
REMARK UNBOUND:                -2.652
REMARK SMILES O=C([O-])CCCCCCCCCCCCCCC(=O)[O-]
REMARK SMILES IDX 10 1 9 2 8 3 7 4 6 5 5 6 4 7 2 8 1 9 3 10 11 11 12 12 13 13
REMARK SMILES IDX 14 14 15 15 16 16 17 17 18 18 19 19 20 20
REMARK H PARENT
REMARK Flexibility Score: inf
ROOT
ATOM      1  C   UNL     1      12.190 -16.814   8.637  1.00  0.00     0.000 C 
ENDROOT
BRANCH   1   2
ATOM      2  C   UNL     1      11.887 -17.598   7.351  1.00  0.00     0.000 C 
BRANCH   2   3
ATOM      3  C   UNL     1      12.221 -16.761   6.108  1.00  0.00     0.000 C 
BRANCH   3   4
ATOM      4  C   UNL     1      11.601 -17.334   4.824  1.00  0.00     0.000 C 
BRANCH   4   5
ATOM      5  C   UNL     1      10.234 -16.712   4.498  1.00  0.00     0.000 C 
BRANCH   5   6
ATOM      6  C   UNL     1       9.168 -17.798   4.312  1.00  0.00     0.006 C 
BRANCH   6   7
ATOM      7  C   UNL     1       8.721 -17.886   2.850  1.00  0.00     0.053 C 
BRANCH   7   8
ATOM      8  C   UNL     1       9.499 -18.937   2.124  1.00  0.00     0.041 C 
ATOM      9  O   UNL     1      10.389 -18.607   1.295  1.00  0.00    -0.550 OA
ATOM     10  O   UNL     1       9.208 -20.280   2.324  1.00  0.00    -0.550 OA
ENDBRANCH   7   8
ENDBRANCH   6   7
ENDBRANCH   5   6
ENDBRANCH   4   5
ENDBRANCH   3   4
ENDBRANCH   2   3
ENDBRANCH   1   2
BRANCH   1  11
ATOM     11  C   UNL     1      12.609 -15.358   8.366  1.00  0.00     0.000 C 
BRANCH  11  12
ATOM     12  C   UNL     1      11.602 -14.291   8.842  1.00  0.00     0.000 C 
BRANCH  12  13
ATOM     13  C   UNL     1      10.125 -14.734   8.833  1.00  0.00     0.000 C 
BRANCH  13  14
ATOM     14  C   UNL     1       9.406 -14.566   7.482  1.00  0.00     0.000 C 
BRANCH  14  15
ATOM     15  C   UNL     1       8.286 -15.595   7.271  1.00  0.00     0.000 C 
BRANCH  15  16
ATOM     16  C   UNL     1       8.316 -16.671   8.362  1.00  0.00     0.006 C 
BRANCH  16  17
ATOM     17  C   UNL     1       7.046 -17.526   8.326  1.00  0.00     0.053 C 
BRANCH  17  18
ATOM     18  C   UNL     1       5.889 -16.767   8.896  1.00  0.00     0.041 C 
ATOM     19  O   UNL     1       5.688 -16.756  10.139  1.00  0.00    -0.550 OA
ATOM     20  O   UNL     1       5.005 -16.110   8.050  1.00  0.00    -0.550 OA
ENDBRANCH  17  18
ENDBRANCH  16  17
ENDBRANCH  15  16
ENDBRANCH  14  15
ENDBRANCH  13  14
ENDBRANCH  12  13
ENDBRANCH  11  12
ENDBRANCH   1  11
TORSDOF 15
ENDMDL
