MODEL 1
REMARK VINA RESULT:    -4.914      0.000      0.000
REMARK INTER + INTRA:          -5.480
REMARK INTER:                  -5.201
REMARK INTRA:                  -0.279
REMARK UNBOUND:                -0.279
REMARK SMILES CC1=CC[C@@]23[C@@H]([C@@H]12)[C@H](C(C)C)CC[C@@H]3C
REMARK SMILES IDX 15 1 14 2 13 3 12 4 8 5 6 6 5 7 7 8 2 9 3 10 4 11 1 12 9 13
REMARK SMILES IDX 10 14 11 15
REMARK H PARENT
REMARK Flexibility Score: inf
ROOT
ATOM      1  C   UNL     1      10.875   8.368  18.115  1.00  0.00     0.008 C 
ATOM      2  C   UNL     1      10.952   6.831  18.133  1.00  0.00    -0.007 C 
ATOM      3  C   UNL     1      10.876   6.272  16.694  1.00  0.00     0.004 C 
ATOM      4  C   UNL     1      12.221   6.380  15.972  1.00  0.00     0.004 C 
ATOM      5  C   UNL     1      13.272   5.470  16.636  1.00  0.00    -0.004 C 
ATOM      6  C   UNL     1      13.398   5.738  18.160  1.00  0.00     0.007 C 
ATOM      7  C   UNL     1      12.212   6.361  18.914  1.00  0.00    -0.013 C 
ATOM      8  C   UNL     1      12.455   4.854  18.988  1.00  0.00     0.025 C 
ATOM      9  C   UNL     1      12.870   4.609  20.398  1.00  0.00    -0.073 C 
ATOM     10  C   UNL     1      12.881   5.715  21.127  1.00  0.00    -0.027 C 
ATOM     11  C   UNL     1      12.477   6.906  20.332  1.00  0.00     0.035 C 
ATOM     12  C   UNL     1      13.248   3.263  20.930  1.00  0.00     0.039 C 
ENDROOT
BRANCH   5  13
ATOM     13  C   UNL     1      14.643   5.549  15.897  1.00  0.00    -0.014 C 
ATOM     14  C   UNL     1      15.441   6.831  16.196  1.00  0.00     0.007 C 
ATOM     15  C   UNL     1      15.504   4.309  16.184  1.00  0.00     0.007 C 
ENDBRANCH   5  13
TORSDOF 1
ENDMDL
MODEL 2
REMARK VINA RESULT:    -4.862      1.514      2.043
REMARK INTER + INTRA:          -5.425
REMARK INTER:                  -5.218
REMARK INTRA:                  -0.207
REMARK UNBOUND:                -0.279
REMARK SMILES CC1=CC[C@@]23[C@@H]([C@@H]12)[C@H](C(C)C)CC[C@@H]3C
REMARK SMILES IDX 15 1 14 2 13 3 12 4 8 5 6 6 5 7 7 8 2 9 3 10 4 11 1 12 9 13
REMARK SMILES IDX 10 14 11 15
REMARK H PARENT
REMARK Flexibility Score: inf
ROOT
ATOM      1  C   UNL     1      11.165   8.580  16.256  1.00  0.00     0.008 C 
ATOM      2  C   UNL     1      10.875   7.385  17.182  1.00  0.00    -0.007 C 
ATOM      3  C   UNL     1      10.969   6.059  16.394  1.00  0.00     0.004 C 
ATOM      4  C   UNL     1      12.422   5.618  16.198  1.00  0.00     0.004 C 
ATOM      5  C   UNL     1      13.070   5.258  17.548  1.00  0.00    -0.004 C 
ATOM      6  C   UNL     1      12.938   6.407  18.584  1.00  0.00     0.007 C 
ATOM      7  C   UNL     1      11.801   7.430  18.431  1.00  0.00    -0.013 C 
ATOM      8  C   UNL     1      11.664   6.284  19.432  1.00  0.00     0.025 C 
ATOM      9  C   UNL     1      11.710   6.945  20.767  1.00  0.00    -0.073 C 
ATOM     10  C   UNL     1      11.829   8.262  20.682  1.00  0.00    -0.027 C 
ATOM     11  C   UNL     1      11.888   8.722  19.268  1.00  0.00     0.035 C 
ATOM     12  C   UNL     1      11.645   6.202  22.064  1.00  0.00     0.039 C 
ENDROOT
BRANCH   5  13
ATOM     13  C   UNL     1      14.544   4.783  17.364  1.00  0.00    -0.014 C 
ATOM     14  C   UNL     1      14.775   3.307  17.738  1.00  0.00     0.007 C 
ATOM     15  C   UNL     1      15.044   5.054  15.936  1.00  0.00     0.007 C 
ENDBRANCH   5  13
TORSDOF 1
ENDMDL
MODEL 3
REMARK VINA RESULT:    -4.492      1.818      2.909
REMARK INTER + INTRA:          -5.034
REMARK INTER:                  -4.831
REMARK INTRA:                  -0.203
REMARK UNBOUND:                -0.279
REMARK SMILES CC1=CC[C@@]23[C@@H]([C@@H]12)[C@H](C(C)C)CC[C@@H]3C
REMARK SMILES IDX 15 1 14 2 13 3 12 4 8 5 6 6 5 7 7 8 2 9 3 10 4 11 1 12 9 13
REMARK SMILES IDX 10 14 11 15
REMARK H PARENT
REMARK Flexibility Score: inf
ROOT
ATOM      1  C   UNL     1      11.402   7.462  16.701  1.00  0.00     0.008 C 
ATOM      2  C   UNL     1      10.962   6.719  17.976  1.00  0.00    -0.007 C 
ATOM      3  C   UNL     1      10.877   5.199  17.710  1.00  0.00     0.004 C 
ATOM      4  C   UNL     1      12.257   4.540  17.742  1.00  0.00     0.004 C 
ATOM      5  C   UNL     1      12.861   4.604  19.158  1.00  0.00    -0.004 C 
ATOM      6  C   UNL     1      12.886   6.052  19.716  1.00  0.00     0.007 C 
ATOM      7  C   UNL     1      11.893   7.088  19.166  1.00  0.00    -0.013 C 
ATOM      8  C   UNL     1      11.611   6.398  20.500  1.00  0.00     0.025 C 
ATOM      9  C   UNL     1      11.751   7.478  21.517  1.00  0.00    -0.073 C 
ATOM     10  C   UNL     1      12.041   8.654  20.979  1.00  0.00    -0.027 C 
ATOM     11  C   UNL     1      12.153   8.571  19.498  1.00  0.00     0.035 C 
ATOM     12  C   UNL     1      11.596   7.257  22.989  1.00  0.00     0.039 C 
ENDROOT
BRANCH   5  13
ATOM     13  C   UNL     1      14.258   3.914  19.215  1.00  0.00    -0.014 C 
ATOM     14  C   UNL     1      14.394   2.871  20.339  1.00  0.00     0.007 C 
ATOM     15  C   UNL     1      14.626   3.287  17.861  1.00  0.00     0.007 C 
ENDBRANCH   5  13
TORSDOF 1
ENDMDL
MODEL 4
REMARK VINA RESULT:    -4.399      2.142      5.328
REMARK INTER + INTRA:          -4.936
REMARK INTER:                  -4.714
REMARK INTRA:                  -0.222
REMARK UNBOUND:                -0.279
REMARK SMILES CC1=CC[C@@]23[C@@H]([C@@H]12)[C@H](C(C)C)CC[C@@H]3C
REMARK SMILES IDX 15 1 14 2 13 3 12 4 8 5 6 6 5 7 7 8 2 9 3 10 4 11 1 12 9 13
REMARK SMILES IDX 10 14 11 15
REMARK H PARENT
REMARK Flexibility Score: inf
ROOT
ATOM      1  C   UNL     1      11.621   6.350  19.606  1.00  0.00     0.008 C 
ATOM      2  C   UNL     1      13.006   5.879  20.083  1.00  0.00    -0.007 C 
ATOM      3  C   UNL     1      13.117   6.005  21.619  1.00  0.00     0.004 C 
ATOM      4  C   UNL     1      12.420   4.846  22.335  1.00  0.00     0.004 C 
ATOM      5  C   UNL     1      13.142   3.515  22.051  1.00  0.00    -0.004 C 
ATOM      6  C   UNL     1      13.307   3.255  20.529  1.00  0.00     0.007 C 
ATOM      7  C   UNL     1      13.301   4.445  19.557  1.00  0.00    -0.013 C 
ATOM      8  C   UNL     1      14.627   3.815  19.980  1.00  0.00     0.025 C 
ATOM      9  C   UNL     1      15.143   3.161  18.745  1.00  0.00    -0.073 C 
ATOM     10  C   UNL     1      14.344   3.335  17.702  1.00  0.00    -0.027 C 
ATOM     11  C   UNL     1      13.142   4.137  18.055  1.00  0.00     0.035 C 
ATOM     12  C   UNL     1      16.417   2.380  18.690  1.00  0.00     0.039 C 
ENDROOT
BRANCH   5  13
ATOM     13  C   UNL     1      12.460   2.326  22.793  1.00  0.00    -0.014 C 
ATOM     14  C   UNL     1      13.182   0.979  22.612  1.00  0.00     0.007 C 
ATOM     15  C   UNL     1      12.276   2.633  24.288  1.00  0.00     0.007 C 
ENDBRANCH   5  13
TORSDOF 1
ENDMDL
MODEL 5
REMARK VINA RESULT:    -4.397      1.291      3.728
REMARK INTER + INTRA:          -4.933
REMARK INTER:                  -4.672
REMARK INTRA:                  -0.261
REMARK UNBOUND:                -0.279
REMARK SMILES CC1=CC[C@@]23[C@@H]([C@@H]12)[C@H](C(C)C)CC[C@@H]3C
REMARK SMILES IDX 15 1 14 2 13 3 12 4 8 5 6 6 5 7 7 8 2 9 3 10 4 11 1 12 9 13
REMARK SMILES IDX 10 14 11 15
REMARK H PARENT
REMARK Flexibility Score: inf
ROOT
ATOM      1  C   UNL     1      16.396   4.424  16.832  1.00  0.00     0.008 C 
ATOM      2  C   UNL     1      15.784   5.431  17.822  1.00  0.00    -0.007 C 
ATOM      3  C   UNL     1      15.716   6.838  17.186  1.00  0.00     0.004 C 
ATOM      4  C   UNL     1      14.525   6.974  16.235  1.00  0.00     0.004 C 
ATOM      5  C   UNL     1      13.196   6.886  17.008  1.00  0.00    -0.004 C 
ATOM      6  C   UNL     1      13.111   5.604  17.879  1.00  0.00     0.007 C 
ATOM      7  C   UNL     1      14.408   4.917  18.335  1.00  0.00    -0.013 C 
ATOM      8  C   UNL     1      13.649   5.827  19.300  1.00  0.00     0.025 C 
ATOM      9  C   UNL     1      13.118   4.906  20.344  1.00  0.00    -0.073 C 
ATOM     10  C   UNL     1      13.467   3.645  20.139  1.00  0.00    -0.027 C 
ATOM     11  C   UNL     1      14.295   3.492  18.913  1.00  0.00     0.035 C 
ATOM     12  C   UNL     1      12.270   5.354  21.493  1.00  0.00     0.039 C 
ENDROOT
BRANCH   5  13
ATOM     13  C   UNL     1      11.971   7.048  16.057  1.00  0.00    -0.014 C 
ATOM     14  C   UNL     1      10.875   5.986  16.263  1.00  0.00     0.007 C 
ATOM     15  C   UNL     1      11.369   8.459  16.156  1.00  0.00     0.007 C 
ENDBRANCH   5  13
TORSDOF 1
ENDMDL
MODEL 6
REMARK VINA RESULT:    -4.386     11.166     14.421
REMARK INTER + INTRA:          -4.922
REMARK INTER:                  -4.700
REMARK INTRA:                  -0.222
REMARK UNBOUND:                -0.279
REMARK SMILES CC1=CC[C@@]23[C@@H]([C@@H]12)[C@H](C(C)C)CC[C@@H]3C
REMARK SMILES IDX 15 1 14 2 13 3 12 4 8 5 6 6 5 7 7 8 2 9 3 10 4 11 1 12 9 13
REMARK SMILES IDX 10 14 11 15
REMARK H PARENT
REMARK Flexibility Score: inf
ROOT
ATOM      1  C   UNL     1      12.274   6.457  33.511  1.00  0.00     0.008 C 
ATOM      2  C   UNL     1      13.125   5.972  32.324  1.00  0.00    -0.007 C 
ATOM      3  C   UNL     1      14.615   5.896  32.724  1.00  0.00     0.004 C 
ATOM      4  C   UNL     1      14.923   4.629  33.526  1.00  0.00     0.004 C 
ATOM      5  C   UNL     1      14.741   3.373  32.654  1.00  0.00    -0.004 C 
ATOM      6  C   UNL     1      13.340   3.322  31.988  1.00  0.00     0.007 C 
ATOM      7  C   UNL     1      12.564   4.631  31.769  1.00  0.00    -0.013 C 
ATOM      8  C   UNL     1      13.326   3.994  30.607  1.00  0.00     0.025 C 
ATOM      9  C   UNL     1      12.263   3.528  29.673  1.00  0.00    -0.073 C 
ATOM     10  C   UNL     1      11.042   3.813  30.103  1.00  0.00    -0.027 C 
ATOM     11  C   UNL     1      11.069   4.521  31.411  1.00  0.00     0.035 C 
ATOM     12  C   UNL     1      12.541   2.803  28.394  1.00  0.00     0.039 C 
ENDROOT
BRANCH   5  13
ATOM     13  C   UNL     1      15.075   2.074  33.449  1.00  0.00    -0.014 C 
ATOM     14  C   UNL     1      14.966   0.785  32.614  1.00  0.00     0.007 C 
ATOM     15  C   UNL     1      16.461   2.163  34.108  1.00  0.00     0.007 C 
ENDBRANCH   5  13
TORSDOF 1
ENDMDL
MODEL 7
REMARK VINA RESULT:    -4.312      1.378      5.057
REMARK INTER + INTRA:          -4.844
REMARK INTER:                  -4.614
REMARK INTRA:                  -0.230
REMARK UNBOUND:                -0.279
REMARK SMILES CC1=CC[C@@]23[C@@H]([C@@H]12)[C@H](C(C)C)CC[C@@H]3C
REMARK SMILES IDX 15 1 14 2 13 3 12 4 8 5 6 6 5 7 7 8 2 9 3 10 4 11 1 12 9 13
REMARK SMILES IDX 10 14 11 15
REMARK H PARENT
REMARK Flexibility Score: inf
ROOT
ATOM      1  C   UNL     1      15.763   3.709  18.901  1.00  0.00     0.008 C 
ATOM      2  C   UNL     1      14.241   3.699  18.673  1.00  0.00    -0.007 C 
ATOM      3  C   UNL     1      13.508   3.243  19.954  1.00  0.00     0.004 C 
ATOM      4  C   UNL     1      13.398   4.374  20.978  1.00  0.00     0.004 C 
ATOM      5  C   UNL     1      12.490   5.502  20.451  1.00  0.00    -0.004 C 
ATOM      6  C   UNL     1      12.943   6.011  19.056  1.00  0.00     0.007 C 
ATOM      7  C   UNL     1      13.764   5.083  18.147  1.00  0.00    -0.013 C 
ATOM      8  C   UNL     1      12.264   5.249  17.908  1.00  0.00     0.025 C 
ATOM      9  C   UNL     1      12.169   5.981  16.614  1.00  0.00    -0.073 C 
ATOM     10  C   UNL     1      13.355   6.233  16.080  1.00  0.00    -0.027 C 
ATOM     11  C   UNL     1      14.463   5.717  16.928  1.00  0.00     0.035 C 
ATOM     12  C   UNL     1      10.875   6.400  15.990  1.00  0.00     0.039 C 
ENDROOT
BRANCH   5  13
ATOM     13  C   UNL     1      12.346   6.653  21.492  1.00  0.00    -0.014 C 
ATOM     14  C   UNL     1      11.651   7.911  20.942  1.00  0.00     0.007 C 
ATOM     15  C   UNL     1      11.635   6.168  22.766  1.00  0.00     0.007 C 
ENDBRANCH   5  13
TORSDOF 1
ENDMDL
MODEL 8
REMARK VINA RESULT:    -4.311      2.318      5.175
REMARK INTER + INTRA:          -4.842
REMARK INTER:                  -4.621
REMARK INTRA:                  -0.222
REMARK UNBOUND:                -0.279
REMARK SMILES CC1=CC[C@@]23[C@@H]([C@@H]12)[C@H](C(C)C)CC[C@@H]3C
REMARK SMILES IDX 15 1 14 2 13 3 12 4 8 5 6 6 5 7 7 8 2 9 3 10 4 11 1 12 9 13
REMARK SMILES IDX 10 14 11 15
REMARK H PARENT
REMARK Flexibility Score: inf
ROOT
ATOM      1  C   UNL     1      15.953   0.551  21.142  1.00  0.00     0.008 C 
ATOM      2  C   UNL     1      15.642   2.029  21.437  1.00  0.00    -0.007 C 
ATOM      3  C   UNL     1      16.324   2.941  20.392  1.00  0.00     0.004 C 
ATOM      4  C   UNL     1      15.538   2.986  19.080  1.00  0.00     0.004 C 
ATOM      5  C   UNL     1      14.171   3.667  19.285  1.00  0.00    -0.004 C 
ATOM      6  C   UNL     1      13.360   3.012  20.435  1.00  0.00     0.007 C 
ATOM      7  C   UNL     1      14.106   2.248  21.541  1.00  0.00    -0.013 C 
ATOM      8  C   UNL     1      13.629   3.678  21.792  1.00  0.00     0.025 C 
ATOM      9  C   UNL     1      12.546   3.540  22.805  1.00  0.00    -0.073 C 
ATOM     10  C   UNL     1      12.351   2.284  23.178  1.00  0.00    -0.027 C 
ATOM     11  C   UNL     1      13.269   1.350  22.474  1.00  0.00     0.035 C 
ATOM     12  C   UNL     1      11.754   4.693  23.336  1.00  0.00     0.039 C 
ENDROOT
BRANCH   5  13
ATOM     13  C   UNL     1      13.367   3.744  17.951  1.00  0.00    -0.014 C 
ATOM     14  C   UNL     1      12.022   4.483  18.073  1.00  0.00     0.007 C 
ATOM     15  C   UNL     1      14.212   4.361  16.824  1.00  0.00     0.007 C 
ENDBRANCH   5  13
TORSDOF 1
ENDMDL
