MODEL 1
REMARK VINA RESULT:    -3.564      0.000      0.000
REMARK INTER + INTRA:          -3.912
REMARK INTER:                  -3.876
REMARK INTRA:                  -0.035
REMARK UNBOUND:                -0.035
REMARK SMILES O=C([O-])c1ccc(O)cc1
REMARK SMILES IDX 4 1 5 2 10 3 6 4 9 5 7 6 2 7 1 8 3 9 8 10
REMARK H PARENT 8 11
REMARK Flexibility Score: inf
ROOT
ATOM      1  C   UNL     1     -95.813 148.755 238.585  1.00  0.00    -0.003 A 
ATOM      2  C   UNL     1     -95.329 149.351 237.407  1.00  0.00     0.014 A 
ATOM      3  C   UNL     1     -95.271 147.523 238.998  1.00  0.00     0.014 A 
ATOM      4  C   UNL     1     -94.325 148.729 236.659  1.00  0.00     0.047 A 
ATOM      5  C   UNL     1     -94.268 146.904 238.247  1.00  0.00     0.047 A 
ATOM      6  C   UNL     1     -93.792 147.504 237.077  1.00  0.00     0.115 A 
ENDROOT
BRANCH   1   7
ATOM      7  C   UNL     1     -96.875 149.414 239.376  1.00  0.00     0.071 C 
ATOM      8  O   UNL     1     -97.164 150.624 239.179  1.00  0.00    -0.545 OA
ATOM      9  O   UNL     1     -97.572 148.706 240.349  1.00  0.00    -0.545 OA
ENDBRANCH   1   7
BRANCH   6  10
ATOM     10  O   UNL     1     -92.792 146.875 236.340  1.00  0.00    -0.508 OA
ATOM     11  H   UNL     1     -92.005 146.424 236.792  1.00  0.00     0.293 HD
ENDBRANCH   6  10
TORSDOF 2
ENDMDL
MODEL 2
REMARK VINA RESULT:    -3.554      0.042      1.532
REMARK INTER + INTRA:          -3.901
REMARK INTER:                  -3.866
REMARK INTRA:                  -0.035
REMARK UNBOUND:                -0.035
REMARK SMILES O=C([O-])c1ccc(O)cc1
REMARK SMILES IDX 4 1 5 2 10 3 6 4 9 5 7 6 2 7 1 8 3 9 8 10
REMARK H PARENT 8 11
REMARK Flexibility Score: inf
ROOT
ATOM      1  C   UNL     1     -95.814 148.754 238.595  1.00  0.00    -0.003 A 
ATOM      2  C   UNL     1     -95.309 147.506 239.001  1.00  0.00     0.014 A 
ATOM      3  C   UNL     1     -95.286 149.361 237.441  1.00  0.00     0.014 A 
ATOM      4  C   UNL     1     -94.297 146.879 238.268  1.00  0.00     0.047 A 
ATOM      5  C   UNL     1     -94.273 148.731 236.710  1.00  0.00     0.047 A 
ATOM      6  C   UNL     1     -93.776 147.491 237.121  1.00  0.00     0.115 A 
ENDROOT
BRANCH   1   7
ATOM      7  C   UNL     1     -96.885 149.416 239.373  1.00  0.00     0.071 C 
ATOM      8  O   UNL     1     -97.169 150.626 239.172  1.00  0.00    -0.545 OA
ATOM      9  O   UNL     1     -97.594 148.709 240.338  1.00  0.00    -0.545 OA
ENDBRANCH   1   7
BRANCH   6  10
ATOM     10  O   UNL     1     -92.768 146.875 236.383  1.00  0.00    -0.508 OA
ATOM     11  H   UNL     1     -91.937 146.504 236.827  1.00  0.00     0.293 HD
ENDBRANCH   6  10
TORSDOF 2
ENDMDL
MODEL 3
REMARK VINA RESULT:    -3.548      1.420      4.360
REMARK INTER + INTRA:          -3.894
REMARK INTER:                  -3.859
REMARK INTRA:                  -0.035
REMARK UNBOUND:                -0.035
REMARK SMILES O=C([O-])c1ccc(O)cc1
REMARK SMILES IDX 4 1 5 2 10 3 6 4 9 5 7 6 2 7 1 8 3 9 8 10
REMARK H PARENT 8 11
REMARK Flexibility Score: inf
ROOT
ATOM      1  C   UNL     1     -95.536 148.451 238.500  1.00  0.00    -0.003 A 
ATOM      2  C   UNL     1     -95.886 149.812 238.539  1.00  0.00     0.014 A 
ATOM      3  C   UNL     1     -96.250 147.539 239.299  1.00  0.00     0.014 A 
ATOM      4  C   UNL     1     -96.928 150.252 239.360  1.00  0.00     0.047 A 
ATOM      5  C   UNL     1     -97.291 147.983 240.120  1.00  0.00     0.047 A 
ATOM      6  C   UNL     1     -97.633 149.338 240.153  1.00  0.00     0.115 A 
ENDROOT
BRANCH   1   7
ATOM      7  C   UNL     1     -94.432 147.987 237.629  1.00  0.00     0.071 C 
ATOM      8  O   UNL     1     -93.878 146.875 237.834  1.00  0.00    -0.545 OA
ATOM      9  O   UNL     1     -93.991 148.775 236.572  1.00  0.00    -0.545 OA
ENDBRANCH   1   7
BRANCH   6  10
ATOM     10  O   UNL     1     -98.673 149.765 240.976  1.00  0.00    -0.508 OA
ATOM     11  H   UNL     1     -98.594 149.740 241.986  1.00  0.00     0.293 HD
ENDBRANCH   6  10
TORSDOF 2
ENDMDL
MODEL 4
REMARK VINA RESULT:    -3.547      1.419      4.598
REMARK INTER + INTRA:          -3.894
REMARK INTER:                  -3.859
REMARK INTRA:                  -0.035
REMARK UNBOUND:                -0.035
REMARK SMILES O=C([O-])c1ccc(O)cc1
REMARK SMILES IDX 4 1 5 2 10 3 6 4 9 5 7 6 2 7 1 8 3 9 8 10
REMARK H PARENT 8 11
REMARK Flexibility Score: inf
ROOT
ATOM      1  C   UNL     1     -95.539 148.448 238.495  1.00  0.00    -0.003 A 
ATOM      2  C   UNL     1     -96.261 147.535 239.283  1.00  0.00     0.014 A 
ATOM      3  C   UNL     1     -95.893 149.809 238.531  1.00  0.00     0.014 A 
ATOM      4  C   UNL     1     -97.314 147.974 240.090  1.00  0.00     0.047 A 
ATOM      5  C   UNL     1     -96.948 150.245 239.339  1.00  0.00     0.047 A 
ATOM      6  C   UNL     1     -97.661 149.330 240.119  1.00  0.00     0.115 A 
ENDROOT
BRANCH   1   7
ATOM      7  C   UNL     1     -94.424 147.981 237.642  1.00  0.00     0.071 C 
ATOM      8  O   UNL     1     -93.864 146.875 237.866  1.00  0.00    -0.545 OA
ATOM      9  O   UNL     1     -93.977 148.758 236.578  1.00  0.00    -0.545 OA
ENDBRANCH   1   7
BRANCH   6  10
ATOM     10  O   UNL     1     -98.709 149.779 240.920  1.00  0.00    -0.508 OA
ATOM     11  H   UNL     1     -99.161 150.670 240.749  1.00  0.00     0.293 HD
ENDBRANCH   6  10
TORSDOF 2
ENDMDL
MODEL 5
REMARK VINA RESULT:    -3.479      2.109      2.667
REMARK INTER + INTRA:          -3.819
REMARK INTER:                  -3.792
REMARK INTRA:                  -0.027
REMARK UNBOUND:                -0.035
REMARK SMILES O=C([O-])c1ccc(O)cc1
REMARK SMILES IDX 4 1 5 2 10 3 6 4 9 5 7 6 2 7 1 8 3 9 8 10
REMARK H PARENT 8 11
REMARK Flexibility Score: inf
ROOT
ATOM      1  C   UNL     1     -97.759 149.529 240.048  1.00  0.00    -0.003 A 
ATOM      2  C   UNL     1     -96.899 150.264 239.213  1.00  0.00     0.014 A 
ATOM      3  C   UNL     1     -97.517 148.155 240.237  1.00  0.00     0.014 A 
ATOM      4  C   UNL     1     -95.821 149.639 238.580  1.00  0.00     0.047 A 
ATOM      5  C   UNL     1     -96.437 147.533 239.601  1.00  0.00     0.047 A 
ATOM      6  C   UNL     1     -95.588 148.272 238.772  1.00  0.00     0.115 A 
ENDROOT
BRANCH   1   7
ATOM      7  C   UNL     1     -98.900 150.193 240.717  1.00  0.00     0.071 C 
ATOM      8  O   UNL     1    -100.015 150.285 240.141  1.00  0.00    -0.545 OA
ATOM      9  O   UNL     1     -98.755 150.724 241.994  1.00  0.00    -0.545 OA
ENDBRANCH   1   7
BRANCH   6  10
ATOM     10  O   UNL     1     -94.516 147.638 238.147  1.00  0.00    -0.508 OA
ATOM     11  H   UNL     1     -94.147 146.759 238.490  1.00  0.00     0.293 HD
ENDBRANCH   6  10
TORSDOF 2
ENDMDL
MODEL 6
REMARK VINA RESULT:    -3.383      1.218      2.017
REMARK INTER + INTRA:          -3.715
REMARK INTER:                  -3.686
REMARK INTRA:                  -0.029
REMARK UNBOUND:                -0.035
REMARK SMILES O=C([O-])c1ccc(O)cc1
REMARK SMILES IDX 4 1 5 2 10 3 6 4 9 5 7 6 2 7 1 8 3 9 8 10
REMARK H PARENT 8 11
REMARK Flexibility Score: inf
ROOT
ATOM      1  C   UNL     1     -95.263 148.529 237.648  1.00  0.00    -0.003 A 
ATOM      2  C   UNL     1     -94.292 147.534 237.860  1.00  0.00     0.014 A 
ATOM      3  C   UNL     1     -95.515 148.967 236.334  1.00  0.00     0.014 A 
ATOM      4  C   UNL     1     -93.590 146.989 236.781  1.00  0.00     0.047 A 
ATOM      5  C   UNL     1     -94.810 148.420 235.258  1.00  0.00     0.047 A 
ATOM      6  C   UNL     1     -93.846 147.431 235.478  1.00  0.00     0.115 A 
ENDROOT
BRANCH   1   7
ATOM      7  C   UNL     1     -96.006 149.105 238.791  1.00  0.00     0.071 C 
ATOM      8  O   UNL     1     -95.999 150.347 238.999  1.00  0.00    -0.545 OA
ATOM      9  O   UNL     1     -96.723 148.282 239.651  1.00  0.00    -0.545 OA
ENDBRANCH   1   7
BRANCH   6  10
ATOM     10  O   UNL     1     -93.153 146.894 234.395  1.00  0.00    -0.508 OA
ATOM     11  H   UNL     1     -92.182 146.613 234.475  1.00  0.00     0.293 HD
ENDBRANCH   6  10
TORSDOF 2
ENDMDL
MODEL 7
REMARK VINA RESULT:    -3.266      2.236      4.603
REMARK INTER + INTRA:          -3.588
REMARK INTER:                  -3.560
REMARK INTRA:                  -0.028
REMARK UNBOUND:                -0.035
REMARK SMILES O=C([O-])c1ccc(O)cc1
REMARK SMILES IDX 4 1 5 2 10 3 6 4 9 5 7 6 2 7 1 8 3 9 8 10
REMARK H PARENT 8 11
REMARK Flexibility Score: inf
ROOT
ATOM      1  C   UNL     1     -96.223 149.157 238.057  1.00  0.00    -0.003 A 
ATOM      2  C   UNL     1     -96.647 150.014 239.088  1.00  0.00     0.014 A 
ATOM      3  C   UNL     1     -97.058 148.970 236.939  1.00  0.00     0.014 A 
ATOM      4  C   UNL     1     -97.878 150.670 239.003  1.00  0.00     0.047 A 
ATOM      5  C   UNL     1     -98.289 149.628 236.858  1.00  0.00     0.047 A 
ATOM      6  C   UNL     1     -98.702 150.479 237.888  1.00  0.00     0.115 A 
ENDROOT
BRANCH   1   7
ATOM      7  C   UNL     1     -94.920 148.463 238.149  1.00  0.00     0.071 C 
ATOM      8  O   UNL     1     -94.727 147.574 239.020  1.00  0.00    -0.545 OA
ATOM      9  O   UNL     1     -93.888 148.783 237.274  1.00  0.00    -0.545 OA
ENDBRANCH   1   7
BRANCH   6  10
ATOM     10  O   UNL     1     -99.931 151.128 237.792  1.00  0.00    -0.508 OA
ATOM     11  H   UNL     1     -99.995 152.106 237.536  1.00  0.00     0.293 HD
ENDBRANCH   6  10
TORSDOF 2
ENDMDL
MODEL 8
REMARK VINA RESULT:    -3.248      1.402      4.344
REMARK INTER + INTRA:          -3.569
REMARK INTER:                  -3.535
REMARK INTRA:                  -0.033
REMARK UNBOUND:                -0.035
REMARK SMILES O=C([O-])c1ccc(O)cc1
REMARK SMILES IDX 4 1 5 2 10 3 6 4 9 5 7 6 2 7 1 8 3 9 8 10
REMARK H PARENT 8 11
REMARK Flexibility Score: inf
ROOT
ATOM      1  C   UNL     1     -95.196 148.624 236.826  1.00  0.00    -0.003 A 
ATOM      2  C   UNL     1     -96.570 148.829 236.609  1.00  0.00     0.014 A 
ATOM      3  C   UNL     1     -94.622 149.069 238.031  1.00  0.00     0.014 A 
ATOM      4  C   UNL     1     -97.353 149.466 237.576  1.00  0.00     0.047 A 
ATOM      5  C   UNL     1     -95.408 149.706 238.997  1.00  0.00     0.047 A 
ATOM      6  C   UNL     1     -96.773 149.907 238.772  1.00  0.00     0.115 A 
ENDROOT
BRANCH   1   7
ATOM      7  C   UNL     1     -94.369 147.949 235.800  1.00  0.00     0.071 C 
ATOM      8  O   UNL     1     -94.653 148.053 234.578  1.00  0.00    -0.545 OA
ATOM      9  O   UNL     1     -93.266 147.190 236.173  1.00  0.00    -0.545 OA
ENDBRANCH   1   7
BRANCH   6  10
ATOM     10  O   UNL     1     -97.543 150.542 239.744  1.00  0.00    -0.508 OA
ATOM     11  H   UNL     1     -98.457 150.925 239.529  1.00  0.00     0.293 HD
ENDBRANCH   6  10
TORSDOF 2
ENDMDL
MODEL 9
REMARK VINA RESULT:    -3.137      7.465      8.307
REMARK INTER + INTRA:          -3.448
REMARK INTER:                  -3.421
REMARK INTRA:                  -0.027
REMARK UNBOUND:                -0.035
REMARK SMILES O=C([O-])c1ccc(O)cc1
REMARK SMILES IDX 4 1 5 2 10 3 6 4 9 5 7 6 2 7 1 8 3 9 8 10
REMARK H PARENT 8 11
REMARK Flexibility Score: inf
ROOT
ATOM      1  C   UNL     1     -97.501 153.591 232.290  1.00  0.00    -0.003 A 
ATOM      2  C   UNL     1     -97.873 153.644 230.935  1.00  0.00     0.014 A 
ATOM      3  C   UNL     1     -96.417 152.778 232.669  1.00  0.00     0.014 A 
ATOM      4  C   UNL     1     -97.176 152.899 229.980  1.00  0.00     0.047 A 
ATOM      5  C   UNL     1     -95.722 152.034 231.710  1.00  0.00     0.047 A 
ATOM      6  C   UNL     1     -96.099 152.092 230.365  1.00  0.00     0.115 A 
ENDROOT
BRANCH   1   7
ATOM      7  C   UNL     1     -98.241 154.380 233.300  1.00  0.00     0.071 C 
ATOM      8  O   UNL     1     -99.139 153.844 234.001  1.00  0.00    -0.545 OA
ATOM      9  O   UNL     1     -97.953 155.727 233.490  1.00  0.00    -0.545 OA
ENDBRANCH   1   7
BRANCH   6  10
ATOM     10  O   UNL     1     -95.396 151.346 229.422  1.00  0.00    -0.508 OA
ATOM     11  H   UNL     1     -95.802 151.110 228.523  1.00  0.00     0.293 HD
ENDBRANCH   6  10
TORSDOF 2
ENDMDL
