MODEL 1
REMARK VINA RESULT:    -5.336      0.000      0.000
REMARK INTER + INTRA:          -6.954
REMARK INTER:                  -6.584
REMARK INTRA:                  -0.370
REMARK UNBOUND:                -0.370
REMARK SMILES COc1cc(-c2oc3cc(O)cc(O)c3c(=O)c2O)ccc1O
REMARK SMILES IDX 6 1 18 2 16 3 17 4 15 5 13 6 12 7 10 8 9 9 8 10 7 11 5 12
REMARK SMILES IDX 3 13 22 14 4 15 21 16 20 17 2 18 1 19 23 20 19 22 14 24
REMARK SMILES IDX 11 26
REMARK H PARENT 23 21 19 23 14 25 11 27
REMARK Flexibility Score: inf
ROOT
ATOM      1  C   UNL     1     125.032  16.173 150.833  1.00  0.00     0.180 A 
ATOM      2  C   UNL     1     126.365  15.894 151.182  1.00  0.00     0.208 A 
ATOM      3  C   UNL     1     127.302  16.940 151.183  1.00  0.00     0.238 A 
ATOM      4  O   UNL     1     128.481  16.695 151.549  1.00  0.00    -0.285 OA
ATOM      5  C   UNL     1     126.898  18.247 150.821  1.00  0.00     0.111 A 
ATOM      6  C   UNL     1     127.771  19.374 150.749  1.00  0.00     0.134 A 
ATOM      7  C   UNL     1     127.238  20.647 150.506  1.00  0.00     0.093 A 
ATOM      8  C   UNL     1     125.876  20.823 150.269  1.00  0.00     0.123 A 
ATOM      9  C   UNL     1     125.022  19.719 150.277  1.00  0.00     0.094 A 
ATOM     10  C   UNL     1     125.518  18.443 150.553  1.00  0.00     0.146 A 
ATOM     11  O   UNL     1     124.670  17.421 150.562  1.00  0.00    -0.452 OA
ENDROOT
BRANCH   1  12
ATOM     12  C   UNL     1     123.994  15.118 150.784  1.00  0.00     0.025 A 
ATOM     13  C   UNL     1     122.361  13.668 151.888  1.00  0.00     0.161 A 
ATOM     14  C   UNL     1     122.068  13.073 150.653  1.00  0.00     0.157 A 
ATOM     15  C   UNL     1     123.333  14.688 151.949  1.00  0.00     0.062 A 
ATOM     16  C   UNL     1     122.741  13.484 149.496  1.00  0.00     0.051 A 
ATOM     17  C   UNL     1     123.701  14.495 149.562  1.00  0.00     0.016 A 
BRANCH  13  18
ATOM     18  O   UNL     1     121.675  13.220 153.027  1.00  0.00    -0.493 OA
ATOM     19  C   UNL     1     121.263  14.057 154.102  1.00  0.00     0.278 C 
ENDBRANCH  13  18
BRANCH  14  20
ATOM     20  O   UNL     1     121.106  12.067 150.585  1.00  0.00    -0.504 OA
ATOM     21  H   UNL     1     121.222  11.260 149.984  1.00  0.00     0.293 HD
ENDBRANCH  14  20
ENDBRANCH   1  12
BRANCH   2  22
ATOM     22  O   UNL     1     126.738  14.600 151.558  1.00  0.00    -0.502 OA
ATOM     23  H   UNL     1     127.649  14.387 151.945  1.00  0.00     0.293 HD
ENDBRANCH   2  22
BRANCH   6  24
ATOM     24  O   UNL     1     129.161  19.295 150.881  1.00  0.00    -0.507 OA
ATOM     25  H   UNL     1     129.665  18.467 151.157  1.00  0.00     0.293 HD
ENDBRANCH   6  24
BRANCH   8  26
ATOM     26  O   UNL     1     125.382  22.101 150.015  1.00  0.00    -0.508 OA
ATOM     27  H   UNL     1     124.707  22.540 150.630  1.00  0.00     0.293 HD
ENDBRANCH   8  26
TORSDOF 6
ENDMDL
MODEL 2
REMARK VINA RESULT:    -4.447     11.265     14.062
REMARK INTER + INTRA:          -5.858
REMARK INTER:                  -5.506
REMARK INTRA:                  -0.351
REMARK UNBOUND:                -0.370
REMARK SMILES COc1cc(-c2oc3cc(O)cc(O)c3c(=O)c2O)ccc1O
REMARK SMILES IDX 6 1 18 2 16 3 17 4 15 5 13 6 12 7 10 8 9 9 8 10 7 11 5 12
REMARK SMILES IDX 3 13 22 14 4 15 21 16 20 17 2 18 1 19 23 20 19 22 14 24
REMARK SMILES IDX 11 26
REMARK H PARENT 23 21 19 23 14 25 11 27
REMARK Flexibility Score: inf
ROOT
ATOM      1  C   UNL     1     116.036  16.316 141.660  1.00  0.00     0.180 A 
ATOM      2  C   UNL     1     115.056  15.324 141.840  1.00  0.00     0.208 A 
ATOM      3  C   UNL     1     114.820  14.827 143.131  1.00  0.00     0.238 A 
ATOM      4  O   UNL     1     113.904  13.978 143.295  1.00  0.00    -0.285 OA
ATOM      5  C   UNL     1     115.576  15.316 144.223  1.00  0.00     0.111 A 
ATOM      6  C   UNL     1     115.449  14.855 145.568  1.00  0.00     0.134 A 
ATOM      7  C   UNL     1     116.157  15.502 146.590  1.00  0.00     0.093 A 
ATOM      8  C   UNL     1     117.034  16.547 146.308  1.00  0.00     0.123 A 
ATOM      9  C   UNL     1     117.212  16.966 144.988  1.00  0.00     0.094 A 
ATOM     10  C   UNL     1     116.493  16.365 143.953  1.00  0.00     0.146 A 
ATOM     11  O   UNL     1     116.683  16.801 142.713  1.00  0.00    -0.452 OA
ENDROOT
BRANCH   1  12
ATOM     12  C   UNL     1     116.359  16.870 140.325  1.00  0.00     0.025 A 
ATOM     13  C   UNL     1     116.131  18.604 138.614  1.00  0.00     0.161 A 
ATOM     14  C   UNL     1     116.955  17.858 137.760  1.00  0.00     0.157 A 
ATOM     15  C   UNL     1     115.830  18.100 139.896  1.00  0.00     0.062 A 
ATOM     16  C   UNL     1     117.465  16.622 138.176  1.00  0.00     0.051 A 
ATOM     17  C   UNL     1     117.163  16.129 139.447  1.00  0.00     0.016 A 
BRANCH  13  18
ATOM     18  O   UNL     1     115.629  19.832 138.157  1.00  0.00    -0.493 OA
ATOM     19  C   UNL     1     114.971  20.792 138.977  1.00  0.00     0.278 C 
ENDBRANCH  13  18
BRANCH  14  20
ATOM     20  O   UNL     1     117.259  18.352 136.493  1.00  0.00    -0.504 OA
ATOM     21  H   UNL     1     117.694  17.771 135.787  1.00  0.00     0.293 HD
ENDBRANCH  14  20
ENDBRANCH   1  12
BRANCH   2  22
ATOM     22  O   UNL     1     114.305  14.871 140.751  1.00  0.00    -0.502 OA
ATOM     23  H   UNL     1     113.556  15.416 140.342  1.00  0.00     0.293 HD
ENDBRANCH   2  22
BRANCH   6  24
ATOM     24  O   UNL     1     114.669  13.758 145.948  1.00  0.00    -0.507 OA
ATOM     25  H   UNL     1     113.689  13.805 146.182  1.00  0.00     0.293 HD
ENDBRANCH   6  24
BRANCH   8  26
ATOM     26  O   UNL     1     117.734  17.157 147.347  1.00  0.00    -0.508 OA
ATOM     27  H   UNL     1     118.606  16.774 147.695  1.00  0.00     0.293 HD
ENDBRANCH   8  26
TORSDOF 6
ENDMDL
MODEL 3
REMARK VINA RESULT:    -4.401     14.880     17.414
REMARK INTER + INTRA:          -5.801
REMARK INTER:                  -5.412
REMARK INTRA:                  -0.389
REMARK UNBOUND:                -0.370
REMARK SMILES COc1cc(-c2oc3cc(O)cc(O)c3c(=O)c2O)ccc1O
REMARK SMILES IDX 6 1 18 2 16 3 17 4 15 5 13 6 12 7 10 8 9 9 8 10 7 11 5 12
REMARK SMILES IDX 3 13 22 14 4 15 21 16 20 17 2 18 1 19 23 20 19 22 14 24
REMARK SMILES IDX 11 26
REMARK H PARENT 23 21 19 23 14 25 11 27
REMARK Flexibility Score: inf
ROOT
ATOM      1  C   UNL     1     122.165   4.011 140.583  1.00  0.00     0.180 A 
ATOM      2  C   UNL     1     121.237   4.241 139.553  1.00  0.00     0.208 A 
ATOM      3  C   UNL     1     119.897   4.498 139.888  1.00  0.00     0.238 A 
ATOM      4  O   UNL     1     119.082   4.757 138.965  1.00  0.00    -0.285 OA
ATOM      5  C   UNL     1     119.501   4.506 141.247  1.00  0.00     0.111 A 
ATOM      6  C   UNL     1     118.164   4.715 141.700  1.00  0.00     0.134 A 
ATOM      7  C   UNL     1     117.909   4.831 143.072  1.00  0.00     0.093 A 
ATOM      8  C   UNL     1     118.930   4.682 144.009  1.00  0.00     0.123 A 
ATOM      9  C   UNL     1     120.232   4.418 143.579  1.00  0.00     0.094 A 
ATOM     10  C   UNL     1     120.523   4.332 142.216  1.00  0.00     0.146 A 
ATOM     11  O   UNL     1     121.776   4.090 141.849  1.00  0.00    -0.452 OA
ENDROOT
BRANCH   1  12
ATOM     12  C   UNL     1     123.589   3.709 140.306  1.00  0.00     0.025 A 
ATOM     13  C   UNL     1     125.893   4.430 139.912  1.00  0.00     0.161 A 
ATOM     14  C   UNL     1     126.271   3.092 139.725  1.00  0.00     0.157 A 
ATOM     15  C   UNL     1     124.546   4.733 140.195  1.00  0.00     0.062 A 
ATOM     16  C   UNL     1     125.315   2.073 139.813  1.00  0.00     0.051 A 
ATOM     17  C   UNL     1     123.982   2.380 140.094  1.00  0.00     0.016 A 
BRANCH  13  18
ATOM     18  O   UNL     1     126.877   5.425 139.804  1.00  0.00    -0.493 OA
ATOM     19  C   UNL     1     126.610   6.799 139.547  1.00  0.00     0.278 C 
ENDBRANCH  13  18
BRANCH  14  20
ATOM     20  O   UNL     1     127.601   2.785 139.448  1.00  0.00    -0.504 OA
ATOM     21  H   UNL     1     128.349   3.043 140.081  1.00  0.00     0.293 HD
ENDBRANCH  14  20
ENDBRANCH   1  12
BRANCH   2  22
ATOM     22  O   UNL     1     121.654   4.251 138.218  1.00  0.00    -0.502 OA
ATOM     23  H   UNL     1     122.159   3.480 137.801  1.00  0.00     0.293 HD
ENDBRANCH   2  22
BRANCH   6  24
ATOM     24  O   UNL     1     117.054   4.787 140.852  1.00  0.00    -0.507 OA
ATOM     25  H   UNL     1     116.732   5.629 140.398  1.00  0.00     0.293 HD
ENDBRANCH   6  24
BRANCH   8  26
ATOM     26  O   UNL     1     118.639   4.789 145.367  1.00  0.00    -0.508 OA
ATOM     27  H   UNL     1     119.366   4.735 146.071  1.00  0.00     0.293 HD
ENDBRANCH   8  26
TORSDOF 6
ENDMDL
MODEL 4
REMARK VINA RESULT:    -4.361      5.075      8.478
REMARK INTER + INTRA:          -5.752
REMARK INTER:                  -5.380
REMARK INTRA:                  -0.372
REMARK UNBOUND:                -0.370
REMARK SMILES COc1cc(-c2oc3cc(O)cc(O)c3c(=O)c2O)ccc1O
REMARK SMILES IDX 6 1 18 2 16 3 17 4 15 5 13 6 12 7 10 8 9 9 8 10 7 11 5 12
REMARK SMILES IDX 3 13 22 14 4 15 21 16 20 17 2 18 1 19 23 20 19 22 14 24
REMARK SMILES IDX 11 26
REMARK H PARENT 23 21 19 23 14 25 11 27
REMARK Flexibility Score: inf
ROOT
ATOM      1  C   UNL     1     129.427  13.750 152.034  1.00  0.00     0.180 A 
ATOM      2  C   UNL     1     128.724  12.738 152.710  1.00  0.00     0.208 A 
ATOM      3  C   UNL     1     129.224  11.426 152.683  1.00  0.00     0.238 A 
ATOM      4  O   UNL     1     128.620  10.534 153.334  1.00  0.00    -0.285 OA
ATOM      5  C   UNL     1     130.411  11.141 151.966  1.00  0.00     0.111 A 
ATOM      6  C   UNL     1     130.987   9.841 151.837  1.00  0.00     0.134 A 
ATOM      7  C   UNL     1     132.234   9.696 151.215  1.00  0.00     0.093 A 
ATOM      8  C   UNL     1     132.893  10.792 150.661  1.00  0.00     0.123 A 
ATOM      9  C   UNL     1     132.311  12.058 150.729  1.00  0.00     0.094 A 
ATOM     10  C   UNL     1     131.086  12.240 151.375  1.00  0.00     0.146 A 
ATOM     11  O   UNL     1     130.572  13.463 151.427  1.00  0.00    -0.452 OA
ENDROOT
BRANCH   1  12
ATOM     12  C   UNL     1     128.948  15.151 151.998  1.00  0.00     0.025 A 
ATOM     13  C   UNL     1     127.787  16.988 150.874  1.00  0.00     0.161 A 
ATOM     14  C   UNL     1     128.105  17.834 151.946  1.00  0.00     0.157 A 
ATOM     15  C   UNL     1     128.219  15.646 150.902  1.00  0.00     0.062 A 
ATOM     16  C   UNL     1     128.850  17.348 153.027  1.00  0.00     0.051 A 
ATOM     17  C   UNL     1     129.274  16.019 153.050  1.00  0.00     0.016 A 
BRANCH  13  18
ATOM     18  O   UNL     1     127.050  17.514 149.802  1.00  0.00    -0.493 OA
ATOM     19  C   UNL     1     127.623  18.074 148.625  1.00  0.00     0.278 C 
ENDBRANCH  13  18
BRANCH  14  20
ATOM     20  O   UNL     1     127.679  19.161 151.926  1.00  0.00    -0.504 OA
ATOM     21  H   UNL     1     127.657  19.724 152.767  1.00  0.00     0.293 HD
ENDBRANCH  14  20
ENDBRANCH   1  12
BRANCH   2  22
ATOM     22  O   UNL     1     127.566  13.045 153.430  1.00  0.00    -0.502 OA
ATOM     23  H   UNL     1     126.670  12.617 153.229  1.00  0.00     0.293 HD
ENDBRANCH   2  22
BRANCH   6  24
ATOM     24  O   UNL     1     130.368   8.665 152.274  1.00  0.00    -0.507 OA
ATOM     25  H   UNL     1     129.436   8.377 152.018  1.00  0.00     0.293 HD
ENDBRANCH   6  24
BRANCH   8  26
ATOM     26  O   UNL     1     134.125  10.609 150.035  1.00  0.00    -0.508 OA
ATOM     27  H   UNL     1     134.217  10.643 149.026  1.00  0.00     0.293 HD
ENDBRANCH   8  26
TORSDOF 6
ENDMDL
MODEL 5
REMARK VINA RESULT:    -4.355     11.672     13.807
REMARK INTER + INTRA:          -5.743
REMARK INTER:                  -5.372
REMARK INTRA:                  -0.371
REMARK UNBOUND:                -0.370
REMARK SMILES COc1cc(-c2oc3cc(O)cc(O)c3c(=O)c2O)ccc1O
REMARK SMILES IDX 6 1 18 2 16 3 17 4 15 5 13 6 12 7 10 8 9 9 8 10 7 11 5 12
REMARK SMILES IDX 3 13 22 14 4 15 21 16 20 17 2 18 1 19 23 20 19 22 14 24
REMARK SMILES IDX 11 26
REMARK H PARENT 23 21 19 23 14 25 11 27
REMARK Flexibility Score: inf
ROOT
ATOM      1  C   UNL     1     116.088  16.925 141.841  1.00  0.00     0.180 A 
ATOM      2  C   UNL     1     115.686  18.263 141.688  1.00  0.00     0.208 A 
ATOM      3  C   UNL     1     115.732  18.847 140.412  1.00  0.00     0.238 A 
ATOM      4  O   UNL     1     115.320  20.028 140.272  1.00  0.00    -0.285 OA
ATOM      5  C   UNL     1     116.194  18.090 139.308  1.00  0.00     0.111 A 
ATOM      6  C   UNL     1     116.320  18.592 137.978  1.00  0.00     0.134 A 
ATOM      7  C   UNL     1     116.664  17.717 136.939  1.00  0.00     0.093 A 
ATOM      8  C   UNL     1     116.948  16.376 137.192  1.00  0.00     0.123 A 
ATOM      9  C   UNL     1     116.886  15.889 138.498  1.00  0.00     0.094 A 
ATOM     10  C   UNL     1     116.511  16.728 139.549  1.00  0.00     0.146 A 
ATOM     11  O   UNL     1     116.453  16.222 140.775  1.00  0.00    -0.452 OA
ENDROOT
BRANCH   1  12
ATOM     12  C   UNL     1     116.091  16.249 143.159  1.00  0.00     0.025 A 
ATOM     13  C   UNL     1     115.035  14.805 144.827  1.00  0.00     0.161 A 
ATOM     14  C   UNL     1     116.113  15.030 145.694  1.00  0.00     0.157 A 
ATOM     15  C   UNL     1     115.025  15.424 143.561  1.00  0.00     0.062 A 
ATOM     16  C   UNL     1     117.164  15.869 145.304  1.00  0.00     0.051 A 
ATOM     17  C   UNL     1     117.150  16.480 144.049  1.00  0.00     0.016 A 
BRANCH  13  18
ATOM     18  O   UNL     1     113.993  13.967 145.257  1.00  0.00    -0.493 OA
ATOM     19  C   UNL     1     113.876  12.588 144.923  1.00  0.00     0.278 C 
ENDBRANCH  13  18
BRANCH  14  20
ATOM     20  O   UNL     1     116.130  14.418 146.945  1.00  0.00    -0.504 OA
ATOM     21  H   UNL     1     115.495  13.664 147.176  1.00  0.00     0.293 HD
ENDBRANCH  14  20
ENDBRANCH   1  12
BRANCH   2  22
ATOM     22  O   UNL     1     115.213  18.985 142.787  1.00  0.00    -0.502 OA
ATOM     23  H   UNL     1     115.015  19.978 142.742  1.00  0.00     0.293 HD
ENDBRANCH   2  22
BRANCH   6  24
ATOM     24  O   UNL     1     116.148  19.935 137.630  1.00  0.00    -0.507 OA
ATOM     25  H   UNL     1     116.741  20.444 136.992  1.00  0.00     0.293 HD
ENDBRANCH   6  24
BRANCH   8  26
ATOM     26  O   UNL     1     117.302  15.538 136.137  1.00  0.00    -0.508 OA
ATOM     27  H   UNL     1     117.179  14.533 136.194  1.00  0.00     0.293 HD
ENDBRANCH   8  26
TORSDOF 6
ENDMDL
MODEL 6
REMARK VINA RESULT:    -4.304     14.629     16.753
REMARK INTER + INTRA:          -5.680
REMARK INTER:                  -5.288
REMARK INTRA:                  -0.392
REMARK UNBOUND:                -0.370
REMARK SMILES COc1cc(-c2oc3cc(O)cc(O)c3c(=O)c2O)ccc1O
REMARK SMILES IDX 6 1 18 2 16 3 17 4 15 5 13 6 12 7 10 8 9 9 8 10 7 11 5 12
REMARK SMILES IDX 3 13 22 14 4 15 21 16 20 17 2 18 1 19 23 20 19 22 14 24
REMARK SMILES IDX 11 26
REMARK H PARENT 23 21 19 23 14 25 11 27
REMARK Flexibility Score: inf
ROOT
ATOM      1  C   UNL     1     127.314   8.224 137.520  1.00  0.00     0.180 A 
ATOM      2  C   UNL     1     128.186   7.495 136.693  1.00  0.00     0.208 A 
ATOM      3  C   UNL     1     129.087   6.593 137.281  1.00  0.00     0.238 A 
ATOM      4  O   UNL     1     129.827   5.903 136.533  1.00  0.00    -0.285 OA
ATOM      5  C   UNL     1     129.117   6.445 138.689  1.00  0.00     0.111 A 
ATOM      6  C   UNL     1     130.017   5.591 139.395  1.00  0.00     0.134 A 
ATOM      7  C   UNL     1     129.869   5.425 140.778  1.00  0.00     0.093 A 
ATOM      8  C   UNL     1     128.899   6.130 141.489  1.00  0.00     0.123 A 
ATOM      9  C   UNL     1     128.053   7.013 140.817  1.00  0.00     0.094 A 
ATOM     10  C   UNL     1     128.152   7.173 139.433  1.00  0.00     0.146 A 
ATOM     11  O   UNL     1     127.320   8.015 138.831  1.00  0.00    -0.452 OA
ENDROOT
BRANCH   1  12
ATOM     12  C   UNL     1     126.353   9.211 136.974  1.00  0.00     0.025 A 
ATOM     13  C   UNL     1     124.196   9.766 135.963  1.00  0.00     0.161 A 
ATOM     14  C   UNL     1     124.582  11.112 135.896  1.00  0.00     0.157 A 
ATOM     15  C   UNL     1     125.091   8.817 136.498  1.00  0.00     0.062 A 
ATOM     16  C   UNL     1     125.848  11.503 136.350  1.00  0.00     0.051 A 
ATOM     17  C   UNL     1     126.730  10.559 136.878  1.00  0.00     0.016 A 
BRANCH  13  18
ATOM     18  O   UNL     1     122.924   9.410 135.488  1.00  0.00    -0.493 OA
ATOM     19  C   UNL     1     121.797   9.145 136.317  1.00  0.00     0.278 C 
ENDBRANCH  13  18
BRANCH  14  20
ATOM     20  O   UNL     1     123.701  12.056 135.372  1.00  0.00    -0.504 OA
ATOM     21  H   UNL     1     123.577  12.963 135.804  1.00  0.00     0.293 HD
ENDBRANCH  14  20
ENDBRANCH   1  12
BRANCH   2  22
ATOM     22  O   UNL     1     128.124   7.640 135.304  1.00  0.00    -0.502 OA
ATOM     23  H   UNL     1     128.898   7.398 134.697  1.00  0.00     0.293 HD
ENDBRANCH   2  22
BRANCH   6  24
ATOM     24  O   UNL     1     131.080   4.910 138.795  1.00  0.00    -0.507 OA
ATOM     25  H   UNL     1     131.242   4.859 137.801  1.00  0.00     0.293 HD
ENDBRANCH   6  24
BRANCH   8  26
ATOM     26  O   UNL     1     128.792   5.952 142.866  1.00  0.00    -0.508 OA
ATOM     27  H   UNL     1     129.308   5.226 143.349  1.00  0.00     0.293 HD
ENDBRANCH   8  26
TORSDOF 6
ENDMDL
MODEL 7
REMARK VINA RESULT:    -4.263     14.515     16.518
REMARK INTER + INTRA:          -5.630
REMARK INTER:                  -5.348
REMARK INTRA:                  -0.281
REMARK UNBOUND:                -0.370
REMARK SMILES COc1cc(-c2oc3cc(O)cc(O)c3c(=O)c2O)ccc1O
REMARK SMILES IDX 6 1 18 2 16 3 17 4 15 5 13 6 12 7 10 8 9 9 8 10 7 11 5 12
REMARK SMILES IDX 3 13 22 14 4 15 21 16 20 17 2 18 1 19 23 20 19 22 14 24
REMARK SMILES IDX 11 26
REMARK H PARENT 23 21 19 23 14 25 11 27
REMARK Flexibility Score: inf
ROOT
ATOM      1  C   UNL     1     128.869   5.832 140.226  1.00  0.00     0.180 A 
ATOM      2  C   UNL     1     127.815   4.958 140.545  1.00  0.00     0.208 A 
ATOM      3  C   UNL     1     126.547   5.188 139.987  1.00  0.00     0.238 A 
ATOM      4  O   UNL     1     125.621   4.371 140.232  1.00  0.00    -0.285 OA
ATOM      5  C   UNL     1     126.346   6.296 139.130  1.00  0.00     0.111 A 
ATOM      6  C   UNL     1     125.094   6.648 138.540  1.00  0.00     0.134 A 
ATOM      7  C   UNL     1     125.040   7.690 137.605  1.00  0.00     0.093 A 
ATOM      8  C   UNL     1     126.175   8.433 137.288  1.00  0.00     0.123 A 
ATOM      9  C   UNL     1     127.392   8.136 137.904  1.00  0.00     0.094 A 
ATOM     10  C   UNL     1     127.486   7.080 138.813  1.00  0.00     0.146 A 
ATOM     11  O   UNL     1     128.664   6.824 139.368  1.00  0.00    -0.452 OA
ENDROOT
BRANCH   1  12
ATOM     12  C   UNL     1     130.226   5.669 140.796  1.00  0.00     0.025 A 
ATOM     13  C   UNL     1     132.052   6.437 142.231  1.00  0.00     0.161 A 
ATOM     14  C   UNL     1     132.830   5.350 141.810  1.00  0.00     0.157 A 
ATOM     15  C   UNL     1     130.751   6.596 141.714  1.00  0.00     0.062 A 
ATOM     16  C   UNL     1     132.318   4.438 140.879  1.00  0.00     0.051 A 
ATOM     17  C   UNL     1     131.028   4.600 140.371  1.00  0.00     0.016 A 
BRANCH  13  18
ATOM     18  O   UNL     1     132.604   7.337 143.157  1.00  0.00    -0.493 OA
ATOM     19  C   UNL     1     133.073   8.641 142.833  1.00  0.00     0.278 C 
ENDBRANCH  13  18
BRANCH  14  20
ATOM     20  O   UNL     1     134.117   5.185 142.321  1.00  0.00    -0.504 OA
ATOM     21  H   UNL     1     134.826   5.899 142.212  1.00  0.00     0.293 HD
ENDBRANCH  14  20
ENDBRANCH   1  12
BRANCH   2  22
ATOM     22  O   UNL     1     128.041   3.857 141.375  1.00  0.00    -0.502 OA
ATOM     23  H   UNL     1     127.287   3.293 141.749  1.00  0.00     0.293 HD
ENDBRANCH   2  22
BRANCH   6  24
ATOM     24  O   UNL     1     123.881   6.029 138.856  1.00  0.00    -0.507 OA
ATOM     25  H   UNL     1     123.119   5.895 138.209  1.00  0.00     0.293 HD
ENDBRANCH   6  24
BRANCH   8  26
ATOM     26  O   UNL     1     126.081   9.472 136.365  1.00  0.00    -0.508 OA
ATOM     27  H   UNL     1     126.440   9.378 135.422  1.00  0.00     0.293 HD
ENDBRANCH   8  26
TORSDOF 6
ENDMDL
MODEL 8
REMARK VINA RESULT:    -4.201     11.727     13.695
REMARK INTER + INTRA:          -5.554
REMARK INTER:                  -5.183
REMARK INTRA:                  -0.372
REMARK UNBOUND:                -0.370
REMARK SMILES COc1cc(-c2oc3cc(O)cc(O)c3c(=O)c2O)ccc1O
REMARK SMILES IDX 6 1 18 2 16 3 17 4 15 5 13 6 12 7 10 8 9 9 8 10 7 11 5 12
REMARK SMILES IDX 3 13 22 14 4 15 21 16 20 17 2 18 1 19 23 20 19 22 14 24
REMARK SMILES IDX 11 26
REMARK H PARENT 23 21 19 23 14 25 11 27
REMARK Flexibility Score: inf
ROOT
ATOM      1  C   UNL     1     116.072  16.582 141.697  1.00  0.00     0.180 A 
ATOM      2  C   UNL     1     116.431  15.745 140.626  1.00  0.00     0.208 A 
ATOM      3  C   UNL     1     116.367  16.249 139.317  1.00  0.00     0.238 A 
ATOM      4  O   UNL     1     116.741  15.513 138.366  1.00  0.00    -0.285 OA
ATOM      5  C   UNL     1     115.931  17.577 139.095  1.00  0.00     0.111 A 
ATOM      6  C   UNL     1     115.789  18.179 137.808  1.00  0.00     0.134 A 
ATOM      7  C   UNL     1     115.474  19.541 137.713  1.00  0.00     0.093 A 
ATOM      8  C   UNL     1     115.233  20.305 138.853  1.00  0.00     0.123 A 
ATOM      9  C   UNL     1     115.310  19.712 140.114  1.00  0.00     0.094 A 
ATOM     10  C   UNL     1     115.657  18.366 140.242  1.00  0.00     0.146 A 
ATOM     11  O   UNL     1     115.730  17.843 141.461  1.00  0.00    -0.452 OA
ENDROOT
BRANCH   1  12
ATOM     12  C   UNL     1     116.090  16.113 143.102  1.00  0.00     0.025 A 
ATOM     13  C   UNL     1     115.076  14.894 144.965  1.00  0.00     0.161 A 
ATOM     14  C   UNL     1     116.136  15.292 145.791  1.00  0.00     0.157 A 
ATOM     15  C   UNL     1     115.054  15.315 143.620  1.00  0.00     0.062 A 
ATOM     16  C   UNL     1     117.157  16.105 145.283  1.00  0.00     0.051 A 
ATOM     17  C   UNL     1     117.130  16.518 143.950  1.00  0.00     0.016 A 
BRANCH  13  18
ATOM     18  O   UNL     1     114.065  14.089 145.513  1.00  0.00    -0.493 OA
ATOM     19  C   UNL     1     113.982  12.677 145.354  1.00  0.00     0.278 C 
ENDBRANCH  13  18
BRANCH  14  20
ATOM     20  O   UNL     1     116.166  14.876 147.121  1.00  0.00    -0.504 OA
ATOM     21  H   UNL     1     116.614  15.430 147.841  1.00  0.00     0.293 HD
ENDBRANCH  14  20
ENDBRANCH   1  12
BRANCH   2  22
ATOM     22  O   UNL     1     116.881  14.444 140.869  1.00  0.00    -0.502 OA
ATOM     23  H   UNL     1     117.858  14.185 140.805  1.00  0.00     0.293 HD
ENDBRANCH   2  22
BRANCH   6  24
ATOM     24  O   UNL     1     115.919  17.484 136.602  1.00  0.00    -0.507 OA
ATOM     25  H   UNL     1     115.601  17.823 135.706  1.00  0.00     0.293 HD
ENDBRANCH   6  24
BRANCH   8  26
ATOM     26  O   UNL     1     114.907  21.653 138.721  1.00  0.00    -0.508 OA
ATOM     27  H   UNL     1     114.928  22.118 137.820  1.00  0.00     0.293 HD
ENDBRANCH   8  26
TORSDOF 6
ENDMDL
MODEL 9
REMARK VINA RESULT:    -4.168     14.801     16.841
REMARK INTER + INTRA:          -5.513
REMARK INTER:                  -5.191
REMARK INTRA:                  -0.322
REMARK UNBOUND:                -0.370
REMARK SMILES COc1cc(-c2oc3cc(O)cc(O)c3c(=O)c2O)ccc1O
REMARK SMILES IDX 6 1 18 2 16 3 17 4 15 5 13 6 12 7 10 8 9 9 8 10 7 11 5 12
REMARK SMILES IDX 3 13 22 14 4 15 21 16 20 17 2 18 1 19 23 20 19 22 14 24
REMARK SMILES IDX 11 26
REMARK H PARENT 23 21 19 23 14 25 11 27
REMARK Flexibility Score: inf
ROOT
ATOM      1  C   UNL     1     129.383   5.739 140.428  1.00  0.00     0.180 A 
ATOM      2  C   UNL     1     129.332   4.342 140.577  1.00  0.00     0.208 A 
ATOM      3  C   UNL     1     128.112   3.679 140.367  1.00  0.00     0.238 A 
ATOM      4  O   UNL     1     128.084   2.424 140.449  1.00  0.00    -0.285 OA
ATOM      5  C   UNL     1     126.956   4.423 140.026  1.00  0.00     0.111 A 
ATOM      6  C   UNL     1     125.659   3.860 139.830  1.00  0.00     0.134 A 
ATOM      7  C   UNL     1     124.616   4.673 139.368  1.00  0.00     0.093 A 
ATOM      8  C   UNL     1     124.806   6.037 139.158  1.00  0.00     0.123 A 
ATOM      9  C   UNL     1     126.055   6.609 139.405  1.00  0.00     0.094 A 
ATOM     10  C   UNL     1     127.123   5.818 139.831  1.00  0.00     0.146 A 
ATOM     11  O   UNL     1     128.298   6.400 140.043  1.00  0.00    -0.452 OA
ENDROOT
BRANCH   1  12
ATOM     12  C   UNL     1     130.627   6.510 140.657  1.00  0.00     0.025 A 
ATOM     13  C   UNL     1     132.322   7.442 142.154  1.00  0.00     0.161 A 
ATOM     14  C   UNL     1     132.961   8.028 141.052  1.00  0.00     0.157 A 
ATOM     15  C   UNL     1     131.148   6.689 141.951  1.00  0.00     0.062 A 
ATOM     16  C   UNL     1     132.431   7.869 139.766  1.00  0.00     0.051 A 
ATOM     17  C   UNL     1     131.269   7.122 139.571  1.00  0.00     0.016 A 
BRANCH  13  18
ATOM     18  O   UNL     1     132.877   7.633 143.429  1.00  0.00    -0.493 OA
ATOM     19  C   UNL     1     133.743   6.709 144.079  1.00  0.00     0.278 C 
ENDBRANCH  13  18
BRANCH  14  20
ATOM     20  O   UNL     1     134.124   8.771 141.246  1.00  0.00    -0.504 OA
ATOM     21  H   UNL     1     134.133   9.779 141.148  1.00  0.00     0.293 HD
ENDBRANCH  14  20
ENDBRANCH   1  12
BRANCH   2  22
ATOM     22  O   UNL     1     130.489   3.625 140.892  1.00  0.00    -0.502 OA
ATOM     23  H   UNL     1     130.964   3.721 141.782  1.00  0.00     0.293 HD
ENDBRANCH   2  22
BRANCH   6  24
ATOM     24  O   UNL     1     125.338   2.525 140.098  1.00  0.00    -0.507 OA
ATOM     25  H   UNL     1     125.909   1.735 139.840  1.00  0.00     0.293 HD
ENDBRANCH   6  24
BRANCH   8  26
ATOM     26  O   UNL     1     123.742   6.819 138.713  1.00  0.00    -0.508 OA
ATOM     27  H   UNL     1     123.694   7.812 138.910  1.00  0.00     0.293 HD
ENDBRANCH   8  26
TORSDOF 6
ENDMDL
