MODEL 1
REMARK VINA RESULT:    -5.728      0.000      0.000
REMARK INTER + INTRA:          -9.470
REMARK INTER:                  -7.737
REMARK INTRA:                  -1.733
REMARK UNBOUND:                -1.733
REMARK SMILES C=CC(C)=CCC=C(C)CCC=C(C)C
REMARK SMILES IDX 8 1 7 2 9 3 10 4 11 5 12 6 14 7 13 8 15 9 6 10 5 11 3 12
REMARK SMILES IDX 4 13 2 14 1 15
REMARK H PARENT
REMARK Flexibility Score: inf
ROOT
ATOM      1  C   UNL     1     112.139 110.937 115.380  1.00  0.00    -0.077 C 
ATOM      2  C   UNL     1     112.325 109.922 114.506  1.00  0.00    -0.024 C 
ATOM      3  C   UNL     1     113.052 112.141 115.405  1.00  0.00     0.039 C 
ENDROOT
BRANCH   1   4
ATOM      4  C   UNL     1     111.002 110.855 116.376  1.00  0.00     0.034 C 
BRANCH   4   5
ATOM      5  C   UNL     1     109.635 110.852 115.677  1.00  0.00     0.032 C 
BRANCH   5   6
ATOM      6  C   UNL     1     109.536 111.982 114.677  1.00  0.00    -0.028 C 
ATOM      7  C   UNL     1     109.262 110.461 112.704  1.00  0.00     0.039 C 
ATOM      8  C   UNL     1     109.342 111.824 113.349  1.00  0.00    -0.080 C 
ATOM      9  C   UNL     1     109.203 113.057 112.495  1.00  0.00     0.039 C 
ENDBRANCH   5   6
ENDBRANCH   4   5
ENDBRANCH   1   4
BRANCH   2  10
ATOM     10  C   UNL     1     113.426 109.882 113.477  1.00  0.00     0.055 C 
BRANCH  10  11
ATOM     11  C   UNL     1     112.870 109.725 112.085  1.00  0.00    -0.020 C 
ATOM     12  C   UNL     1     112.631 110.757 111.253  1.00  0.00    -0.055 C 
ATOM     13  C   UNL     1     112.922 112.186 111.655  1.00  0.00     0.044 C 
BRANCH  12  14
ATOM     14  C   UNL     1     112.135 110.449 109.886  1.00  0.00    -0.005 C 
ATOM     15  C   UNL     1     112.936 110.194 108.851  1.00  0.00     0.009 C 
ENDBRANCH  12  14
ENDBRANCH  10  11
ENDBRANCH   2  10
TORSDOF 6
ENDMDL
MODEL 2
REMARK VINA RESULT:    -5.728      1.095      3.657
REMARK INTER + INTRA:          -9.470
REMARK INTER:                  -7.570
REMARK INTRA:                  -1.900
REMARK UNBOUND:                -1.733
REMARK SMILES C=CC(C)=CCC=C(C)CCC=C(C)C
REMARK SMILES IDX 8 1 7 2 9 3 10 4 11 5 12 6 14 7 13 8 15 9 6 10 5 11 3 12
REMARK SMILES IDX 4 13 2 14 1 15
REMARK H PARENT
REMARK Flexibility Score: inf
ROOT
ATOM      1  C   UNL     1     109.986 111.007 115.385  1.00  0.00    -0.077 C 
ATOM      2  C   UNL     1     109.864 112.093 114.588  1.00  0.00    -0.024 C 
ATOM      3  C   UNL     1     109.043 109.832 115.275  1.00  0.00     0.039 C 
ENDROOT
BRANCH   1   4
ATOM      4  C   UNL     1     111.080 110.978 116.431  1.00  0.00     0.034 C 
BRANCH   4   5
ATOM      5  C   UNL     1     112.475 110.995 115.793  1.00  0.00     0.032 C 
BRANCH   5   6
ATOM      6  C   UNL     1     112.572 109.984 114.673  1.00  0.00    -0.028 C 
ATOM      7  C   UNL     1     113.032 111.704 112.909  1.00  0.00     0.039 C 
ATOM      8  C   UNL     1     112.846 110.283 113.384  1.00  0.00    -0.080 C 
ATOM      9  C   UNL     1     112.969 109.150 112.398  1.00  0.00     0.039 C 
ENDBRANCH   5   6
ENDBRANCH   4   5
ENDBRANCH   1   4
BRANCH   2  10
ATOM     10  C   UNL     1     108.811 112.246 113.521  1.00  0.00     0.055 C 
BRANCH  10  11
ATOM     11  C   UNL     1     109.433 112.479 112.167  1.00  0.00    -0.020 C 
ATOM     12  C   UNL     1     109.688 111.496 111.281  1.00  0.00    -0.055 C 
ATOM     13  C   UNL     1     109.351 110.052 111.578  1.00  0.00     0.044 C 
BRANCH  12  14
ATOM     14  C   UNL     1     110.251 111.879 109.961  1.00  0.00    -0.005 C 
ATOM     15  C   UNL     1     111.310 111.284 109.409  1.00  0.00     0.009 C 
ENDBRANCH  12  14
ENDBRANCH  10  11
ENDBRANCH   2  10
TORSDOF 6
ENDMDL
MODEL 3
REMARK VINA RESULT:    -5.702      3.034      5.954
REMARK INTER + INTRA:          -9.436
REMARK INTER:                  -7.612
REMARK INTRA:                  -1.823
REMARK UNBOUND:                -1.733
REMARK SMILES C=CC(C)=CCC=C(C)CCC=C(C)C
REMARK SMILES IDX 8 1 7 2 9 3 10 4 11 5 12 6 14 7 13 8 15 9 6 10 5 11 3 12
REMARK SMILES IDX 4 13 2 14 1 15
REMARK H PARENT
REMARK Flexibility Score: inf
ROOT
ATOM      1  C   UNL     1     109.873 110.806 110.493  1.00  0.00    -0.077 C 
ATOM      2  C   UNL     1     109.704 111.908 109.727  1.00  0.00    -0.024 C 
ATOM      3  C   UNL     1     109.100 109.534 110.237  1.00  0.00     0.039 C 
ENDROOT
BRANCH   1   4
ATOM      4  C   UNL     1     110.846 110.857 111.652  1.00  0.00     0.034 C 
BRANCH   4   5
ATOM      5  C   UNL     1     112.301 110.938 111.169  1.00  0.00     0.032 C 
BRANCH   5   6
ATOM      6  C   UNL     1     112.541 109.994 110.012  1.00  0.00    -0.028 C 
ATOM      7  C   UNL     1     112.968 111.831 108.360  1.00  0.00     0.039 C 
ATOM      8  C   UNL     1     112.866 110.377 108.757  1.00  0.00    -0.080 C 
ATOM      9  C   UNL     1     113.134 109.309 107.730  1.00  0.00     0.039 C 
ENDBRANCH   5   6
ENDBRANCH   4   5
ENDBRANCH   1   4
BRANCH   2  10
ATOM     10  C   UNL     1     108.758 111.986 108.555  1.00  0.00     0.055 C 
BRANCH  10  11
ATOM     11  C   UNL     1     109.497 112.268 107.272  1.00  0.00    -0.020 C 
ATOM     12  C   UNL     1     109.821 111.321 106.370  1.00  0.00    -0.055 C 
ATOM     13  C   UNL     1     109.445 109.869 106.573  1.00  0.00     0.044 C 
BRANCH  12  14
ATOM     14  C   UNL     1     110.500 111.752 105.121  1.00  0.00    -0.005 C 
ATOM     15  C   UNL     1     111.754 111.421 104.810  1.00  0.00     0.009 C 
ENDBRANCH  12  14
ENDBRANCH  10  11
ENDBRANCH   2  10
TORSDOF 6
ENDMDL
MODEL 4
REMARK VINA RESULT:    -5.685      3.000      4.794
REMARK INTER + INTRA:          -9.412
REMARK INTER:                  -7.522
REMARK INTRA:                  -1.890
REMARK UNBOUND:                -1.733
REMARK SMILES C=CC(C)=CCC=C(C)CCC=C(C)C
REMARK SMILES IDX 8 1 7 2 9 3 10 4 11 5 12 6 14 7 13 8 15 9 6 10 5 11 3 12
REMARK SMILES IDX 4 13 2 14 1 15
REMARK H PARENT
REMARK Flexibility Score: inf
ROOT
ATOM      1  C   UNL     1     112.258 110.980 110.553  1.00  0.00    -0.077 C 
ATOM      2  C   UNL     1     112.411 109.954 109.685  1.00  0.00    -0.024 C 
ATOM      3  C   UNL     1     113.159 112.192 110.517  1.00  0.00     0.039 C 
ENDROOT
BRANCH   1   4
ATOM      4  C   UNL     1     111.170 110.901 111.603  1.00  0.00     0.034 C 
BRANCH   4   5
ATOM      5  C   UNL     1     109.773 110.845 110.971  1.00  0.00     0.032 C 
BRANCH   5   6
ATOM      6  C   UNL     1     109.600 111.938 109.941  1.00  0.00    -0.028 C 
ATOM      7  C   UNL     1     109.242 110.345 108.039  1.00  0.00     0.039 C 
ATOM      8  C   UNL     1     109.336 111.731 108.631  1.00  0.00    -0.080 C 
ATOM      9  C   UNL     1     109.129 112.932 107.746  1.00  0.00     0.039 C 
ENDBRANCH   5   6
ENDBRANCH   4   5
ENDBRANCH   1   4
BRANCH   2  10
ATOM     10  C   UNL     1     113.462 109.910 108.604  1.00  0.00     0.055 C 
BRANCH  10  11
ATOM     11  C   UNL     1     112.840 109.734 107.242  1.00  0.00    -0.020 C 
ATOM     12  C   UNL     1     112.557 110.755 106.410  1.00  0.00    -0.055 C 
ATOM     13  C   UNL     1     112.862 112.190 106.781  1.00  0.00     0.044 C 
BRANCH  12  14
ATOM     14  C   UNL     1     111.998 110.429 105.073  1.00  0.00    -0.005 C 
ATOM     15  C   UNL     1     110.808 110.855 104.646  1.00  0.00     0.009 C 
ENDBRANCH  12  14
ENDBRANCH  10  11
ENDBRANCH   2  10
TORSDOF 6
ENDMDL
MODEL 5
REMARK VINA RESULT:    -5.586      1.117      3.346
REMARK INTER + INTRA:          -9.278
REMARK INTER:                  -7.733
REMARK INTRA:                  -1.545
REMARK UNBOUND:                -1.733
REMARK SMILES C=CC(C)=CCC=C(C)CCC=C(C)C
REMARK SMILES IDX 8 1 7 2 9 3 10 4 11 5 12 6 14 7 13 8 15 9 6 10 5 11 3 12
REMARK SMILES IDX 4 13 2 14 1 15
REMARK H PARENT
REMARK Flexibility Score: inf
ROOT
ATOM      1  C   UNL     1     109.267 111.555 113.284  1.00  0.00    -0.077 C 
ATOM      2  C   UNL     1     109.246 110.372 112.627  1.00  0.00    -0.024 C 
ATOM      3  C   UNL     1     109.165 112.872 112.550  1.00  0.00     0.039 C 
ENDROOT
BRANCH   1   4
ATOM      4  C   UNL     1     109.419 111.560 114.790  1.00  0.00     0.034 C 
BRANCH   4   5
ATOM      5  C   UNL     1     110.894 111.608 115.211  1.00  0.00     0.032 C 
BRANCH   5   6
ATOM      6  C   UNL     1     111.678 110.488 114.566  1.00  0.00    -0.028 C 
ATOM      7  C   UNL     1     112.907 112.003 112.992  1.00  0.00     0.039 C 
ATOM      8  C   UNL     1     112.601 110.651 113.591  1.00  0.00    -0.080 C 
ATOM      9  C   UNL     1     113.341 109.436 113.097  1.00  0.00     0.039 C 
ENDBRANCH   5   6
ENDBRANCH   4   5
ENDBRANCH   1   4
BRANCH   2  10
ATOM     10  C   UNL     1     109.111 110.237 111.132  1.00  0.00     0.055 C 
BRANCH  10  11
ATOM     11  C   UNL     1     110.371 109.683 110.516  1.00  0.00    -0.020 C 
ATOM     12  C   UNL     1     111.290 110.439 109.884  1.00  0.00    -0.055 C 
ATOM     13  C   UNL     1     111.132 111.938 109.752  1.00  0.00     0.044 C 
BRANCH  12  14
ATOM     14  C   UNL     1     112.513 109.766 109.375  1.00  0.00    -0.005 C 
ATOM     15  C   UNL     1     113.274 110.259 108.397  1.00  0.00     0.009 C 
ENDBRANCH  12  14
ENDBRANCH  10  11
ENDBRANCH   2  10
TORSDOF 6
ENDMDL
MODEL 6
REMARK VINA RESULT:    -5.579      1.048      1.409
REMARK INTER + INTRA:          -9.269
REMARK INTER:                  -7.644
REMARK INTRA:                  -1.625
REMARK UNBOUND:                -1.733
REMARK SMILES C=CC(C)=CCC=C(C)CCC=C(C)C
REMARK SMILES IDX 8 1 7 2 9 3 10 4 11 5 12 6 14 7 13 8 15 9 6 10 5 11 3 12
REMARK SMILES IDX 4 13 2 14 1 15
REMARK H PARENT
REMARK Flexibility Score: inf
ROOT
ATOM      1  C   UNL     1     112.314 110.743 115.558  1.00  0.00    -0.077 C 
ATOM      2  C   UNL     1     112.941 111.239 114.467  1.00  0.00    -0.024 C 
ATOM      3  C   UNL     1     112.135 109.257 115.765  1.00  0.00     0.039 C 
ENDROOT
BRANCH   1   4
ATOM      4  C   UNL     1     111.757 111.703 116.588  1.00  0.00     0.034 C 
BRANCH   4   5
ATOM      5  C   UNL     1     110.259 111.958 116.375  1.00  0.00     0.032 C 
BRANCH   5   6
ATOM      6  C   UNL     1     110.010 112.656 115.058  1.00  0.00    -0.028 C 
ATOM      7  C   UNL     1     109.136 110.601 113.919  1.00  0.00     0.039 C 
ATOM      8  C   UNL     1     109.484 112.070 113.959  1.00  0.00    -0.080 C 
ATOM      9  C   UNL     1     109.241 112.922 112.741  1.00  0.00     0.039 C 
ENDBRANCH   5   6
ENDBRANCH   4   5
ENDBRANCH   1   4
BRANCH   2  10
ATOM     10  C   UNL     1     113.526 110.389 113.368  1.00  0.00     0.055 C 
BRANCH  10  11
ATOM     11  C   UNL     1     112.505 110.098 112.297  1.00  0.00    -0.020 C 
ATOM     12  C   UNL     1     112.245 110.924 111.265  1.00  0.00    -0.055 C 
ATOM     13  C   UNL     1     112.986 112.232 111.089  1.00  0.00     0.044 C 
BRANCH  12  14
ATOM     14  C   UNL     1     111.252 110.482 110.252  1.00  0.00    -0.005 C 
ATOM     15  C   UNL     1     110.310 109.569 110.492  1.00  0.00     0.009 C 
ENDBRANCH  12  14
ENDBRANCH  10  11
ENDBRANCH   2  10
TORSDOF 6
ENDMDL
MODEL 7
REMARK VINA RESULT:    -5.539      2.394      4.014
REMARK INTER + INTRA:          -9.215
REMARK INTER:                  -7.514
REMARK INTRA:                  -1.701
REMARK UNBOUND:                -1.733
REMARK SMILES C=CC(C)=CCC=C(C)CCC=C(C)C
REMARK SMILES IDX 8 1 7 2 9 3 10 4 11 5 12 6 14 7 13 8 15 9 6 10 5 11 3 12
REMARK SMILES IDX 4 13 2 14 1 15
REMARK H PARENT
REMARK Flexibility Score: inf
ROOT
ATOM      1  C   UNL     1     111.660 110.649 111.901  1.00  0.00    -0.077 C 
ATOM      2  C   UNL     1     112.023 111.866 111.437  1.00  0.00    -0.024 C 
ATOM      3  C   UNL     1     112.490 109.416 111.631  1.00  0.00     0.039 C 
ENDROOT
BRANCH   1   4
ATOM      4  C   UNL     1     110.376 110.514 112.691  1.00  0.00     0.034 C 
BRANCH   4   5
ATOM      5  C   UNL     1     109.144 110.833 111.832  1.00  0.00     0.032 C 
BRANCH   5   6
ATOM      6  C   UNL     1     109.244 110.173 110.476  1.00  0.00    -0.028 C 
ATOM      7  C   UNL     1     109.269 112.339 109.216  1.00  0.00     0.039 C 
ATOM      8  C   UNL     1     109.327 110.832 109.299  1.00  0.00    -0.080 C 
ATOM      9  C   UNL     1     109.483 110.026 108.036  1.00  0.00     0.039 C 
ENDBRANCH   5   6
ENDBRANCH   4   5
ENDBRANCH   1   4
BRANCH   2  10
ATOM     10  C   UNL     1     113.269 112.127 110.630  1.00  0.00     0.055 C 
BRANCH  10  11
ATOM     11  C   UNL     1     112.933 112.545 109.221  1.00  0.00    -0.020 C 
ATOM     12  C   UNL     1     112.957 111.707 108.166  1.00  0.00    -0.055 C 
ATOM     13  C   UNL     1     113.318 110.246 108.319  1.00  0.00     0.044 C 
BRANCH  12  14
ATOM     14  C   UNL     1     112.545 112.244 106.843  1.00  0.00    -0.005 C 
ATOM     15  C   UNL     1     113.366 112.338 105.796  1.00  0.00     0.009 C 
ENDBRANCH  12  14
ENDBRANCH  10  11
ENDBRANCH   2  10
TORSDOF 6
ENDMDL
MODEL 8
REMARK VINA RESULT:    -5.535      1.267      5.485
REMARK INTER + INTRA:          -9.209
REMARK INTER:                  -7.497
REMARK INTRA:                  -1.713
REMARK UNBOUND:                -1.733
REMARK SMILES C=CC(C)=CCC=C(C)CCC=C(C)C
REMARK SMILES IDX 8 1 7 2 9 3 10 4 11 5 12 6 14 7 13 8 15 9 6 10 5 11 3 12
REMARK SMILES IDX 4 13 2 14 1 15
REMARK H PARENT
REMARK Flexibility Score: inf
ROOT
ATOM      1  C   UNL     1     109.674 111.457 111.180  1.00  0.00    -0.077 C 
ATOM      2  C   UNL     1     109.526 112.342 112.193  1.00  0.00    -0.024 C 
ATOM      3  C   UNL     1     109.068 110.075 111.238  1.00  0.00     0.039 C 
ENDROOT
BRANCH   1   4
ATOM      4  C   UNL     1     110.489 111.854 109.967  1.00  0.00     0.034 C 
BRANCH   4   5
ATOM      5  C   UNL     1     111.987 111.928 110.290  1.00  0.00     0.032 C 
BRANCH   5   6
ATOM      6  C   UNL     1     112.436 110.709 111.064  1.00  0.00    -0.028 C 
ATOM      7  C   UNL     1     112.966 111.999 113.148  1.00  0.00     0.039 C 
ATOM      8  C   UNL     1     112.851 110.721 112.351  1.00  0.00    -0.080 C 
ATOM      9  C   UNL     1     113.207 109.409 112.999  1.00  0.00     0.039 C 
ENDBRANCH   5   6
ENDBRANCH   4   5
ENDBRANCH   1   4
BRANCH   2  10
ATOM     10  C   UNL     1     108.750 112.061 113.455  1.00  0.00     0.055 C 
BRANCH  10  11
ATOM     11  C   UNL     1     109.661 111.993 114.654  1.00  0.00    -0.020 C 
ATOM     12  C   UNL     1     109.868 110.873 115.374  1.00  0.00    -0.055 C 
ATOM     13  C   UNL     1     109.199 109.564 115.018  1.00  0.00     0.044 C 
BRANCH  12  14
ATOM     14  C   UNL     1     110.838 110.939 116.498  1.00  0.00    -0.005 C 
ATOM     15  C   UNL     1     112.075 110.444 116.435  1.00  0.00     0.009 C 
ENDBRANCH  12  14
ENDBRANCH  10  11
ENDBRANCH   2  10
TORSDOF 6
ENDMDL
MODEL 9
REMARK VINA RESULT:    -5.495      3.156      6.900
REMARK INTER + INTRA:          -9.156
REMARK INTER:                  -7.267
REMARK INTRA:                  -1.889
REMARK UNBOUND:                -1.733
REMARK SMILES C=CC(C)=CCC=C(C)CCC=C(C)C
REMARK SMILES IDX 8 1 7 2 9 3 10 4 11 5 12 6 14 7 13 8 15 9 6 10 5 11 3 12
REMARK SMILES IDX 4 13 2 14 1 15
REMARK H PARENT
REMARK Flexibility Score: inf
ROOT
ATOM      1  C   UNL     1     112.486 110.848 105.813  1.00  0.00    -0.077 C 
ATOM      2  C   UNL     1     112.575 109.831 106.700  1.00  0.00    -0.024 C 
ATOM      3  C   UNL     1     113.234 112.145 106.014  1.00  0.00     0.039 C 
ENDROOT
BRANCH   1   4
ATOM      4  C   UNL     1     111.596 110.692 104.598  1.00  0.00     0.034 C 
BRANCH   4   5
ATOM      5  C   UNL     1     110.112 110.640 104.985  1.00  0.00     0.032 C 
BRANCH   5   6
ATOM      6  C   UNL     1     109.759 111.763 105.933  1.00  0.00    -0.028 C 
ATOM      7  C   UNL     1     109.213 110.231 107.841  1.00  0.00     0.039 C 
ATOM      8  C   UNL     1     109.381 111.598 107.221  1.00  0.00    -0.080 C 
ATOM      9  C   UNL     1     109.124 112.826 108.054  1.00  0.00     0.039 C 
ENDBRANCH   5   6
ENDBRANCH   4   5
ENDBRANCH   1   4
BRANCH   2  10
ATOM     10  C   UNL     1     113.415 109.870 107.951  1.00  0.00     0.055 C 
BRANCH  10  11
ATOM     11  C   UNL     1     112.561 109.773 109.189  1.00  0.00    -0.020 C 
ATOM     12  C   UNL     1     112.231 110.830 109.956  1.00  0.00    -0.055 C 
ATOM     13  C   UNL     1     112.691 112.231 109.619  1.00  0.00     0.044 C 
BRANCH  12  14
ATOM     14  C   UNL     1     111.333 110.594 111.117  1.00  0.00    -0.005 C 
ATOM     15  C   UNL     1     110.184 111.245 111.305  1.00  0.00     0.009 C 
ENDBRANCH  12  14
ENDBRANCH  10  11
ENDBRANCH   2  10
TORSDOF 6
ENDMDL
