MODEL 1
REMARK VINA RESULT:    -4.508      0.000      0.000
REMARK INTER + INTRA:          -9.240
REMARK INTER:                  -6.880
REMARK INTRA:                  -2.360
REMARK UNBOUND:                -2.360
REMARK SMILES CC(=O)CCC=C(C)CCC=C(C)CCC=C(C)C
REMARK SMILES IDX 10 1 11 2 12 3 13 4 14 5 15 6 16 7 18 8 17 9 19 10 9 11 7 12
REMARK SMILES IDX 6 13 8 14 5 15 4 16 2 17 3 18 1 19
REMARK H PARENT
REMARK Flexibility Score: inf
ROOT
ATOM      1  C   UNL     1      10.420 -22.519  41.061  1.00  0.00     0.032 C 
ENDROOT
BRANCH   1   2
ATOM      2  C   UNL     1      10.476 -23.951  41.529  1.00  0.00    -0.028 C 
ATOM      3  C   UNL     1       9.985 -25.002  40.835  1.00  0.00    -0.077 C 
ATOM      4  C   UNL     1       9.383 -24.838  39.459  1.00  0.00     0.039 C 
BRANCH   3   5
ATOM      5  C   UNL     1      10.063 -26.384  41.446  1.00  0.00     0.034 C 
BRANCH   5   6
ATOM      6  C   UNL     1      10.893 -27.324  40.564  1.00  0.00     0.032 C 
BRANCH   6   7
ATOM      7  C   UNL     1      12.358 -26.973  40.638  1.00  0.00    -0.028 C 
ATOM      8  C   UNL     1      14.587 -26.385  39.786  1.00  0.00     0.039 C 
ATOM      9  C   UNL     1      13.124 -26.672  39.566  1.00  0.00    -0.080 C 
ATOM     10  C   UNL     1      12.555 -26.603  38.168  1.00  0.00     0.039 C 
ENDBRANCH   6   7
ENDBRANCH   5   6
ENDBRANCH   3   5
ENDBRANCH   1   2
BRANCH   1  11
ATOM     11  C   UNL     1      11.758 -21.815  41.309  1.00  0.00     0.034 C 
BRANCH  11  12
ATOM     12  C   UNL     1      12.865 -22.475  40.516  1.00  0.00    -0.077 C 
ATOM     13  C   UNL     1      12.804 -22.459  39.166  1.00  0.00    -0.028 C 
ATOM     14  C   UNL     1      14.020 -23.106  41.256  1.00  0.00     0.039 C 
BRANCH  13  15
ATOM     15  C   UNL     1      13.828 -23.090  38.255  1.00  0.00     0.035 C 
BRANCH  15  16
ATOM     16  C   UNL     1      14.820 -22.043  37.738  1.00  0.00     0.079 C 
BRANCH  16  17
ATOM     17  C   UNL     1      14.204 -21.227  36.634  1.00  0.00     0.130 C 
ATOM     18  O   UNL     1      13.847 -21.774  35.602  1.00  0.00    -0.300 OA
ATOM     19  C   UNL     1      14.010 -19.751  36.801  1.00  0.00     0.087 C 
ENDBRANCH  16  17
ENDBRANCH  15  16
ENDBRANCH  13  15
ENDBRANCH  11  12
ENDBRANCH   1  11
TORSDOF 9
ENDMDL
MODEL 2
REMARK VINA RESULT:    -4.257      2.478      4.774
REMARK INTER + INTRA:          -8.858
REMARK INTER:                  -6.568
REMARK INTRA:                  -2.290
REMARK UNBOUND:                -2.360
REMARK SMILES CC(=O)CCC=C(C)CCC=C(C)CCC=C(C)C
REMARK SMILES IDX 10 1 11 2 12 3 13 4 14 5 15 6 16 7 18 8 17 9 19 10 9 11 7 12
REMARK SMILES IDX 6 13 8 14 5 15 4 16 2 17 3 18 1 19
REMARK H PARENT
REMARK Flexibility Score: inf
ROOT
ATOM      1  C   UNL     1      13.498 -21.995  39.862  1.00  0.00     0.032 C 
ENDROOT
BRANCH   1   2
ATOM      2  C   UNL     1      12.017 -22.274  39.896  1.00  0.00    -0.028 C 
ATOM      3  C   UNL     1      11.284 -22.378  41.028  1.00  0.00    -0.077 C 
ATOM      4  C   UNL     1      11.889 -22.149  42.394  1.00  0.00     0.039 C 
BRANCH   3   5
ATOM      5  C   UNL     1       9.813 -22.711  40.919  1.00  0.00     0.034 C 
BRANCH   5   6
ATOM      6  C   UNL     1       9.606 -24.028  40.163  1.00  0.00     0.032 C 
BRANCH   6   7
ATOM      7  C   UNL     1       9.938 -25.208  41.041  1.00  0.00    -0.028 C 
ATOM      8  C   UNL     1      10.572 -27.523  41.573  1.00  0.00     0.039 C 
ATOM      9  C   UNL     1      10.314 -26.421  40.578  1.00  0.00    -0.080 C 
ATOM     10  C   UNL     1      10.493 -26.695  39.102  1.00  0.00     0.039 C 
ENDBRANCH   6   7
ENDBRANCH   5   6
ENDBRANCH   3   5
ENDBRANCH   1   2
BRANCH   1  11
ATOM     11  C   UNL     1      14.249 -23.140  39.173  1.00  0.00     0.034 C 
BRANCH  11  12
ATOM     12  C   UNL     1      14.371 -24.332  40.097  1.00  0.00    -0.077 C 
ATOM     13  C   UNL     1      13.994 -25.550  39.650  1.00  0.00    -0.028 C 
ATOM     14  C   UNL     1      14.938 -24.129  41.482  1.00  0.00     0.039 C 
BRANCH  13  15
ATOM     15  C   UNL     1      14.047 -26.817  40.468  1.00  0.00     0.035 C 
BRANCH  15  16
ATOM     16  C   UNL     1      15.188 -27.724  39.998  1.00  0.00     0.079 C 
BRANCH  16  17
ATOM     17  C   UNL     1      14.675 -28.781  39.059  1.00  0.00     0.130 C 
ATOM     18  O   UNL     1      15.432 -29.293  38.247  1.00  0.00    -0.300 OA
ATOM     19  C   UNL     1      13.245 -29.225  39.126  1.00  0.00     0.087 C 
ENDBRANCH  16  17
ENDBRANCH  15  16
ENDBRANCH  13  15
ENDBRANCH  11  12
ENDBRANCH   1  11
TORSDOF 9
ENDMDL
MODEL 3
REMARK VINA RESULT:    -4.151      3.148      6.901
REMARK INTER + INTRA:          -8.696
REMARK INTER:                  -6.566
REMARK INTRA:                  -2.130
REMARK UNBOUND:                -2.360
REMARK SMILES CC(=O)CCC=C(C)CCC=C(C)CCC=C(C)C
REMARK SMILES IDX 10 1 11 2 12 3 13 4 14 5 15 6 16 7 18 8 17 9 19 10 9 11 7 12
REMARK SMILES IDX 6 13 8 14 5 15 4 16 2 17 3 18 1 19
REMARK H PARENT
REMARK Flexibility Score: inf
ROOT
ATOM      1  C   UNL     1      14.201 -26.130  40.194  1.00  0.00     0.032 C 
ENDROOT
BRANCH   1   2
ATOM      2  C   UNL     1      14.159 -24.692  39.741  1.00  0.00    -0.028 C 
ATOM      3  C   UNL     1      14.464 -23.634  40.527  1.00  0.00    -0.077 C 
ATOM      4  C   UNL     1      14.954 -23.809  41.945  1.00  0.00     0.039 C 
BRANCH   3   5
ATOM      5  C   UNL     1      14.331 -22.239  39.958  1.00  0.00     0.034 C 
BRANCH   5   6
ATOM      6  C   UNL     1      13.288 -21.430  40.736  1.00  0.00     0.032 C 
BRANCH   6   7
ATOM      7  C   UNL     1      11.891 -21.830  40.335  1.00  0.00    -0.028 C 
ATOM      8  C   UNL     1       9.661 -22.830  40.601  1.00  0.00     0.039 C 
ATOM      9  C   UNL     1      11.009 -22.447  41.154  1.00  0.00    -0.080 C 
ATOM     10  C   UNL     1      11.335 -22.748  42.599  1.00  0.00     0.039 C 
ENDBRANCH   6   7
ENDBRANCH   5   6
ENDBRANCH   3   5
ENDBRANCH   1   2
BRANCH   1  11
ATOM     11  C   UNL     1      13.014 -26.912  39.622  1.00  0.00     0.034 C 
BRANCH  11  12
ATOM     12  C   UNL     1      11.971 -27.159  40.689  1.00  0.00    -0.077 C 
ATOM     13  C   UNL     1      10.963 -26.270  40.841  1.00  0.00    -0.028 C 
ATOM     14  C   UNL     1      12.070 -28.406  41.535  1.00  0.00     0.039 C 
BRANCH  13  15
ATOM     15  C   UNL     1       9.869 -26.385  41.873  1.00  0.00     0.035 C 
BRANCH  15  16
ATOM     16  C   UNL     1       8.582 -26.932  41.248  1.00  0.00     0.079 C 
BRANCH  16  17
ATOM     17  C   UNL     1       8.443 -28.405  41.520  1.00  0.00     0.130 C 
ATOM     18  O   UNL     1       8.365 -28.805  42.672  1.00  0.00    -0.300 OA
ATOM     19  C   UNL     1       8.381 -29.383  40.386  1.00  0.00     0.087 C 
ENDBRANCH  16  17
ENDBRANCH  15  16
ENDBRANCH  13  15
ENDBRANCH  11  12
ENDBRANCH   1  11
TORSDOF 9
ENDMDL
MODEL 4
REMARK VINA RESULT:    -4.137      2.264      5.407
REMARK INTER + INTRA:          -8.674
REMARK INTER:                  -6.234
REMARK INTRA:                  -2.440
REMARK UNBOUND:                -2.360
REMARK SMILES CC(=O)CCC=C(C)CCC=C(C)CCC=C(C)C
REMARK SMILES IDX 10 1 11 2 12 3 13 4 14 5 15 6 16 7 18 8 17 9 19 10 9 11 7 12
REMARK SMILES IDX 6 13 8 14 5 15 4 16 2 17 3 18 1 19
REMARK H PARENT
REMARK Flexibility Score: inf
ROOT
ATOM      1  C   UNL     1      15.011 -23.700  41.020  1.00  0.00     0.032 C 
ENDROOT
BRANCH   1   2
ATOM      2  C   UNL     1      13.728 -23.076  41.508  1.00  0.00    -0.028 C 
ATOM      3  C   UNL     1      12.805 -22.496  40.707  1.00  0.00    -0.077 C 
ATOM      4  C   UNL     1      12.950 -22.485  39.203  1.00  0.00     0.039 C 
BRANCH   3   5
ATOM      5  C   UNL     1      11.584 -21.863  41.336  1.00  0.00     0.034 C 
BRANCH   5   6
ATOM      6  C   UNL     1      10.305 -22.571  40.875  1.00  0.00     0.032 C 
BRANCH   6   7
ATOM      7  C   UNL     1      10.266 -23.991  41.380  1.00  0.00    -0.028 C 
ATOM      8  C   UNL     1       9.803 -26.404  41.308  1.00  0.00     0.039 C 
ATOM      9  C   UNL     1       9.827 -25.045  40.657  1.00  0.00    -0.080 C 
ATOM     10  C   UNL     1       9.375 -24.900  39.222  1.00  0.00     0.039 C 
ENDBRANCH   6   7
ENDBRANCH   5   6
ENDBRANCH   3   5
ENDBRANCH   1   2
BRANCH   1  11
ATOM     11  C   UNL     1      14.920 -25.229  41.062  1.00  0.00     0.034 C 
BRANCH  11  12
ATOM     12  C   UNL     1      14.402 -25.770  39.748  1.00  0.00    -0.077 C 
ATOM     13  C   UNL     1      13.174 -26.335  39.709  1.00  0.00    -0.028 C 
ATOM     14  C   UNL     1      15.260 -25.638  38.512  1.00  0.00     0.039 C 
BRANCH  13  15
ATOM     15  C   UNL     1      12.544 -26.928  38.473  1.00  0.00     0.035 C 
BRANCH  15  16
ATOM     16  C   UNL     1      12.261 -28.421  38.666  1.00  0.00     0.079 C 
BRANCH  16  17
ATOM     17  C   UNL     1      13.544 -29.192  38.804  1.00  0.00     0.130 C 
ATOM     18  O   UNL     1      14.398 -29.111  37.934  1.00  0.00    -0.300 OA
ATOM     19  C   UNL     1      13.791 -30.045  40.012  1.00  0.00     0.087 C 
ENDBRANCH  16  17
ENDBRANCH  15  16
ENDBRANCH  13  15
ENDBRANCH  11  12
ENDBRANCH   1  11
TORSDOF 9
ENDMDL
MODEL 5
REMARK VINA RESULT:    -4.097      1.863      5.256
REMARK INTER + INTRA:          -8.614
REMARK INTER:                  -6.466
REMARK INTRA:                  -2.148
REMARK UNBOUND:                -2.360
REMARK SMILES CC(=O)CCC=C(C)CCC=C(C)CCC=C(C)C
REMARK SMILES IDX 10 1 11 2 12 3 13 4 14 5 15 6 16 7 18 8 17 9 19 10 9 11 7 12
REMARK SMILES IDX 6 13 8 14 5 15 4 16 2 17 3 18 1 19
REMARK H PARENT
REMARK Flexibility Score: inf
ROOT
ATOM      1  C   UNL     1       8.154 -26.690  41.028  1.00  0.00     0.032 C 
ENDROOT
BRANCH   1   2
ATOM      2  C   UNL     1       8.628 -25.283  41.291  1.00  0.00    -0.028 C 
ATOM      3  C   UNL     1       9.345 -24.541  40.417  1.00  0.00    -0.077 C 
ATOM      4  C   UNL     1       9.684 -25.045  39.033  1.00  0.00     0.039 C 
BRANCH   3   5
ATOM      5  C   UNL     1       9.799 -23.159  40.830  1.00  0.00     0.034 C 
BRANCH   5   6
ATOM      6  C   UNL     1      11.275 -23.170  41.244  1.00  0.00     0.032 C 
BRANCH   6   7
ATOM      7  C   UNL     1      11.991 -21.955  40.711  1.00  0.00    -0.028 C 
ATOM      8  C   UNL     1      13.461 -20.671  39.218  1.00  0.00     0.039 C 
ATOM      9  C   UNL     1      12.771 -21.952  39.607  1.00  0.00    -0.080 C 
ATOM     10  C   UNL     1      12.957 -23.187  38.755  1.00  0.00     0.039 C 
ENDBRANCH   6   7
ENDBRANCH   5   6
ENDBRANCH   3   5
ENDBRANCH   1   2
BRANCH   1  11
ATOM     11  C   UNL     1       9.021 -27.703  41.783  1.00  0.00     0.034 C 
BRANCH  11  12
ATOM     12  C   UNL     1      10.218 -28.107  40.951  1.00  0.00    -0.077 C 
ATOM     13  C   UNL     1      11.434 -27.606  41.264  1.00  0.00    -0.028 C 
ATOM     14  C   UNL     1      10.025 -29.083  39.814  1.00  0.00     0.039 C 
BRANCH  13  15
ATOM     15  C   UNL     1      12.705 -27.912  40.511  1.00  0.00     0.035 C 
BRANCH  15  16
ATOM     16  C   UNL     1      13.053 -26.777  39.542  1.00  0.00     0.079 C 
BRANCH  16  17
ATOM     17  C   UNL     1      12.900 -27.230  38.116  1.00  0.00     0.130 C 
ATOM     18  O   UNL     1      12.610 -26.419  37.249  1.00  0.00    -0.300 OA
ATOM     19  C   UNL     1      13.120 -28.666  37.748  1.00  0.00     0.087 C 
ENDBRANCH  16  17
ENDBRANCH  15  16
ENDBRANCH  13  15
ENDBRANCH  11  12
ENDBRANCH   1  11
TORSDOF 9
ENDMDL
MODEL 6
REMARK VINA RESULT:    -4.057      2.078      5.116
REMARK INTER + INTRA:          -8.551
REMARK INTER:                  -6.148
REMARK INTRA:                  -2.403
REMARK UNBOUND:                -2.360
REMARK SMILES CC(=O)CCC=C(C)CCC=C(C)CCC=C(C)C
REMARK SMILES IDX 10 1 11 2 12 3 13 4 14 5 15 6 16 7 18 8 17 9 19 10 9 11 7 12
REMARK SMILES IDX 6 13 8 14 5 15 4 16 2 17 3 18 1 19
REMARK H PARENT
REMARK Flexibility Score: inf
ROOT
ATOM      1  C   UNL     1       9.439 -26.490  38.941  1.00  0.00     0.032 C 
ENDROOT
BRANCH   1   2
ATOM      2  C   UNL     1       9.420 -25.007  39.212  1.00  0.00    -0.028 C 
ATOM      3  C   UNL     1       9.657 -24.448  40.421  1.00  0.00    -0.077 C 
ATOM      4  C   UNL     1      10.041 -25.279  41.623  1.00  0.00     0.039 C 
BRANCH   3   5
ATOM      5  C   UNL     1       9.556 -22.946  40.564  1.00  0.00     0.034 C 
BRANCH   5   6
ATOM      6  C   UNL     1      10.912 -22.343  40.951  1.00  0.00     0.032 C 
BRANCH   6   7
ATOM      7  C   UNL     1      11.926 -22.561  39.856  1.00  0.00    -0.028 C 
ATOM      8  C   UNL     1      14.102 -23.147  38.876  1.00  0.00     0.039 C 
ATOM      9  C   UNL     1      13.180 -23.022  40.061  1.00  0.00    -0.080 C 
ATOM     10  C   UNL     1      13.673 -23.423  41.432  1.00  0.00     0.039 C 
ENDBRANCH   6   7
ENDBRANCH   5   6
ENDBRANCH   3   5
ENDBRANCH   1   2
BRANCH   1  11
ATOM     11  C   UNL     1      10.760 -26.904  38.285  1.00  0.00     0.034 C 
BRANCH  11  12
ATOM     12  C   UNL     1      11.742 -27.397  39.325  1.00  0.00    -0.077 C 
ATOM     13  C   UNL     1      12.863 -26.680  39.562  1.00  0.00    -0.028 C 
ATOM     14  C   UNL     1      11.425 -28.661  40.089  1.00  0.00     0.039 C 
BRANCH  13  15
ATOM     15  C   UNL     1      13.931 -27.064  40.556  1.00  0.00     0.035 C 
BRANCH  15  16
ATOM     16  C   UNL     1      15.320 -27.020  39.911  1.00  0.00     0.079 C 
BRANCH  16  17
ATOM     17  C   UNL     1      15.368 -27.897  38.690  1.00  0.00     0.130 C 
ATOM     18  O   UNL     1      15.743 -27.434  37.624  1.00  0.00    -0.300 OA
ATOM     19  C   UNL     1      14.977 -29.341  38.778  1.00  0.00     0.087 C 
ENDBRANCH  16  17
ENDBRANCH  15  16
ENDBRANCH  13  15
ENDBRANCH  11  12
ENDBRANCH   1  11
TORSDOF 9
ENDMDL
MODEL 7
REMARK VINA RESULT:    -4.046      2.562      4.891
REMARK INTER + INTRA:          -8.535
REMARK INTER:                  -6.091
REMARK INTRA:                  -2.444
REMARK UNBOUND:                -2.360
REMARK SMILES CC(=O)CCC=C(C)CCC=C(C)CCC=C(C)C
REMARK SMILES IDX 10 1 11 2 12 3 13 4 14 5 15 6 16 7 18 8 17 9 19 10 9 11 7 12
REMARK SMILES IDX 6 13 8 14 5 15 4 16 2 17 3 18 1 19
REMARK H PARENT
REMARK Flexibility Score: inf
ROOT
ATOM      1  C   UNL     1      10.304 -28.755  40.982  1.00  0.00     0.032 C 
ENDROOT
BRANCH   1   2
ATOM      2  C   UNL     1      11.270 -28.851  39.828  1.00  0.00    -0.028 C 
ATOM      3  C   UNL     1      10.915 -28.769  38.525  1.00  0.00    -0.077 C 
ATOM      4  C   UNL     1       9.491 -28.497  38.101  1.00  0.00     0.039 C 
BRANCH   3   5
ATOM      5  C   UNL     1      11.982 -28.932  37.465  1.00  0.00     0.034 C 
BRANCH   5   6
ATOM      6  C   UNL     1      13.309 -28.322  37.930  1.00  0.00     0.032 C 
BRANCH   6   7
ATOM      7  C   UNL     1      13.330 -26.834  37.686  1.00  0.00    -0.028 C 
ATOM      8  C   UNL     1      13.540 -24.452  38.256  1.00  0.00     0.039 C 
ATOM      9  C   UNL     1      13.600 -25.909  38.635  1.00  0.00    -0.080 C 
ATOM     10  C   UNL     1      13.968 -26.297  40.048  1.00  0.00     0.039 C 
ENDBRANCH   6   7
ENDBRANCH   5   6
ENDBRANCH   3   5
ENDBRANCH   1   2
BRANCH   1  11
ATOM     11  C   UNL     1      10.522 -27.457  41.765  1.00  0.00     0.034 C 
BRANCH  11  12
ATOM     12  C   UNL     1       9.780 -26.310  41.117  1.00  0.00    -0.077 C 
ATOM     13  C   UNL     1      10.487 -25.295  40.570  1.00  0.00    -0.028 C 
ATOM     14  C   UNL     1       8.271 -26.346  41.073  1.00  0.00     0.039 C 
BRANCH  13  15
ATOM     15  C   UNL     1       9.876 -24.085  39.908  1.00  0.00     0.035 C 
BRANCH  15  16
ATOM     16  C   UNL     1       9.693 -22.945  40.915  1.00  0.00     0.079 C 
BRANCH  16  17
ATOM     17  C   UNL     1      11.021 -22.503  41.466  1.00  0.00     0.130 C 
ATOM     18  O   UNL     1      11.263 -22.646  42.655  1.00  0.00    -0.300 OA
ATOM     19  C   UNL     1      12.056 -21.906  40.561  1.00  0.00     0.087 C 
ENDBRANCH  16  17
ENDBRANCH  15  16
ENDBRANCH  13  15
ENDBRANCH  11  12
ENDBRANCH   1  11
TORSDOF 9
ENDMDL
MODEL 8
REMARK VINA RESULT:    -4.042      3.516      6.577
REMARK INTER + INTRA:          -8.528
REMARK INTER:                  -6.806
REMARK INTRA:                  -1.723
REMARK UNBOUND:                -2.360
REMARK SMILES CC(=O)CCC=C(C)CCC=C(C)CCC=C(C)C
REMARK SMILES IDX 10 1 11 2 12 3 13 4 14 5 15 6 16 7 18 8 17 9 19 10 9 11 7 12
REMARK SMILES IDX 6 13 8 14 5 15 4 16 2 17 3 18 1 19
REMARK H PARENT
REMARK Flexibility Score: inf
ROOT
ATOM      1  C   UNL     1      11.813 -26.195  39.046  1.00  0.00     0.032 C 
ENDROOT
BRANCH   1   2
ATOM      2  C   UNL     1      10.914 -25.078  39.514  1.00  0.00    -0.028 C 
ATOM      3  C   UNL     1      10.114 -25.145  40.603  1.00  0.00    -0.077 C 
ATOM      4  C   UNL     1      10.103 -26.353  41.511  1.00  0.00     0.039 C 
BRANCH   3   5
ATOM      5  C   UNL     1       9.225 -23.967  40.931  1.00  0.00     0.034 C 
BRANCH   5   6
ATOM      6  C   UNL     1       9.890 -22.649  40.517  1.00  0.00     0.032 C 
BRANCH   6   7
ATOM      7  C   UNL     1      10.874 -22.193  41.565  1.00  0.00    -0.028 C 
ATOM      8  C   UNL     1      13.033 -21.432  42.459  1.00  0.00     0.039 C 
ATOM      9  C   UNL     1      12.148 -21.823  41.304  1.00  0.00    -0.080 C 
ATOM     10  C   UNL     1      12.697 -21.779  39.897  1.00  0.00     0.039 C 
ENDBRANCH   6   7
ENDBRANCH   5   6
ENDBRANCH   3   5
ENDBRANCH   1   2
BRANCH   1  11
ATOM     11  C   UNL     1      13.280 -25.869  39.343  1.00  0.00     0.034 C 
BRANCH  11  12
ATOM     12  C   UNL     1      13.843 -26.828  40.369  1.00  0.00    -0.077 C 
ATOM     13  C   UNL     1      13.183 -27.979  40.624  1.00  0.00    -0.028 C 
ATOM     14  C   UNL     1      15.143 -26.483  41.056  1.00  0.00     0.039 C 
BRANCH  13  15
ATOM     15  C   UNL     1      13.622 -29.013  41.631  1.00  0.00     0.035 C 
BRANCH  15  16
ATOM     16  C   UNL     1      12.552 -29.216  42.709  1.00  0.00     0.079 C 
BRANCH  16  17
ATOM     17  C   UNL     1      13.181 -29.624  44.013  1.00  0.00     0.130 C 
ATOM     18  O   UNL     1      12.652 -30.486  44.699  1.00  0.00    -0.300 OA
ATOM     19  C   UNL     1      14.463 -28.995  44.467  1.00  0.00     0.087 C 
ENDBRANCH  16  17
ENDBRANCH  15  16
ENDBRANCH  13  15
ENDBRANCH  11  12
ENDBRANCH   1  11
TORSDOF 9
ENDMDL
MODEL 9
REMARK VINA RESULT:    -3.991      4.579      8.001
REMARK INTER + INTRA:          -8.451
REMARK INTER:                  -5.603
REMARK INTRA:                  -2.848
REMARK UNBOUND:                -2.360
REMARK SMILES CC(=O)CCC=C(C)CCC=C(C)CCC=C(C)C
REMARK SMILES IDX 10 1 11 2 12 3 13 4 14 5 15 6 16 7 18 8 17 9 19 10 9 11 7 12
REMARK SMILES IDX 6 13 8 14 5 15 4 16 2 17 3 18 1 19
REMARK H PARENT
REMARK Flexibility Score: inf
ROOT
ATOM      1  C   UNL     1      13.043 -29.476  38.516  1.00  0.00     0.032 C 
ENDROOT
BRANCH   1   2
ATOM      2  C   UNL     1      12.461 -28.184  39.031  1.00  0.00    -0.028 C 
ATOM      3  C   UNL     1      12.882 -27.549  40.149  1.00  0.00    -0.077 C 
ATOM      4  C   UNL     1      14.050 -28.055  40.963  1.00  0.00     0.039 C 
BRANCH   3   5
ATOM      5  C   UNL     1      12.175 -26.282  40.580  1.00  0.00     0.034 C 
BRANCH   5   6
ATOM      6  C   UNL     1      10.664 -26.397  40.353  1.00  0.00     0.032 C 
BRANCH   6   7
ATOM      7  C   UNL     1      10.012 -27.178  41.467  1.00  0.00    -0.028 C 
ATOM      8  C   UNL     1       8.577 -28.894  42.484  1.00  0.00     0.039 C 
ATOM      9  C   UNL     1       9.194 -28.237  41.277  1.00  0.00    -0.080 C 
ATOM     10  C   UNL     1       8.893 -28.780  39.899  1.00  0.00     0.039 C 
ENDBRANCH   6   7
ENDBRANCH   5   6
ENDBRANCH   3   5
ENDBRANCH   1   2
BRANCH   1  11
ATOM     11  C   UNL     1      12.152 -30.662  38.901  1.00  0.00     0.034 C 
BRANCH  11  12
ATOM     12  C   UNL     1      12.480 -31.146  40.296  1.00  0.00    -0.077 C 
ATOM     13  C   UNL     1      11.587 -30.937  41.290  1.00  0.00    -0.028 C 
ATOM     14  C   UNL     1      13.781 -31.875  40.531  1.00  0.00     0.039 C 
BRANCH  13  15
ATOM     15  C   UNL     1      11.793 -31.352  42.726  1.00  0.00     0.035 C 
BRANCH  15  16
ATOM     16  C   UNL     1      11.938 -30.126  43.633  1.00  0.00     0.079 C 
BRANCH  16  17
ATOM     17  C   UNL     1      13.331 -30.041  44.194  1.00  0.00     0.130 C 
ATOM     18  O   UNL     1      13.747 -28.978  44.629  1.00  0.00    -0.300 OA
ATOM     19  C   UNL     1      14.205 -31.258  44.240  1.00  0.00     0.087 C 
ENDBRANCH  16  17
ENDBRANCH  15  16
ENDBRANCH  13  15
ENDBRANCH  11  12
ENDBRANCH   1  11
TORSDOF 9
ENDMDL
