MODEL 1
REMARK VINA RESULT:    -4.189      0.000      0.000
REMARK INTER + INTRA:          -6.484
REMARK INTER:                  -6.148
REMARK INTRA:                  -0.336
REMARK UNBOUND:                -0.336
REMARK SMILES O=C([O-])CCCCCCCC(=O)[O-]
REMARK SMILES IDX 7 1 6 2 5 3 4 4 2 5 1 6 3 7 8 8 9 9 10 10 11 11 12 12 13 13
REMARK H PARENT
REMARK Flexibility Score: inf
ROOT
ATOM      1  C   UNL     1       5.443  -1.203  -6.387  1.00  0.00     0.000 C 
ENDROOT
BRANCH   1   2
ATOM      2  C   UNL     1       6.481  -2.237  -5.900  1.00  0.00     0.000 C 
BRANCH   2   3
ATOM      3  C   UNL     1       5.839  -3.601  -5.591  1.00  0.00     0.006 C 
BRANCH   3   4
ATOM      4  C   UNL     1       6.784  -4.524  -4.810  1.00  0.00     0.053 C 
BRANCH   4   5
ATOM      5  C   UNL     1       7.437  -5.535  -5.702  1.00  0.00     0.041 C 
ATOM      6  O   UNL     1       8.259  -6.363  -5.228  1.00  0.00    -0.550 OA
ATOM      7  O   UNL     1       7.111  -5.584  -7.052  1.00  0.00    -0.550 OA
ENDBRANCH   4   5
ENDBRANCH   3   4
ENDBRANCH   2   3
ENDBRANCH   1   2
BRANCH   1   8
ATOM      8  C   UNL     1       4.725  -0.465  -5.245  1.00  0.00     0.000 C 
BRANCH   8   9
ATOM      9  C   UNL     1       5.278   0.947  -5.004  1.00  0.00     0.006 C 
BRANCH   9  10
ATOM     10  C   UNL     1       5.913   1.511  -6.278  1.00  0.00     0.053 C 
BRANCH  10  11
ATOM     11  C   UNL     1       5.014   2.531  -6.902  1.00  0.00     0.041 C 
ATOM     12  O   UNL     1       3.785   2.295  -7.040  1.00  0.00    -0.550 OA
ATOM     13  O   UNL     1       5.542   3.725  -7.379  1.00  0.00    -0.550 OA
ENDBRANCH  10  11
ENDBRANCH   9  10
ENDBRANCH   8   9
ENDBRANCH   1   8
TORSDOF 8
ENDMDL
MODEL 2
REMARK VINA RESULT:    -4.129      1.788      6.367
REMARK INTER + INTRA:          -6.396
REMARK INTER:                  -5.724
REMARK INTRA:                  -0.672
REMARK UNBOUND:                -0.336
REMARK SMILES O=C([O-])CCCCCCCC(=O)[O-]
REMARK SMILES IDX 7 1 6 2 5 3 4 4 2 5 1 6 3 7 8 8 9 9 10 10 11 11 12 12 13 13
REMARK H PARENT
REMARK Flexibility Score: inf
ROOT
ATOM      1  C   UNL     1       6.783  -1.508  -7.749  1.00  0.00     0.000 C 
ENDROOT
BRANCH   1   2
ATOM      2  C   UNL     1       5.281  -1.248  -7.991  1.00  0.00     0.000 C 
BRANCH   2   3
ATOM      3  C   UNL     1       4.905   0.229  -7.774  1.00  0.00     0.006 C 
BRANCH   3   4
ATOM      4  C   UNL     1       4.428   0.502  -6.342  1.00  0.00     0.053 C 
BRANCH   4   5
ATOM      5  C   UNL     1       5.515   1.093  -5.496  1.00  0.00     0.041 C 
ATOM      6  O   UNL     1       6.525   1.616  -6.037  1.00  0.00    -0.550 OA
ATOM      7  O   UNL     1       5.395   1.097  -4.112  1.00  0.00    -0.550 OA
ENDBRANCH   4   5
ENDBRANCH   3   4
ENDBRANCH   2   3
ENDBRANCH   1   2
BRANCH   1   8
ATOM      8  C   UNL     1       7.091  -2.109  -6.368  1.00  0.00     0.000 C 
BRANCH   8   9
ATOM      9  C   UNL     1       5.910  -2.897  -5.783  1.00  0.00     0.006 C 
BRANCH   9  10
ATOM     10  C   UNL     1       6.049  -4.393  -6.080  1.00  0.00     0.053 C 
BRANCH  10  11
ATOM     11  C   UNL     1       7.152  -4.988  -5.264  1.00  0.00     0.041 C 
ATOM     12  O   UNL     1       7.071  -5.011  -4.008  1.00  0.00    -0.550 OA
ATOM     13  O   UNL     1       8.295  -5.472  -5.888  1.00  0.00    -0.550 OA
ENDBRANCH  10  11
ENDBRANCH   9  10
ENDBRANCH   8   9
ENDBRANCH   1   8
TORSDOF 8
ENDMDL
MODEL 3
REMARK VINA RESULT:    -4.097      1.251      6.660
REMARK INTER + INTRA:          -6.349
REMARK INTER:                  -5.768
REMARK INTRA:                  -0.581
REMARK UNBOUND:                -0.336
REMARK SMILES O=C([O-])CCCCCCCC(=O)[O-]
REMARK SMILES IDX 7 1 6 2 5 3 4 4 2 5 1 6 3 7 8 8 9 9 10 10 11 11 12 12 13 13
REMARK H PARENT
REMARK Flexibility Score: inf
ROOT
ATOM      1  C   UNL     1       6.351  -1.046  -5.613  1.00  0.00     0.000 C 
ENDROOT
BRANCH   1   2
ATOM      2  C   UNL     1       5.519   0.144  -5.090  1.00  0.00     0.000 C 
BRANCH   2   3
ATOM      3  C   UNL     1       4.272   0.406  -5.955  1.00  0.00     0.006 C 
BRANCH   3   4
ATOM      4  C   UNL     1       4.241   1.835  -6.512  1.00  0.00     0.053 C 
BRANCH   4   5
ATOM      5  C   UNL     1       5.335   2.067  -7.509  1.00  0.00     0.041 C 
ATOM      6  O   UNL     1       5.321   1.470  -8.618  1.00  0.00    -0.550 OA
ATOM      7  O   UNL     1       6.352   2.970  -7.227  1.00  0.00    -0.550 OA
ENDBRANCH   4   5
ENDBRANCH   3   4
ENDBRANCH   2   3
ENDBRANCH   1   2
BRANCH   1   8
ATOM      8  C   UNL     1       5.802  -1.657  -6.913  1.00  0.00     0.000 C 
BRANCH   8   9
ATOM      9  C   UNL     1       5.903  -3.189  -6.943  1.00  0.00     0.006 C 
BRANCH   9  10
ATOM     10  C   UNL     1       5.706  -3.778  -5.544  1.00  0.00     0.053 C 
BRANCH  10  11
ATOM     11  C   UNL     1       6.759  -4.801  -5.254  1.00  0.00     0.041 C 
ATOM     12  O   UNL     1       7.297  -4.852  -4.117  1.00  0.00    -0.550 OA
ATOM     13  O   UNL     1       7.182  -5.666  -6.254  1.00  0.00    -0.550 OA
ENDBRANCH  10  11
ENDBRANCH   9  10
ENDBRANCH   8   9
ENDBRANCH   1   8
TORSDOF 8
ENDMDL
MODEL 4
REMARK VINA RESULT:    -4.086      0.805      1.374
REMARK INTER + INTRA:          -6.333
REMARK INTER:                  -5.907
REMARK INTRA:                  -0.426
REMARK UNBOUND:                -0.336
REMARK SMILES O=C([O-])CCCCCCCC(=O)[O-]
REMARK SMILES IDX 7 1 6 2 5 3 4 4 2 5 1 6 3 7 8 8 9 9 10 10 11 11 12 12 13 13
REMARK H PARENT
REMARK Flexibility Score: inf
ROOT
ATOM      1  C   UNL     1       6.079  -2.113  -6.971  1.00  0.00     0.000 C 
ENDROOT
BRANCH   1   2
ATOM      2  C   UNL     1       6.367  -2.663  -5.557  1.00  0.00     0.000 C 
BRANCH   2   3
ATOM      3  C   UNL     1       5.869  -4.110  -5.386  1.00  0.00     0.006 C 
BRANCH   3   4
ATOM      4  C   UNL     1       7.012  -5.085  -5.074  1.00  0.00     0.053 C 
BRANCH   4   5
ATOM      5  C   UNL     1       7.777  -5.457  -6.308  1.00  0.00     0.041 C 
ATOM      6  O   UNL     1       9.029  -5.587  -6.263  1.00  0.00    -0.550 OA
ATOM      7  O   UNL     1       7.103  -5.694  -7.499  1.00  0.00    -0.550 OA
ENDBRANCH   4   5
ENDBRANCH   3   4
ENDBRANCH   2   3
ENDBRANCH   1   2
BRANCH   1   8
ATOM      8  C   UNL     1       5.271  -0.805  -6.970  1.00  0.00     0.000 C 
BRANCH   8   9
ATOM      9  C   UNL     1       4.818  -0.383  -5.565  1.00  0.00     0.006 C 
BRANCH   9  10
ATOM     10  C   UNL     1       5.315   1.026  -5.229  1.00  0.00     0.053 C 
BRANCH  10  11
ATOM     11  C   UNL     1       4.951   1.983  -6.321  1.00  0.00     0.041 C 
ATOM     12  O   UNL     1       5.851   2.609  -6.941  1.00  0.00    -0.550 OA
ATOM     13  O   UNL     1       3.616   2.222  -6.620  1.00  0.00    -0.550 OA
ENDBRANCH  10  11
ENDBRANCH   9  10
ENDBRANCH   8   9
ENDBRANCH   1   8
TORSDOF 8
ENDMDL
MODEL 5
REMARK VINA RESULT:    -4.014      1.196      7.018
REMARK INTER + INTRA:          -6.226
REMARK INTER:                  -5.959
REMARK INTRA:                  -0.268
REMARK UNBOUND:                -0.336
REMARK SMILES O=C([O-])CCCCCCCC(=O)[O-]
REMARK SMILES IDX 7 1 6 2 5 3 4 4 2 5 1 6 3 7 8 8 9 9 10 10 11 11 12 12 13 13
REMARK H PARENT
REMARK Flexibility Score: inf
ROOT
ATOM      1  C   UNL     1       4.826  -0.406  -5.277  1.00  0.00     0.000 C 
ENDROOT
BRANCH   1   2
ATOM      2  C   UNL     1       5.154   1.098  -5.393  1.00  0.00     0.000 C 
BRANCH   2   3
ATOM      3  C   UNL     1       4.331   1.789  -6.495  1.00  0.00     0.006 C 
BRANCH   3   4
ATOM      4  C   UNL     1       5.162   2.064  -7.755  1.00  0.00     0.053 C 
BRANCH   4   5
ATOM      5  C   UNL     1       6.132   3.187  -7.545  1.00  0.00     0.041 C 
ATOM      6  O   UNL     1       7.361   2.947  -7.405  1.00  0.00    -0.550 OA
ATOM      7  O   UNL     1       5.683   4.502  -7.541  1.00  0.00    -0.550 OA
ENDBRANCH   4   5
ENDBRANCH   3   4
ENDBRANCH   2   3
ENDBRANCH   1   2
BRANCH   1   8
ATOM      8  C   UNL     1       5.606  -1.284  -6.269  1.00  0.00     0.000 C 
BRANCH   8   9
ATOM      9  C   UNL     1       6.582  -2.245  -5.576  1.00  0.00     0.006 C 
BRANCH   9  10
ATOM     10  C   UNL     1       6.012  -3.666  -5.529  1.00  0.00     0.053 C 
BRANCH  10  11
ATOM     11  C   UNL     1       7.060  -4.636  -5.083  1.00  0.00     0.041 C 
ATOM     12  O   UNL     1       7.058  -5.074  -3.902  1.00  0.00    -0.550 OA
ATOM     13  O   UNL     1       8.071  -5.018  -5.956  1.00  0.00    -0.550 OA
ENDBRANCH  10  11
ENDBRANCH   9  10
ENDBRANCH   8   9
ENDBRANCH   1   8
TORSDOF 8
ENDMDL
MODEL 6
REMARK VINA RESULT:    -4.012      1.157      1.825
REMARK INTER + INTRA:          -6.225
REMARK INTER:                  -5.781
REMARK INTRA:                  -0.443
REMARK UNBOUND:                -0.336
REMARK SMILES O=C([O-])CCCCCCCC(=O)[O-]
REMARK SMILES IDX 7 1 6 2 5 3 4 4 2 5 1 6 3 7 8 8 9 9 10 10 11 11 12 12 13 13
REMARK H PARENT
REMARK Flexibility Score: inf
ROOT
ATOM      1  C   UNL     1       4.852  -0.398  -5.253  1.00  0.00     0.000 C 
ENDROOT
BRANCH   1   2
ATOM      2  C   UNL     1       5.607  -1.262  -6.285  1.00  0.00     0.000 C 
BRANCH   2   3
ATOM      3  C   UNL     1       6.494  -2.326  -5.614  1.00  0.00     0.006 C 
BRANCH   3   4
ATOM      4  C   UNL     1       5.797  -3.689  -5.522  1.00  0.00     0.053 C 
BRANCH   4   5
ATOM      5  C   UNL     1       6.771  -4.794  -5.246  1.00  0.00     0.041 C 
ATOM      6  O   UNL     1       7.187  -4.996  -4.074  1.00  0.00    -0.550 OA
ATOM      7  O   UNL     1       7.192  -5.623  -6.278  1.00  0.00    -0.550 OA
ENDBRANCH   4   5
ENDBRANCH   3   4
ENDBRANCH   2   3
ENDBRANCH   1   2
BRANCH   1   8
ATOM      8  C   UNL     1       5.446   1.010  -5.076  1.00  0.00     0.000 C 
BRANCH   8   9
ATOM      9  C   UNL     1       6.293   1.456  -6.276  1.00  0.00     0.006 C 
BRANCH   9  10
ATOM     10  C   UNL     1       5.587   2.564  -7.064  1.00  0.00     0.053 C 
BRANCH  10  11
ATOM     11  C   UNL     1       5.051   2.028  -8.354  1.00  0.00     0.041 C 
ATOM     12  O   UNL     1       5.521   2.429  -9.451  1.00  0.00    -0.550 OA
ATOM     13  O   UNL     1       3.998   1.122  -8.347  1.00  0.00    -0.550 OA
ENDBRANCH  10  11
ENDBRANCH   9  10
ENDBRANCH   8   9
ENDBRANCH   1   8
TORSDOF 8
ENDMDL
MODEL 7
REMARK VINA RESULT:    -3.968      1.717      2.029
REMARK INTER + INTRA:          -6.160
REMARK INTER:                  -5.586
REMARK INTRA:                  -0.574
REMARK UNBOUND:                -0.336
REMARK SMILES O=C([O-])CCCCCCCC(=O)[O-]
REMARK SMILES IDX 7 1 6 2 5 3 4 4 2 5 1 6 3 7 8 8 9 9 10 10 11 11 12 12 13 13
REMARK H PARENT
REMARK Flexibility Score: inf
ROOT
ATOM      1  C   UNL     1       6.749  -1.390  -7.470  1.00  0.00     0.000 C 
ENDROOT
BRANCH   1   2
ATOM      2  C   UNL     1       7.057  -2.054  -6.111  1.00  0.00     0.000 C 
BRANCH   2   3
ATOM      3  C   UNL     1       5.850  -2.833  -5.559  1.00  0.00     0.006 C 
BRANCH   3   4
ATOM      4  C   UNL     1       5.951  -4.338  -5.842  1.00  0.00     0.053 C 
BRANCH   4   5
ATOM      5  C   UNL     1       7.121  -4.958  -5.140  1.00  0.00     0.041 C 
ATOM      6  O   UNL     1       7.120  -5.072  -3.885  1.00  0.00    -0.550 OA
ATOM      7  O   UNL     1       8.196  -5.442  -5.874  1.00  0.00    -0.550 OA
ENDBRANCH   4   5
ENDBRANCH   3   4
ENDBRANCH   2   3
ENDBRANCH   1   2
BRANCH   1   8
ATOM      8  C   UNL     1       5.246  -1.205  -7.739  1.00  0.00     0.000 C 
BRANCH   8   9
ATOM      9  C   UNL     1       4.849   0.266  -7.923  1.00  0.00     0.006 C 
BRANCH   9  10
ATOM     10  C   UNL     1       4.308   0.856  -6.618  1.00  0.00     0.053 C 
BRANCH  10  11
ATOM     11  C   UNL     1       5.432   1.190  -5.690  1.00  0.00     0.041 C 
ATOM     12  O   UNL     1       5.366   0.875  -4.472  1.00  0.00    -0.550 OA
ATOM     13  O   UNL     1       6.534   1.896  -6.157  1.00  0.00    -0.550 OA
ENDBRANCH  10  11
ENDBRANCH   9  10
ENDBRANCH   8   9
ENDBRANCH   1   8
TORSDOF 8
ENDMDL
MODEL 8
REMARK VINA RESULT:    -3.714      1.334      7.418
REMARK INTER + INTRA:          -5.787
REMARK INTER:                  -5.482
REMARK INTRA:                  -0.306
REMARK UNBOUND:                -0.336
REMARK SMILES O=C([O-])CCCCCCCC(=O)[O-]
REMARK SMILES IDX 7 1 6 2 5 3 4 4 2 5 1 6 3 7 8 8 9 9 10 10 11 11 12 12 13 13
REMARK H PARENT
REMARK Flexibility Score: inf
ROOT
ATOM      1  C   UNL     1       5.811  -3.482  -6.107  1.00  0.00     0.000 C 
ENDROOT
BRANCH   1   2
ATOM      2  C   UNL     1       5.974  -2.057  -6.676  1.00  0.00     0.000 C 
BRANCH   2   3
ATOM      3  C   UNL     1       6.090  -0.998  -5.565  1.00  0.00     0.006 C 
BRANCH   3   4
ATOM      4  C   UNL     1       4.877  -0.059  -5.527  1.00  0.00     0.053 C 
BRANCH   4   5
ATOM      5  C   UNL     1       5.231   1.325  -5.979  1.00  0.00     0.041 C 
ATOM      6  O   UNL     1       6.438   1.676  -6.063  1.00  0.00    -0.550 OA
ATOM      7  O   UNL     1       4.229   2.216  -6.342  1.00  0.00    -0.550 OA
ENDBRANCH   4   5
ENDBRANCH   3   4
ENDBRANCH   2   3
ENDBRANCH   1   2
BRANCH   1   8
ATOM      8  C   UNL     1       6.716  -3.769  -4.897  1.00  0.00     0.000 C 
BRANCH   8   9
ATOM      9  C   UNL     1       7.141  -5.241  -4.805  1.00  0.00     0.006 C 
BRANCH   9  10
ATOM     10  C   UNL     1       7.764  -5.715  -6.121  1.00  0.00     0.053 C 
BRANCH  10  11
ATOM     11  C   UNL     1       8.267  -7.117  -5.987  1.00  0.00     0.041 C 
ATOM     12  O   UNL     1       8.972  -7.447  -4.997  1.00  0.00    -0.550 OA
ATOM     13  O   UNL     1       8.000  -8.051  -6.980  1.00  0.00    -0.550 OA
ENDBRANCH  10  11
ENDBRANCH   9  10
ENDBRANCH   8   9
ENDBRANCH   1   8
TORSDOF 8
ENDMDL
MODEL 9
REMARK VINA RESULT:    -3.693     13.006     14.628
REMARK INTER + INTRA:          -5.755
REMARK INTER:                  -5.322
REMARK INTRA:                  -0.433
REMARK UNBOUND:                -0.336
REMARK SMILES O=C([O-])CCCCCCCC(=O)[O-]
REMARK SMILES IDX 7 1 6 2 5 3 4 4 2 5 1 6 3 7 8 8 9 9 10 10 11 11 12 12 13 13
REMARK H PARENT
REMARK Flexibility Score: inf
ROOT
ATOM      1  C   UNL     1       2.301  -8.642   5.253  1.00  0.00     0.000 C 
ENDROOT
BRANCH   1   2
ATOM      2  C   UNL     1       3.482  -7.969   5.984  1.00  0.00     0.000 C 
BRANCH   2   3
ATOM      3  C   UNL     1       3.030  -7.226   7.255  1.00  0.00     0.006 C 
BRANCH   3   4
ATOM      4  C   UNL     1       1.570  -6.764   7.169  1.00  0.00     0.053 C 
BRANCH   4   5
ATOM      5  C   UNL     1       1.439  -5.290   7.407  1.00  0.00     0.041 C 
ATOM      6  O   UNL     1       0.323  -4.793   7.714  1.00  0.00    -0.550 OA
ATOM      7  O   UNL     1       2.558  -4.470   7.326  1.00  0.00    -0.550 OA
ENDBRANCH   4   5
ENDBRANCH   3   4
ENDBRANCH   2   3
ENDBRANCH   1   2
BRANCH   1   8
ATOM      8  C   UNL     1       2.623  -9.045   3.804  1.00  0.00     0.000 C 
BRANCH   8   9
ATOM      9  C   UNL     1       1.383  -9.061   2.899  1.00  0.00     0.006 C 
BRANCH   9  10
ATOM     10  C   UNL     1       0.098  -8.988   3.728  1.00  0.00     0.053 C 
BRANCH  10  11
ATOM     11  C   UNL     1      -1.027  -8.447   2.904  1.00  0.00     0.041 C 
ATOM     12  O   UNL     1      -0.801  -7.605   1.995  1.00  0.00    -0.550 OA
ATOM     13  O   UNL     1      -2.334  -8.835   3.171  1.00  0.00    -0.550 OA
ENDBRANCH  10  11
ENDBRANCH   9  10
ENDBRANCH   8   9
ENDBRANCH   1   8
TORSDOF 8
ENDMDL
