MODEL 1
REMARK VINA RESULT:     1.001      0.000      0.000
REMARK INTER + INTRA:           3.699
REMARK INTER:                   1.352
REMARK INTRA:                   2.348
REMARK UNBOUND:                 2.348
REMARK SMILES CC(C)=CCC[C@@H](C(=O)[O-])[C@@H]1[C@H](O)C[C@@]2(C)C3=CC[C@H]4C(C)(C)[C@@H](O)CC[C@]4(C)C3=CC[C@@]12C
REMARK SMILES IDX 6 1 7 2 8 3 9 4 10 5 11 6 12 7 33 8 14 9 15 10 32 11 34 12
REMARK SMILES IDX 16 13 17 14 31 15 30 16 18 17 28 18 19 19 20 20 27 21 29 22
REMARK SMILES IDX 21 23 26 24 24 25 22 26 23 27 13 28 25 30 5 32 4 33 2 34
REMARK SMILES IDX 1 35 3 36
REMARK H PARENT 13 29 25 31
REMARK Flexibility Score: inf
ROOT
ATOM      1  C   UNL     1      98.175 112.103 113.978  1.00  0.00     0.014 C 
ENDROOT
BRANCH   1   2
ATOM      2  C   UNL     1      98.298 111.866 115.506  1.00  0.00     0.042 C 
BRANCH   2   3
ATOM      3  C   UNL     1      98.893 110.497 115.756  1.00  0.00     0.045 C 
ATOM      4  O   UNL     1      99.440 109.847 114.815  1.00  0.00    -0.550 OA
ATOM      5  O   UNL     1      98.798 109.926 117.019  1.00  0.00    -0.550 OA
ENDBRANCH   2   3
BRANCH   2   6
ATOM      6  C   UNL     1      99.153 112.961 116.237  1.00  0.00     0.034 C 
ATOM      7  C   UNL     1      99.152 114.304 115.478  1.00  0.00     0.119 C 
ATOM      8  C   UNL     1     100.669 112.692 116.546  1.00  0.00    -0.014 C 
ATOM      9  C   UNL     1     100.334 115.107 116.025  1.00  0.00     0.044 C 
ATOM     10  C   UNL     1     101.229 114.148 116.857  1.00  0.00     0.001 C 
ATOM     11  C   UNL     1     100.939 111.784 117.776  1.00  0.00     0.035 C 
ATOM     12  C   UNL     1     101.355 112.008 115.327  1.00  0.00     0.013 C 
ATOM     13  C   UNL     1     102.720 114.310 116.440  1.00  0.00     0.017 C 
ATOM     14  C   UNL     1     101.083 114.528 118.360  1.00  0.00    -0.042 C 
ATOM     15  C   UNL     1     100.284 112.312 119.004  1.00  0.00    -0.022 C 
ATOM     16  C   UNL     1     100.404 113.608 119.328  1.00  0.00    -0.042 C 
ATOM     17  C   UNL     1     101.498 115.742 118.795  1.00  0.00    -0.022 C 
ATOM     18  C   UNL     1      99.792 114.216 120.601  1.00  0.00    -0.004 C 
ATOM     19  C   UNL     1     101.292 116.265 120.187  1.00  0.00     0.032 C 
ATOM     20  C   UNL     1     100.906 115.154 121.196  1.00  0.00     0.011 C 
ATOM     21  C   UNL     1      99.404 113.132 121.652  1.00  0.00     0.014 C 
ATOM     22  C   UNL     1      98.499 114.949 120.147  1.00  0.00     0.017 C 
ATOM     23  C   UNL     1     100.700 115.673 122.677  1.00  0.00    -0.005 C 
ATOM     24  C   UNL     1      99.073 113.719 123.028  1.00  0.00     0.033 C 
ATOM     25  C   UNL     1     100.264 114.485 123.593  1.00  0.00     0.120 C 
ATOM     26  C   UNL     1     102.062 116.185 123.232  1.00  0.00     0.014 C 
ATOM     27  C   UNL     1      99.696 116.853 122.779  1.00  0.00     0.014 C 
BRANCH   7  28
ATOM     28  O   UNL     1      99.310 114.105 114.092  1.00  0.00    -0.393 OA
ATOM     29  H   UNL     1      99.663 114.965 113.731  1.00  0.00     0.210 HD
ENDBRANCH   7  28
BRANCH  25  30
ATOM     30  O   UNL     1      99.932 114.940 124.887  1.00  0.00    -0.393 OA
ATOM     31  H   UNL     1     100.516 114.455 125.535  1.00  0.00     0.210 HD
ENDBRANCH  25  30
ENDBRANCH   2   6
ENDBRANCH   1   2
BRANCH   1  32
ATOM     32  C   UNL     1      96.871 111.582 113.350  1.00  0.00     0.028 C 
BRANCH  32  33
ATOM     33  C   UNL     1      96.196 112.627 112.496  1.00  0.00    -0.028 C 
ATOM     34  C   UNL     1      95.198 112.351 111.627  1.00  0.00    -0.080 C 
ATOM     35  C   UNL     1      94.683 110.947 111.450  1.00  0.00     0.039 C 
ATOM     36  C   UNL     1      94.618 113.443 110.770  1.00  0.00     0.039 C 
ENDBRANCH  32  33
ENDBRANCH   1  32
TORSDOF 7
ENDMDL
MODEL 2
REMARK VINA RESULT:     1.818      1.492      2.099
REMARK INTER + INTRA:           4.803
REMARK INTER:                   3.657
REMARK INTRA:                   1.146
REMARK UNBOUND:                 2.348
REMARK SMILES CC(C)=CCC[C@@H](C(=O)[O-])[C@@H]1[C@H](O)C[C@@]2(C)C3=CC[C@H]4C(C)(C)[C@@H](O)CC[C@]4(C)C3=CC[C@@]12C
REMARK SMILES IDX 6 1 7 2 8 3 9 4 10 5 11 6 12 7 33 8 14 9 15 10 32 11 34 12
REMARK SMILES IDX 16 13 17 14 31 15 30 16 18 17 28 18 19 19 20 20 27 21 29 22
REMARK SMILES IDX 21 23 26 24 24 25 22 26 23 27 13 28 25 30 5 32 4 33 2 34
REMARK SMILES IDX 1 35 3 36
REMARK H PARENT 13 29 25 31
REMARK Flexibility Score: inf
ROOT
ATOM      1  C   UNL     1      99.500 111.566 114.219  1.00  0.00     0.014 C 
ENDROOT
BRANCH   1   2
ATOM      2  C   UNL     1      98.798 111.920 115.556  1.00  0.00     0.042 C 
BRANCH   2   3
ATOM      3  C   UNL     1      98.725 110.685 116.428  1.00  0.00     0.045 C 
ATOM      4  O   UNL     1      98.352 110.767 117.637  1.00  0.00    -0.550 OA
ATOM      5  O   UNL     1      99.117 109.456 115.913  1.00  0.00    -0.550 OA
ENDBRANCH   2   3
BRANCH   2   6
ATOM      6  C   UNL     1      99.505 113.084 116.338  1.00  0.00     0.034 C 
ATOM      7  C   UNL     1      99.344 114.445 115.629  1.00  0.00     0.119 C 
ATOM      8  C   UNL     1     101.039 112.993 116.657  1.00  0.00    -0.014 C 
ATOM      9  C   UNL     1     100.412 115.367 116.221  1.00  0.00     0.044 C 
ATOM     10  C   UNL     1     101.412 114.494 117.029  1.00  0.00     0.001 C 
ATOM     11  C   UNL     1     101.410 112.079 117.856  1.00  0.00     0.035 C 
ATOM     12  C   UNL     1     101.816 112.446 115.423  1.00  0.00     0.013 C 
ATOM     13  C   UNL     1     102.875 114.855 116.638  1.00  0.00     0.017 C 
ATOM     14  C   UNL     1     101.207 114.795 118.543  1.00  0.00    -0.042 C 
ATOM     15  C   UNL     1     100.684 112.474 119.094  1.00  0.00    -0.022 C 
ATOM     16  C   UNL     1     100.639 113.762 119.467  1.00  0.00    -0.042 C 
ATOM     17  C   UNL     1     101.465 116.033 119.028  1.00  0.00    -0.022 C 
ATOM     18  C   UNL     1      99.946 114.240 120.754  1.00  0.00    -0.004 C 
ATOM     19  C   UNL     1     101.184 116.473 120.436  1.00  0.00     0.032 C 
ATOM     20  C   UNL     1     100.930 115.285 121.398  1.00  0.00     0.011 C 
ATOM     21  C   UNL     1      99.687 113.078 121.759  1.00  0.00     0.014 C 
ATOM     22  C   UNL     1      98.576 114.825 120.310  1.00  0.00     0.017 C 
ATOM     23  C   UNL     1     100.649 115.718 122.894  1.00  0.00    -0.005 C 
ATOM     24  C   UNL     1      99.274 113.566 123.151  1.00  0.00     0.033 C 
ATOM     25  C   UNL     1     100.356 114.451 123.760  1.00  0.00     0.120 C 
ATOM     26  C   UNL     1     101.932 116.373 123.486  1.00  0.00     0.014 C 
ATOM     27  C   UNL     1      99.506 116.760 123.026  1.00  0.00     0.014 C 
BRANCH   7  28
ATOM     28  O   UNL     1      99.537 114.319 114.240  1.00  0.00    -0.393 OA
ATOM     29  H   UNL     1      98.918 114.978 113.817  1.00  0.00     0.210 HD
ENDBRANCH   7  28
BRANCH  25  30
ATOM     30  O   UNL     1      99.959 114.812 125.065  1.00  0.00    -0.393 OA
ATOM     31  H   UNL     1      99.138 115.375 124.983  1.00  0.00     0.210 HD
ENDBRANCH  25  30
ENDBRANCH   2   6
ENDBRANCH   1   2
BRANCH   1  32
ATOM     32  C   UNL     1      98.682 111.893 112.958  1.00  0.00     0.028 C 
BRANCH  32  33
ATOM     33  C   UNL     1      99.259 111.246 111.724  1.00  0.00    -0.028 C 
ATOM     34  C   UNL     1     100.336 111.727 111.063  1.00  0.00    -0.080 C 
ATOM     35  C   UNL     1     101.045 112.971 111.526  1.00  0.00     0.039 C 
ATOM     36  C   UNL     1     100.813 111.054 109.804  1.00  0.00     0.039 C 
ENDBRANCH  32  33
ENDBRANCH   1  32
TORSDOF 7
ENDMDL
MODEL 3
REMARK VINA RESULT:     2.603      3.528      5.676
REMARK INTER + INTRA:           5.864
REMARK INTER:                   5.431
REMARK INTRA:                   0.432
REMARK UNBOUND:                 2.348
REMARK SMILES CC(C)=CCC[C@@H](C(=O)[O-])[C@@H]1[C@H](O)C[C@@]2(C)C3=CC[C@H]4C(C)(C)[C@@H](O)CC[C@]4(C)C3=CC[C@@]12C
REMARK SMILES IDX 6 1 7 2 8 3 9 4 10 5 11 6 12 7 33 8 14 9 15 10 32 11 34 12
REMARK SMILES IDX 16 13 17 14 31 15 30 16 18 17 28 18 19 19 20 20 27 21 29 22
REMARK SMILES IDX 21 23 26 24 24 25 22 26 23 27 13 28 25 30 5 32 4 33 2 34
REMARK SMILES IDX 1 35 3 36
REMARK H PARENT 13 29 25 31
REMARK Flexibility Score: inf
ROOT
ATOM      1  C   UNL     1     101.452 114.208 111.253  1.00  0.00     0.014 C 
ENDROOT
BRANCH   1   2
ATOM      2  C   UNL     1     100.464 113.034 111.023  1.00  0.00     0.042 C 
BRANCH   2   3
ATOM      3  C   UNL     1     101.092 112.024 110.086  1.00  0.00     0.045 C 
ATOM      4  O   UNL     1     102.206 111.488 110.364  1.00  0.00    -0.550 OA
ATOM      5  O   UNL     1     100.463 111.718 108.885  1.00  0.00    -0.550 OA
ENDBRANCH   2   3
BRANCH   2   6
ATOM      6  C   UNL     1     100.024 112.325 112.354  1.00  0.00     0.034 C 
ATOM      7  C   UNL     1     100.290 110.806 112.319  1.00  0.00     0.119 C 
ATOM      8  C   UNL     1      98.541 112.448 112.852  1.00  0.00    -0.014 C 
ATOM      9  C   UNL     1      99.438 110.196 113.435  1.00  0.00     0.044 C 
ATOM     10  C   UNL     1      98.428 111.273 113.918  1.00  0.00     0.001 C 
ATOM     11  C   UNL     1      98.190 113.788 113.552  1.00  0.00     0.035 C 
ATOM     12  C   UNL     1      97.556 112.299 111.654  1.00  0.00     0.013 C 
ATOM     13  C   UNL     1      96.994 110.671 113.986  1.00  0.00     0.017 C 
ATOM     14  C   UNL     1      98.850 111.730 115.346  1.00  0.00    -0.042 C 
ATOM     15  C   UNL     1      99.105 114.069 114.693  1.00  0.00    -0.022 C 
ATOM     16  C   UNL     1      99.373 113.112 115.593  1.00  0.00    -0.042 C 
ATOM     17  C   UNL     1      98.827 110.847 116.373  1.00  0.00    -0.022 C 
ATOM     18  C   UNL     1     100.273 113.340 116.819  1.00  0.00    -0.004 C 
ATOM     19  C   UNL     1      99.331 111.137 117.758  1.00  0.00     0.032 C 
ATOM     20  C   UNL     1      99.528 112.652 118.021  1.00  0.00     0.011 C 
ATOM     21  C   UNL     1     100.483 114.852 117.130  1.00  0.00     0.014 C 
ATOM     22  C   UNL     1     101.649 112.712 116.462  1.00  0.00     0.017 C 
ATOM     23  C   UNL     1     100.040 112.990 119.480  1.00  0.00    -0.005 C 
ATOM     24  C   UNL     1     101.121 115.102 118.501  1.00  0.00     0.033 C 
ATOM     25  C   UNL     1     100.253 114.531 119.617  1.00  0.00     0.120 C 
ATOM     26  C   UNL     1      98.941 112.600 120.511  1.00  0.00     0.014 C 
ATOM     27  C   UNL     1     101.326 112.212 119.872  1.00  0.00     0.014 C 
BRANCH   7  28
ATOM     28  O   UNL     1      99.919 110.253 111.078  1.00  0.00    -0.393 OA
ATOM     29  H   UNL     1     100.309 110.854 110.384  1.00  0.00     0.210 HD
ENDBRANCH   7  28
BRANCH  25  30
ATOM     30  O   UNL     1     100.848 114.851 120.856  1.00  0.00    -0.393 OA
ATOM     31  H   UNL     1     100.317 114.396 121.569  1.00  0.00     0.210 HD
ENDBRANCH  25  30
ENDBRANCH   2   6
ENDBRANCH   1   2
BRANCH   1  32
ATOM     32  C   UNL     1     101.797 115.012 109.988  1.00  0.00     0.028 C 
BRANCH  32  33
ATOM     33  C   UNL     1     100.630 115.837 109.504  1.00  0.00    -0.028 C 
ATOM     34  C   UNL     1     100.684 117.176 109.326  1.00  0.00    -0.080 C 
ATOM     35  C   UNL     1     101.944 117.950 109.607  1.00  0.00     0.039 C 
ATOM     36  C   UNL     1      99.456 117.932 108.896  1.00  0.00     0.039 C 
ENDBRANCH  32  33
ENDBRANCH   1  32
TORSDOF 7
ENDMDL
