MODEL 1
REMARK VINA RESULT:    -6.175      0.000      0.000
REMARK INTER + INTRA:         -12.518
REMARK INTER:                 -10.146
REMARK INTRA:                  -2.372
REMARK UNBOUND:                -2.372
REMARK SMILES C[C@@H]1O[C@@H](OC[C@@H]2O[C@H](Oc3c(-c4ccc(O)c(O)c4)oc4cc(O)cc(O)c4c3=O)[C@@H](O)[C@H](O)[C@@H]2O)[C@@H](O)[C@H](O)[C@H]1O
REMARK SMILES IDX 7 1 36 2 34 3 32 4 9 5 8 6 6 7 5 8 4 9 1 10 2 11 42 12 3 13
REMARK SMILES IDX 40 14 38 15 43 16 41 18 39 20 37 22 35 24 10 26 11 27 12 28
REMARK SMILES IDX 30 29 21 30 29 31 31 32 22 33 27 34 23 35 26 36 24 37 13 38
REMARK SMILES IDX 20 39 14 40 18 41 15 42 16 43 19 44 17 46 28 48 25 50 33 52
REMARK H PARENT 43 17 41 19 39 21 37 23 35 25 19 45 17 47 28 49 25 51 33 53
REMARK Flexibility Score: inf
ROOT
ATOM      1  C   UNL     1      14.443  25.584  39.159  1.00  0.00     0.180 C 
ATOM      2  C   UNL     1      12.949  25.365  38.795  1.00  0.00     0.177 C 
ATOM      3  C   UNL     1      12.239  24.443  39.791  1.00  0.00     0.180 C 
ATOM      4  C   UNL     1      12.518  24.918  41.226  1.00  0.00     0.214 C 
ATOM      5  C   UNL     1      14.032  25.098  41.464  1.00  0.00     0.339 C 
ATOM      6  O   UNL     1      14.634  25.972  40.519  1.00  0.00    -0.332 OA
ENDROOT
BRANCH   1   7
ATOM      7  C   UNL     1      15.396  24.443  38.740  1.00  0.00     0.198 C 
BRANCH   7   8
ATOM      8  O   UNL     1      16.730  24.814  39.015  1.00  0.00    -0.347 OA
BRANCH   8   9
ATOM      9  C   UNL     1      17.582  24.518  37.917  1.00  0.00     0.281 C 
ATOM     10  C   UNL     1      20.394  22.994  39.745  1.00  0.00     0.041 C 
ATOM     11  C   UNL     1      19.396  24.088  39.349  1.00  0.00     0.150 C 
ATOM     12  C   UNL     1      20.148  25.373  38.921  1.00  0.00     0.174 C 
ATOM     13  O   UNL     1      18.586  23.587  38.295  1.00  0.00    -0.344 OA
ATOM     14  C   UNL     1      19.139  26.430  38.434  1.00  0.00     0.179 C 
ATOM     15  C   UNL     1      18.216  25.813  37.377  1.00  0.00     0.202 C 
BRANCH  12  16
ATOM     16  O   UNL     1      20.868  25.879  40.017  1.00  0.00    -0.388 OA
ATOM     17  H   UNL     1      21.745  25.414  40.026  1.00  0.00     0.211 HD
ENDBRANCH  12  16
BRANCH  14  18
ATOM     18  O   UNL     1      19.816  27.523  37.868  1.00  0.00    -0.387 OA
ATOM     19  H   UNL     1      19.288  27.818  37.082  1.00  0.00     0.211 HD
ENDBRANCH  14  18
BRANCH  15  20
ATOM     20  O   UNL     1      17.213  26.736  37.043  1.00  0.00    -0.385 OA
ATOM     21  H   UNL     1      17.344  26.966  36.087  1.00  0.00     0.211 HD
ENDBRANCH  15  20
ENDBRANCH   8   9
ENDBRANCH   7   8
ENDBRANCH   1   7
BRANCH   2  22
ATOM     22  O   UNL     1      12.803  24.861  37.491  1.00  0.00    -0.387 OA
ATOM     23  H   UNL     1      12.528  25.624  36.917  1.00  0.00     0.211 HD
ENDBRANCH   2  22
BRANCH   3  24
ATOM     24  O   UNL     1      12.655  23.112  39.621  1.00  0.00    -0.387 OA
ATOM     25  H   UNL     1      13.086  22.838  40.473  1.00  0.00     0.211 HD
ENDBRANCH   3  24
BRANCH   5  26
ATOM     26  O   UNL     1      14.716  23.842  41.499  1.00  0.00    -0.454 OA
BRANCH  26  27
ATOM     27  C   UNL     1      14.784  23.041  42.648  1.00  0.00     0.214 A 
ATOM     28  C   UNL     1      15.734  23.314  43.644  1.00  0.00     0.180 A 
ATOM     29  C   UNL     1      13.944  21.929  42.803  1.00  0.00     0.239 A 
ATOM     30  O   UNL     1      15.828  22.529  44.708  1.00  0.00    -0.452 OA
ATOM     31  C   UNL     1      14.010  21.156  43.985  1.00  0.00     0.111 A 
ATOM     32  O   UNL     1      13.180  21.611  41.854  1.00  0.00    -0.285 OA
ATOM     33  C   UNL     1      15.029  21.488  44.917  1.00  0.00     0.146 A 
ATOM     34  C   UNL     1      13.151  20.053  44.282  1.00  0.00     0.134 A 
ATOM     35  C   UNL     1      15.211  20.726  46.074  1.00  0.00     0.094 A 
ATOM     36  C   UNL     1      13.378  19.296  45.436  1.00  0.00     0.093 A 
ATOM     37  C   UNL     1      14.393  19.628  46.331  1.00  0.00     0.123 A 
BRANCH  28  38
ATOM     38  C   UNL     1      16.632  24.473  43.545  1.00  0.00     0.025 A 
ATOM     39  C   UNL     1      16.697  25.407  44.593  1.00  0.00     0.062 A 
ATOM     40  C   UNL     1      17.465  24.623  42.431  1.00  0.00     0.016 A 
ATOM     41  C   UNL     1      17.568  26.501  44.514  1.00  0.00     0.158 A 
ATOM     42  C   UNL     1      18.340  25.710  42.352  1.00  0.00     0.051 A 
ATOM     43  C   UNL     1      18.401  26.651  43.392  1.00  0.00     0.157 A 
BRANCH  41  44
ATOM     44  O   UNL     1      17.586  27.427  45.556  1.00  0.00    -0.504 OA
ATOM     45  H   UNL     1      17.649  27.145  46.524  1.00  0.00     0.293 HD
ENDBRANCH  41  44
BRANCH  43  46
ATOM     46  O   UNL     1      19.283  27.730  43.312  1.00  0.00    -0.504 OA
ATOM     47  H   UNL     1      18.978  28.676  43.492  1.00  0.00     0.293 HD
ENDBRANCH  43  46
ENDBRANCH  28  38
BRANCH  34  48
ATOM     48  O   UNL     1      12.049  19.687  43.502  1.00  0.00    -0.507 OA
ATOM     49  H   UNL     1      11.280  20.298  43.266  1.00  0.00     0.293 HD
ENDBRANCH  34  48
BRANCH  37  50
ATOM     50  O   UNL     1      14.576  18.862  47.481  1.00  0.00    -0.508 OA
ATOM     51  H   UNL     1      14.913  17.905  47.433  1.00  0.00     0.293 HD
ENDBRANCH  37  50
ENDBRANCH  26  27
ENDBRANCH   5  26
BRANCH   4  52
ATOM     52  O   UNL     1      11.875  26.147  41.462  1.00  0.00    -0.384 OA
ATOM     53  H   UNL     1      11.886  26.647  40.604  1.00  0.00     0.211 HD
ENDBRANCH   4  52
TORSDOF 16
ENDMDL
MODEL 2
REMARK VINA RESULT:    -6.070      3.303      9.322
REMARK INTER + INTRA:         -12.345
REMARK INTER:                  -9.506
REMARK INTRA:                  -2.839
REMARK UNBOUND:                -2.372
REMARK SMILES C[C@@H]1O[C@@H](OC[C@@H]2O[C@H](Oc3c(-c4ccc(O)c(O)c4)oc4cc(O)cc(O)c4c3=O)[C@@H](O)[C@H](O)[C@@H]2O)[C@@H](O)[C@H](O)[C@H]1O
REMARK SMILES IDX 7 1 36 2 34 3 32 4 9 5 8 6 6 7 5 8 4 9 1 10 2 11 42 12 3 13
REMARK SMILES IDX 40 14 38 15 43 16 41 18 39 20 37 22 35 24 10 26 11 27 12 28
REMARK SMILES IDX 30 29 21 30 29 31 31 32 22 33 27 34 23 35 26 36 24 37 13 38
REMARK SMILES IDX 20 39 14 40 18 41 15 42 16 43 19 44 17 46 28 48 25 50 33 52
REMARK H PARENT 43 17 41 19 39 21 37 23 35 25 19 45 17 47 28 49 25 51 33 53
REMARK Flexibility Score: inf
ROOT
ATOM      1  C   UNL     1      12.331  23.832  46.889  1.00  0.00     0.180 C 
ATOM      2  C   UNL     1      11.964  24.558  48.212  1.00  0.00     0.177 C 
ATOM      3  C   UNL     1      12.952  25.678  48.552  1.00  0.00     0.180 C 
ATOM      4  C   UNL     1      13.153  26.581  47.323  1.00  0.00     0.214 C 
ATOM      5  C   UNL     1      13.513  25.745  46.077  1.00  0.00     0.339 C 
ATOM      6  O   UNL     1      12.556  24.731  45.805  1.00  0.00    -0.332 OA
ENDROOT
BRANCH   1   7
ATOM      7  C   UNL     1      13.449  22.772  47.009  1.00  0.00     0.198 C 
BRANCH   7   8
ATOM      8  O   UNL     1      12.915  21.580  47.544  1.00  0.00    -0.347 OA
BRANCH   8   9
ATOM      9  C   UNL     1      13.912  20.833  48.228  1.00  0.00     0.281 C 
ATOM     10  C   UNL     1      14.610  18.287  45.658  1.00  0.00     0.041 C 
ATOM     11  C   UNL     1      13.772  19.081  46.666  1.00  0.00     0.150 C 
ATOM     12  C   UNL     1      13.093  18.122  47.675  1.00  0.00     0.174 C 
ATOM     13  O   UNL     1      14.628  20.004  47.324  1.00  0.00    -0.344 OA
ATOM     14  C   UNL     1      12.334  18.936  48.739  1.00  0.00     0.179 C 
ATOM     15  C   UNL     1      13.268  19.991  49.345  1.00  0.00     0.202 C 
BRANCH  12  16
ATOM     16  O   UNL     1      12.194  17.286  46.992  1.00  0.00    -0.388 OA
ATOM     17  H   UNL     1      11.563  17.876  46.504  1.00  0.00     0.211 HD
ENDBRANCH  12  16
BRANCH  14  18
ATOM     18  O   UNL     1      11.876  18.090  49.763  1.00  0.00    -0.387 OA
ATOM     19  H   UNL     1      12.368  18.339  50.588  1.00  0.00     0.211 HD
ENDBRANCH  14  18
BRANCH  15  20
ATOM     20  O   UNL     1      12.534  20.820  50.207  1.00  0.00    -0.385 OA
ATOM     21  H   UNL     1      13.121  21.584  50.437  1.00  0.00     0.211 HD
ENDBRANCH  15  20
ENDBRANCH   8   9
ENDBRANCH   7   8
ENDBRANCH   1   7
BRANCH   2  22
ATOM     22  O   UNL     1      11.875  23.659  49.289  1.00  0.00    -0.387 OA
ATOM     23  H   UNL     1      11.681  24.199  50.100  1.00  0.00     0.211 HD
ENDBRANCH   2  22
BRANCH   3  24
ATOM     24  O   UNL     1      14.179  25.147  48.982  1.00  0.00    -0.387 OA
ATOM     25  H   UNL     1      14.623  24.769  48.177  1.00  0.00     0.211 HD
ENDBRANCH   3  24
BRANCH   5  26
ATOM     26  O   UNL     1      14.827  25.189  46.173  1.00  0.00    -0.454 OA
BRANCH  26  27
ATOM     27  C   UNL     1      15.897  25.616  45.375  1.00  0.00     0.214 A 
ATOM     28  C   UNL     1      16.249  24.898  44.222  1.00  0.00     0.180 A 
ATOM     29  C   UNL     1      16.666  26.732  45.736  1.00  0.00     0.239 A 
ATOM     30  O   UNL     1      17.289  25.277  43.493  1.00  0.00    -0.452 OA
ATOM     31  C   UNL     1      17.720  27.162  44.896  1.00  0.00     0.111 A 
ATOM     32  O   UNL     1      16.429  27.300  46.834  1.00  0.00    -0.285 OA
ATOM     33  C   UNL     1      18.022  26.349  43.772  1.00  0.00     0.146 A 
ATOM     34  C   UNL     1      18.513  28.329  45.125  1.00  0.00     0.134 A 
ATOM     35  C   UNL     1      19.098  26.662  42.937  1.00  0.00     0.094 A 
ATOM     36  C   UNL     1      19.598  28.597  44.284  1.00  0.00     0.093 A 
ATOM     37  C   UNL     1      19.889  27.779  43.194  1.00  0.00     0.123 A 
BRANCH  28  38
ATOM     38  C   UNL     1      15.473  23.729  43.784  1.00  0.00     0.025 A 
ATOM     39  C   UNL     1      14.304  23.901  43.024  1.00  0.00     0.062 A 
ATOM     40  C   UNL     1      15.926  22.438  44.077  1.00  0.00     0.016 A 
ATOM     41  C   UNL     1      13.575  22.789  42.585  1.00  0.00     0.158 A 
ATOM     42  C   UNL     1      15.204  21.326  43.635  1.00  0.00     0.051 A 
ATOM     43  C   UNL     1      14.029  21.493  42.884  1.00  0.00     0.157 A 
BRANCH  41  44
ATOM     44  O   UNL     1      12.402  22.994  41.860  1.00  0.00    -0.504 OA
ATOM     45  H   UNL     1      11.499  23.061  42.307  1.00  0.00     0.293 HD
ENDBRANCH  41  44
BRANCH  43  46
ATOM     46  O   UNL     1      13.317  20.379  42.437  1.00  0.00    -0.504 OA
ATOM     47  H   UNL     1      13.593  19.440  42.687  1.00  0.00     0.293 HD
ENDBRANCH  43  46
ENDBRANCH  28  38
BRANCH  34  48
ATOM     48  O   UNL     1      18.257  29.265  46.132  1.00  0.00    -0.507 OA
ATOM     49  H   UNL     1      18.715  29.285  47.032  1.00  0.00     0.293 HD
ENDBRANCH  34  48
BRANCH  37  50
ATOM     50  O   UNL     1      20.967  28.090  42.367  1.00  0.00    -0.508 OA
ATOM     51  H   UNL     1      21.818  28.502  42.736  1.00  0.00     0.293 HD
ENDBRANCH  37  50
ENDBRANCH  26  27
ENDBRANCH   5  26
BRANCH   4  52
ATOM     52  O   UNL     1      11.976  27.305  47.057  1.00  0.00    -0.384 OA
ATOM     53  H   UNL     1      11.256  26.896  47.606  1.00  0.00     0.211 HD
ENDBRANCH   4  52
TORSDOF 16
ENDMDL
MODEL 3
REMARK VINA RESULT:    -6.044      2.074      7.455
REMARK INTER + INTRA:         -12.302
REMARK INTER:                 -11.925
REMARK INTRA:                  -0.377
REMARK UNBOUND:                -2.372
REMARK SMILES C[C@@H]1O[C@@H](OC[C@@H]2O[C@H](Oc3c(-c4ccc(O)c(O)c4)oc4cc(O)cc(O)c4c3=O)[C@@H](O)[C@H](O)[C@@H]2O)[C@@H](O)[C@H](O)[C@H]1O
REMARK SMILES IDX 7 1 36 2 34 3 32 4 9 5 8 6 6 7 5 8 4 9 1 10 2 11 42 12 3 13
REMARK SMILES IDX 40 14 38 15 43 16 41 18 39 20 37 22 35 24 10 26 11 27 12 28
REMARK SMILES IDX 30 29 21 30 29 31 31 32 22 33 27 34 23 35 26 36 24 37 13 38
REMARK SMILES IDX 20 39 14 40 18 41 15 42 16 43 19 44 17 46 28 48 25 50 33 52
REMARK H PARENT 43 17 41 19 39 21 37 23 35 25 19 45 17 47 28 49 25 51 33 53
REMARK Flexibility Score: inf
ROOT
ATOM      1  C   UNL     1      14.361  22.652  42.615  1.00  0.00     0.180 C 
ATOM      2  C   UNL     1      12.820  22.846  42.667  1.00  0.00     0.177 C 
ATOM      3  C   UNL     1      12.421  24.324  42.603  1.00  0.00     0.180 C 
ATOM      4  C   UNL     1      13.144  25.005  41.430  1.00  0.00     0.214 C 
ATOM      5  C   UNL     1      14.663  24.739  41.490  1.00  0.00     0.339 C 
ATOM      6  O   UNL     1      14.974  23.353  41.535  1.00  0.00    -0.332 OA
ENDROOT
BRANCH   1   7
ATOM      7  C   UNL     1      15.098  22.880  43.953  1.00  0.00     0.198 C 
BRANCH   7   8
ATOM      8  O   UNL     1      15.094  21.686  44.705  1.00  0.00    -0.347 OA
BRANCH   8   9
ATOM      9  C   UNL     1      15.074  20.546  43.857  1.00  0.00     0.281 C 
ATOM     10  C   UNL     1      12.476  18.578  45.574  1.00  0.00     0.041 C 
ATOM     11  C   UNL     1      13.806  19.323  45.414  1.00  0.00     0.150 C 
ATOM     12  C   UNL     1      14.990  18.392  45.776  1.00  0.00     0.174 C 
ATOM     13  O   UNL     1      13.898  19.780  44.072  1.00  0.00    -0.344 OA
ATOM     14  C   UNL     1      16.323  19.120  45.518  1.00  0.00     0.179 C 
ATOM     15  C   UNL     1      16.332  19.690  44.094  1.00  0.00     0.202 C 
BRANCH  12  16
ATOM     16  O   UNL     1      14.904  18.034  47.132  1.00  0.00    -0.388 OA
ATOM     17  H   UNL     1      14.335  18.715  47.576  1.00  0.00     0.211 HD
ENDBRANCH  12  16
BRANCH  14  18
ATOM     18  O   UNL     1      17.398  18.228  45.659  1.00  0.00    -0.387 OA
ATOM     19  H   UNL     1      18.206  18.773  45.846  1.00  0.00     0.211 HD
ENDBRANCH  14  18
BRANCH  15  20
ATOM     20  O   UNL     1      17.484  20.470  43.915  1.00  0.00    -0.385 OA
ATOM     21  H   UNL     1      17.543  20.674  42.946  1.00  0.00     0.211 HD
ENDBRANCH  15  20
ENDBRANCH   8   9
ENDBRANCH   7   8
ENDBRANCH   1   7
BRANCH   2  22
ATOM     22  O   UNL     1      12.262  22.251  43.811  1.00  0.00    -0.387 OA
ATOM     23  H   UNL     1      12.049  22.987  44.443  1.00  0.00     0.211 HD
ENDBRANCH   2  22
BRANCH   3  24
ATOM     24  O   UNL     1      12.717  24.973  43.813  1.00  0.00    -0.387 OA
ATOM     25  H   UNL     1      11.974  24.764  44.438  1.00  0.00     0.211 HD
ENDBRANCH   3  24
BRANCH   5  26
ATOM     26  O   UNL     1      15.281  25.433  42.578  1.00  0.00    -0.454 OA
BRANCH  26  27
ATOM     27  C   UNL     1      16.595  25.919  42.525  1.00  0.00     0.214 A 
ATOM     28  C   UNL     1      17.170  26.524  43.652  1.00  0.00     0.180 A 
ATOM     29  C   UNL     1      17.340  25.858  41.338  1.00  0.00     0.239 A 
ATOM     30  O   UNL     1      18.396  27.024  43.588  1.00  0.00    -0.452 OA
ATOM     31  C   UNL     1      18.675  26.326  41.320  1.00  0.00     0.111 A 
ATOM     32  O   UNL     1      16.781  25.429  40.295  1.00  0.00    -0.285 OA
ATOM     33  C   UNL     1      19.154  26.954  42.499  1.00  0.00     0.146 A 
ATOM     34  C   UNL     1      19.548  26.240  40.192  1.00  0.00     0.134 A 
ATOM     35  C   UNL     1      20.435  27.513  42.537  1.00  0.00     0.094 A 
ATOM     36  C   UNL     1      20.814  26.832  40.256  1.00  0.00     0.093 A 
ATOM     37  C   UNL     1      21.261  27.458  41.418  1.00  0.00     0.123 A 
BRANCH  28  38
ATOM     38  C   UNL     1      16.445  26.605  44.928  1.00  0.00     0.025 A 
ATOM     39  C   UNL     1      15.457  25.657  45.241  1.00  0.00     0.062 A 
ATOM     40  C   UNL     1      16.775  27.596  45.860  1.00  0.00     0.016 A 
ATOM     41  C   UNL     1      14.780  25.716  46.466  1.00  0.00     0.158 A 
ATOM     42  C   UNL     1      16.106  27.653  47.086  1.00  0.00     0.051 A 
ATOM     43  C   UNL     1      15.110  26.714  47.398  1.00  0.00     0.157 A 
BRANCH  41  44
ATOM     44  O   UNL     1      13.783  24.779  46.732  1.00  0.00    -0.504 OA
ATOM     45  H   UNL     1      13.103  24.505  46.037  1.00  0.00     0.293 HD
ENDBRANCH  41  44
BRANCH  43  46
ATOM     46  O   UNL     1      14.451  26.771  48.627  1.00  0.00    -0.504 OA
ATOM     47  H   UNL     1      14.656  26.113  49.367  1.00  0.00     0.293 HD
ENDBRANCH  43  46
ENDBRANCH  28  38
BRANCH  34  48
ATOM     48  O   UNL     1      19.237  25.558  39.011  1.00  0.00    -0.507 OA
ATOM     49  H   UNL     1      19.909  25.278  38.311  1.00  0.00     0.293 HD
ENDBRANCH  34  48
BRANCH  37  50
ATOM     50  O   UNL     1      22.536  28.020  41.450  1.00  0.00    -0.508 OA
ATOM     51  H   UNL     1      23.299  27.579  41.954  1.00  0.00     0.293 HD
ENDBRANCH  37  50
ENDBRANCH  26  27
ENDBRANCH   5  26
BRANCH   4  52
ATOM     52  O   UNL     1      12.648  24.519  40.207  1.00  0.00    -0.384 OA
ATOM     53  H   UNL     1      12.551  23.535  40.307  1.00  0.00     0.211 HD
ENDBRANCH   4  52
TORSDOF 16
ENDMDL
MODEL 4
REMARK VINA RESULT:    -5.979      2.940      4.942
REMARK INTER + INTRA:         -12.195
REMARK INTER:                  -9.680
REMARK INTRA:                  -2.515
REMARK UNBOUND:                -2.372
REMARK SMILES C[C@@H]1O[C@@H](OC[C@@H]2O[C@H](Oc3c(-c4ccc(O)c(O)c4)oc4cc(O)cc(O)c4c3=O)[C@@H](O)[C@H](O)[C@@H]2O)[C@@H](O)[C@H](O)[C@H]1O
REMARK SMILES IDX 7 1 36 2 34 3 32 4 9 5 8 6 6 7 5 8 4 9 1 10 2 11 42 12 3 13
REMARK SMILES IDX 40 14 38 15 43 16 41 18 39 20 37 22 35 24 10 26 11 27 12 28
REMARK SMILES IDX 30 29 21 30 29 31 31 32 22 33 27 34 23 35 26 36 24 37 13 38
REMARK SMILES IDX 20 39 14 40 18 41 15 42 16 43 19 44 17 46 28 48 25 50 33 52
REMARK H PARENT 43 17 41 19 39 21 37 23 35 25 19 45 17 47 28 49 25 51 33 53
REMARK Flexibility Score: inf
ROOT
ATOM      1  C   UNL     1      15.136  24.770  43.123  1.00  0.00     0.180 C 
ATOM      2  C   UNL     1      15.020  23.742  41.964  1.00  0.00     0.177 C 
ATOM      3  C   UNL     1      14.488  22.387  42.443  1.00  0.00     0.180 C 
ATOM      4  C   UNL     1      13.218  22.598  43.285  1.00  0.00     0.214 C 
ATOM      5  C   UNL     1      13.461  23.637  44.399  1.00  0.00     0.339 C 
ATOM      6  O   UNL     1      13.942  24.876  43.895  1.00  0.00    -0.332 OA
ENDROOT
BRANCH   1   7
ATOM      7  C   UNL     1      16.392  24.622  44.010  1.00  0.00     0.198 C 
BRANCH   7   8
ATOM      8  O   UNL     1      17.495  25.230  43.373  1.00  0.00    -0.347 OA
BRANCH   8   9
ATOM      9  C   UNL     1      17.213  26.583  43.039  1.00  0.00     0.281 C 
ATOM     10  C   UNL     1      19.302  26.895  40.021  1.00  0.00     0.041 C 
ATOM     11  C   UNL     1      18.989  26.649  41.501  1.00  0.00     0.150 C 
ATOM     12  C   UNL     1      19.839  27.587  42.394  1.00  0.00     0.174 C 
ATOM     13  O   UNL     1      17.599  26.862  41.701  1.00  0.00    -0.344 OA
ATOM     14  C   UNL     1      19.447  27.398  43.871  1.00  0.00     0.179 C 
ATOM     15  C   UNL     1      17.926  27.529  44.022  1.00  0.00     0.202 C 
BRANCH  12  16
ATOM     16  O   UNL     1      21.201  27.284  42.226  1.00  0.00    -0.388 OA
ATOM     17  H   UNL     1      21.470  27.639  41.339  1.00  0.00     0.211 HD
ENDBRANCH  12  16
BRANCH  14  18
ATOM     18  O   UNL     1      20.070  28.373  44.667  1.00  0.00    -0.387 OA
ATOM     19  H   UNL     1      19.871  29.255  44.259  1.00  0.00     0.211 HD
ENDBRANCH  14  18
BRANCH  15  20
ATOM     20  O   UNL     1      17.562  27.216  45.340  1.00  0.00    -0.385 OA
ATOM     21  H   UNL     1      16.977  26.418  45.292  1.00  0.00     0.211 HD
ENDBRANCH  15  20
ENDBRANCH   8   9
ENDBRANCH   7   8
ENDBRANCH   1   7
BRANCH   2  22
ATOM     22  O   UNL     1      16.248  23.565  41.304  1.00  0.00    -0.387 OA
ATOM     23  H   UNL     1      16.732  24.431  41.362  1.00  0.00     0.211 HD
ENDBRANCH   2  22
BRANCH   3  24
ATOM     24  O   UNL     1      15.465  21.702  43.184  1.00  0.00    -0.387 OA
ATOM     25  H   UNL     1      15.951  21.119  42.543  1.00  0.00     0.211 HD
ENDBRANCH   3  24
BRANCH   5  26
ATOM     26  O   UNL     1      14.332  23.133  45.415  1.00  0.00    -0.454 OA
BRANCH  26  27
ATOM     27  C   UNL     1      13.871  22.416  46.529  1.00  0.00     0.214 A 
ATOM     28  C   UNL     1      13.370  23.097  47.649  1.00  0.00     0.180 A 
ATOM     29  C   UNL     1      13.948  21.016  46.568  1.00  0.00     0.239 A 
ATOM     30  O   UNL     1      12.977  22.420  48.719  1.00  0.00    -0.452 OA
ATOM     31  C   UNL     1      13.446  20.315  47.690  1.00  0.00     0.111 A 
ATOM     32  O   UNL     1      14.511  20.414  45.617  1.00  0.00    -0.285 OA
ATOM     33  C   UNL     1      12.993  21.093  48.787  1.00  0.00     0.146 A 
ATOM     34  C   UNL     1      13.401  18.891  47.801  1.00  0.00     0.134 A 
ATOM     35  C   UNL     1      12.555  20.478  49.963  1.00  0.00     0.094 A 
ATOM     36  C   UNL     1      12.981  18.309  49.001  1.00  0.00     0.093 A 
ATOM     37  C   UNL     1      12.554  19.089  50.074  1.00  0.00     0.123 A 
BRANCH  28  38
ATOM     38  C   UNL     1      13.252  24.561  47.662  1.00  0.00     0.025 A 
ATOM     39  C   UNL     1      14.401  25.364  47.571  1.00  0.00     0.062 A 
ATOM     40  C   UNL     1      11.988  25.162  47.711  1.00  0.00     0.016 A 
ATOM     41  C   UNL     1      14.291  26.760  47.558  1.00  0.00     0.158 A 
ATOM     42  C   UNL     1      11.875  26.555  47.693  1.00  0.00     0.051 A 
ATOM     43  C   UNL     1      13.022  27.362  47.612  1.00  0.00     0.157 A 
BRANCH  41  44
ATOM     44  O   UNL     1      15.452  27.529  47.499  1.00  0.00    -0.504 OA
ATOM     45  H   UNL     1      16.166  27.372  46.801  1.00  0.00     0.293 HD
ENDBRANCH  41  44
BRANCH  43  46
ATOM     46  O   UNL     1      12.902  28.752  47.585  1.00  0.00    -0.504 OA
ATOM     47  H   UNL     1      12.357  29.249  48.275  1.00  0.00     0.293 HD
ENDBRANCH  43  46
ENDBRANCH  28  38
BRANCH  34  48
ATOM     48  O   UNL     1      13.720  18.014  46.759  1.00  0.00    -0.507 OA
ATOM     49  H   UNL     1      13.640  17.008  46.807  1.00  0.00     0.293 HD
ENDBRANCH  34  48
BRANCH  37  50
ATOM     50  O   UNL     1      12.125  18.472  51.247  1.00  0.00    -0.508 OA
ATOM     51  H   UNL     1      11.337  18.830  51.778  1.00  0.00     0.293 HD
ENDBRANCH  37  50
ENDBRANCH  26  27
ENDBRANCH   5  26
BRANCH   4  52
ATOM     52  O   UNL     1      12.166  23.048  42.468  1.00  0.00    -0.384 OA
ATOM     53  H   UNL     1      11.576  23.606  43.040  1.00  0.00     0.211 HD
ENDBRANCH   4  52
TORSDOF 16
ENDMDL
MODEL 5
REMARK VINA RESULT:    -5.947      1.380      2.364
REMARK INTER + INTRA:         -12.143
REMARK INTER:                  -9.975
REMARK INTRA:                  -2.167
REMARK UNBOUND:                -2.372
REMARK SMILES C[C@@H]1O[C@@H](OC[C@@H]2O[C@H](Oc3c(-c4ccc(O)c(O)c4)oc4cc(O)cc(O)c4c3=O)[C@@H](O)[C@H](O)[C@@H]2O)[C@@H](O)[C@H](O)[C@H]1O
REMARK SMILES IDX 7 1 36 2 34 3 32 4 9 5 8 6 6 7 5 8 4 9 1 10 2 11 42 12 3 13
REMARK SMILES IDX 40 14 38 15 43 16 41 18 39 20 37 22 35 24 10 26 11 27 12 28
REMARK SMILES IDX 30 29 21 30 29 31 31 32 22 33 27 34 23 35 26 36 24 37 13 38
REMARK SMILES IDX 20 39 14 40 18 41 15 42 16 43 19 44 17 46 28 48 25 50 33 52
REMARK H PARENT 43 17 41 19 39 21 37 23 35 25 19 45 17 47 28 49 25 51 33 53
REMARK Flexibility Score: inf
ROOT
ATOM      1  C   UNL     1      14.818  25.785  38.972  1.00  0.00     0.180 C 
ATOM      2  C   UNL     1      13.413  25.695  38.316  1.00  0.00     0.177 C 
ATOM      3  C   UNL     1      12.509  24.678  39.020  1.00  0.00     0.180 C 
ATOM      4  C   UNL     1      12.527  24.933  40.537  1.00  0.00     0.214 C 
ATOM      5  C   UNL     1      13.974  25.002  41.067  1.00  0.00     0.339 C 
ATOM      6  O   UNL     1      14.761  25.969  40.386  1.00  0.00    -0.332 OA
ENDROOT
BRANCH   1   7
ATOM      7  C   UNL     1      15.806  24.669  38.568  1.00  0.00     0.198 C 
BRANCH   7   8
ATOM      8  O   UNL     1      17.056  25.238  38.244  1.00  0.00    -0.347 OA
BRANCH   8   9
ATOM      9  C   UNL     1      17.177  25.445  36.843  1.00  0.00     0.281 C 
ATOM     10  C   UNL     1      15.664  22.307  35.647  1.00  0.00     0.041 C 
ATOM     11  C   UNL     1      16.665  23.195  36.393  1.00  0.00     0.150 C 
ATOM     12  C   UNL     1      18.112  22.867  35.948  1.00  0.00     0.174 C 
ATOM     13  O   UNL     1      16.337  24.551  36.127  1.00  0.00    -0.344 OA
ATOM     14  C   UNL     1      19.100  23.831  36.631  1.00  0.00     0.179 C 
ATOM     15  C   UNL     1      18.645  25.279  36.409  1.00  0.00     0.202 C 
BRANCH  12  16
ATOM     16  O   UNL     1      18.422  21.544  36.306  1.00  0.00    -0.388 OA
ATOM     17  H   UNL     1      18.610  21.544  37.280  1.00  0.00     0.211 HD
ENDBRANCH  12  16
BRANCH  14  18
ATOM     18  O   UNL     1      20.387  23.669  36.093  1.00  0.00    -0.387 OA
ATOM     19  H   UNL     1      20.276  23.336  35.165  1.00  0.00     0.211 HD
ENDBRANCH  14  18
BRANCH  15  20
ATOM     20  O   UNL     1      19.466  26.142  37.151  1.00  0.00    -0.385 OA
ATOM     21  H   UNL     1      19.402  27.034  36.723  1.00  0.00     0.211 HD
ENDBRANCH  15  20
ENDBRANCH   8   9
ENDBRANCH   7   8
ENDBRANCH   1   7
BRANCH   2  22
ATOM     22  O   UNL     1      13.501  25.387  36.948  1.00  0.00    -0.387 OA
ATOM     23  H   UNL     1      14.436  25.098  36.777  1.00  0.00     0.211 HD
ENDBRANCH   2  22
BRANCH   3  24
ATOM     24  O   UNL     1      12.918  23.365  38.734  1.00  0.00    -0.387 OA
ATOM     25  H   UNL     1      12.930  23.280  37.745  1.00  0.00     0.211 HD
ENDBRANCH   3  24
BRANCH   5  26
ATOM     26  O   UNL     1      14.611  23.721  41.041  1.00  0.00    -0.454 OA
BRANCH  26  27
ATOM     27  C   UNL     1      14.818  22.947  42.191  1.00  0.00     0.214 A 
ATOM     28  C   UNL     1      15.925  23.192  43.017  1.00  0.00     0.180 A 
ATOM     29  C   UNL     1      13.958  21.886  42.511  1.00  0.00     0.239 A 
ATOM     30  O   UNL     1      16.145  22.430  44.079  1.00  0.00    -0.452 OA
ATOM     31  C   UNL     1      14.170  21.141  43.695  1.00  0.00     0.111 A 
ATOM     32  O   UNL     1      13.039  21.588  41.705  1.00  0.00    -0.285 OA
ATOM     33  C   UNL     1      15.338  21.440  44.445  1.00  0.00     0.146 A 
ATOM     34  C   UNL     1      13.314  20.095  44.158  1.00  0.00     0.134 A 
ATOM     35  C   UNL     1      15.661  20.698  45.585  1.00  0.00     0.094 A 
ATOM     36  C   UNL     1      13.681  19.356  45.287  1.00  0.00     0.093 A 
ATOM     37  C   UNL     1      14.839  19.654  46.002  1.00  0.00     0.123 A 
BRANCH  28  38
ATOM     38  C   UNL     1      16.853  24.297  42.742  1.00  0.00     0.025 A 
ATOM     39  C   UNL     1      17.682  24.259  41.607  1.00  0.00     0.062 A 
ATOM     40  C   UNL     1      16.877  25.418  43.579  1.00  0.00     0.016 A 
ATOM     41  C   UNL     1      18.551  25.321  41.328  1.00  0.00     0.158 A 
ATOM     42  C   UNL     1      17.738  26.482  43.300  1.00  0.00     0.051 A 
ATOM     43  C   UNL     1      18.576  26.444  42.173  1.00  0.00     0.157 A 
BRANCH  41  44
ATOM     44  O   UNL     1      19.382  25.239  40.212  1.00  0.00    -0.504 OA
ATOM     45  H   UNL     1      19.298  25.873  39.431  1.00  0.00     0.293 HD
ENDBRANCH  41  44
BRANCH  43  46
ATOM     46  O   UNL     1      19.427  27.514  41.894  1.00  0.00    -0.504 OA
ATOM     47  H   UNL     1      20.431  27.401  41.885  1.00  0.00     0.293 HD
ENDBRANCH  43  46
ENDBRANCH  28  38
BRANCH  34  48
ATOM     48  O   UNL     1      12.086  19.771  43.571  1.00  0.00    -0.507 OA
ATOM     49  H   UNL     1      11.755  18.831  43.407  1.00  0.00     0.293 HD
ENDBRANCH  34  48
BRANCH  37  50
ATOM     50  O   UNL     1      15.162  18.908  47.134  1.00  0.00    -0.508 OA
ATOM     51  H   UNL     1      14.460  18.374  47.636  1.00  0.00     0.293 HD
ENDBRANCH  37  50
ENDBRANCH  26  27
ENDBRANCH   5  26
BRANCH   4  52
ATOM     52  O   UNL     1      11.880  26.147  40.831  1.00  0.00    -0.384 OA
ATOM     53  H   UNL     1      11.747  26.172  41.815  1.00  0.00     0.211 HD
ENDBRANCH   4  52
TORSDOF 16
ENDMDL
MODEL 6
REMARK VINA RESULT:    -5.839      3.045      6.955
REMARK INTER + INTRA:         -11.965
REMARK INTER:                 -10.781
REMARK INTRA:                  -1.184
REMARK UNBOUND:                -2.372
REMARK SMILES C[C@@H]1O[C@@H](OC[C@@H]2O[C@H](Oc3c(-c4ccc(O)c(O)c4)oc4cc(O)cc(O)c4c3=O)[C@@H](O)[C@H](O)[C@@H]2O)[C@@H](O)[C@H](O)[C@H]1O
REMARK SMILES IDX 7 1 36 2 34 3 32 4 9 5 8 6 6 7 5 8 4 9 1 10 2 11 42 12 3 13
REMARK SMILES IDX 40 14 38 15 43 16 41 18 39 20 37 22 35 24 10 26 11 27 12 28
REMARK SMILES IDX 30 29 21 30 29 31 31 32 22 33 27 34 23 35 26 36 24 37 13 38
REMARK SMILES IDX 20 39 14 40 18 41 15 42 16 43 19 44 17 46 28 48 25 50 33 52
REMARK H PARENT 43 17 41 19 39 21 37 23 35 25 19 45 17 47 28 49 25 51 33 53
REMARK Flexibility Score: inf
ROOT
ATOM      1  C   UNL     1      14.864  22.659  42.359  1.00  0.00     0.180 C 
ATOM      2  C   UNL     1      13.399  22.153  42.460  1.00  0.00     0.177 C 
ATOM      3  C   UNL     1      12.629  22.832  43.596  1.00  0.00     0.180 C 
ATOM      4  C   UNL     1      12.808  24.357  43.504  1.00  0.00     0.214 C 
ATOM      5  C   UNL     1      14.301  24.732  43.409  1.00  0.00     0.339 C 
ATOM      6  O   UNL     1      14.961  24.082  42.331  1.00  0.00    -0.332 OA
ENDROOT
BRANCH   1   7
ATOM      7  C   UNL     1      15.849  22.027  43.367  1.00  0.00     0.198 C 
BRANCH   7   8
ATOM      8  O   UNL     1      15.132  21.275  44.321  1.00  0.00    -0.347 OA
BRANCH   8   9
ATOM      9  C   UNL     1      15.990  20.803  45.352  1.00  0.00     0.281 C 
ATOM     10  C   UNL     1      16.412  17.323  44.220  1.00  0.00     0.041 C 
ATOM     11  C   UNL     1      15.659  18.568  44.700  1.00  0.00     0.150 C 
ATOM     12  C   UNL     1      14.817  18.237  45.958  1.00  0.00     0.174 C 
ATOM     13  O   UNL     1      16.614  19.586  44.969  1.00  0.00    -0.344 OA
ATOM     14  C   UNL     1      14.144  19.517  46.486  1.00  0.00     0.179 C 
ATOM     15  C   UNL     1      15.195  20.620  46.658  1.00  0.00     0.202 C 
BRANCH  12  16
ATOM     16  O   UNL     1      13.834  17.290  45.625  1.00  0.00    -0.388 OA
ATOM     17  H   UNL     1      14.205  16.732  44.893  1.00  0.00     0.211 HD
ENDBRANCH  12  16
BRANCH  14  18
ATOM     18  O   UNL     1      13.536  19.268  47.728  1.00  0.00    -0.387 OA
ATOM     19  H   UNL     1      12.827  19.952  47.848  1.00  0.00     0.211 HD
ENDBRANCH  14  18
BRANCH  15  20
ATOM     20  O   UNL     1      14.555  21.821  47.002  1.00  0.00    -0.385 OA
ATOM     21  H   UNL     1      14.721  22.456  46.259  1.00  0.00     0.211 HD
ENDBRANCH  15  20
ENDBRANCH   8   9
ENDBRANCH   7   8
ENDBRANCH   1   7
BRANCH   2  22
ATOM     22  O   UNL     1      13.344  20.757  42.614  1.00  0.00    -0.387 OA
ATOM     23  H   UNL     1      12.477  20.551  43.053  1.00  0.00     0.211 HD
ENDBRANCH   2  22
BRANCH   3  24
ATOM     24  O   UNL     1      13.061  22.357  44.845  1.00  0.00    -0.387 OA
ATOM     25  H   UNL     1      12.261  22.336  45.434  1.00  0.00     0.211 HD
ENDBRANCH   3  24
BRANCH   5  26
ATOM     26  O   UNL     1      14.988  24.492  44.641  1.00  0.00    -0.454 OA
BRANCH  26  27
ATOM     27  C   UNL     1      14.963  25.390  45.717  1.00  0.00     0.214 A 
ATOM     28  C   UNL     1      15.890  26.441  45.782  1.00  0.00     0.180 A 
ATOM     29  C   UNL     1      14.050  25.229  46.770  1.00  0.00     0.239 A 
ATOM     30  O   UNL     1      15.894  27.262  46.823  1.00  0.00    -0.452 OA
ATOM     31  C   UNL     1      14.024  26.167  47.828  1.00  0.00     0.111 A 
ATOM     32  O   UNL     1      13.304  24.215  46.774  1.00  0.00    -0.285 OA
ATOM     33  C   UNL     1      15.024  27.174  47.823  1.00  0.00     0.146 A 
ATOM     34  C   UNL     1      13.087  26.145  48.907  1.00  0.00     0.134 A 
ATOM     35  C   UNL     1      15.115  28.093  48.873  1.00  0.00     0.094 A 
ATOM     36  C   UNL     1      13.223  27.063  49.954  1.00  0.00     0.093 A 
ATOM     37  C   UNL     1      14.221  28.035  49.939  1.00  0.00     0.123 A 
BRANCH  28  38
ATOM     38  C   UNL     1      16.860  26.670  44.703  1.00  0.00     0.025 A 
ATOM     39  C   UNL     1      18.237  26.704  44.985  1.00  0.00     0.062 A 
ATOM     40  C   UNL     1      16.421  26.802  43.380  1.00  0.00     0.016 A 
ATOM     41  C   UNL     1      19.166  26.898  43.956  1.00  0.00     0.158 A 
ATOM     42  C   UNL     1      17.347  26.990  42.351  1.00  0.00     0.051 A 
ATOM     43  C   UNL     1      18.722  27.035  42.629  1.00  0.00     0.157 A 
BRANCH  41  44
ATOM     44  O   UNL     1      20.523  26.958  44.273  1.00  0.00    -0.504 OA
ATOM     45  H   UNL     1      21.166  27.553  43.771  1.00  0.00     0.293 HD
ENDBRANCH  41  44
BRANCH  43  46
ATOM     46  O   UNL     1      19.643  27.213  41.596  1.00  0.00    -0.504 OA
ATOM     47  H   UNL     1      19.831  28.127  41.208  1.00  0.00     0.293 HD
ENDBRANCH  43  46
ENDBRANCH  28  38
BRANCH  34  48
ATOM     48  O   UNL     1      11.995  25.274  48.978  1.00  0.00    -0.507 OA
ATOM     49  H   UNL     1      11.691  24.796  49.815  1.00  0.00     0.293 HD
ENDBRANCH  34  48
BRANCH  37  50
ATOM     50  O   UNL     1      14.313  28.944  50.991  1.00  0.00    -0.508 OA
ATOM     51  H   UNL     1      15.121  28.966  51.606  1.00  0.00     0.293 HD
ENDBRANCH  37  50
ENDBRANCH  26  27
ENDBRANCH   5  26
BRANCH   4  52
ATOM     52  O   UNL     1      12.144  24.854  42.368  1.00  0.00    -0.384 OA
ATOM     53  H   UNL     1      11.189  24.594  42.454  1.00  0.00     0.211 HD
ENDBRANCH   4  52
TORSDOF 16
ENDMDL
MODEL 7
REMARK VINA RESULT:    -5.677      3.623      6.951
REMARK INTER + INTRA:         -11.699
REMARK INTER:                  -9.569
REMARK INTRA:                  -2.130
REMARK UNBOUND:                -2.372
REMARK SMILES C[C@@H]1O[C@@H](OC[C@@H]2O[C@H](Oc3c(-c4ccc(O)c(O)c4)oc4cc(O)cc(O)c4c3=O)[C@@H](O)[C@H](O)[C@@H]2O)[C@@H](O)[C@H](O)[C@H]1O
REMARK SMILES IDX 7 1 36 2 34 3 32 4 9 5 8 6 6 7 5 8 4 9 1 10 2 11 42 12 3 13
REMARK SMILES IDX 40 14 38 15 43 16 41 18 39 20 37 22 35 24 10 26 11 27 12 28
REMARK SMILES IDX 30 29 21 30 29 31 31 32 22 33 27 34 23 35 26 36 24 37 13 38
REMARK SMILES IDX 20 39 14 40 18 41 15 42 16 43 19 44 17 46 28 48 25 50 33 52
REMARK H PARENT 43 17 41 19 39 21 37 23 35 25 19 45 17 47 28 49 25 51 33 53
REMARK Flexibility Score: inf
ROOT
ATOM      1  C   UNL     1      15.387  24.177  43.331  1.00  0.00     0.180 C 
ATOM      2  C   UNL     1      15.496  22.725  42.791  1.00  0.00     0.177 C 
ATOM      3  C   UNL     1      15.039  21.688  43.821  1.00  0.00     0.180 C 
ATOM      4  C   UNL     1      13.668  22.092  44.388  1.00  0.00     0.214 C 
ATOM      5  C   UNL     1      13.687  23.551  44.891  1.00  0.00     0.339 C 
ATOM      6  O   UNL     1      14.108  24.468  43.890  1.00  0.00    -0.332 OA
ENDROOT
BRANCH   1   7
ATOM      7  C   UNL     1      16.543  24.624  44.253  1.00  0.00     0.198 C 
BRANCH   7   8
ATOM      8  O   UNL     1      17.564  25.216  43.480  1.00  0.00    -0.347 OA
BRANCH   8   9
ATOM      9  C   UNL     1      17.247  26.563  43.156  1.00  0.00     0.281 C 
ATOM     10  C   UNL     1      19.258  26.923  40.090  1.00  0.00     0.041 C 
ATOM     11  C   UNL     1      18.986  26.667  41.577  1.00  0.00     0.150 C 
ATOM     12  C   UNL     1      19.838  27.620  42.452  1.00  0.00     0.174 C 
ATOM     13  O   UNL     1      17.597  26.853  41.810  1.00  0.00    -0.344 OA
ATOM     14  C   UNL     1      19.484  27.420  43.937  1.00  0.00     0.179 C 
ATOM     15  C   UNL     1      17.965  27.521  44.124  1.00  0.00     0.202 C 
BRANCH  12  16
ATOM     16  O   UNL     1      21.201  27.343  42.251  1.00  0.00    -0.388 OA
ATOM     17  H   UNL     1      21.513  27.938  41.521  1.00  0.00     0.211 HD
ENDBRANCH  12  16
BRANCH  14  18
ATOM     18  O   UNL     1      20.107  28.405  44.721  1.00  0.00    -0.387 OA
ATOM     19  H   UNL     1      20.318  29.166  44.121  1.00  0.00     0.211 HD
ENDBRANCH  14  18
BRANCH  15  20
ATOM     20  O   UNL     1      17.639  27.199  45.450  1.00  0.00    -0.385 OA
ATOM     21  H   UNL     1      18.368  27.555  46.018  1.00  0.00     0.211 HD
ENDBRANCH  15  20
ENDBRANCH   8   9
ENDBRANCH   7   8
ENDBRANCH   1   7
BRANCH   2  22
ATOM     22  O   UNL     1      16.803  22.429  42.364  1.00  0.00    -0.387 OA
ATOM     23  H   UNL     1      17.335  23.261  42.471  1.00  0.00     0.211 HD
ENDBRANCH   2  22
BRANCH   3  24
ATOM     24  O   UNL     1      15.983  21.559  44.853  1.00  0.00    -0.387 OA
ATOM     25  H   UNL     1      16.878  21.647  44.431  1.00  0.00     0.211 HD
ENDBRANCH   3  24
BRANCH   5  26
ATOM     26  O   UNL     1      14.479  23.694  46.074  1.00  0.00    -0.454 OA
BRANCH  26  27
ATOM     27  C   UNL     1      14.010  24.325  47.234  1.00  0.00     0.214 A 
ATOM     28  C   UNL     1      13.364  23.580  48.232  1.00  0.00     0.180 A 
ATOM     29  C   UNL     1      14.129  25.713  47.399  1.00  0.00     0.239 A 
ATOM     30  O   UNL     1      12.881  24.186  49.308  1.00  0.00    -0.452 OA
ATOM     31  C   UNL     1      13.677  26.322  48.593  1.00  0.00     0.111 A 
ATOM     32  O   UNL     1      14.595  26.397  46.450  1.00  0.00    -0.285 OA
ATOM     33  C   UNL     1      13.005  25.490  49.526  1.00  0.00     0.146 A 
ATOM     34  C   UNL     1      13.821  27.710  48.899  1.00  0.00     0.134 A 
ATOM     35  C   UNL     1      12.460  26.028  50.696  1.00  0.00     0.094 A 
ATOM     36  C   UNL     1      13.240  28.220  50.065  1.00  0.00     0.093 A 
ATOM     37  C   UNL     1      12.571  27.391  50.963  1.00  0.00     0.123 A 
BRANCH  28  38
ATOM     38  C   UNL     1      13.221  22.122  48.123  1.00  0.00     0.025 A 
ATOM     39  C   UNL     1      14.267  21.277  48.532  1.00  0.00     0.062 A 
ATOM     40  C   UNL     1      12.021  21.567  47.662  1.00  0.00     0.016 A 
ATOM     41  C   UNL     1      14.125  19.886  48.453  1.00  0.00     0.158 A 
ATOM     42  C   UNL     1      11.876  20.179  47.588  1.00  0.00     0.051 A 
ATOM     43  C   UNL     1      12.922  19.331  47.985  1.00  0.00     0.157 A 
BRANCH  41  44
ATOM     44  O   UNL     1      15.193  19.075  48.837  1.00  0.00    -0.504 OA
ATOM     45  H   UNL     1      16.065  19.057  48.327  1.00  0.00     0.293 HD
ENDBRANCH  41  44
BRANCH  43  46
ATOM     46  O   UNL     1      12.767  17.945  47.918  1.00  0.00    -0.504 OA
ATOM     47  H   UNL     1      13.538  17.339  47.673  1.00  0.00     0.293 HD
ENDBRANCH  43  46
ENDBRANCH  28  38
BRANCH  34  48
ATOM     48  O   UNL     1      14.548  28.613  48.117  1.00  0.00    -0.507 OA
ATOM     49  H   UNL     1      14.181  29.112  47.319  1.00  0.00     0.293 HD
ENDBRANCH  34  48
BRANCH  37  50
ATOM     50  O   UNL     1      12.022  27.932  52.124  1.00  0.00    -0.508 OA
ATOM     51  H   UNL     1      12.473  28.696  52.618  1.00  0.00     0.293 HD
ENDBRANCH  37  50
ENDBRANCH  26  27
ENDBRANCH   5  26
BRANCH   4  52
ATOM     52  O   UNL     1      12.678  21.970  43.396  1.00  0.00    -0.384 OA
ATOM     53  H   UNL     1      13.024  22.430  42.586  1.00  0.00     0.211 HD
ENDBRANCH   4  52
TORSDOF 16
ENDMDL
MODEL 8
REMARK VINA RESULT:    -5.624      1.909      7.560
REMARK INTER + INTRA:         -11.612
REMARK INTER:                  -9.234
REMARK INTRA:                  -2.378
REMARK UNBOUND:                -2.372
REMARK SMILES C[C@@H]1O[C@@H](OC[C@@H]2O[C@H](Oc3c(-c4ccc(O)c(O)c4)oc4cc(O)cc(O)c4c3=O)[C@@H](O)[C@H](O)[C@@H]2O)[C@@H](O)[C@H](O)[C@H]1O
REMARK SMILES IDX 7 1 36 2 34 3 32 4 9 5 8 6 6 7 5 8 4 9 1 10 2 11 42 12 3 13
REMARK SMILES IDX 40 14 38 15 43 16 41 18 39 20 37 22 35 24 10 26 11 27 12 28
REMARK SMILES IDX 30 29 21 30 29 31 31 32 22 33 27 34 23 35 26 36 24 37 13 38
REMARK SMILES IDX 20 39 14 40 18 41 15 42 16 43 19 44 17 46 28 48 25 50 33 52
REMARK H PARENT 43 17 41 19 39 21 37 23 35 25 19 45 17 47 28 49 25 51 33 53
REMARK Flexibility Score: inf
ROOT
ATOM      1  C   UNL     1      13.726  22.343  41.818  1.00  0.00     0.180 C 
ATOM      2  C   UNL     1      12.444  22.899  42.498  1.00  0.00     0.177 C 
ATOM      3  C   UNL     1      12.703  24.221  43.228  1.00  0.00     0.180 C 
ATOM      4  C   UNL     1      13.442  25.193  42.293  1.00  0.00     0.214 C 
ATOM      5  C   UNL     1      14.692  24.526  41.681  1.00  0.00     0.339 C 
ATOM      6  O   UNL     1      14.390  23.311  41.008  1.00  0.00    -0.332 OA
ENDROOT
BRANCH   1   7
ATOM      7  C   UNL     1      14.701  21.602  42.758  1.00  0.00     0.198 C 
BRANCH   7   8
ATOM      8  O   UNL     1      13.989  21.071  43.855  1.00  0.00    -0.347 OA
BRANCH   8   9
ATOM      9  C   UNL     1      14.789  21.061  45.030  1.00  0.00     0.281 C 
ATOM     10  C   UNL     1      16.336  17.737  44.663  1.00  0.00     0.041 C 
ATOM     11  C   UNL     1      15.201  18.756  44.816  1.00  0.00     0.150 C 
ATOM     12  C   UNL     1      14.317  18.399  46.037  1.00  0.00     0.174 C 
ATOM     13  O   UNL     1      15.780  20.046  44.955  1.00  0.00    -0.344 OA
ATOM     14  C   UNL     1      13.241  19.482  46.236  1.00  0.00     0.179 C 
ATOM     15  C   UNL     1      13.901  20.865  46.272  1.00  0.00     0.202 C 
BRANCH  12  16
ATOM     16  O   UNL     1      13.699  17.156  45.818  1.00  0.00    -0.388 OA
ATOM     17  H   UNL     1      14.158  16.737  45.044  1.00  0.00     0.211 HD
ENDBRANCH  12  16
BRANCH  14  18
ATOM     18  O   UNL     1      12.558  19.270  47.445  1.00  0.00    -0.387 OA
ATOM     19  H   UNL     1      11.724  18.778  47.227  1.00  0.00     0.211 HD
ENDBRANCH  14  18
BRANCH  15  20
ATOM     20  O   UNL     1      12.906  21.853  46.311  1.00  0.00    -0.385 OA
ATOM     21  H   UNL     1      13.095  22.478  45.565  1.00  0.00     0.211 HD
ENDBRANCH  15  20
ENDBRANCH   8   9
ENDBRANCH   7   8
ENDBRANCH   1   7
BRANCH   2  22
ATOM     22  O   UNL     1      11.885  21.965  43.387  1.00  0.00    -0.387 OA
ATOM     23  H   UNL     1      11.677  21.152  42.856  1.00  0.00     0.211 HD
ENDBRANCH   2  22
BRANCH   3  24
ATOM     24  O   UNL     1      13.442  24.006  44.402  1.00  0.00    -0.387 OA
ATOM     25  H   UNL     1      13.199  23.100  44.730  1.00  0.00     0.211 HD
ENDBRANCH   3  24
BRANCH   5  26
ATOM     26  O   UNL     1      15.716  24.322  42.659  1.00  0.00    -0.454 OA
BRANCH  26  27
ATOM     27  C   UNL     1      16.595  25.335  43.068  1.00  0.00     0.214 A 
ATOM     28  C   UNL     1      17.728  25.640  42.299  1.00  0.00     0.180 A 
ATOM     29  C   UNL     1      16.389  26.025  44.271  1.00  0.00     0.239 A 
ATOM     30  O   UNL     1      18.582  26.567  42.710  1.00  0.00    -0.452 OA
ATOM     31  C   UNL     1      17.272  27.065  44.646  1.00  0.00     0.111 A 
ATOM     32  O   UNL     1      15.444  25.666  45.021  1.00  0.00    -0.285 OA
ATOM     33  C   UNL     1      18.409  27.274  43.821  1.00  0.00     0.146 A 
ATOM     34  C   UNL     1      17.113  27.884  45.806  1.00  0.00     0.134 A 
ATOM     35  C   UNL     1      19.370  28.230  44.163  1.00  0.00     0.094 A 
ATOM     36  C   UNL     1      18.107  28.813  46.132  1.00  0.00     0.093 A 
ATOM     37  C   UNL     1      19.224  28.994  45.319  1.00  0.00     0.123 A 
BRANCH  28  38
ATOM     38  C   UNL     1      17.989  24.962  41.022  1.00  0.00     0.025 A 
ATOM     39  C   UNL     1      17.451  25.471  39.828  1.00  0.00     0.062 A 
ATOM     40  C   UNL     1      18.819  23.836  40.983  1.00  0.00     0.016 A 
ATOM     41  C   UNL     1      17.717  24.842  38.606  1.00  0.00     0.158 A 
ATOM     42  C   UNL     1      19.091  23.209  39.764  1.00  0.00     0.051 A 
ATOM     43  C   UNL     1      18.548  23.708  38.570  1.00  0.00     0.157 A 
BRANCH  41  44
ATOM     44  O   UNL     1      17.143  25.353  37.443  1.00  0.00    -0.504 OA
ATOM     45  H   UNL     1      16.309  24.955  37.035  1.00  0.00     0.293 HD
ENDBRANCH  41  44
BRANCH  43  46
ATOM     46  O   UNL     1      18.830  23.084  37.354  1.00  0.00    -0.504 OA
ATOM     47  H   UNL     1      18.929  23.613  36.499  1.00  0.00     0.293 HD
ENDBRANCH  43  46
ENDBRANCH  28  38
BRANCH  34  48
ATOM     48  O   UNL     1      15.992  27.850  46.641  1.00  0.00    -0.507 OA
ATOM     49  H   UNL     1      15.126  28.341  46.465  1.00  0.00     0.293 HD
ENDBRANCH  34  48
BRANCH  37  50
ATOM     50  O   UNL     1      20.184  29.943  45.667  1.00  0.00    -0.508 OA
ATOM     51  H   UNL     1      21.135  29.676  45.898  1.00  0.00     0.293 HD
ENDBRANCH  37  50
ENDBRANCH  26  27
ENDBRANCH   5  26
BRANCH   4  52
ATOM     52  O   UNL     1      12.592  25.600  41.249  1.00  0.00    -0.384 OA
ATOM     53  H   UNL     1      11.690  25.731  41.646  1.00  0.00     0.211 HD
ENDBRANCH   4  52
TORSDOF 16
ENDMDL
MODEL 9
REMARK VINA RESULT:    -5.509      2.077      8.133
REMARK INTER + INTRA:         -11.424
REMARK INTER:                  -9.829
REMARK INTRA:                  -1.595
REMARK UNBOUND:                -2.372
REMARK SMILES C[C@@H]1O[C@@H](OC[C@@H]2O[C@H](Oc3c(-c4ccc(O)c(O)c4)oc4cc(O)cc(O)c4c3=O)[C@@H](O)[C@H](O)[C@@H]2O)[C@@H](O)[C@H](O)[C@H]1O
REMARK SMILES IDX 7 1 36 2 34 3 32 4 9 5 8 6 6 7 5 8 4 9 1 10 2 11 42 12 3 13
REMARK SMILES IDX 40 14 38 15 43 16 41 18 39 20 37 22 35 24 10 26 11 27 12 28
REMARK SMILES IDX 30 29 21 30 29 31 31 32 22 33 27 34 23 35 26 36 24 37 13 38
REMARK SMILES IDX 20 39 14 40 18 41 15 42 16 43 19 44 17 46 28 48 25 50 33 52
REMARK H PARENT 43 17 41 19 39 21 37 23 35 25 19 45 17 47 28 49 25 51 33 53
REMARK Flexibility Score: inf
ROOT
ATOM      1  C   UNL     1      13.790  22.756  41.985  1.00  0.00     0.180 C 
ATOM      2  C   UNL     1      13.102  23.904  42.775  1.00  0.00     0.177 C 
ATOM      3  C   UNL     1      13.911  25.203  42.730  1.00  0.00     0.180 C 
ATOM      4  C   UNL     1      14.295  25.524  41.276  1.00  0.00     0.214 C 
ATOM      5  C   UNL     1      14.967  24.310  40.602  1.00  0.00     0.339 C 
ATOM      6  O   UNL     1      14.167  23.137  40.664  1.00  0.00    -0.332 OA
ENDROOT
BRANCH   1   7
ATOM      7  C   UNL     1      14.934  22.037  42.733  1.00  0.00     0.198 C 
BRANCH   7   8
ATOM      8  O   UNL     1      14.411  21.347  43.848  1.00  0.00    -0.347 OA
BRANCH   8   9
ATOM      9  C   UNL     1      15.356  21.295  44.909  1.00  0.00     0.281 C 
ATOM     10  C   UNL     1      16.608  17.866  44.418  1.00  0.00     0.041 C 
ATOM     11  C   UNL     1      15.576  18.965  44.694  1.00  0.00     0.150 C 
ATOM     12  C   UNL     1      14.837  18.687  46.027  1.00  0.00     0.174 C 
ATOM     13  O   UNL     1      16.256  20.212  44.729  1.00  0.00    -0.344 OA
ATOM     14  C   UNL     1      13.873  19.846  46.341  1.00  0.00     0.179 C 
ATOM     15  C   UNL     1      14.626  21.180  46.260  1.00  0.00     0.202 C 
BRANCH  12  16
ATOM     16  O   UNL     1      14.112  17.488  45.917  1.00  0.00    -0.388 OA
ATOM     17  H   UNL     1      13.289  17.693  45.402  1.00  0.00     0.211 HD
ENDBRANCH  12  16
BRANCH  14  18
ATOM     18  O   UNL     1      13.342  19.700  47.632  1.00  0.00    -0.387 OA
ATOM     19  H   UNL     1      12.862  20.541  47.848  1.00  0.00     0.211 HD
ENDBRANCH  14  18
BRANCH  15  20
ATOM     20  O   UNL     1      13.715  22.236  46.406  1.00  0.00    -0.385 OA
ATOM     21  H   UNL     1      14.076  22.828  47.115  1.00  0.00     0.211 HD
ENDBRANCH  15  20
ENDBRANCH   8   9
ENDBRANCH   7   8
ENDBRANCH   1   7
BRANCH   2  22
ATOM     22  O   UNL     1      12.859  23.539  44.110  1.00  0.00    -0.387 OA
ATOM     23  H   UNL     1      11.969  23.909  44.352  1.00  0.00     0.211 HD
ENDBRANCH   2  22
BRANCH   3  24
ATOM     24  O   UNL     1      15.059  25.104  43.534  1.00  0.00    -0.387 OA
ATOM     25  H   UNL     1      15.125  24.155  43.819  1.00  0.00     0.211 HD
ENDBRANCH   3  24
BRANCH   5  26
ATOM     26  O   UNL     1      16.271  24.061  41.136  1.00  0.00    -0.454 OA
BRANCH  26  27
ATOM     27  C   UNL     1      17.334  24.967  41.009  1.00  0.00     0.214 A 
ATOM     28  C   UNL     1      17.813  25.321  39.738  1.00  0.00     0.180 A 
ATOM     29  C   UNL     1      17.970  25.496  42.141  1.00  0.00     0.239 A 
ATOM     30  O   UNL     1      18.847  26.142  39.621  1.00  0.00    -0.452 OA
ATOM     31  C   UNL     1      19.018  26.433  41.987  1.00  0.00     0.111 A 
ATOM     32  O   UNL     1      17.622  25.083  43.279  1.00  0.00    -0.285 OA
ATOM     33  C   UNL     1      19.455  26.699  40.663  1.00  0.00     0.146 A 
ATOM     34  C   UNL     1      19.681  27.093  43.067  1.00  0.00     0.134 A 
ATOM     35  C   UNL     1      20.537  27.553  40.428  1.00  0.00     0.094 A 
ATOM     36  C   UNL     1      20.776  27.921  42.798  1.00  0.00     0.093 A 
ATOM     37  C   UNL     1      21.201  28.158  41.493  1.00  0.00     0.123 A 
BRANCH  28  38
ATOM     38  C   UNL     1      17.178  24.811  38.515  1.00  0.00     0.025 A 
ATOM     39  C   UNL     1      17.655  23.637  37.908  1.00  0.00     0.062 A 
ATOM     40  C   UNL     1      16.062  25.464  37.979  1.00  0.00     0.016 A 
ATOM     41  C   UNL     1      17.038  23.134  36.756  1.00  0.00     0.158 A 
ATOM     42  C   UNL     1      15.442  24.962  36.832  1.00  0.00     0.051 A 
ATOM     43  C   UNL     1      15.921  23.794  36.217  1.00  0.00     0.157 A 
BRANCH  41  44
ATOM     44  O   UNL     1      17.555  21.984  36.160  1.00  0.00    -0.504 OA
ATOM     45  H   UNL     1      16.977  21.348  35.628  1.00  0.00     0.293 HD
ENDBRANCH  41  44
BRANCH  43  46
ATOM     46  O   UNL     1      15.291  23.291  35.077  1.00  0.00    -0.504 OA
ATOM     47  H   UNL     1      14.797  22.410  35.092  1.00  0.00     0.293 HD
ENDBRANCH  43  46
ENDBRANCH  28  38
BRANCH  34  48
ATOM     48  O   UNL     1      19.283  26.998  44.405  1.00  0.00    -0.507 OA
ATOM     49  H   UNL     1      18.348  27.174  44.743  1.00  0.00     0.293 HD
ENDBRANCH  34  48
BRANCH  37  50
ATOM     50  O   UNL     1      22.284  29.004  41.263  1.00  0.00    -0.508 OA
ATOM     51  H   UNL     1      22.154  29.991  41.064  1.00  0.00     0.293 HD
ENDBRANCH  37  50
ENDBRANCH  26  27
ENDBRANCH   5  26
BRANCH   4  52
ATOM     52  O   UNL     1      13.148  25.872  40.539  1.00  0.00    -0.384 OA
ATOM     53  H   UNL     1      13.193  25.370  39.682  1.00  0.00     0.211 HD
ENDBRANCH   4  52
TORSDOF 16
ENDMDL
