MODEL 1
REMARK VINA RESULT:    -0.788      0.000      0.000
REMARK INTER + INTRA:          -0.788
REMARK INTER:                  -0.788
REMARK INTRA:                   0.000
REMARK UNBOUND:                 0.000
REMARK SMILES c1cc[nH]c1
REMARK SMILES IDX 1 1 5 2 4 3 3 4 2 5
REMARK H PARENT 4 6
REMARK Flexibility Score: inf
ROOT
ATOM      1  C   UNL     1      33.821  57.442  81.505  1.00  0.00     0.019 A 
ATOM      2  C   UNL     1      33.911  56.850  80.261  1.00  0.00     0.082 A 
ATOM      3  N   UNL     1      34.270  57.764  79.342  1.00  0.00    -0.368 N 
ATOM      4  C   UNL     1      34.411  58.937  79.985  1.00  0.00     0.082 A 
ATOM      5  C   UNL     1      34.140  58.774  81.328  1.00  0.00     0.019 A 
ATOM      6  H   UNL     1      34.412  57.595  78.322  1.00  0.00     0.165 HD
ENDROOT
TORSDOF 0
ENDMDL
MODEL 2
REMARK VINA RESULT:    -0.784      0.053      1.624
REMARK INTER + INTRA:          -0.784
REMARK INTER:                  -0.784
REMARK INTRA:                   0.000
REMARK UNBOUND:                 0.000
REMARK SMILES c1cc[nH]c1
REMARK SMILES IDX 1 1 5 2 4 3 3 4 2 5
REMARK H PARENT 4 6
REMARK Flexibility Score: inf
ROOT
ATOM      1  C   UNL     1      34.160  58.756  81.289  1.00  0.00     0.019 A 
ATOM      2  C   UNL     1      34.424  58.932  79.946  1.00  0.00     0.082 A 
ATOM      3  N   UNL     1      34.268  57.769  79.289  1.00  0.00    -0.368 N 
ATOM      4  C   UNL     1      33.905  56.847  80.199  1.00  0.00     0.082 A 
ATOM      5  C   UNL     1      33.829  57.425  81.451  1.00  0.00     0.019 A 
ATOM      6  H   UNL     1      34.401  57.610  78.266  1.00  0.00     0.165 HD
ENDROOT
TORSDOF 0
ENDMDL
MODEL 3
REMARK VINA RESULT:     0.784      7.105      7.953
REMARK INTER + INTRA:           0.784
REMARK INTER:                   0.784
REMARK INTRA:                   0.000
REMARK UNBOUND:                 0.000
REMARK SMILES c1cc[nH]c1
REMARK SMILES IDX 1 1 5 2 4 3 3 4 2 5
REMARK H PARENT 4 6
REMARK Flexibility Score: inf
ROOT
ATOM      1  C   UNL     1      33.904  66.169  80.392  1.00  0.00     0.019 A 
ATOM      2  C   UNL     1      33.988  66.591  81.703  1.00  0.00     0.082 A 
ATOM      3  N   UNL     1      34.328  65.561  82.498  1.00  0.00    -0.368 N 
ATOM      4  C   UNL     1      34.463  64.481  81.708  1.00  0.00     0.082 A 
ATOM      5  C   UNL     1      34.206  64.821  80.395  1.00  0.00     0.019 A 
ATOM      6  H   UNL     1      34.463  65.593  83.533  1.00  0.00     0.165 HD
ENDROOT
TORSDOF 0
ENDMDL
MODEL 4
REMARK VINA RESULT:     0.795      7.095      7.795
REMARK INTER + INTRA:           0.795
REMARK INTER:                   0.795
REMARK INTRA:                   0.000
REMARK UNBOUND:                 0.000
REMARK SMILES c1cc[nH]c1
REMARK SMILES IDX 1 1 5 2 4 3 3 4 2 5
REMARK H PARENT 4 6
REMARK Flexibility Score: inf
ROOT
ATOM      1  C   UNL     1      34.230  64.827  80.386  1.00  0.00     0.019 A 
ATOM      2  C   UNL     1      34.456  64.462  81.698  1.00  0.00     0.082 A 
ATOM      3  N   UNL     1      34.313  65.530  82.504  1.00  0.00    -0.368 N 
ATOM      4  C   UNL     1      33.999  66.577  81.721  1.00  0.00     0.082 A 
ATOM      5  C   UNL     1      33.939  66.177  80.401  1.00  0.00     0.019 A 
ATOM      6  H   UNL     1      34.425  65.543  83.542  1.00  0.00     0.165 HD
ENDROOT
TORSDOF 0
ENDMDL
