MODEL 1
REMARK VINA RESULT:    -5.024      0.000      0.000
REMARK INTER + INTRA:          -7.993
REMARK INTER:                  -7.667
REMARK INTRA:                  -0.326
REMARK UNBOUND:                -0.326
REMARK SMILES O=C([O-])CCCCCCCCC(=O)[O-]
REMARK SMILES IDX 7 1 6 2 5 3 4 4 2 5 1 6 3 7 8 8 9 9 10 10 11 11 12 12 13 13
REMARK SMILES IDX 14 14
REMARK H PARENT
REMARK Flexibility Score: inf
ROOT
ATOM      1  C   UNL     1      41.694  63.435  24.641  1.00  0.00     0.000 C 
ENDROOT
BRANCH   1   2
ATOM      2  C   UNL     1      41.755  64.898  24.168  1.00  0.00     0.000 C 
BRANCH   2   3
ATOM      3  C   UNL     1      41.211  65.880  25.219  1.00  0.00     0.006 C 
BRANCH   3   4
ATOM      4  C   UNL     1      40.585  67.132  24.591  1.00  0.00     0.053 C 
BRANCH   4   5
ATOM      5  C   UNL     1      41.511  67.725  23.577  1.00  0.00     0.041 C 
ATOM      6  O   UNL     1      42.435  68.501  23.938  1.00  0.00    -0.550 OA
ATOM      7  O   UNL     1      41.323  67.461  22.226  1.00  0.00    -0.550 OA
ENDBRANCH   4   5
ENDBRANCH   3   4
ENDBRANCH   2   3
ENDBRANCH   1   2
BRANCH   1   8
ATOM      8  C   UNL     1      42.520  63.190  25.913  1.00  0.00     0.000 C 
BRANCH   8   9
ATOM      9  C   UNL     1      43.053  61.753  26.009  1.00  0.00     0.000 C 
BRANCH   9  10
ATOM     10  C   UNL     1      44.497  61.736  26.532  1.00  0.00     0.006 C 
BRANCH  10  11
ATOM     11  C   UNL     1      45.508  62.169  25.462  1.00  0.00     0.053 C 
BRANCH  11  12
ATOM     12  C   UNL     1      46.614  62.995  26.046  1.00  0.00     0.041 C 
ATOM     13  O   UNL     1      47.544  63.419  25.311  1.00  0.00    -0.550 OA
ATOM     14  O   UNL     1      46.599  63.323  27.395  1.00  0.00    -0.550 OA
ENDBRANCH  11  12
ENDBRANCH  10  11
ENDBRANCH   9  10
ENDBRANCH   8   9
ENDBRANCH   1   8
TORSDOF 9
ENDMDL
MODEL 2
REMARK VINA RESULT:    -4.958      0.094      6.250
REMARK INTER + INTRA:          -7.893
REMARK INTER:                  -7.600
REMARK INTRA:                  -0.292
REMARK UNBOUND:                -0.326
REMARK SMILES O=C([O-])CCCCCCCCC(=O)[O-]
REMARK SMILES IDX 7 1 6 2 5 3 4 4 2 5 1 6 3 7 8 8 9 9 10 10 11 11 12 12 13 13
REMARK SMILES IDX 14 14
REMARK H PARENT
REMARK Flexibility Score: inf
ROOT
ATOM      1  C   UNL     1      42.559  63.236  25.899  1.00  0.00     0.000 C 
ENDROOT
BRANCH   1   2
ATOM      2  C   UNL     1      43.088  61.801  26.063  1.00  0.00     0.000 C 
BRANCH   2   3
ATOM      3  C   UNL     1      44.555  61.762  26.522  1.00  0.00     0.006 C 
BRANCH   3   4
ATOM      4  C   UNL     1      45.532  62.189  25.418  1.00  0.00     0.053 C 
BRANCH   4   5
ATOM      5  C   UNL     1      46.628  63.031  25.989  1.00  0.00     0.041 C 
ATOM      6  O   UNL     1      47.588  63.400  25.263  1.00  0.00    -0.550 OA
ATOM      7  O   UNL     1      46.616  63.366  27.337  1.00  0.00    -0.550 OA
ENDBRANCH   4   5
ENDBRANCH   3   4
ENDBRANCH   2   3
ENDBRANCH   1   2
BRANCH   1   8
ATOM      8  C   UNL     1      41.723  63.416  24.622  1.00  0.00     0.000 C 
BRANCH   8   9
ATOM      9  C   UNL     1      41.713  64.866  24.117  1.00  0.00     0.000 C 
BRANCH   9  10
ATOM     10  C   UNL     1      41.228  65.826  25.215  1.00  0.00     0.006 C 
BRANCH  10  11
ATOM     11  C   UNL     1      40.594  67.098  24.637  1.00  0.00     0.053 C 
BRANCH  11  12
ATOM     12  C   UNL     1      41.490  67.757  23.633  1.00  0.00     0.041 C 
ATOM     13  O   UNL     1      41.341  67.531  22.403  1.00  0.00    -0.550 OA
ATOM     14  O   UNL     1      42.469  68.649  24.053  1.00  0.00    -0.550 OA
ENDBRANCH  11  12
ENDBRANCH  10  11
ENDBRANCH   9  10
ENDBRANCH   8   9
ENDBRANCH   1   8
TORSDOF 9
ENDMDL
MODEL 3
REMARK VINA RESULT:    -4.930      5.236      8.107
REMARK INTER + INTRA:          -7.850
REMARK INTER:                  -7.481
REMARK INTRA:                  -0.370
REMARK UNBOUND:                -0.326
REMARK SMILES O=C([O-])CCCCCCCCC(=O)[O-]
REMARK SMILES IDX 7 1 6 2 5 3 4 4 2 5 1 6 3 7 8 8 9 9 10 10 11 11 12 12 13 13
REMARK SMILES IDX 14 14
REMARK H PARENT
REMARK Flexibility Score: inf
ROOT
ATOM      1  C   UNL     1      37.715  67.263  25.733  1.00  0.00     0.000 C 
ENDROOT
BRANCH   1   2
ATOM      2  C   UNL     1      38.791  67.113  24.644  1.00  0.00     0.000 C 
BRANCH   2   3
ATOM      3  C   UNL     1      40.209  66.994  25.228  1.00  0.00     0.006 C 
BRANCH   3   4
ATOM      4  C   UNL     1      41.297  67.009  24.146  1.00  0.00     0.053 C 
BRANCH   4   5
ATOM      5  C   UNL     1      41.411  65.663  23.502  1.00  0.00     0.041 C 
ATOM      6  O   UNL     1      41.134  65.518  22.283  1.00  0.00    -0.550 OA
ATOM      7  O   UNL     1      41.774  64.558  24.262  1.00  0.00    -0.550 OA
ENDBRANCH   4   5
ENDBRANCH   3   4
ENDBRANCH   2   3
ENDBRANCH   1   2
BRANCH   1   8
ATOM      8  C   UNL     1      36.381  67.785  25.178  1.00  0.00     0.000 C 
BRANCH   8   9
ATOM      9  C   UNL     1      35.196  67.500  26.113  1.00  0.00     0.000 C 
BRANCH   9  10
ATOM     10  C   UNL     1      34.724  66.045  25.973  1.00  0.00     0.006 C 
BRANCH  10  11
ATOM     11  C   UNL     1      34.997  65.221  27.238  1.00  0.00     0.053 C 
BRANCH  11  12
ATOM     12  C   UNL     1      34.773  63.758  27.007  1.00  0.00     0.041 C 
ATOM     13  O   UNL     1      34.723  63.301  25.835  1.00  0.00    -0.550 OA
ATOM     14  O   UNL     1      34.653  62.893  28.087  1.00  0.00    -0.550 OA
ENDBRANCH  11  12
ENDBRANCH  10  11
ENDBRANCH   9  10
ENDBRANCH   8   9
ENDBRANCH   1   8
TORSDOF 9
ENDMDL
MODEL 4
REMARK VINA RESULT:    -4.927      5.132      8.104
REMARK INTER + INTRA:          -7.845
REMARK INTER:                  -7.522
REMARK INTRA:                  -0.323
REMARK UNBOUND:                -0.326
REMARK SMILES O=C([O-])CCCCCCCCC(=O)[O-]
REMARK SMILES IDX 7 1 6 2 5 3 4 4 2 5 1 6 3 7 8 8 9 9 10 10 11 11 12 12 13 13
REMARK SMILES IDX 14 14
REMARK H PARENT
REMARK Flexibility Score: inf
ROOT
ATOM      1  C   UNL     1      43.335  69.005  23.866  1.00  0.00     0.000 C 
ENDROOT
BRANCH   1   2
ATOM      2  C   UNL     1      41.993  68.257  23.771  1.00  0.00     0.000 C 
BRANCH   2   3
ATOM      3  C   UNL     1      41.578  67.620  25.107  1.00  0.00     0.006 C 
BRANCH   3   4
ATOM      4  C   UNL     1      40.709  66.369  24.921  1.00  0.00     0.053 C 
BRANCH   4   5
ATOM      5  C   UNL     1      39.466  66.705  24.160  1.00  0.00     0.041 C 
ATOM      6  O   UNL     1      38.447  67.129  24.764  1.00  0.00    -0.550 OA
ATOM      7  O   UNL     1      39.418  66.503  22.786  1.00  0.00    -0.550 OA
ENDBRANCH   4   5
ENDBRANCH   3   4
ENDBRANCH   2   3
ENDBRANCH   1   2
BRANCH   1   8
ATOM      8  C   UNL     1      43.351  70.047  24.996  1.00  0.00     0.000 C 
BRANCH   8   9
ATOM      9  C   UNL     1      44.257  71.247  24.684  1.00  0.00     0.000 C 
BRANCH   9  10
ATOM     10  C   UNL     1      43.642  72.551  25.214  1.00  0.00     0.006 C 
BRANCH  10  11
ATOM     11  C   UNL     1      42.602  73.137  24.249  1.00  0.00     0.053 C 
BRANCH  11  12
ATOM     12  C   UNL     1      41.461  73.773  24.983  1.00  0.00     0.041 C 
ATOM     13  O   UNL     1      40.492  74.264  24.346  1.00  0.00    -0.550 OA
ATOM     14  O   UNL     1      41.450  73.792  26.372  1.00  0.00    -0.550 OA
ENDBRANCH  11  12
ENDBRANCH  10  11
ENDBRANCH   9  10
ENDBRANCH   8   9
ENDBRANCH   1   8
TORSDOF 9
ENDMDL
MODEL 5
REMARK VINA RESULT:    -4.866      3.618      4.588
REMARK INTER + INTRA:          -7.752
REMARK INTER:                  -7.469
REMARK INTRA:                  -0.283
REMARK UNBOUND:                -0.326
REMARK SMILES O=C([O-])CCCCCCCCC(=O)[O-]
REMARK SMILES IDX 7 1 6 2 5 3 4 4 2 5 1 6 3 7 8 8 9 9 10 10 11 11 12 12 13 13
REMARK SMILES IDX 14 14
REMARK H PARENT
REMARK Flexibility Score: inf
ROOT
ATOM      1  C   UNL     1      40.505  67.251  24.310  1.00  0.00     0.000 C 
ENDROOT
BRANCH   1   2
ATOM      2  C   UNL     1      39.049  66.790  24.124  1.00  0.00     0.000 C 
BRANCH   2   3
ATOM      3  C   UNL     1      38.159  67.147  25.327  1.00  0.00     0.006 C 
BRANCH   3   4
ATOM      4  C   UNL     1      36.852  67.836  24.913  1.00  0.00     0.053 C 
BRANCH   4   5
ATOM      5  C   UNL     1      35.721  67.368  25.774  1.00  0.00     0.041 C 
ATOM      6  O   UNL     1      34.997  68.201  26.378  1.00  0.00    -0.550 OA
ATOM      7  O   UNL     1      35.498  66.008  25.949  1.00  0.00    -0.550 OA
ENDBRANCH   4   5
ENDBRANCH   3   4
ENDBRANCH   2   3
ENDBRANCH   1   2
BRANCH   1   8
ATOM      8  C   UNL     1      41.293  66.345  25.269  1.00  0.00     0.000 C 
BRANCH   8   9
ATOM      9  C   UNL     1      41.594  64.963  24.668  1.00  0.00     0.000 C 
BRANCH   9  10
ATOM     10  C   UNL     1      42.088  63.991  25.750  1.00  0.00     0.006 C 
BRANCH  10  11
ATOM     11  C   UNL     1      42.428  62.608  25.178  1.00  0.00     0.053 C 
BRANCH  11  12
ATOM     12  C   UNL     1      43.493  61.923  25.979  1.00  0.00     0.041 C 
ATOM     13  O   UNL     1      43.180  61.107  26.884  1.00  0.00    -0.550 OA
ATOM     14  O   UNL     1      44.834  62.161  25.701  1.00  0.00    -0.550 OA
ENDBRANCH  11  12
ENDBRANCH  10  11
ENDBRANCH   9  10
ENDBRANCH   8   9
ENDBRANCH   1   8
TORSDOF 9
ENDMDL
MODEL 6
REMARK VINA RESULT:    -4.824      5.421      7.174
REMARK INTER + INTRA:          -7.688
REMARK INTER:                  -7.338
REMARK INTRA:                  -0.350
REMARK UNBOUND:                -0.326
REMARK SMILES O=C([O-])CCCCCCCCC(=O)[O-]
REMARK SMILES IDX 7 1 6 2 5 3 4 4 2 5 1 6 3 7 8 8 9 9 10 10 11 11 12 12 13 13
REMARK SMILES IDX 14 14
REMARK H PARENT
REMARK Flexibility Score: inf
ROOT
ATOM      1  C   UNL     1      38.558  67.106  24.503  1.00  0.00     0.000 C 
ENDROOT
BRANCH   1   2
ATOM      2  C   UNL     1      37.582  67.252  25.683  1.00  0.00     0.000 C 
BRANCH   2   3
ATOM      3  C   UNL     1      36.179  67.695  25.236  1.00  0.00     0.006 C 
BRANCH   3   4
ATOM      4  C   UNL     1      35.095  67.357  26.268  1.00  0.00     0.053 C 
BRANCH   4   5
ATOM      5  C   UNL     1      34.735  65.907  26.190  1.00  0.00     0.041 C 
ATOM      6  O   UNL     1      35.102  65.113  27.095  1.00  0.00    -0.550 OA
ATOM      7  O   UNL     1      34.036  65.423  25.091  1.00  0.00    -0.550 OA
ENDBRANCH   4   5
ENDBRANCH   3   4
ENDBRANCH   2   3
ENDBRANCH   1   2
BRANCH   1   8
ATOM      8  C   UNL     1      39.917  66.527  24.928  1.00  0.00     0.000 C 
BRANCH   8   9
ATOM      9  C   UNL     1      41.093  67.453  24.581  1.00  0.00     0.000 C 
BRANCH   9  10
ATOM     10  C   UNL     1      41.395  67.414  23.075  1.00  0.00     0.006 C 
BRANCH  10  11
ATOM     11  C   UNL     1      41.155  66.025  22.469  1.00  0.00     0.053 C 
BRANCH  11  12
ATOM     12  C   UNL     1      40.350  66.101  21.208  1.00  0.00     0.041 C 
ATOM     13  O   UNL     1      39.802  65.068  20.742  1.00  0.00    -0.550 OA
ATOM     14  O   UNL     1      40.176  67.321  20.566  1.00  0.00    -0.550 OA
ENDBRANCH  11  12
ENDBRANCH  10  11
ENDBRANCH   9  10
ENDBRANCH   8   9
ENDBRANCH   1   8
TORSDOF 9
ENDMDL
MODEL 7
REMARK VINA RESULT:    -4.763      5.185      7.880
REMARK INTER + INTRA:          -7.594
REMARK INTER:                  -7.226
REMARK INTRA:                  -0.368
REMARK UNBOUND:                -0.326
REMARK SMILES O=C([O-])CCCCCCCCC(=O)[O-]
REMARK SMILES IDX 7 1 6 2 5 3 4 4 2 5 1 6 3 7 8 8 9 9 10 10 11 11 12 12 13 13
REMARK SMILES IDX 14 14
REMARK H PARENT
REMARK Flexibility Score: inf
ROOT
ATOM      1  C   UNL     1      40.061  67.007  25.253  1.00  0.00     0.000 C 
ENDROOT
BRANCH   1   2
ATOM      2  C   UNL     1      40.918  66.011  24.453  1.00  0.00     0.000 C 
BRANCH   2   3
ATOM      3  C   UNL     1      41.344  66.567  23.084  1.00  0.00     0.006 C 
BRANCH   3   4
ATOM      4  C   UNL     1      40.962  65.638  21.924  1.00  0.00     0.053 C 
BRANCH   4   5
ATOM      5  C   UNL     1      40.559  66.438  20.726  1.00  0.00     0.041 C 
ATOM      6  O   UNL     1      39.948  67.529  20.868  1.00  0.00    -0.550 OA
ATOM      7  O   UNL     1      40.813  65.953  19.449  1.00  0.00    -0.550 OA
ENDBRANCH   4   5
ENDBRANCH   3   4
ENDBRANCH   2   3
ENDBRANCH   1   2
BRANCH   1   8
ATOM      8  C   UNL     1      38.626  67.119  24.714  1.00  0.00     0.000 C 
BRANCH   8   9
ATOM      9  C   UNL     1      37.579  67.232  25.831  1.00  0.00     0.000 C 
BRANCH   9  10
ATOM     10  C   UNL     1      36.200  67.592  25.256  1.00  0.00     0.006 C 
BRANCH  10  11
ATOM     11  C   UNL     1      35.060  67.258  26.227  1.00  0.00     0.053 C 
BRANCH  11  12
ATOM     12  C   UNL     1      34.730  65.796  26.213  1.00  0.00     0.041 C 
ATOM     13  O   UNL     1      34.197  65.276  25.198  1.00  0.00    -0.550 OA
ATOM     14  O   UNL     1      35.042  65.002  27.309  1.00  0.00    -0.550 OA
ENDBRANCH  11  12
ENDBRANCH  10  11
ENDBRANCH   9  10
ENDBRANCH   8   9
ENDBRANCH   1   8
TORSDOF 9
ENDMDL
MODEL 8
REMARK VINA RESULT:    -4.722      1.405      6.525
REMARK INTER + INTRA:          -7.533
REMARK INTER:                  -7.216
REMARK INTRA:                  -0.318
REMARK UNBOUND:                -0.326
REMARK SMILES O=C([O-])CCCCCCCCC(=O)[O-]
REMARK SMILES IDX 7 1 6 2 5 3 4 4 2 5 1 6 3 7 8 8 9 9 10 10 11 11 12 12 13 13
REMARK SMILES IDX 14 14
REMARK H PARENT
REMARK Flexibility Score: inf
ROOT
ATOM      1  C   UNL     1      42.122  63.613  25.779  1.00  0.00     0.000 C 
ENDROOT
BRANCH   1   2
ATOM      2  C   UNL     1      42.930  62.357  25.407  1.00  0.00     0.000 C 
BRANCH   2   3
ATOM      3  C   UNL     1      44.177  62.177  26.288  1.00  0.00     0.006 C 
BRANCH   3   4
ATOM      4  C   UNL     1      45.464  62.025  25.467  1.00  0.00     0.053 C 
BRANCH   4   5
ATOM      5  C   UNL     1      46.522  62.950  25.980  1.00  0.00     0.041 C 
ATOM      6  O   UNL     1      47.426  63.369  25.211  1.00  0.00    -0.550 OA
ATOM      7  O   UNL     1      46.539  63.309  27.323  1.00  0.00    -0.550 OA
ENDBRANCH   4   5
ENDBRANCH   3   4
ENDBRANCH   2   3
ENDBRANCH   1   2
BRANCH   1   8
ATOM      8  C   UNL     1      41.794  64.488  24.558  1.00  0.00     0.000 C 
BRANCH   8   9
ATOM      9  C   UNL     1      41.202  65.851  24.945  1.00  0.00     0.000 C 
BRANCH   9  10
ATOM     10  C   UNL     1      40.320  66.407  23.817  1.00  0.00     0.006 C 
BRANCH  10  11
ATOM     11  C   UNL     1      41.150  66.990  22.665  1.00  0.00     0.053 C 
BRANCH  11  12
ATOM     12  C   UNL     1      41.019  66.172  21.417  1.00  0.00     0.041 C 
ATOM     13  O   UNL     1      41.924  66.200  20.542  1.00  0.00    -0.550 OA
ATOM     14  O   UNL     1      39.912  65.353  21.235  1.00  0.00    -0.550 OA
ENDBRANCH  11  12
ENDBRANCH  10  11
ENDBRANCH   9  10
ENDBRANCH   8   9
ENDBRANCH   1   8
TORSDOF 9
ENDMDL
MODEL 9
REMARK VINA RESULT:    -4.683      4.812      8.163
REMARK INTER + INTRA:          -7.473
REMARK INTER:                  -7.108
REMARK INTRA:                  -0.365
REMARK UNBOUND:                -0.326
REMARK SMILES O=C([O-])CCCCCCCCC(=O)[O-]
REMARK SMILES IDX 7 1 6 2 5 3 4 4 2 5 1 6 3 7 8 8 9 9 10 10 11 11 12 12 13 13
REMARK SMILES IDX 14 14
REMARK H PARENT
REMARK Flexibility Score: inf
ROOT
ATOM      1  C   UNL     1      39.100  67.082  24.688  1.00  0.00     0.000 C 
ENDROOT
BRANCH   1   2
ATOM      2  C   UNL     1      39.761  66.787  23.331  1.00  0.00     0.000 C 
BRANCH   2   3
ATOM      3  C   UNL     1      41.235  66.372  23.471  1.00  0.00     0.006 C 
BRANCH   3   4
ATOM      4  C   UNL     1      41.420  64.850  23.518  1.00  0.00     0.053 C 
BRANCH   4   5
ATOM      5  C   UNL     1      41.745  64.407  24.909  1.00  0.00     0.041 C 
ATOM      6  O   UNL     1      41.667  65.219  25.868  1.00  0.00    -0.550 OA
ATOM      7  O   UNL     1      42.183  63.109  25.140  1.00  0.00    -0.550 OA
ENDBRANCH   4   5
ENDBRANCH   3   4
ENDBRANCH   2   3
ENDBRANCH   1   2
BRANCH   1   8
ATOM      8  C   UNL     1      37.610  67.435  24.556  1.00  0.00     0.000 C 
BRANCH   8   9
ATOM      9  C   UNL     1      36.893  67.506  25.912  1.00  0.00     0.000 C 
BRANCH   9  10
ATOM     10  C   UNL     1      35.368  67.515  25.727  1.00  0.00     0.006 C 
BRANCH  10  11
ATOM     11  C   UNL     1      34.646  66.701  26.809  1.00  0.00     0.053 C 
BRANCH  11  12
ATOM     12  C   UNL     1      34.704  65.230  26.529  1.00  0.00     0.041 C 
ATOM     13  O   UNL     1      35.082  64.428  27.422  1.00  0.00    -0.550 OA
ATOM     14  O   UNL     1      34.307  64.742  25.290  1.00  0.00    -0.550 OA
ENDBRANCH  11  12
ENDBRANCH  10  11
ENDBRANCH   9  10
ENDBRANCH   8   9
ENDBRANCH   1   8
TORSDOF 9
ENDMDL
