MODEL 1
REMARK VINA RESULT:    -4.952      0.000      0.000
REMARK INTER + INTRA:          -7.023
REMARK INTER:                  -7.557
REMARK INTRA:                   0.534
REMARK UNBOUND:                 0.534
REMARK SMILES CC1=CCC[C@@H](C)C(=O)C[C@H](C(C)C)C(=O)C1
REMARK SMILES IDX 8 1 9 2 6 3 7 4 5 5 4 6 3 7 2 8 1 9 10 11 11 12 15 13 16 14
REMARK SMILES IDX 17 15 12 17 13 18 14 19
REMARK H PARENT
REMARK Flexibility Score: 70.00
ROOT
ATOM      1  C   UNL     1     -12.797 -36.979  29.661  1.00  0.00     0.136 C 
ATOM      2  O   UNL     1     -13.692 -37.626  29.135  1.00  0.00    -0.299 OA
ENDROOT
BRANCH   1   3
ATOM      3  C   UNL     1     -12.599 -37.052  31.162  1.00  0.00     0.053 C 
ATOM      4  C   UNL     1     -12.815 -38.500  31.614  1.00  0.00     0.016 C 
BRANCH   3   5
ATOM      5  C   UNL     1     -13.549 -36.103  31.934  1.00  0.00     0.015 C 
BRANCH   5   6
ATOM      6  C   UNL     1     -13.336 -34.611  31.635  1.00  0.00     0.028 C 
BRANCH   6   7
ATOM      7  C   UNL     1     -12.206 -34.005  32.434  1.00  0.00    -0.028 C 
ATOM      8  C   UNL     1     -10.901 -33.983  32.076  1.00  0.00    -0.070 CG0
ATOM      9  C   UNL     1      -9.903 -33.474  33.087  1.00  0.00     0.039 C 
ATOM     10  G   UNL     1     -10.386 -34.530  30.756  1.00  0.00     0.000 G0
ENDBRANCH   6   7
ENDBRANCH   5   6
ENDBRANCH   3   5
ENDBRANCH   1   3
BRANCH   1  11
ATOM     11  C   UNL     1     -11.824 -36.228  28.782  1.00  0.00     0.087 C 
BRANCH  11  12
ATOM     12  C   UNL     1     -12.097 -34.700  28.755  1.00  0.00     0.066 C 
BRANCH  12  13
ATOM     13  C   UNL     1     -11.027 -33.939  29.540  1.00  0.00     0.140 C 
ATOM     14  O   UNL     1     -10.619 -32.858  29.144  1.00  0.00    -0.299 OA
BRANCH  13  15
ATOM     15  C   UNL     1     -10.362 -34.538  30.756  1.00  0.00     0.106 CG0
ATOM     16  G   UNL     1     -10.910 -33.988  32.060  1.00  0.00     0.000 G0
ENDBRANCH  13  15
ENDBRANCH  12  13
BRANCH  12  17
ATOM     17  C   UNL     1     -12.331 -34.187  27.296  1.00  0.00    -0.006 C 
ATOM     18  C   UNL     1     -13.812 -34.081  26.887  1.00  0.00     0.008 C 
ATOM     19  C   UNL     1     -11.537 -35.001  26.261  1.00  0.00     0.008 C 
ENDBRANCH  12  17
ENDBRANCH  11  12
ENDBRANCH   1  11
TORSDOF 1
ENDMDL
MODEL 2
REMARK VINA RESULT:    -4.920      2.250      4.153
REMARK INTER + INTRA:          -6.975
REMARK INTER:                  -7.001
REMARK INTRA:                   0.027
REMARK UNBOUND:                 0.534
REMARK SMILES CC1=CCC[C@@H](C)C(=O)C[C@H](C(C)C)C(=O)C1
REMARK SMILES IDX 8 1 9 2 6 3 7 4 5 5 4 6 3 7 2 8 1 9 10 11 11 12 15 13 16 14
REMARK SMILES IDX 17 15 12 17 13 18 14 19
REMARK H PARENT
REMARK Flexibility Score: 70.00
ROOT
ATOM      1  C   UNL     1     -13.182 -33.832  28.507  1.00  0.00     0.136 C 
ATOM      2  O   UNL     1     -13.814 -33.317  27.595  1.00  0.00    -0.299 OA
ENDROOT
BRANCH   1   3
ATOM      3  C   UNL     1     -12.498 -35.166  28.289  1.00  0.00     0.053 C 
ATOM      4  C   UNL     1     -11.683 -35.092  26.993  1.00  0.00     0.016 C 
BRANCH   3   5
ATOM      5  C   UNL     1     -13.501 -36.345  28.222  1.00  0.00     0.015 C 
BRANCH   5   6
ATOM      6  C   UNL     1     -13.349 -37.372  29.355  1.00  0.00     0.028 C 
BRANCH   6   7
ATOM      7  C   UNL     1     -12.078 -37.188  30.151  1.00  0.00    -0.028 C 
ATOM      8  C   UNL     1     -11.959 -36.511  31.317  1.00  0.00    -0.070 CG0
ATOM      9  C   UNL     1     -10.571 -36.304  31.872  1.00  0.00     0.039 C 
ATOM     10  G   UNL     1     -13.134 -35.873  32.037  1.00  0.00     0.000 G0
ENDBRANCH   6   7
ENDBRANCH   5   6
ENDBRANCH   3   5
ENDBRANCH   1   3
BRANCH   1  11
ATOM     11  C   UNL     1     -12.987 -33.057  29.790  1.00  0.00     0.087 C 
BRANCH  11  12
ATOM     12  C   UNL     1     -13.902 -33.559  30.939  1.00  0.00     0.066 C 
BRANCH  12  13
ATOM     13  C   UNL     1     -13.098 -34.351  31.972  1.00  0.00     0.140 C 
ATOM     14  O   UNL     1     -12.328 -33.781  32.729  1.00  0.00    -0.299 OA
BRANCH  13  15
ATOM     15  C   UNL     1     -13.142 -35.860  32.020  1.00  0.00     0.106 CG0
ATOM     16  G   UNL     1     -11.958 -36.507  31.322  1.00  0.00     0.000 G0
ENDBRANCH  13  15
ENDBRANCH  12  13
BRANCH  12  17
ATOM     17  C   UNL     1     -14.767 -32.397  31.530  1.00  0.00    -0.006 C 
ATOM     18  C   UNL     1     -15.720 -32.824  32.663  1.00  0.00     0.008 C 
ATOM     19  C   UNL     1     -15.529 -31.628  30.438  1.00  0.00     0.008 C 
ENDBRANCH  12  17
ENDBRANCH  11  12
ENDBRANCH   1  11
TORSDOF 1
ENDMDL
MODEL 3
REMARK VINA RESULT:    -4.809      1.908      4.115
REMARK INTER + INTRA:          -6.806
REMARK INTER:                  -7.322
REMARK INTRA:                   0.516
REMARK UNBOUND:                 0.534
REMARK SMILES CC1=CCC[C@@H](C)C(=O)C[C@H](C(C)C)C(=O)C1
REMARK SMILES IDX 8 1 9 2 6 3 7 4 5 5 4 6 3 7 2 8 1 9 10 11 11 12 15 13 16 14
REMARK SMILES IDX 17 15 12 17 13 18 14 19
REMARK H PARENT
REMARK Flexibility Score: 70.00
ROOT
ATOM      1  C   UNL     1     -12.492 -34.316  32.257  1.00  0.00     0.136 C 
ATOM      2  O   UNL     1     -11.426 -33.885  32.674  1.00  0.00    -0.299 OA
ENDROOT
BRANCH   1   3
ATOM      3  C   UNL     1     -13.618 -33.354  31.936  1.00  0.00     0.053 C 
ATOM      4  C   UNL     1     -14.776 -33.616  32.905  1.00  0.00     0.016 C 
BRANCH   3   5
ATOM      5  C   UNL     1     -14.109 -33.479  30.472  1.00  0.00     0.015 C 
BRANCH   5   6
ATOM      6  C   UNL     1     -13.212 -32.775  29.441  1.00  0.00     0.028 C 
BRANCH   6   7
ATOM      7  C   UNL     1     -12.898 -33.642  28.244  1.00  0.00    -0.028 C 
ATOM      8  C   UNL     1     -11.774 -34.375  28.066  1.00  0.00    -0.070 CG0
ATOM      9  C   UNL     1     -11.577 -35.047  26.729  1.00  0.00     0.039 C 
ATOM     10  G   UNL     1     -10.667 -34.475  29.101  1.00  0.00     0.000 G0
ENDBRANCH   6   7
ENDBRANCH   5   6
ENDBRANCH   3   5
ENDBRANCH   1   3
BRANCH   1  11
ATOM     11  C   UNL     1     -12.612 -35.789  31.941  1.00  0.00     0.087 C 
BRANCH  11  12
ATOM     12  C   UNL     1     -12.306 -36.111  30.454  1.00  0.00     0.066 C 
BRANCH  12  13
ATOM     13  C   UNL     1     -10.903 -35.638  30.070  1.00  0.00     0.140 C 
ATOM     14  O   UNL     1      -9.917 -36.128  30.597  1.00  0.00    -0.299 OA
BRANCH  13  15
ATOM     15  C   UNL     1     -10.690 -34.484  29.119  1.00  0.00     0.106 CG0
ATOM     16  G   UNL     1     -11.774 -34.383  28.061  1.00  0.00     0.000 G0
ENDBRANCH  13  15
ENDBRANCH  12  13
BRANCH  12  17
ATOM     17  C   UNL     1     -12.609 -37.609  30.119  1.00  0.00    -0.006 C 
ATOM     18  C   UNL     1     -13.730 -37.816  29.083  1.00  0.00     0.008 C 
ATOM     19  C   UNL     1     -12.875 -38.443  31.383  1.00  0.00     0.008 C 
ENDBRANCH  12  17
ENDBRANCH  11  12
ENDBRANCH   1  11
TORSDOF 1
ENDMDL
MODEL 4
REMARK VINA RESULT:    -4.667      1.983      4.212
REMARK INTER + INTRA:          -6.588
REMARK INTER:                  -6.998
REMARK INTRA:                   0.410
REMARK UNBOUND:                 0.534
REMARK SMILES CC1=CCC[C@@H](C)C(=O)C[C@H](C(C)C)C(=O)C1
REMARK SMILES IDX 8 1 9 2 6 3 7 4 5 5 4 6 3 7 2 8 1 9 10 11 11 12 15 13 16 14
REMARK SMILES IDX 17 15 12 17 13 18 14 19
REMARK H PARENT
REMARK Flexibility Score: 70.00
ROOT
ATOM      1  C   UNL     1     -12.719 -36.689  31.826  1.00  0.00     0.136 C 
ATOM      2  O   UNL     1     -11.513 -36.567  31.988  1.00  0.00    -0.299 OA
ENDROOT
BRANCH   1   3
ATOM      3  C   UNL     1     -13.276 -37.980  31.258  1.00  0.00     0.053 C 
ATOM      4  C   UNL     1     -12.560 -39.158  31.929  1.00  0.00     0.016 C 
BRANCH   3   5
ATOM      5  C   UNL     1     -13.121 -38.067  29.719  1.00  0.00     0.015 C 
BRANCH   5   6
ATOM      6  C   UNL     1     -13.792 -36.920  28.948  1.00  0.00     0.028 C 
BRANCH   6   7
ATOM      7  C   UNL     1     -12.799 -36.022  28.247  1.00  0.00    -0.028 C 
ATOM      8  C   UNL     1     -12.560 -34.721  28.536  1.00  0.00    -0.070 CG0
ATOM      9  C   UNL     1     -11.645 -33.953  27.614  1.00  0.00     0.039 C 
ATOM     10  G   UNL     1     -13.235 -33.980  29.676  1.00  0.00     0.000 G0
ENDBRANCH   6   7
ENDBRANCH   5   6
ENDBRANCH   3   5
ENDBRANCH   1   3
BRANCH   1  11
ATOM     11  C   UNL     1     -13.639 -35.598  32.325  1.00  0.00     0.087 C 
BRANCH  11  12
ATOM     12  C   UNL     1     -12.972 -34.197  32.305  1.00  0.00     0.066 C 
BRANCH  12  13
ATOM     13  C   UNL     1     -12.380 -33.893  30.927  1.00  0.00     0.140 C 
ATOM     14  O   UNL     1     -11.227 -33.505  30.820  1.00  0.00    -0.299 OA
BRANCH  13  15
ATOM     15  C   UNL     1     -13.221 -33.951  29.675  1.00  0.00     0.106 CG0
ATOM     16  G   UNL     1     -12.551 -34.719  28.549  1.00  0.00     0.000 G0
ENDBRANCH  13  15
ENDBRANCH  12  13
BRANCH  12  17
ATOM     17  C   UNL     1     -13.934 -33.098  32.863  1.00  0.00    -0.006 C 
ATOM     18  C   UNL     1     -13.571 -32.587  34.271  1.00  0.00     0.008 C 
ATOM     19  C   UNL     1     -15.408 -33.533  32.805  1.00  0.00     0.008 C 
ENDBRANCH  12  17
ENDBRANCH  11  12
ENDBRANCH   1  11
TORSDOF 1
ENDMDL
MODEL 5
REMARK VINA RESULT:    -4.462      1.972      4.441
REMARK INTER + INTRA:          -6.276
REMARK INTER:                  -6.570
REMARK INTRA:                   0.294
REMARK UNBOUND:                 0.534
REMARK SMILES CC1=CCC[C@@H](C)C(=O)C[C@H](C(C)C)C(=O)C1
REMARK SMILES IDX 8 1 9 2 6 3 7 4 5 5 4 6 3 7 2 8 1 9 10 11 11 12 15 13 16 14
REMARK SMILES IDX 17 15 12 17 13 18 14 19
REMARK H PARENT
REMARK Flexibility Score: 70.00
ROOT
ATOM      1  C   UNL     1     -12.742 -33.763  29.071  1.00  0.00     0.136 C 
ATOM      2  O   UNL     1     -13.441 -32.830  28.699  1.00  0.00    -0.299 OA
ENDROOT
BRANCH   1   3
ATOM      3  C   UNL     1     -12.626 -35.005  28.211  1.00  0.00     0.053 C 
ATOM      4  C   UNL     1     -12.640 -34.583  26.737  1.00  0.00     0.016 C 
BRANCH   3   5
ATOM      5  C   UNL     1     -13.758 -36.027  28.485  1.00  0.00     0.015 C 
BRANCH   5   6
ATOM      6  C   UNL     1     -13.279 -37.479  28.632  1.00  0.00     0.028 C 
BRANCH   6   7
ATOM      7  C   UNL     1     -13.307 -37.967  30.062  1.00  0.00    -0.028 C 
ATOM      8  C   UNL     1     -12.325 -37.800  30.978  1.00  0.00    -0.070 CG0
ATOM      9  C   UNL     1     -12.476 -38.502  32.306  1.00  0.00     0.039 C 
ATOM     10  G   UNL     1     -11.047 -37.026  30.704  1.00  0.00     0.000 G0
ENDBRANCH   6   7
ENDBRANCH   5   6
ENDBRANCH   3   5
ENDBRANCH   1   3
BRANCH   1  11
ATOM     11  C   UNL     1     -11.903 -33.596  30.317  1.00  0.00     0.087 C 
BRANCH  11  12
ATOM     12  C   UNL     1     -12.182 -34.693  31.378  1.00  0.00     0.066 C 
BRANCH  12  13
ATOM     13  C   UNL     1     -11.019 -35.685  31.459  1.00  0.00     0.140 C 
ATOM     14  O   UNL     1      -9.995 -35.392  32.054  1.00  0.00    -0.299 OA
BRANCH  13  15
ATOM     15  C   UNL     1     -11.051 -37.002  30.721  1.00  0.00     0.106 CG0
ATOM     16  G   UNL     1     -12.321 -37.793  30.977  1.00  0.00     0.000 G0
ENDBRANCH  13  15
ENDBRANCH  12  13
BRANCH  12  17
ATOM     17  C   UNL     1     -12.609 -34.069  32.747  1.00  0.00    -0.006 C 
ATOM     18  C   UNL     1     -14.007 -33.423  32.745  1.00  0.00     0.008 C 
ATOM     19  C   UNL     1     -11.556 -33.088  33.290  1.00  0.00     0.008 C 
ENDBRANCH  12  17
ENDBRANCH  11  12
ENDBRANCH   1  11
TORSDOF 1
ENDMDL
MODEL 6
REMARK VINA RESULT:    -4.436      1.457      2.256
REMARK INTER + INTRA:          -6.236
REMARK INTER:                  -7.272
REMARK INTRA:                   1.036
REMARK UNBOUND:                 0.534
REMARK SMILES CC1=CCC[C@@H](C)C(=O)C[C@H](C(C)C)C(=O)C1
REMARK SMILES IDX 8 1 9 2 6 3 7 4 5 5 4 6 3 7 2 8 1 9 10 11 11 12 15 13 16 14
REMARK SMILES IDX 17 15 12 17 13 18 14 19
REMARK H PARENT
REMARK Flexibility Score: 70.00
ROOT
ATOM      1  C   UNL     1     -11.953 -36.750  29.425  1.00  0.00     0.136 C 
ATOM      2  O   UNL     1     -10.956 -36.747  30.133  1.00  0.00    -0.299 OA
ENDROOT
BRANCH   1   3
ATOM      3  C   UNL     1     -13.014 -37.814  29.624  1.00  0.00     0.053 C 
ATOM      4  C   UNL     1     -14.137 -37.580  28.608  1.00  0.00     0.016 C 
BRANCH   3   5
ATOM      5  C   UNL     1     -13.587 -37.821  31.063  1.00  0.00     0.015 C 
BRANCH   5   6
ATOM      6  C   UNL     1     -12.975 -36.762  31.994  1.00  0.00     0.028 C 
BRANCH   6   7
ATOM      7  C   UNL     1     -13.828 -35.521  32.115  1.00  0.00    -0.028 C 
ATOM      8  C   UNL     1     -13.396 -34.244  31.988  1.00  0.00    -0.070 CG0
ATOM      9  C   UNL     1     -14.372 -33.137  32.304  1.00  0.00     0.039 C 
ATOM     10  G   UNL     1     -11.965 -33.875  31.639  1.00  0.00     0.000 G0
ENDBRANCH   6   7
ENDBRANCH   5   6
ENDBRANCH   3   5
ENDBRANCH   1   3
BRANCH   1  11
ATOM     11  C   UNL     1     -12.165 -35.609  28.456  1.00  0.00     0.087 C 
BRANCH  11  12
ATOM     12  C   UNL     1     -12.701 -34.328  29.149  1.00  0.00     0.066 C 
BRANCH  12  13
ATOM     13  C   UNL     1     -11.694 -33.798  30.172  1.00  0.00     0.140 C 
ATOM     14  O   UNL     1     -10.605 -33.380  29.812  1.00  0.00    -0.299 OA
BRANCH  13  15
ATOM     15  C   UNL     1     -11.961 -33.874  31.656  1.00  0.00     0.106 CG0
ATOM     16  G   UNL     1     -13.400 -34.233  31.980  1.00  0.00     0.000 G0
ENDBRANCH  13  15
ENDBRANCH  12  13
BRANCH  12  17
ATOM     17  C   UNL     1     -13.189 -33.274  28.101  1.00  0.00    -0.006 C 
ATOM     18  C   UNL     1     -14.255 -32.296  28.631  1.00  0.00     0.008 C 
ATOM     19  C   UNL     1     -13.655 -33.931  26.791  1.00  0.00     0.008 C 
ENDBRANCH  12  17
ENDBRANCH  11  12
ENDBRANCH   1  11
TORSDOF 1
ENDMDL
MODEL 7
REMARK VINA RESULT:    -4.268      1.936      4.390
REMARK INTER + INTRA:          -5.979
REMARK INTER:                  -6.364
REMARK INTRA:                   0.385
REMARK UNBOUND:                 0.534
REMARK SMILES CC1=CCC[C@@H](C)C(=O)C[C@H](C(C)C)C(=O)C1
REMARK SMILES IDX 8 1 9 2 6 3 7 4 5 5 4 6 3 7 2 8 1 9 10 11 11 12 15 13 16 14
REMARK SMILES IDX 17 15 12 17 13 18 14 19
REMARK H PARENT
REMARK Flexibility Score: 70.00
ROOT
ATOM      1  C   UNL     1     -11.755 -34.307  32.334  1.00  0.00     0.136 C 
ATOM      2  O   UNL     1     -12.660 -33.486  32.356  1.00  0.00    -0.299 OA
ENDROOT
BRANCH   1   3
ATOM      3  C   UNL     1     -10.320 -33.850  32.504  1.00  0.00     0.053 C 
ATOM      4  C   UNL     1     -10.142 -33.316  33.930  1.00  0.00     0.016 C 
BRANCH   3   5
ATOM      5  C   UNL     1      -9.915 -32.767  31.474  1.00  0.00     0.015 C 
BRANCH   5   6
ATOM      6  C   UNL     1      -9.937 -33.242  30.012  1.00  0.00     0.028 C 
BRANCH   6   7
ATOM      7  C   UNL     1     -11.271 -33.016  29.339  1.00  0.00    -0.028 C 
ATOM      8  C   UNL     1     -11.992 -33.946  28.671  1.00  0.00    -0.070 CG0
ATOM      9  C   UNL     1     -13.223 -33.482  27.931  1.00  0.00     0.039 C 
ATOM     10  G   UNL     1     -11.575 -35.401  28.551  1.00  0.00     0.000 G0
ENDBRANCH   6   7
ENDBRANCH   5   6
ENDBRANCH   3   5
ENDBRANCH   1   3
BRANCH   1  11
ATOM     11  C   UNL     1     -12.102 -35.778  32.275  1.00  0.00     0.087 C 
BRANCH  11  12
ATOM     12  C   UNL     1     -12.554 -36.229  30.860  1.00  0.00     0.066 C 
BRANCH  12  13
ATOM     13  C   UNL     1     -11.404 -36.117  29.857  1.00  0.00     0.140 C 
ATOM     14  O   UNL     1     -10.287 -36.517  30.146  1.00  0.00    -0.299 OA
BRANCH  13  15
ATOM     15  C   UNL     1     -11.578 -35.415  28.531  1.00  0.00     0.106 CG0
ATOM     16  G   UNL     1     -12.006 -33.966  28.682  1.00  0.00     0.000 G0
ENDBRANCH  13  15
ENDBRANCH  12  13
BRANCH  12  17
ATOM     17  C   UNL     1     -13.254 -37.628  30.904  1.00  0.00    -0.006 C 
ATOM     18  C   UNL     1     -12.613 -38.631  31.882  1.00  0.00     0.008 C 
ATOM     19  C   UNL     1     -13.398 -38.247  29.504  1.00  0.00     0.008 C 
ENDBRANCH  12  17
ENDBRANCH  11  12
ENDBRANCH   1  11
TORSDOF 1
ENDMDL
MODEL 8
REMARK VINA RESULT:    -4.012      1.736      3.571
REMARK INTER + INTRA:          -5.590
REMARK INTER:                  -6.179
REMARK INTRA:                   0.589
REMARK UNBOUND:                 0.534
REMARK SMILES CC1=CCC[C@@H](C)C(=O)C[C@H](C(C)C)C(=O)C1
REMARK SMILES IDX 8 1 9 2 6 3 7 4 5 5 4 6 3 7 2 8 1 9 10 11 11 12 15 13 16 14
REMARK SMILES IDX 17 15 12 17 13 18 14 19
REMARK H PARENT
REMARK Flexibility Score: 70.00
ROOT
ATOM      1  C   UNL     1     -12.888 -33.891  30.693  1.00  0.00     0.136 C 
ATOM      2  O   UNL     1     -13.668 -34.370  31.504  1.00  0.00    -0.299 OA
ENDROOT
BRANCH   1   3
ATOM      3  C   UNL     1     -11.529 -33.404  31.153  1.00  0.00     0.053 C 
ATOM      4  C   UNL     1     -10.546 -33.518  29.981  1.00  0.00     0.016 C 
BRANCH   3   5
ATOM      5  C   UNL     1     -10.996 -34.193  32.375  1.00  0.00     0.015 C 
BRANCH   5   6
ATOM      6  C   UNL     1     -10.362 -35.549  32.027  1.00  0.00     0.028 C 
BRANCH   6   7
ATOM      7  C   UNL     1     -11.313 -36.709  32.214  1.00  0.00    -0.028 C 
ATOM      8  C   UNL     1     -11.909 -37.417  31.226  1.00  0.00    -0.070 CG0
ATOM      9  C   UNL     1     -12.951 -38.434  31.621  1.00  0.00     0.039 C 
ATOM     10  G   UNL     1     -11.652 -37.172  29.750  1.00  0.00     0.000 G0
ENDBRANCH   6   7
ENDBRANCH   5   6
ENDBRANCH   3   5
ENDBRANCH   1   3
BRANCH   1  11
ATOM     11  C   UNL     1     -13.249 -33.922  29.225  1.00  0.00     0.087 C 
BRANCH  11  12
ATOM     12  C   UNL     1     -12.481 -35.020  28.442  1.00  0.00     0.066 C 
BRANCH  12  13
ATOM     13  C   UNL     1     -12.733 -36.402  29.049  1.00  0.00     0.140 C 
ATOM     14  O   UNL     1     -13.858 -36.876  29.067  1.00  0.00    -0.299 OA
BRANCH  13  15
ATOM     15  C   UNL     1     -11.635 -37.173  29.742  1.00  0.00     0.106 CG0
ATOM     16  G   UNL     1     -11.920 -37.413  31.214  1.00  0.00     0.000 G0
ENDBRANCH  13  15
ENDBRANCH  12  13
BRANCH  12  17
ATOM     17  C   UNL     1     -12.750 -34.920  26.904  1.00  0.00    -0.006 C 
ATOM     18  C   UNL     1     -11.493 -34.655  26.054  1.00  0.00     0.008 C 
ATOM     19  C   UNL     1     -13.856 -33.903  26.574  1.00  0.00     0.008 C 
ENDBRANCH  12  17
ENDBRANCH  11  12
ENDBRANCH   1  11
TORSDOF 1
ENDMDL
MODEL 9
REMARK VINA RESULT:    -3.994      1.802      3.105
REMARK INTER + INTRA:          -5.561
REMARK INTER:                  -6.535
REMARK INTRA:                   0.974
REMARK UNBOUND:                 0.534
REMARK SMILES CC1=CCC[C@@H](C)C(=O)C[C@H](C(C)C)C(=O)C1
REMARK SMILES IDX 8 1 9 2 6 3 7 4 5 5 4 6 3 7 2 8 1 9 10 11 11 12 15 13 16 14
REMARK SMILES IDX 17 15 12 17 13 18 14 19
REMARK H PARENT
REMARK Flexibility Score: 70.00
ROOT
ATOM      1  C   UNL     1     -13.745 -33.528  31.032  1.00  0.00     0.136 C 
ATOM      2  O   UNL     1     -14.394 -32.503  30.878  1.00  0.00    -0.299 OA
ENDROOT
BRANCH   1   3
ATOM      3  C   UNL     1     -13.217 -33.885  32.407  1.00  0.00     0.053 C 
ATOM      4  C   UNL     1     -14.079 -33.180  33.460  1.00  0.00     0.016 C 
BRANCH   3   5
ATOM      5  C   UNL     1     -11.728 -33.499  32.591  1.00  0.00     0.015 C 
BRANCH   5   6
ATOM      6  C   UNL     1     -10.759 -34.691  32.586  1.00  0.00     0.028 C 
BRANCH   6   7
ATOM      7  C   UNL     1     -11.368 -35.943  31.998  1.00  0.00    -0.028 C 
ATOM      8  C   UNL     1     -11.315 -36.320  30.699  1.00  0.00    -0.070 CG0
ATOM      9  C   UNL     1     -12.125 -37.524  30.283  1.00  0.00     0.039 C 
ATOM     10  G   UNL     1     -10.564 -35.543  29.633  1.00  0.00     0.000 G0
ENDBRANCH   6   7
ENDBRANCH   5   6
ENDBRANCH   3   5
ENDBRANCH   1   3
BRANCH   1  11
ATOM     11  C   UNL     1     -13.602 -34.485  29.870  1.00  0.00     0.087 C 
BRANCH  11  12
ATOM     12  C   UNL     1     -12.572 -33.998  28.817  1.00  0.00     0.066 C 
BRANCH  12  13
ATOM     13  C   UNL     1     -11.140 -34.182  29.327  1.00  0.00     0.140 C 
ATOM     14  O   UNL     1     -10.393 -33.222  29.436  1.00  0.00    -0.299 OA
BRANCH  13  15
ATOM     15  C   UNL     1     -10.568 -35.552  29.602  1.00  0.00     0.106 CG0
ATOM     16  G   UNL     1     -11.323 -36.299  30.687  1.00  0.00     0.000 G0
ENDBRANCH  13  15
ENDBRANCH  12  13
BRANCH  12  17
ATOM     17  C   UNL     1     -12.853 -34.623  27.411  1.00  0.00    -0.006 C 
ATOM     18  C   UNL     1     -11.622 -34.697  26.488  1.00  0.00     0.008 C 
ATOM     19  C   UNL     1     -14.029 -33.937  26.696  1.00  0.00     0.008 C 
ENDBRANCH  12  17
ENDBRANCH  11  12
ENDBRANCH   1  11
TORSDOF 1
ENDMDL
