MODEL 1
REMARK VINA RESULT:     5.372      0.000      0.000
REMARK INTER + INTRA:           5.529
REMARK INTER:                   5.529
REMARK INTRA:                   0.000
REMARK UNBOUND:                 0.000
REMARK SMILES Nc1ncnc2nc[nH]c12
REMARK SMILES IDX 8 1 7 2 6 3 5 4 4 5 3 6 2 7 10 8 9 9 1 11
REMARK H PARENT 9 10 1 12 1 13
REMARK Flexibility Score: inf
ROOT
ATOM      1  C   UNL     1     -24.019  -2.662 -19.762  1.00  0.00     0.199 A 
ATOM      2  N   UNL     1     -23.999  -3.808 -19.027  1.00  0.00    -0.217 NA
ATOM      3  C   UNL     1     -25.305  -4.107 -18.932  1.00  0.00     0.182 A 
ATOM      4  N   UNL     1     -25.845  -5.172 -18.292  1.00  0.00    -0.215 NA
ATOM      5  C   UNL     1     -27.206  -5.310 -18.305  1.00  0.00     0.226 A 
ATOM      6  N   UNL     1     -27.993  -4.392 -18.953  1.00  0.00    -0.217 NA
ATOM      7  C   UNL     1     -27.449  -3.319 -19.601  1.00  0.00     0.152 A 
ATOM      8  C   UNL     1     -26.063  -3.192 -19.578  1.00  0.00     0.127 A 
ATOM      9  N   UNL     1     -25.265  -2.260 -20.115  1.00  0.00    -0.340 N 
ATOM     10  H   UNL     1     -25.528  -1.419 -20.673  1.00  0.00     0.168 HD
ENDROOT
BRANCH   7  11
ATOM     11  N   UNL     1     -28.289  -2.376 -20.268  1.00  0.00    -0.382 N 
ATOM     12  H   UNL     1     -28.974  -1.808 -19.723  1.00  0.00     0.158 HD
ATOM     13  H   UNL     1     -28.237  -2.237 -21.301  1.00  0.00     0.158 HD
ENDBRANCH   7  11
TORSDOF 1
ENDMDL
MODEL 2
REMARK VINA RESULT:     6.308      1.091      3.148
REMARK INTER + INTRA:           6.492
REMARK INTER:                   6.492
REMARK INTRA:                   0.000
REMARK UNBOUND:                 0.000
REMARK SMILES Nc1ncnc2nc[nH]c12
REMARK SMILES IDX 8 1 7 2 6 3 5 4 4 5 3 6 2 7 10 8 9 9 1 11
REMARK H PARENT 9 10 1 12 1 13
REMARK Flexibility Score: inf
ROOT
ATOM      1  C   UNL     1     -29.390  -2.671 -20.010  1.00  0.00     0.199 A 
ATOM      2  N   UNL     1     -29.406  -3.750 -19.180  1.00  0.00    -0.217 NA
ATOM      3  C   UNL     1     -28.096  -4.012 -19.031  1.00  0.00     0.182 A 
ATOM      4  N   UNL     1     -27.552  -5.007 -18.289  1.00  0.00    -0.215 NA
ATOM      5  C   UNL     1     -26.189  -5.116 -18.259  1.00  0.00     0.226 A 
ATOM      6  N   UNL     1     -25.403  -4.238 -18.963  1.00  0.00    -0.217 NA
ATOM      7  C   UNL     1     -25.952  -3.234 -19.710  1.00  0.00     0.152 A 
ATOM      8  C   UNL     1     -27.341  -3.136 -19.731  1.00  0.00     0.127 A 
ATOM      9  N   UNL     1     -28.143  -2.271 -20.364  1.00  0.00    -0.340 N 
ATOM     10  H   UNL     1     -27.883  -1.474 -20.985  1.00  0.00     0.168 HD
ENDROOT
BRANCH   7  11
ATOM     11  N   UNL     1     -25.114  -2.333 -20.435  1.00  0.00    -0.382 N 
ATOM     12  H   UNL     1     -24.336  -1.837 -19.949  1.00  0.00     0.158 HD
ATOM     13  H   UNL     1     -25.261  -2.153 -21.453  1.00  0.00     0.158 HD
ENDBRANCH   7  11
TORSDOF 1
ENDMDL
MODEL 3
REMARK VINA RESULT:     6.351      9.603     11.047
REMARK INTER + INTRA:           6.537
REMARK INTER:                   6.537
REMARK INTRA:                   0.000
REMARK UNBOUND:                 0.000
REMARK SMILES Nc1ncnc2nc[nH]c12
REMARK SMILES IDX 8 1 7 2 6 3 5 4 4 5 3 6 2 7 10 8 9 9 1 11
REMARK H PARENT 9 10 1 12 1 13
REMARK Flexibility Score: inf
ROOT
ATOM      1  C   UNL     1     -21.916  -3.107 -11.846  1.00  0.00     0.199 A 
ATOM      2  N   UNL     1     -21.063  -2.566 -12.759  1.00  0.00    -0.217 NA
ATOM      3  C   UNL     1     -20.115  -2.024 -11.976  1.00  0.00     0.182 A 
ATOM      4  N   UNL     1     -19.014  -1.350 -12.389  1.00  0.00    -0.215 NA
ATOM      5  C   UNL     1     -18.158  -0.870 -11.438  1.00  0.00     0.226 A 
ATOM      6  N   UNL     1     -18.414  -1.070 -10.105  1.00  0.00    -0.217 NA
ATOM      7  C   UNL     1     -19.523  -1.751  -9.687  1.00  0.00     0.152 A 
ATOM      8  C   UNL     1     -20.386  -2.233 -10.668  1.00  0.00     0.127 A 
ATOM      9  N   UNL     1     -21.529  -2.922 -10.559  1.00  0.00    -0.340 N 
ATOM     10  H   UNL     1     -22.017  -3.244  -9.696  1.00  0.00     0.168 HD
ENDROOT
BRANCH   7  11
ATOM     11  N   UNL     1     -19.769  -1.946  -8.294  1.00  0.00    -0.382 N 
ATOM     12  H   UNL     1     -19.102  -2.506  -7.719  1.00  0.00     0.158 HD
ATOM     13  H   UNL     1     -20.609  -1.539  -7.827  1.00  0.00     0.158 HD
ENDBRANCH   7  11
TORSDOF 1
ENDMDL
MODEL 4
REMARK VINA RESULT:     6.722      6.021      6.941
REMARK INTER + INTRA:           6.918
REMARK INTER:                   6.918
REMARK INTRA:                   0.000
REMARK UNBOUND:                 0.000
REMARK SMILES Nc1ncnc2nc[nH]c12
REMARK SMILES IDX 8 1 7 2 6 3 5 4 4 5 3 6 2 7 10 8 9 9 1 11
REMARK H PARENT 9 10 1 12 1 13
REMARK Flexibility Score: inf
ROOT
ATOM      1  C   UNL     1     -21.395   1.124 -15.629  1.00  0.00     0.199 A 
ATOM      2  N   UNL     1     -22.681   1.441 -15.943  1.00  0.00    -0.217 NA
ATOM      3  C   UNL     1     -23.376   0.501 -15.280  1.00  0.00     0.182 A 
ATOM      4  N   UNL     1     -24.723   0.360 -15.254  1.00  0.00    -0.215 NA
ATOM      5  C   UNL     1     -25.250  -0.664 -14.517  1.00  0.00     0.226 A 
ATOM      6  N   UNL     1     -24.430  -1.519 -13.825  1.00  0.00    -0.217 NA
ATOM      7  C   UNL     1     -23.071  -1.376 -13.849  1.00  0.00     0.152 A 
ATOM      8  C   UNL     1     -22.550  -0.330 -14.604  1.00  0.00     0.127 A 
ATOM      9  N   UNL     1     -21.282   0.047 -14.811  1.00  0.00    -0.340 N 
ATOM     10  H   UNL     1     -20.405  -0.378 -14.438  1.00  0.00     0.168 HD
ENDROOT
BRANCH   7  11
ATOM     11  N   UNL     1     -22.237  -2.279 -13.121  1.00  0.00    -0.382 N 
ATOM     12  H   UNL     1     -21.200  -2.241 -13.235  1.00  0.00     0.158 HD
ATOM     13  H   UNL     1     -22.641  -2.986 -12.468  1.00  0.00     0.158 HD
ENDBRANCH   7  11
TORSDOF 1
ENDMDL
MODEL 5
REMARK VINA RESULT:     6.861      9.822     10.990
REMARK INTER + INTRA:           7.062
REMARK INTER:                   7.062
REMARK INTRA:                   0.000
REMARK UNBOUND:                 0.000
REMARK SMILES Nc1ncnc2nc[nH]c12
REMARK SMILES IDX 8 1 7 2 6 3 5 4 4 5 3 6 2 7 10 8 9 9 1 11
REMARK H PARENT 9 10 1 12 1 13
REMARK Flexibility Score: inf
ROOT
ATOM      1  C   UNL     1     -17.548  -0.657 -11.875  1.00  0.00     0.199 A 
ATOM      2  N   UNL     1     -18.428  -1.140 -12.795  1.00  0.00    -0.217 NA
ATOM      3  C   UNL     1     -19.385  -1.675 -12.018  1.00  0.00     0.182 A 
ATOM      4  N   UNL     1     -20.513  -2.298 -12.439  1.00  0.00    -0.215 NA
ATOM      5  C   UNL     1     -21.375  -2.780 -11.493  1.00  0.00     0.226 A 
ATOM      6  N   UNL     1     -21.097  -2.632 -10.158  1.00  0.00    -0.217 NA
ATOM      7  C   UNL     1     -19.961  -2.002  -9.732  1.00  0.00     0.152 A 
ATOM      8  C   UNL     1     -19.094  -1.517 -10.707  1.00  0.00     0.127 A 
ATOM      9  N   UNL     1     -17.927  -0.871 -10.591  1.00  0.00    -0.340 N 
ATOM     10  H   UNL     1     -17.419  -0.593  -9.723  1.00  0.00     0.168 HD
ENDROOT
BRANCH   7  11
ATOM     11  N   UNL     1     -19.694  -1.860  -8.336  1.00  0.00    -0.382 N 
ATOM     12  H   UNL     1     -18.884  -1.285  -8.015  1.00  0.00     0.158 HD
ATOM     13  H   UNL     1     -20.294  -2.321  -7.618  1.00  0.00     0.158 HD
ENDBRANCH   7  11
TORSDOF 1
ENDMDL
MODEL 6
REMARK VINA RESULT:     6.904      6.164      7.201
REMARK INTER + INTRA:           7.106
REMARK INTER:                   7.106
REMARK INTRA:                   0.000
REMARK UNBOUND:                 0.000
REMARK SMILES Nc1ncnc2nc[nH]c12
REMARK SMILES IDX 8 1 7 2 6 3 5 4 4 5 3 6 2 7 10 8 9 9 1 11
REMARK H PARENT 9 10 1 12 1 13
REMARK Flexibility Score: inf
ROOT
ATOM      1  C   UNL     1     -22.243  -2.225 -13.157  1.00  0.00     0.199 A 
ATOM      2  N   UNL     1     -23.584  -2.118 -13.366  1.00  0.00    -0.217 NA
ATOM      3  C   UNL     1     -23.664  -1.028 -14.148  1.00  0.00     0.182 A 
ATOM      4  N   UNL     1     -24.794  -0.476 -14.651  1.00  0.00    -0.215 NA
ATOM      5  C   UNL     1     -24.674   0.641 -15.432  1.00  0.00     0.226 A 
ATOM      6  N   UNL     1     -23.439   1.179 -15.693  1.00  0.00    -0.217 NA
ATOM      7  C   UNL     1     -22.298   0.622 -15.187  1.00  0.00     0.152 A 
ATOM      8  C   UNL     1     -22.437  -0.514 -14.394  1.00  0.00     0.127 A 
ATOM      9  N   UNL     1     -21.515  -1.260 -13.773  1.00  0.00    -0.340 N 
ATOM     10  H   UNL     1     -20.479  -1.138 -13.758  1.00  0.00     0.168 HD
ENDROOT
BRANCH   7  11
ATOM     11  N   UNL     1     -21.024   1.200 -15.472  1.00  0.00    -0.382 N 
ATOM     12  H   UNL     1     -20.287   1.233 -14.734  1.00  0.00     0.158 HD
ATOM     13  H   UNL     1     -20.805   1.597 -16.413  1.00  0.00     0.158 HD
ENDBRANCH   7  11
TORSDOF 1
ENDMDL
MODEL 7
REMARK VINA RESULT:     6.992      9.706     10.770
REMARK INTER + INTRA:           7.196
REMARK INTER:                   7.196
REMARK INTRA:                   0.000
REMARK UNBOUND:                 0.000
REMARK SMILES Nc1ncnc2nc[nH]c12
REMARK SMILES IDX 8 1 7 2 6 3 5 4 4 5 3 6 2 7 10 8 9 9 1 11
REMARK H PARENT 9 10 1 12 1 13
REMARK Flexibility Score: inf
ROOT
ATOM      1  C   UNL     1     -17.819  -1.120 -12.618  1.00  0.00     0.199 A 
ATOM      2  N   UNL     1     -17.651  -0.812 -11.302  1.00  0.00    -0.217 NA
ATOM      3  C   UNL     1     -18.747  -1.350 -10.742  1.00  0.00     0.182 A 
ATOM      4  N   UNL     1     -19.077  -1.327  -9.428  1.00  0.00    -0.215 NA
ATOM      5  C   UNL     1     -20.241  -1.935  -9.045  1.00  0.00     0.226 A 
ATOM      6  N   UNL     1     -21.045  -2.548  -9.972  1.00  0.00    -0.217 NA
ATOM      7  C   UNL     1     -20.712  -2.573 -11.298  1.00  0.00     0.152 A 
ATOM      8  C   UNL     1     -19.525  -1.950 -11.672  1.00  0.00     0.127 A 
ATOM      9  N   UNL     1     -18.954  -1.817 -12.876  1.00  0.00    -0.340 N 
ATOM     10  H   UNL     1     -19.292  -2.162 -13.801  1.00  0.00     0.168 HD
ENDROOT
BRANCH   7  11
ATOM     11  N   UNL     1     -21.565  -3.217 -12.245  1.00  0.00    -0.382 N 
ATOM     12  H   UNL     1     -22.589  -3.012 -12.252  1.00  0.00     0.158 HD
ATOM     13  H   UNL     1     -21.189  -3.898 -12.941  1.00  0.00     0.158 HD
ENDBRANCH   7  11
TORSDOF 1
ENDMDL
MODEL 8
REMARK VINA RESULT:     7.100      9.444     10.749
REMARK INTER + INTRA:           7.308
REMARK INTER:                   7.308
REMARK INTRA:                   0.000
REMARK UNBOUND:                 0.000
REMARK SMILES Nc1ncnc2nc[nH]c12
REMARK SMILES IDX 8 1 7 2 6 3 5 4 4 5 3 6 2 7 10 8 9 9 1 11
REMARK H PARENT 9 10 1 12 1 13
REMARK Flexibility Score: inf
ROOT
ATOM      1  C   UNL     1     -21.897  -3.149 -12.315  1.00  0.00     0.199 A 
ATOM      2  N   UNL     1     -22.015  -3.180 -10.959  1.00  0.00    -0.217 NA
ATOM      3  C   UNL     1     -20.911  -2.526 -10.562  1.00  0.00     0.182 A 
ATOM      4  N   UNL     1     -20.538  -2.272  -9.285  1.00  0.00    -0.215 NA
ATOM      5  C   UNL     1     -19.373  -1.587  -9.077  1.00  0.00     0.226 A 
ATOM      6  N   UNL     1     -18.610  -1.171 -10.140  1.00  0.00    -0.217 NA
ATOM      7  C   UNL     1     -18.987  -1.425 -11.429  1.00  0.00     0.152 A 
ATOM      8  C   UNL     1     -20.175  -2.124 -11.623  1.00  0.00     0.127 A 
ATOM      9  N   UNL     1     -20.783  -2.510 -12.752  1.00  0.00    -0.340 N 
ATOM     10  H   UNL     1     -20.482  -2.361 -13.740  1.00  0.00     0.168 HD
ENDROOT
BRANCH   7  11
ATOM     11  N   UNL     1     -18.177  -0.982 -12.519  1.00  0.00    -0.382 N 
ATOM     12  H   UNL     1     -17.353  -0.367 -12.342  1.00  0.00     0.158 HD
ATOM     13  H   UNL     1     -18.389  -1.261 -13.502  1.00  0.00     0.158 HD
ENDBRANCH   7  11
TORSDOF 1
ENDMDL
MODEL 9
REMARK VINA RESULT:     7.319      6.074      7.052
REMARK INTER + INTRA:           7.533
REMARK INTER:                   7.533
REMARK INTRA:                   0.000
REMARK UNBOUND:                 0.000
REMARK SMILES Nc1ncnc2nc[nH]c12
REMARK SMILES IDX 8 1 7 2 6 3 5 4 4 5 3 6 2 7 10 8 9 9 1 11
REMARK H PARENT 9 10 1 12 1 13
REMARK Flexibility Score: inf
ROOT
ATOM      1  C   UNL     1     -21.956  -2.141 -13.025  1.00  0.00     0.199 A 
ATOM      2  N   UNL     1     -21.181  -1.112 -13.463  1.00  0.00    -0.217 NA
ATOM      3  C   UNL     1     -22.045  -0.402 -14.208  1.00  0.00     0.182 A 
ATOM      4  N   UNL     1     -21.779   0.742 -14.884  1.00  0.00    -0.215 NA
ATOM      5  C   UNL     1     -22.795   1.324 -15.591  1.00  0.00     0.226 A 
ATOM      6  N   UNL     1     -24.045   0.758 -15.609  1.00  0.00    -0.217 NA
ATOM      7  C   UNL     1     -24.314  -0.395 -14.927  1.00  0.00     0.152 A 
ATOM      8  C   UNL     1     -23.270  -0.976 -14.212  1.00  0.00     0.127 A 
ATOM      9  N   UNL     1     -23.238  -2.086 -13.464  1.00  0.00    -0.340 N 
ATOM     10  H   UNL     1     -24.010  -2.758 -13.261  1.00  0.00     0.168 HD
ENDROOT
BRANCH   7  11
ATOM     11  N   UNL     1     -25.623  -0.966 -14.961  1.00  0.00    -0.382 N 
ATOM     12  H   UNL     1     -25.871  -1.746 -14.313  1.00  0.00     0.158 HD
ATOM     13  H   UNL     1     -26.350  -0.619 -15.625  1.00  0.00     0.158 HD
ENDBRANCH   7  11
TORSDOF 1
ENDMDL
