MODEL 1
REMARK VINA RESULT:    -4.205      0.000      0.000
REMARK INTER + INTRA:         -17.688
REMARK INTER:                 -11.089
REMARK INTRA:                  -6.599
REMARK UNBOUND:                -6.599
REMARK SMILES CCCCCCCCCCCCCCCCCCCCCCCCCCCCCC(=O)[O-]
REMARK SMILES IDX 16 1 17 2 18 3 19 4 20 5 21 6 22 7 23 8 24 9 25 10 26 11
REMARK SMILES IDX 27 12 28 13 29 14 30 15 31 16 32 17 15 18 14 19 13 20 12 21
REMARK SMILES IDX 11 22 10 23 9 24 8 25 7 26 6 27 5 28 4 29 3 30 2 31 1 32
REMARK H PARENT
REMARK Flexibility Score: inf
ROOT
ATOM      1  C   UNL     1     -12.621  44.567  31.412  1.00  0.00     0.000 C 
ENDROOT
BRANCH   1   2
ATOM      2  C   UNL     1     -11.939  43.604  32.401  1.00  0.00     0.000 C 
BRANCH   2   3
ATOM      3  C   UNL     1     -12.703  42.283  32.572  1.00  0.00     0.000 C 
BRANCH   3   4
ATOM      4  C   UNL     1     -11.828  41.089  32.170  1.00  0.00     0.000 C 
BRANCH   4   5
ATOM      5  C   UNL     1     -10.349  41.358  32.483  1.00  0.00     0.000 C 
BRANCH   5   6
ATOM      6  C   UNL     1      -9.397  40.648  31.507  1.00  0.00     0.000 C 
BRANCH   6   7
ATOM      7  C   UNL     1     -10.133  39.691  30.555  1.00  0.00     0.000 C 
BRANCH   7   8
ATOM      8  C   UNL     1      -9.266  39.250  29.363  1.00  0.00     0.000 C 
BRANCH   8   9
ATOM      9  C   UNL     1      -9.989  38.376  28.318  1.00  0.00     0.000 C 
BRANCH   9  10
ATOM     10  C   UNL     1     -10.483  37.022  28.871  1.00  0.00     0.000 C 
BRANCH  10  11
ATOM     11  C   UNL     1     -12.002  36.842  28.698  1.00  0.00     0.000 C 
BRANCH  11  12
ATOM     12  C   UNL     1     -12.789  37.099  29.997  1.00  0.00     0.000 C 
BRANCH  12  13
ATOM     13  C   UNL     1     -13.569  38.427  30.030  1.00  0.00     0.006 C 
BRANCH  13  14
ATOM     14  C   UNL     1     -15.089  38.229  29.991  1.00  0.00     0.053 C 
BRANCH  14  15
ATOM     15  C   UNL     1     -15.580  38.242  28.578  1.00  0.00     0.041 C 
ATOM     16  O   UNL     1     -14.979  38.919  27.704  1.00  0.00    -0.550 OA
ATOM     17  O   UNL     1     -16.675  37.466  28.216  1.00  0.00    -0.550 OA
ENDBRANCH  14  15
ENDBRANCH  13  14
ENDBRANCH  12  13
ENDBRANCH  11  12
ENDBRANCH  10  11
ENDBRANCH   9  10
ENDBRANCH   8   9
ENDBRANCH   7   8
ENDBRANCH   6   7
ENDBRANCH   5   6
ENDBRANCH   4   5
ENDBRANCH   3   4
ENDBRANCH   2   3
ENDBRANCH   1   2
BRANCH   1  18
ATOM     18  C   UNL     1     -11.823  44.848  30.123  1.00  0.00     0.000 C 
BRANCH  18  19
ATOM     19  C   UNL     1     -10.344  44.413  30.157  1.00  0.00     0.000 C 
BRANCH  19  20
ATOM     20  C   UNL     1      -9.961  43.329  29.133  1.00  0.00     0.000 C 
BRANCH  20  21
ATOM     21  C   UNL     1     -10.900  43.299  27.919  1.00  0.00     0.000 C 
BRANCH  21  22
ATOM     22  C   UNL     1     -11.375  41.869  27.630  1.00  0.00     0.000 C 
BRANCH  22  23
ATOM     23  C   UNL     1     -12.562  41.492  28.530  1.00  0.00     0.000 C 
BRANCH  23  24
ATOM     24  C   UNL     1     -13.817  42.343  28.260  1.00  0.00    -0.000 C 
BRANCH  24  25
ATOM     25  C   UNL     1     -14.799  42.458  29.440  1.00  0.00    -0.000 C 
BRANCH  25  26
ATOM     26  C   UNL     1     -15.977  43.404  29.149  1.00  0.00    -0.000 C 
BRANCH  26  27
ATOM     27  C   UNL     1     -15.966  44.665  30.034  1.00  0.00    -0.000 C 
BRANCH  27  28
ATOM     28  C   UNL     1     -16.854  44.592  31.294  1.00  0.00    -0.000 C 
BRANCH  28  29
ATOM     29  C   UNL     1     -16.129  44.157  32.583  1.00  0.00    -0.000 C 
BRANCH  29  30
ATOM     30  C   UNL     1     -16.420  42.712  33.037  1.00  0.00    -0.000 C 
BRANCH  30  31
ATOM     31  C   UNL     1     -17.652  42.065  32.380  1.00  0.00    -0.003 C 
ATOM     32  C   UNL     1     -17.310  40.803  31.589  1.00  0.00     0.004 C 
ENDBRANCH  30  31
ENDBRANCH  29  30
ENDBRANCH  28  29
ENDBRANCH  27  28
ENDBRANCH  26  27
ENDBRANCH  25  26
ENDBRANCH  24  25
ENDBRANCH  23  24
ENDBRANCH  22  23
ENDBRANCH  21  22
ENDBRANCH  20  21
ENDBRANCH  19  20
ENDBRANCH  18  19
ENDBRANCH   1  18
TORSDOF 28
ENDMDL
MODEL 2
REMARK VINA RESULT:    -4.144      2.216      6.055
REMARK INTER + INTRA:         -17.526
REMARK INTER:                 -10.962
REMARK INTRA:                  -6.564
REMARK UNBOUND:                -6.599
REMARK SMILES CCCCCCCCCCCCCCCCCCCCCCCCCCCCCC(=O)[O-]
REMARK SMILES IDX 16 1 17 2 18 3 19 4 20 5 21 6 22 7 23 8 24 9 25 10 26 11
REMARK SMILES IDX 27 12 28 13 29 14 30 15 31 16 32 17 15 18 14 19 13 20 12 21
REMARK SMILES IDX 11 22 10 23 9 24 8 25 7 26 6 27 5 28 4 29 3 30 2 31 1 32
REMARK H PARENT
REMARK Flexibility Score: inf
ROOT
ATOM      1  C   UNL     1     -13.262  44.489  31.550  1.00  0.00     0.000 C 
ENDROOT
BRANCH   1   2
ATOM      2  C   UNL     1     -12.495  44.760  30.243  1.00  0.00     0.000 C 
BRANCH   2   3
ATOM      3  C   UNL     1     -10.973  44.783  30.436  1.00  0.00     0.000 C 
BRANCH   3   4
ATOM      4  C   UNL     1     -10.270  43.974  29.341  1.00  0.00     0.000 C 
BRANCH   4   5
ATOM      5  C   UNL     1     -11.275  43.467  28.297  1.00  0.00     0.000 C 
BRANCH   5   6
ATOM      6  C   UNL     1     -11.228  41.941  28.119  1.00  0.00     0.000 C 
BRANCH   6   7
ATOM      7  C   UNL     1     -12.605  41.281  28.309  1.00  0.00     0.000 C 
BRANCH   7   8
ATOM      8  C   UNL     1     -13.552  41.524  27.121  1.00  0.00     0.000 C 
BRANCH   8   9
ATOM      9  C   UNL     1     -15.023  41.786  27.503  1.00  0.00     0.000 C 
BRANCH   9  10
ATOM     10  C   UNL     1     -15.258  41.926  29.022  1.00  0.00     0.000 C 
BRANCH  10  11
ATOM     11  C   UNL     1     -15.893  43.278  29.391  1.00  0.00     0.000 C 
BRANCH  11  12
ATOM     12  C   UNL     1     -16.688  43.229  30.710  1.00  0.00     0.000 C 
BRANCH  12  13
ATOM     13  C   UNL     1     -16.899  44.594  31.391  1.00  0.00     0.006 C 
BRANCH  13  14
ATOM     14  C   UNL     1     -17.390  44.471  32.839  1.00  0.00     0.053 C 
BRANCH  14  15
ATOM     15  C   UNL     1     -16.240  44.215  33.760  1.00  0.00     0.041 C 
ATOM     16  O   UNL     1     -15.573  45.176  34.223  1.00  0.00    -0.550 OA
ATOM     17  O   UNL     1     -15.936  42.915  34.147  1.00  0.00    -0.550 OA
ENDBRANCH  14  15
ENDBRANCH  13  14
ENDBRANCH  12  13
ENDBRANCH  11  12
ENDBRANCH  10  11
ENDBRANCH   9  10
ENDBRANCH   8   9
ENDBRANCH   7   8
ENDBRANCH   6   7
ENDBRANCH   5   6
ENDBRANCH   4   5
ENDBRANCH   3   4
ENDBRANCH   2   3
ENDBRANCH   1   2
BRANCH   1  18
ATOM     18  C   UNL     1     -12.671  43.371  32.431  1.00  0.00     0.000 C 
BRANCH  18  19
ATOM     19  C   UNL     1     -13.106  41.940  32.060  1.00  0.00     0.000 C 
BRANCH  19  20
ATOM     20  C   UNL     1     -11.958  40.921  31.942  1.00  0.00     0.000 C 
BRANCH  20  21
ATOM     21  C   UNL     1     -10.576  41.552  32.155  1.00  0.00     0.000 C 
BRANCH  21  22
ATOM     22  C   UNL     1      -9.510  40.833  31.318  1.00  0.00     0.000 C 
BRANCH  22  23
ATOM     23  C   UNL     1     -10.091  39.577  30.651  1.00  0.00     0.000 C 
BRANCH  23  24
ATOM     24  C   UNL     1      -9.292  39.130  29.412  1.00  0.00    -0.000 C 
BRANCH  24  25
ATOM     25  C   UNL     1     -10.050  38.205  28.441  1.00  0.00    -0.000 C 
BRANCH  25  26
ATOM     26  C   UNL     1     -10.344  36.819  29.042  1.00  0.00    -0.000 C 
BRANCH  26  27
ATOM     27  C   UNL     1     -11.833  36.435  28.958  1.00  0.00    -0.000 C 
BRANCH  27  28
ATOM     28  C   UNL     1     -12.727  37.022  30.071  1.00  0.00    -0.000 C 
BRANCH  28  29
ATOM     29  C   UNL     1     -13.523  38.281  29.678  1.00  0.00    -0.000 C 
BRANCH  29  30
ATOM     30  C   UNL     1     -15.004  38.277  30.109  1.00  0.00    -0.000 C 
BRANCH  30  31
ATOM     31  C   UNL     1     -16.014  38.239  28.949  1.00  0.00    -0.003 C 
ATOM     32  C   UNL     1     -15.348  38.061  27.586  1.00  0.00     0.004 C 
ENDBRANCH  30  31
ENDBRANCH  29  30
ENDBRANCH  28  29
ENDBRANCH  27  28
ENDBRANCH  26  27
ENDBRANCH  25  26
ENDBRANCH  24  25
ENDBRANCH  23  24
ENDBRANCH  22  23
ENDBRANCH  21  22
ENDBRANCH  20  21
ENDBRANCH  19  20
ENDBRANCH  18  19
ENDBRANCH   1  18
TORSDOF 28
ENDMDL
MODEL 3
REMARK VINA RESULT:    -4.109      3.011      6.766
REMARK INTER + INTRA:         -17.434
REMARK INTER:                 -12.598
REMARK INTRA:                  -4.837
REMARK UNBOUND:                -6.599
REMARK SMILES CCCCCCCCCCCCCCCCCCCCCCCCCCCCCC(=O)[O-]
REMARK SMILES IDX 16 1 17 2 18 3 19 4 20 5 21 6 22 7 23 8 24 9 25 10 26 11
REMARK SMILES IDX 27 12 28 13 29 14 30 15 31 16 32 17 15 18 14 19 13 20 12 21
REMARK SMILES IDX 11 22 10 23 9 24 8 25 7 26 6 27 5 28 4 29 3 30 2 31 1 32
REMARK H PARENT
REMARK Flexibility Score: inf
ROOT
ATOM      1  C   UNL     1     -16.393  39.368  29.945  1.00  0.00     0.000 C 
ENDROOT
BRANCH   1   2
ATOM      2  C   UNL     1     -15.100  38.547  30.095  1.00  0.00     0.000 C 
BRANCH   2   3
ATOM      3  C   UNL     1     -14.606  37.962  28.764  1.00  0.00     0.000 C 
BRANCH   3   4
ATOM      4  C   UNL     1     -15.778  37.426  27.933  1.00  0.00     0.000 C 
BRANCH   4   5
ATOM      5  C   UNL     1     -15.744  37.985  26.503  1.00  0.00     0.000 C 
BRANCH   5   6
ATOM      6  C   UNL     1     -17.031  38.735  26.127  1.00  0.00     0.000 C 
BRANCH   6   7
ATOM      7  C   UNL     1     -16.803  40.244  25.938  1.00  0.00     0.000 C 
BRANCH   7   8
ATOM      8  C   UNL     1     -15.325  40.646  26.081  1.00  0.00     0.000 C 
BRANCH   8   9
ATOM      9  C   UNL     1     -15.070  41.895  26.949  1.00  0.00     0.000 C 
BRANCH   9  10
ATOM     10  C   UNL     1     -14.235  41.614  28.217  1.00  0.00     0.000 C 
BRANCH  10  11
ATOM     11  C   UNL     1     -12.751  41.365  27.895  1.00  0.00     0.000 C 
BRANCH  11  12
ATOM     12  C   UNL     1     -11.985  42.658  27.554  1.00  0.00     0.000 C 
BRANCH  12  13
ATOM     13  C   UNL     1     -11.572  43.506  28.771  1.00  0.00     0.006 C 
BRANCH  13  14
ATOM     14  C   UNL     1     -11.400  42.676  30.049  1.00  0.00     0.053 C 
BRANCH  14  15
ATOM     15  C   UNL     1     -10.208  43.148  30.820  1.00  0.00     0.041 C 
ATOM     16  O   UNL     1     -10.351  43.944  31.784  1.00  0.00    -0.550 OA
ATOM     17  O   UNL     1      -8.942  42.667  30.505  1.00  0.00    -0.550 OA
ENDBRANCH  14  15
ENDBRANCH  13  14
ENDBRANCH  12  13
ENDBRANCH  11  12
ENDBRANCH  10  11
ENDBRANCH   9  10
ENDBRANCH   8   9
ENDBRANCH   7   8
ENDBRANCH   6   7
ENDBRANCH   5   6
ENDBRANCH   4   5
ENDBRANCH   3   4
ENDBRANCH   2   3
ENDBRANCH   1   2
BRANCH   1  18
ATOM     18  C   UNL     1     -16.601  40.455  31.019  1.00  0.00     0.000 C 
BRANCH  18  19
ATOM     19  C   UNL     1     -17.607  40.099  32.131  1.00  0.00     0.000 C 
BRANCH  19  20
ATOM     20  C   UNL     1     -17.122  40.388  33.563  1.00  0.00     0.000 C 
BRANCH  20  21
ATOM     21  C   UNL     1     -17.376  41.838  33.997  1.00  0.00     0.000 C 
BRANCH  21  22
ATOM     22  C   UNL     1     -18.877  42.108  34.156  1.00  0.00     0.000 C 
BRANCH  22  23
ATOM     23  C   UNL     1     -19.279  43.412  33.450  1.00  0.00     0.000 C 
BRANCH  23  24
ATOM     24  C   UNL     1     -18.085  44.138  32.802  1.00  0.00    -0.000 C 
BRANCH  24  25
ATOM     25  C   UNL     1     -17.973  43.983  31.274  1.00  0.00    -0.000 C 
BRANCH  25  26
ATOM     26  C   UNL     1     -17.057  45.038  30.630  1.00  0.00    -0.000 C 
BRANCH  26  27
ATOM     27  C   UNL     1     -15.829  44.421  29.935  1.00  0.00    -0.000 C 
BRANCH  27  28
ATOM     28  C   UNL     1     -14.800  43.764  30.878  1.00  0.00    -0.000 C 
BRANCH  28  29
ATOM     29  C   UNL     1     -14.024  44.739  31.785  1.00  0.00    -0.000 C 
BRANCH  29  30
ATOM     30  C   UNL     1     -13.878  44.287  33.252  1.00  0.00    -0.000 C 
BRANCH  30  31
ATOM     31  C   UNL     1     -14.909  44.893  34.221  1.00  0.00    -0.003 C 
ATOM     32  C   UNL     1     -14.343  46.048  35.046  1.00  0.00     0.004 C 
ENDBRANCH  30  31
ENDBRANCH  29  30
ENDBRANCH  28  29
ENDBRANCH  27  28
ENDBRANCH  26  27
ENDBRANCH  25  26
ENDBRANCH  24  25
ENDBRANCH  23  24
ENDBRANCH  22  23
ENDBRANCH  21  22
ENDBRANCH  20  21
ENDBRANCH  19  20
ENDBRANCH  18  19
ENDBRANCH   1  18
TORSDOF 28
ENDMDL
MODEL 4
REMARK VINA RESULT:    -4.075      2.532      6.118
REMARK INTER + INTRA:         -17.345
REMARK INTER:                 -11.645
REMARK INTRA:                  -5.700
REMARK UNBOUND:                -6.599
REMARK SMILES CCCCCCCCCCCCCCCCCCCCCCCCCCCCCC(=O)[O-]
REMARK SMILES IDX 16 1 17 2 18 3 19 4 20 5 21 6 22 7 23 8 24 9 25 10 26 11
REMARK SMILES IDX 27 12 28 13 29 14 30 15 31 16 32 17 15 18 14 19 13 20 12 21
REMARK SMILES IDX 11 22 10 23 9 24 8 25 7 26 6 27 5 28 4 29 3 30 2 31 1 32
REMARK H PARENT
REMARK Flexibility Score: inf
ROOT
ATOM      1  C   UNL     1     -17.869  43.644  31.125  1.00  0.00     0.000 C 
ENDROOT
BRANCH   1   2
ATOM      2  C   UNL     1     -18.886  43.659  32.281  1.00  0.00     0.000 C 
BRANCH   2   3
ATOM      3  C   UNL     1     -18.854  42.376  33.123  1.00  0.00     0.000 C 
BRANCH   3   4
ATOM      4  C   UNL     1     -17.466  41.727  33.079  1.00  0.00     0.000 C 
BRANCH   4   5
ATOM      5  C   UNL     1     -16.582  42.232  34.229  1.00  0.00     0.000 C 
BRANCH   5   6
ATOM      6  C   UNL     1     -15.367  43.033  33.736  1.00  0.00     0.000 C 
BRANCH   6   7
ATOM      7  C   UNL     1     -15.406  44.504  34.185  1.00  0.00     0.000 C 
BRANCH   7   8
ATOM      8  C   UNL     1     -14.139  45.282  33.793  1.00  0.00     0.000 C 
BRANCH   8   9
ATOM      9  C   UNL     1     -12.921  44.407  33.433  1.00  0.00     0.000 C 
BRANCH   9  10
ATOM     10  C   UNL     1     -12.495  44.508  31.953  1.00  0.00     0.000 C 
BRANCH  10  11
ATOM     11  C   UNL     1     -11.550  43.367  31.540  1.00  0.00     0.000 C 
BRANCH  11  12
ATOM     12  C   UNL     1     -11.936  42.011  32.162  1.00  0.00     0.000 C 
BRANCH  12  13
ATOM     13  C   UNL     1     -10.767  41.025  32.344  1.00  0.00     0.006 C 
BRANCH  13  14
ATOM     14  C   UNL     1      -9.488  41.473  31.626  1.00  0.00     0.053 C 
BRANCH  14  15
ATOM     15  C   UNL     1      -9.384  40.815  30.287  1.00  0.00     0.041 C 
ATOM     16  O   UNL     1      -9.206  39.572  30.203  1.00  0.00    -0.550 OA
ATOM     17  O   UNL     1      -9.534  41.569  29.129  1.00  0.00    -0.550 OA
ENDBRANCH  14  15
ENDBRANCH  13  14
ENDBRANCH  12  13
ENDBRANCH  11  12
ENDBRANCH  10  11
ENDBRANCH   9  10
ENDBRANCH   8   9
ENDBRANCH   7   8
ENDBRANCH   6   7
ENDBRANCH   5   6
ENDBRANCH   4   5
ENDBRANCH   3   4
ENDBRANCH   2   3
ENDBRANCH   1   2
BRANCH   1  18
ATOM     18  C   UNL     1     -17.119  44.971  30.900  1.00  0.00     0.000 C 
BRANCH  18  19
ATOM     19  C   UNL     1     -15.741  44.841  30.221  1.00  0.00     0.000 C 
BRANCH  19  20
ATOM     20  C   UNL     1     -15.396  43.429  29.715  1.00  0.00     0.000 C 
BRANCH  20  21
ATOM     21  C   UNL     1     -15.810  43.201  28.255  1.00  0.00     0.000 C 
BRANCH  21  22
ATOM     22  C   UNL     1     -14.905  42.161  27.584  1.00  0.00     0.000 C 
BRANCH  22  23
ATOM     23  C   UNL     1     -15.625  41.483  26.408  1.00  0.00     0.000 C 
BRANCH  23  24
ATOM     24  C   UNL     1     -14.962  40.160  25.979  1.00  0.00    -0.000 C 
BRANCH  24  25
ATOM     25  C   UNL     1     -15.453  38.907  26.726  1.00  0.00    -0.000 C 
BRANCH  25  26
ATOM     26  C   UNL     1     -14.318  38.150  27.437  1.00  0.00    -0.000 C 
BRANCH  26  27
ATOM     27  C   UNL     1     -13.037  38.993  27.585  1.00  0.00    -0.000 C 
BRANCH  27  28
ATOM     28  C   UNL     1     -12.651  39.353  29.036  1.00  0.00    -0.000 C 
BRANCH  28  29
ATOM     29  C   UNL     1     -13.688  38.962  30.107  1.00  0.00    -0.000 C 
BRANCH  29  30
ATOM     30  C   UNL     1     -14.635  40.099  30.543  1.00  0.00    -0.000 C 
BRANCH  30  31
ATOM     31  C   UNL     1     -16.122  39.856  30.232  1.00  0.00    -0.003 C 
ATOM     32  C   UNL     1     -16.590  38.455  30.621  1.00  0.00     0.004 C 
ENDBRANCH  30  31
ENDBRANCH  29  30
ENDBRANCH  28  29
ENDBRANCH  27  28
ENDBRANCH  26  27
ENDBRANCH  25  26
ENDBRANCH  24  25
ENDBRANCH  23  24
ENDBRANCH  22  23
ENDBRANCH  21  22
ENDBRANCH  20  21
ENDBRANCH  19  20
ENDBRANCH  18  19
ENDBRANCH   1  18
TORSDOF 28
ENDMDL
MODEL 5
REMARK VINA RESULT:    -4.065      1.972      5.022
REMARK INTER + INTRA:         -17.319
REMARK INTER:                 -11.018
REMARK INTRA:                  -6.302
REMARK UNBOUND:                -6.599
REMARK SMILES CCCCCCCCCCCCCCCCCCCCCCCCCCCCCC(=O)[O-]
REMARK SMILES IDX 16 1 17 2 18 3 19 4 20 5 21 6 22 7 23 8 24 9 25 10 26 11
REMARK SMILES IDX 27 12 28 13 29 14 30 15 31 16 32 17 15 18 14 19 13 20 12 21
REMARK SMILES IDX 11 22 10 23 9 24 8 25 7 26 6 27 5 28 4 29 3 30 2 31 1 32
REMARK H PARENT
REMARK Flexibility Score: inf
ROOT
ATOM      1  C   UNL     1     -18.052  42.494  33.612  1.00  0.00     0.000 C 
ENDROOT
BRANCH   1   2
ATOM      2  C   UNL     1     -17.875  41.441  32.502  1.00  0.00     0.000 C 
BRANCH   2   3
ATOM      3  C   UNL     1     -16.403  41.194  32.142  1.00  0.00     0.000 C 
BRANCH   3   4
ATOM      4  C   UNL     1     -16.281  40.514  30.773  1.00  0.00     0.000 C 
BRANCH   4   5
ATOM      5  C   UNL     1     -16.695  39.037  30.851  1.00  0.00     0.000 C 
BRANCH   5   6
ATOM      6  C   UNL     1     -15.853  38.136  29.934  1.00  0.00     0.000 C 
BRANCH   6   7
ATOM      7  C   UNL     1     -14.393  38.607  29.822  1.00  0.00     0.000 C 
BRANCH   7   8
ATOM      8  C   UNL     1     -13.555  37.732  28.874  1.00  0.00     0.000 C 
BRANCH   8   9
ATOM      9  C   UNL     1     -12.828  38.498  27.750  1.00  0.00     0.000 C 
BRANCH   9  10
ATOM     10  C   UNL     1     -12.764  40.024  27.975  1.00  0.00     0.000 C 
BRANCH  10  11
ATOM     11  C   UNL     1     -13.422  40.811  26.828  1.00  0.00     0.000 C 
BRANCH  11  12
ATOM     12  C   UNL     1     -14.812  41.362  27.197  1.00  0.00     0.000 C 
BRANCH  12  13
ATOM     13  C   UNL     1     -15.975  40.371  27.005  1.00  0.00     0.006 C 
BRANCH  13  14
ATOM     14  C   UNL     1     -15.821  39.505  25.749  1.00  0.00     0.053 C 
BRANCH  14  15
ATOM     15  C   UNL     1     -16.204  38.089  26.042  1.00  0.00     0.041 C 
ATOM     16  O   UNL     1     -15.402  37.151  25.796  1.00  0.00    -0.550 OA
ATOM     17  O   UNL     1     -17.430  37.810  26.636  1.00  0.00    -0.550 OA
ENDBRANCH  14  15
ENDBRANCH  13  14
ENDBRANCH  12  13
ENDBRANCH  11  12
ENDBRANCH  10  11
ENDBRANCH   9  10
ENDBRANCH   8   9
ENDBRANCH   7   8
ENDBRANCH   6   7
ENDBRANCH   5   6
ENDBRANCH   4   5
ENDBRANCH   3   4
ENDBRANCH   2   3
ENDBRANCH   1   2
BRANCH   1  18
ATOM     18  C   UNL     1     -18.541  43.873  33.128  1.00  0.00     0.000 C 
BRANCH  18  19
ATOM     19  C   UNL     1     -18.471  44.100  31.605  1.00  0.00     0.000 C 
BRANCH  19  20
ATOM     20  C   UNL     1     -17.176  44.768  31.107  1.00  0.00     0.000 C 
BRANCH  20  21
ATOM     21  C   UNL     1     -16.765  44.299  29.705  1.00  0.00     0.000 C 
BRANCH  21  22
ATOM     22  C   UNL     1     -15.294  43.863  29.682  1.00  0.00     0.000 C 
BRANCH  22  23
ATOM     23  C   UNL     1     -14.408  44.882  30.417  1.00  0.00     0.000 C 
BRANCH  23  24
ATOM     24  C   UNL     1     -12.913  44.731  30.082  1.00  0.00    -0.000 C 
BRANCH  24  25
ATOM     25  C   UNL     1     -12.513  43.383  29.454  1.00  0.00    -0.000 C 
BRANCH  25  26
ATOM     26  C   UNL     1     -11.770  42.462  30.437  1.00  0.00    -0.000 C 
BRANCH  26  27
ATOM     27  C   UNL     1     -12.722  41.605  31.293  1.00  0.00    -0.000 C 
BRANCH  27  28
ATOM     28  C   UNL     1     -12.884  42.066  32.757  1.00  0.00    -0.000 C 
BRANCH  28  29
ATOM     29  C   UNL     1     -12.218  43.413  33.098  1.00  0.00    -0.000 C 
BRANCH  29  30
ATOM     30  C   UNL     1     -13.103  44.394  33.894  1.00  0.00    -0.000 C 
BRANCH  30  31
ATOM     31  C   UNL     1     -14.613  44.103  33.824  1.00  0.00    -0.003 C 
ATOM     32  C   UNL     1     -15.461  45.208  34.453  1.00  0.00     0.004 C 
ENDBRANCH  30  31
ENDBRANCH  29  30
ENDBRANCH  28  29
ENDBRANCH  27  28
ENDBRANCH  26  27
ENDBRANCH  25  26
ENDBRANCH  24  25
ENDBRANCH  23  24
ENDBRANCH  22  23
ENDBRANCH  21  22
ENDBRANCH  20  21
ENDBRANCH  19  20
ENDBRANCH  18  19
ENDBRANCH   1  18
TORSDOF 28
ENDMDL
MODEL 6
REMARK VINA RESULT:    -4.034      1.705      5.931
REMARK INTER + INTRA:         -17.237
REMARK INTER:                 -11.340
REMARK INTRA:                  -5.897
REMARK UNBOUND:                -6.599
REMARK SMILES CCCCCCCCCCCCCCCCCCCCCCCCCCCCCC(=O)[O-]
REMARK SMILES IDX 16 1 17 2 18 3 19 4 20 5 21 6 22 7 23 8 24 9 25 10 26 11
REMARK SMILES IDX 27 12 28 13 29 14 30 15 31 16 32 17 15 18 14 19 13 20 12 21
REMARK SMILES IDX 11 22 10 23 9 24 8 25 7 26 6 27 5 28 4 29 3 30 2 31 1 32
REMARK H PARENT
REMARK Flexibility Score: inf
ROOT
ATOM      1  C   UNL     1     -13.943  42.174  32.354  1.00  0.00     0.000 C 
ENDROOT
BRANCH   1   2
ATOM      2  C   UNL     1     -14.751  42.777  31.190  1.00  0.00     0.000 C 
BRANCH   2   3
ATOM      3  C   UNL     1     -15.385  44.130  31.541  1.00  0.00     0.000 C 
BRANCH   3   4
ATOM      4  C   UNL     1     -16.549  44.451  30.595  1.00  0.00     0.000 C 
BRANCH   4   5
ATOM      5  C   UNL     1     -17.901  44.214  31.283  1.00  0.00     0.000 C 
BRANCH   5   6
ATOM      6  C   UNL     1     -17.841  44.434  32.803  1.00  0.00     0.000 C 
BRANCH   6   7
ATOM      7  C   UNL     1     -19.085  43.893  33.528  1.00  0.00     0.000 C 
BRANCH   7   8
ATOM      8  C   UNL     1     -19.097  42.359  33.630  1.00  0.00     0.000 C 
BRANCH   8   9
ATOM      9  C   UNL     1     -17.882  41.744  34.354  1.00  0.00     0.000 C 
BRANCH   9  10
ATOM     10  C   UNL     1     -17.164  40.643  33.544  1.00  0.00     0.000 C 
BRANCH  10  11
ATOM     11  C   UNL     1     -17.659  40.574  32.089  1.00  0.00     0.000 C 
BRANCH  11  12
ATOM     12  C   UNL     1     -17.181  39.308  31.351  1.00  0.00     0.000 C 
BRANCH  12  13
ATOM     13  C   UNL     1     -16.051  39.540  30.331  1.00  0.00     0.006 C 
BRANCH  13  14
ATOM     14  C   UNL     1     -15.277  38.260  29.994  1.00  0.00     0.053 C 
BRANCH  14  15
ATOM     15  C   UNL     1     -15.561  37.833  28.589  1.00  0.00     0.041 C 
ATOM     16  O   UNL     1     -14.627  37.756  27.749  1.00  0.00    -0.550 OA
ATOM     17  O   UNL     1     -16.851  37.471  28.221  1.00  0.00    -0.550 OA
ENDBRANCH  14  15
ENDBRANCH  13  14
ENDBRANCH  12  13
ENDBRANCH  11  12
ENDBRANCH  10  11
ENDBRANCH   9  10
ENDBRANCH   8   9
ENDBRANCH   7   8
ENDBRANCH   6   7
ENDBRANCH   5   6
ENDBRANCH   4   5
ENDBRANCH   3   4
ENDBRANCH   2   3
ENDBRANCH   1   2
BRANCH   1  18
ATOM     18  C   UNL     1     -12.615  41.507  31.947  1.00  0.00     0.000 C 
BRANCH  18  19
ATOM     19  C   UNL     1     -11.341  42.211  32.456  1.00  0.00     0.000 C 
BRANCH  19  20
ATOM     20  C   UNL     1     -10.633  43.103  31.420  1.00  0.00     0.000 C 
BRANCH  20  21
ATOM     21  C   UNL     1     -11.391  44.407  31.138  1.00  0.00     0.000 C 
BRANCH  21  22
ATOM     22  C   UNL     1     -11.871  44.457  29.682  1.00  0.00     0.000 C 
BRANCH  22  23
ATOM     23  C   UNL     1     -10.699  44.727  28.726  1.00  0.00     0.000 C 
BRANCH  23  24
ATOM     24  C   UNL     1     -10.546  43.645  27.641  1.00  0.00    -0.000 C 
BRANCH  24  25
ATOM     25  C   UNL     1      -9.415  42.628  27.883  1.00  0.00    -0.000 C 
BRANCH  25  26
ATOM     26  C   UNL     1      -9.880  41.169  27.731  1.00  0.00    -0.000 C 
BRANCH  26  27
ATOM     27  C   UNL     1     -10.772  40.700  28.896  1.00  0.00    -0.000 C 
BRANCH  27  28
ATOM     28  C   UNL     1     -12.161  40.168  28.487  1.00  0.00    -0.000 C 
BRANCH  28  29
ATOM     29  C   UNL     1     -13.230  41.249  28.233  1.00  0.00    -0.000 C 
BRANCH  29  30
ATOM     30  C   UNL     1     -14.038  41.074  26.931  1.00  0.00    -0.000 C 
BRANCH  30  31
ATOM     31  C   UNL     1     -15.547  41.345  27.066  1.00  0.00    -0.003 C 
ATOM     32  C   UNL     1     -15.887  42.834  27.052  1.00  0.00     0.004 C 
ENDBRANCH  30  31
ENDBRANCH  29  30
ENDBRANCH  28  29
ENDBRANCH  27  28
ENDBRANCH  26  27
ENDBRANCH  25  26
ENDBRANCH  24  25
ENDBRANCH  23  24
ENDBRANCH  22  23
ENDBRANCH  21  22
ENDBRANCH  20  21
ENDBRANCH  19  20
ENDBRANCH  18  19
ENDBRANCH   1  18
TORSDOF 28
ENDMDL
MODEL 7
REMARK VINA RESULT:    -4.024      2.135      5.923
REMARK INTER + INTRA:         -17.211
REMARK INTER:                 -11.117
REMARK INTRA:                  -6.094
REMARK UNBOUND:                -6.599
REMARK SMILES CCCCCCCCCCCCCCCCCCCCCCCCCCCCCC(=O)[O-]
REMARK SMILES IDX 16 1 17 2 18 3 19 4 20 5 21 6 22 7 23 8 24 9 25 10 26 11
REMARK SMILES IDX 27 12 28 13 29 14 30 15 31 16 32 17 15 18 14 19 13 20 12 21
REMARK SMILES IDX 11 22 10 23 9 24 8 25 7 26 6 27 5 28 4 29 3 30 2 31 1 32
REMARK H PARENT
REMARK Flexibility Score: inf
ROOT
ATOM      1  C   UNL     1     -12.718  44.603  31.428  1.00  0.00     0.000 C 
ENDROOT
BRANCH   1   2
ATOM      2  C   UNL     1     -11.823  44.778  30.188  1.00  0.00     0.000 C 
BRANCH   2   3
ATOM      3  C   UNL     1     -10.486  44.033  30.304  1.00  0.00     0.000 C 
BRANCH   3   4
ATOM      4  C   UNL     1     -10.104  43.383  28.969  1.00  0.00     0.000 C 
BRANCH   4   5
ATOM      5  C   UNL     1     -11.292  43.380  27.996  1.00  0.00     0.000 C 
BRANCH   5   6
ATOM      6  C   UNL     1     -11.590  41.983  27.426  1.00  0.00     0.000 C 
BRANCH   6   7
ATOM      7  C   UNL     1     -13.093  41.658  27.415  1.00  0.00     0.000 C 
BRANCH   7   8
ATOM      8  C   UNL     1     -13.917  42.610  28.298  1.00  0.00     0.000 C 
BRANCH   8   9
ATOM      9  C   UNL     1     -14.537  41.964  29.553  1.00  0.00     0.000 C 
BRANCH   9  10
ATOM     10  C   UNL     1     -15.917  42.540  29.935  1.00  0.00     0.000 C 
BRANCH  10  11
ATOM     11  C   UNL     1     -16.018  44.049  29.652  1.00  0.00     0.000 C 
BRANCH  11  12
ATOM     12  C   UNL     1     -16.733  44.825  30.774  1.00  0.00     0.000 C 
BRANCH  12  13
ATOM     13  C   UNL     1     -16.314  44.432  32.203  1.00  0.00     0.006 C 
BRANCH  13  14
ATOM     14  C   UNL     1     -17.502  44.029  33.085  1.00  0.00     0.053 C 
BRANCH  14  15
ATOM     15  C   UNL     1     -17.486  42.555  33.338  1.00  0.00     0.041 C 
ATOM     16  O   UNL     1     -16.805  42.080  34.283  1.00  0.00    -0.550 OA
ATOM     17  O   UNL     1     -18.266  41.708  32.558  1.00  0.00    -0.550 OA
ENDBRANCH  14  15
ENDBRANCH  13  14
ENDBRANCH  12  13
ENDBRANCH  11  12
ENDBRANCH  10  11
ENDBRANCH   9  10
ENDBRANCH   8   9
ENDBRANCH   7   8
ENDBRANCH   6   7
ENDBRANCH   5   6
ENDBRANCH   4   5
ENDBRANCH   3   4
ENDBRANCH   2   3
ENDBRANCH   1   2
BRANCH   1  18
ATOM     18  C   UNL     1     -12.137  43.688  32.525  1.00  0.00     0.000 C 
BRANCH  18  19
ATOM     19  C   UNL     1     -12.899  42.367  32.752  1.00  0.00     0.000 C 
BRANCH  19  20
ATOM     20  C   UNL     1     -12.216  41.115  32.171  1.00  0.00     0.000 C 
BRANCH  20  21
ATOM     21  C   UNL     1     -10.698  41.106  32.396  1.00  0.00     0.000 C 
BRANCH  21  22
ATOM     22  C   UNL     1      -9.985  40.323  31.286  1.00  0.00     0.000 C 
BRANCH  22  23
ATOM     23  C   UNL     1     -10.974  39.903  30.188  1.00  0.00     0.000 C 
BRANCH  23  24
ATOM     24  C   UNL     1     -10.974  38.385  29.928  1.00  0.00    -0.000 C 
BRANCH  24  25
ATOM     25  C   UNL     1     -12.351  37.702  30.026  1.00  0.00    -0.000 C 
BRANCH  25  26
ATOM     26  C   UNL     1     -13.470  38.510  29.346  1.00  0.00    -0.000 C 
BRANCH  26  27
ATOM     27  C   UNL     1     -14.860  38.235  29.950  1.00  0.00    -0.000 C 
BRANCH  27  28
ATOM     28  C   UNL     1     -16.016  38.157  28.931  1.00  0.00    -0.000 C 
BRANCH  28  29
ATOM     29  C   UNL     1     -15.987  39.229  27.823  1.00  0.00    -0.000 C 
BRANCH  29  30
ATOM     30  C   UNL     1     -15.864  38.678  26.388  1.00  0.00    -0.000 C 
BRANCH  30  31
ATOM     31  C   UNL     1     -14.454  38.776  25.778  1.00  0.00    -0.003 C 
ATOM     32  C   UNL     1     -14.365  39.803  24.650  1.00  0.00     0.004 C 
ENDBRANCH  30  31
ENDBRANCH  29  30
ENDBRANCH  28  29
ENDBRANCH  27  28
ENDBRANCH  26  27
ENDBRANCH  25  26
ENDBRANCH  24  25
ENDBRANCH  23  24
ENDBRANCH  22  23
ENDBRANCH  21  22
ENDBRANCH  20  21
ENDBRANCH  19  20
ENDBRANCH  18  19
ENDBRANCH   1  18
TORSDOF 28
ENDMDL
MODEL 8
REMARK VINA RESULT:    -4.024      1.733      4.739
REMARK INTER + INTRA:         -17.210
REMARK INTER:                 -11.292
REMARK INTRA:                  -5.918
REMARK UNBOUND:                -6.599
REMARK SMILES CCCCCCCCCCCCCCCCCCCCCCCCCCCCCC(=O)[O-]
REMARK SMILES IDX 16 1 17 2 18 3 19 4 20 5 21 6 22 7 23 8 24 9 25 10 26 11
REMARK SMILES IDX 27 12 28 13 29 14 30 15 31 16 32 17 15 18 14 19 13 20 12 21
REMARK SMILES IDX 11 22 10 23 9 24 8 25 7 26 6 27 5 28 4 29 3 30 2 31 1 32
REMARK H PARENT
REMARK Flexibility Score: inf
ROOT
ATOM      1  C   UNL     1     -13.598  38.427  30.050  1.00  0.00     0.000 C 
ENDROOT
BRANCH   1   2
ATOM      2  C   UNL     1     -12.220  37.823  29.721  1.00  0.00     0.000 C 
BRANCH   2   3
ATOM      3  C   UNL     1     -11.056  38.743  30.115  1.00  0.00     0.000 C 
BRANCH   3   4
ATOM      4  C   UNL     1     -11.563  39.976  30.872  1.00  0.00     0.000 C 
BRANCH   4   5
ATOM      5  C   UNL     1     -10.413  40.941  31.191  1.00  0.00     0.000 C 
BRANCH   5   6
ATOM      6  C   UNL     1     -10.867  42.152  32.022  1.00  0.00     0.000 C 
BRANCH   6   7
ATOM      7  C   UNL     1     -10.858  43.460  31.214  1.00  0.00     0.000 C 
BRANCH   7   8
ATOM      8  C   UNL     1     -10.349  43.270  29.775  1.00  0.00     0.000 C 
BRANCH   8   9
ATOM      9  C   UNL     1     -11.229  43.908  28.681  1.00  0.00     0.000 C 
BRANCH   9  10
ATOM     10  C   UNL     1     -11.507  42.978  27.481  1.00  0.00     0.000 C 
BRANCH  10  11
ATOM     11  C   UNL     1     -12.320  41.735  27.883  1.00  0.00     0.000 C 
BRANCH  11  12
ATOM     12  C   UNL     1     -12.039  40.517  26.983  1.00  0.00     0.000 C 
BRANCH  12  13
ATOM     13  C   UNL     1     -13.290  39.736  26.540  1.00  0.00     0.006 C 
BRANCH  13  14
ATOM     14  C   UNL     1     -14.596  40.489  26.820  1.00  0.00     0.053 C 
BRANCH  14  15
ATOM     15  C   UNL     1     -15.447  40.533  25.590  1.00  0.00     0.041 C 
ATOM     16  O   UNL     1     -16.701  40.572  25.687  1.00  0.00    -0.550 OA
ATOM     17  O   UNL     1     -14.851  40.582  24.335  1.00  0.00    -0.550 OA
ENDBRANCH  14  15
ENDBRANCH  13  14
ENDBRANCH  12  13
ENDBRANCH  11  12
ENDBRANCH  10  11
ENDBRANCH   9  10
ENDBRANCH   8   9
ENDBRANCH   7   8
ENDBRANCH   6   7
ENDBRANCH   5   6
ENDBRANCH   4   5
ENDBRANCH   3   4
ENDBRANCH   2   3
ENDBRANCH   1   2
BRANCH   1  18
ATOM     18  C   UNL     1     -14.789  37.758  29.335  1.00  0.00     0.000 C 
BRANCH  18  19
ATOM     19  C   UNL     1     -16.132  38.504  29.455  1.00  0.00     0.000 C 
BRANCH  19  20
ATOM     20  C   UNL     1     -16.750  38.509  30.865  1.00  0.00     0.000 C 
BRANCH  20  21
ATOM     21  C   UNL     1     -16.818  39.913  31.481  1.00  0.00     0.000 C 
BRANCH  21  22
ATOM     22  C   UNL     1     -16.212  40.957  30.535  1.00  0.00     0.000 C 
BRANCH  22  23
ATOM     23  C   UNL     1     -14.950  41.585  31.146  1.00  0.00     0.000 C 
BRANCH  23  24
ATOM     24  C   UNL     1     -14.546  42.906  30.465  1.00  0.00    -0.000 C 
BRANCH  24  25
ATOM     25  C   UNL     1     -15.362  43.277  29.213  1.00  0.00    -0.000 C 
BRANCH  25  26
ATOM     26  C   UNL     1     -16.499  44.269  29.512  1.00  0.00    -0.000 C 
BRANCH  26  27
ATOM     27  C   UNL     1     -16.418  44.863  30.931  1.00  0.00    -0.000 C 
BRANCH  27  28
ATOM     28  C   UNL     1     -17.563  44.454  31.881  1.00  0.00    -0.000 C 
BRANCH  28  29
ATOM     29  C   UNL     1     -17.219  44.502  33.383  1.00  0.00    -0.000 C 
BRANCH  29  30
ATOM     30  C   UNL     1     -15.813  43.980  33.745  1.00  0.00    -0.000 C 
BRANCH  30  31
ATOM     31  C   UNL     1     -14.823  45.062  34.212  1.00  0.00    -0.003 C 
ATOM     32  C   UNL     1     -13.457  44.947  33.538  1.00  0.00     0.004 C 
ENDBRANCH  30  31
ENDBRANCH  29  30
ENDBRANCH  28  29
ENDBRANCH  27  28
ENDBRANCH  26  27
ENDBRANCH  25  26
ENDBRANCH  24  25
ENDBRANCH  23  24
ENDBRANCH  22  23
ENDBRANCH  21  22
ENDBRANCH  20  21
ENDBRANCH  19  20
ENDBRANCH  18  19
ENDBRANCH   1  18
TORSDOF 28
ENDMDL
MODEL 9
REMARK VINA RESULT:    -3.972      1.907      3.505
REMARK INTER + INTRA:         -17.072
REMARK INTER:                 -11.030
REMARK INTRA:                  -6.042
REMARK UNBOUND:                -6.599
REMARK SMILES CCCCCCCCCCCCCCCCCCCCCCCCCCCCCC(=O)[O-]
REMARK SMILES IDX 16 1 17 2 18 3 19 4 20 5 21 6 22 7 23 8 24 9 25 10 26 11
REMARK SMILES IDX 27 12 28 13 29 14 30 15 31 16 32 17 15 18 14 19 13 20 12 21
REMARK SMILES IDX 11 22 10 23 9 24 8 25 7 26 6 27 5 28 4 29 3 30 2 31 1 32
REMARK H PARENT
REMARK Flexibility Score: inf
ROOT
ATOM      1  C   UNL     1     -13.291  42.452  32.800  1.00  0.00     0.000 C 
ENDROOT
BRANCH   1   2
ATOM      2  C   UNL     1     -13.030  43.940  32.507  1.00  0.00     0.000 C 
BRANCH   2   3
ATOM      3  C   UNL     1     -11.826  44.166  31.583  1.00  0.00     0.000 C 
BRANCH   3   4
ATOM      4  C   UNL     1     -12.270  44.754  30.239  1.00  0.00     0.000 C 
BRANCH   4   5
ATOM      5  C   UNL     1     -11.381  44.249  29.093  1.00  0.00     0.000 C 
BRANCH   5   6
ATOM      6  C   UNL     1     -10.412  43.141  29.537  1.00  0.00     0.000 C 
BRANCH   6   7
ATOM      7  C   UNL     1      -9.722  42.448  28.350  1.00  0.00     0.000 C 
BRANCH   7   8
ATOM      8  C   UNL     1      -9.881  40.919  28.377  1.00  0.00     0.000 C 
BRANCH   8   9
ATOM      9  C   UNL     1     -10.638  40.320  27.175  1.00  0.00     0.000 C 
BRANCH   9  10
ATOM     10  C   UNL     1     -11.093  41.368  26.138  1.00  0.00     0.000 C 
BRANCH  10  11
ATOM     11  C   UNL     1     -11.504  40.726  24.801  1.00  0.00     0.000 C 
BRANCH  11  12
ATOM     12  C   UNL     1     -12.505  39.568  24.974  1.00  0.00     0.000 C 
BRANCH  12  13
ATOM     13  C   UNL     1     -13.931  39.996  25.368  1.00  0.00     0.006 C 
BRANCH  13  14
ATOM     14  C   UNL     1     -14.717  38.884  26.072  1.00  0.00     0.053 C 
BRANCH  14  15
ATOM     15  C   UNL     1     -15.979  39.430  26.662  1.00  0.00     0.041 C 
ATOM     16  O   UNL     1     -16.309  39.133  27.839  1.00  0.00    -0.550 OA
ATOM     17  O   UNL     1     -16.765  40.310  25.926  1.00  0.00    -0.550 OA
ENDBRANCH  14  15
ENDBRANCH  13  14
ENDBRANCH  12  13
ENDBRANCH  11  12
ENDBRANCH  10  11
ENDBRANCH   9  10
ENDBRANCH   8   9
ENDBRANCH   7   8
ENDBRANCH   6   7
ENDBRANCH   5   6
ENDBRANCH   4   5
ENDBRANCH   3   4
ENDBRANCH   2   3
ENDBRANCH   1   2
BRANCH   1  18
ATOM     18  C   UNL     1     -12.160  41.496  32.372  1.00  0.00     0.000 C 
BRANCH  18  19
ATOM     19  C   UNL     1     -12.482  40.592  31.166  1.00  0.00     0.000 C 
BRANCH  19  20
ATOM     20  C   UNL     1     -13.804  40.916  30.446  1.00  0.00     0.000 C 
BRANCH  20  21
ATOM     21  C   UNL     1     -13.607  41.251  28.961  1.00  0.00     0.000 C 
BRANCH  21  22
ATOM     22  C   UNL     1     -14.595  42.333  28.508  1.00  0.00     0.000 C 
BRANCH  22  23
ATOM     23  C   UNL     1     -15.346  42.929  29.709  1.00  0.00     0.000 C 
BRANCH  23  24
ATOM     24  C   UNL     1     -16.364  44.012  29.305  1.00  0.00    -0.000 C 
BRANCH  24  25
ATOM     25  C   UNL     1     -16.882  44.889  30.460  1.00  0.00    -0.000 C 
BRANCH  25  26
ATOM     26  C   UNL     1     -16.489  44.348  31.846  1.00  0.00    -0.000 C 
BRANCH  26  27
ATOM     27  C   UNL     1     -17.624  44.472  32.880  1.00  0.00    -0.000 C 
BRANCH  27  28
ATOM     28  C   UNL     1     -18.078  43.143  33.521  1.00  0.00    -0.000 C 
BRANCH  28  29
ATOM     29  C   UNL     1     -16.939  42.230  34.015  1.00  0.00    -0.000 C 
BRANCH  29  30
ATOM     30  C   UNL     1     -17.072  40.747  33.613  1.00  0.00    -0.000 C 
BRANCH  30  31
ATOM     31  C   UNL     1     -17.818  40.502  32.289  1.00  0.00    -0.003 C 
ATOM     32  C   UNL     1     -17.060  39.574  31.342  1.00  0.00     0.004 C 
ENDBRANCH  30  31
ENDBRANCH  29  30
ENDBRANCH  28  29
ENDBRANCH  27  28
ENDBRANCH  26  27
ENDBRANCH  25  26
ENDBRANCH  24  25
ENDBRANCH  23  24
ENDBRANCH  22  23
ENDBRANCH  21  22
ENDBRANCH  20  21
ENDBRANCH  19  20
ENDBRANCH  18  19
ENDBRANCH   1  18
TORSDOF 28
ENDMDL
