MODEL 1
REMARK VINA RESULT:     4.617      0.000      0.000
REMARK INTER + INTRA:           6.346
REMARK INTER:                   6.237
REMARK INTRA:                   0.109
REMARK UNBOUND:                 0.109
REMARK SMILES COc1ccc(-c2cc(=O)c3c(OC)c(OC)c(OC)c(OC)c3o2)cc1
REMARK SMILES IDX 7 1 8 2 9 3 10 4 11 5 24 6 25 7 21 8 18 9 15 10 12 11 6 12
REMARK SMILES IDX 3 13 4 14 27 15 5 16 26 17 2 18 1 19 22 20 23 21 13 22 14 23
REMARK SMILES IDX 19 24 20 25 16 26 17 27
REMARK H PARENT
REMARK Flexibility Score: inf
ROOT
ATOM      1  C   UNL     1       4.622 -11.237 -18.259  1.00  0.00     0.138 A 
ATOM      2  C   UNL     1       5.617 -11.143 -19.240  1.00  0.00     0.100 A 
ATOM      3  C   UNL     1       6.606 -10.171 -19.117  1.00  0.00     0.197 A 
ATOM      4  O   UNL     1       7.500 -10.103 -20.003  1.00  0.00    -0.289 OA
ATOM      5  C   UNL     1       6.593  -9.295 -18.008  1.00  0.00     0.115 A 
ATOM      6  C   UNL     1       5.560  -9.453 -17.053  1.00  0.00     0.188 A 
ATOM      7  O   UNL     1       4.645 -10.405 -17.222  1.00  0.00    -0.452 OA
ATOM      8  C   UNL     1       5.492  -8.589 -15.934  1.00  0.00     0.209 A 
ATOM      9  C   UNL     1       6.468  -7.597 -15.754  1.00  0.00     0.211 A 
ATOM     10  C   UNL     1       7.527  -7.468 -16.681  1.00  0.00     0.208 A 
ATOM     11  C   UNL     1       7.553  -8.273 -17.838  1.00  0.00     0.179 A 
ENDROOT
BRANCH   1  12
ATOM     12  C   UNL     1       3.543 -12.252 -18.347  1.00  0.00     0.018 A 
ATOM     13  C   UNL     1       1.499 -14.196 -18.459  1.00  0.00     0.118 A 
ATOM     14  C   UNL     1       2.629 -14.400 -17.661  1.00  0.00     0.047 A 
ATOM     15  C   UNL     1       1.390 -13.007 -19.202  1.00  0.00     0.047 A 
ATOM     16  C   UNL     1       3.641 -13.438 -17.600  1.00  0.00     0.016 A 
ATOM     17  C   UNL     1       2.401 -12.043 -19.143  1.00  0.00     0.016 A 
BRANCH  13  18
ATOM     18  O   UNL     1       0.513 -15.194 -18.486  1.00  0.00    -0.497 OA
ATOM     19  C   UNL     1       0.783 -16.592 -18.446  1.00  0.00     0.278 C 
ENDBRANCH  13  18
ENDBRANCH   1  12
BRANCH   8  20
ATOM     20  O   UNL     1       4.478  -8.657 -14.958  1.00  0.00    -0.490 OA
ATOM     21  C   UNL     1       3.562  -7.626 -14.608  1.00  0.00     0.278 C 
ENDBRANCH   8  20
BRANCH  11  22
ATOM     22  O   UNL     1       8.520  -8.056 -18.826  1.00  0.00    -0.492 OA
ATOM     23  C   UNL     1       8.481  -6.926 -19.692  1.00  0.00     0.278 C 
ENDBRANCH  11  22
BRANCH   9  24
ATOM     24  O   UNL     1       6.328  -6.779 -14.614  1.00  0.00    -0.490 OA
ATOM     25  C   UNL     1       6.831  -7.043 -13.309  1.00  0.00     0.279 C 
ENDBRANCH   9  24
BRANCH  10  26
ATOM     26  O   UNL     1       8.555  -6.550 -16.446  1.00  0.00    -0.490 OA
ATOM     27  C   UNL     1       8.316  -5.154 -16.288  1.00  0.00     0.278 C 
ENDBRANCH  10  26
TORSDOF 6
ENDMDL
