MODEL 1
REMARK VINA RESULT:    -2.635      0.000      0.000
REMARK INTER + INTRA:          -2.635
REMARK INTER:                  -2.635
REMARK INTRA:                   0.000
REMARK UNBOUND:                 0.000
REMARK SMILES CC1=CC[C@@]2(C)CCCC(C)(C)[C@@]23C[C@@H]13
REMARK SMILES IDX 1 1 2 2 3 3 4 4 5 5 7 6 8 7 9 8 10 9 13 10 15 11 14 12 11 13
REMARK SMILES IDX 12 14 6 15
REMARK H PARENT
REMARK Flexibility Score: inf
ROOT
ATOM      1  C   UNL     1     167.021 155.967 139.468  1.00  0.00     0.039 C 
ATOM      2  C   UNL     1     165.655 156.584 139.579  1.00  0.00    -0.074 C 
ATOM      3  C   UNL     1     164.579 155.875 139.177  1.00  0.00    -0.027 C 
ATOM      4  C   UNL     1     163.178 156.428 139.270  1.00  0.00     0.034 C 
ATOM      5  C   UNL     1     163.166 157.965 139.025  1.00  0.00    -0.022 C 
ATOM      6  C   UNL     1     161.744 158.507 139.307  1.00  0.00     0.008 C 
ATOM      7  C   UNL     1     161.653 160.043 139.239  1.00  0.00     0.001 C 
ATOM      8  C   UNL     1     162.644 160.733 140.189  1.00  0.00     0.007 C 
ATOM      9  C   UNL     1     164.129 160.303 140.010  1.00  0.00    -0.029 C 
ATOM     10  C   UNL     1     164.181 158.716 139.978  1.00  0.00    -0.012 C 
ATOM     11  C   UNL     1     165.526 157.991 140.142  1.00  0.00     0.022 C 
ATOM     12  C   UNL     1     164.565 158.049 141.328  1.00  0.00     0.017 C 
ATOM     13  C   UNL     1     164.722 160.902 138.710  1.00  0.00     0.012 C 
ATOM     14  C   UNL     1     164.920 160.956 141.182  1.00  0.00     0.012 C 
ATOM     15  C   UNL     1     163.533 158.171 137.521  1.00  0.00     0.012 C 
ENDROOT
TORSDOF 0
ENDMDL
MODEL 2
REMARK VINA RESULT:    -2.624     13.171     16.135
REMARK INTER + INTRA:          -2.624
REMARK INTER:                  -2.624
REMARK INTRA:                   0.000
REMARK UNBOUND:                 0.000
REMARK SMILES CC1=CC[C@@]2(C)CCCC(C)(C)[C@@]23C[C@@H]13
REMARK SMILES IDX 1 1 2 2 3 3 4 4 5 5 7 6 8 7 9 8 10 9 13 10 15 11 14 12 11 13
REMARK SMILES IDX 12 14 6 15
REMARK H PARENT
REMARK Flexibility Score: inf
ROOT
ATOM      1  C   UNL     1     165.103 176.114 139.371  1.00  0.00     0.039 C 
ATOM      2  C   UNL     1     166.438 175.447 139.544  1.00  0.00    -0.074 C 
ATOM      3  C   UNL     1     167.559 176.120 139.208  1.00  0.00    -0.027 C 
ATOM      4  C   UNL     1     168.932 175.515 139.366  1.00  0.00     0.034 C 
ATOM      5  C   UNL     1     168.901 173.981 139.100  1.00  0.00    -0.022 C 
ATOM      6  C   UNL     1     170.286 173.384 139.449  1.00  0.00     0.008 C 
ATOM      7  C   UNL     1     170.324 171.847 139.364  1.00  0.00     0.001 C 
ATOM      8  C   UNL     1     169.262 171.182 140.252  1.00  0.00     0.007 C 
ATOM      9  C   UNL     1     167.804 171.669 140.003  1.00  0.00    -0.029 C 
ATOM     10  C   UNL     1     167.811 173.257 139.990  1.00  0.00    -0.012 C 
ATOM     11  C   UNL     1     166.487 174.029 140.094  1.00  0.00     0.022 C 
ATOM     12  C   UNL     1     167.381 173.922 141.327  1.00  0.00     0.017 C 
ATOM     13  C   UNL     1     167.259 171.108 138.666  1.00  0.00     0.012 C 
ATOM     14  C   UNL     1     166.931 171.032 141.124  1.00  0.00     0.012 C 
ATOM     15  C   UNL     1     168.606 173.807 137.577  1.00  0.00     0.012 C 
ENDROOT
TORSDOF 0
ENDMDL
MODEL 3
REMARK VINA RESULT:    -2.604     13.816     15.916
REMARK INTER + INTRA:          -2.604
REMARK INTER:                  -2.604
REMARK INTRA:                   0.000
REMARK UNBOUND:                 0.000
REMARK SMILES CC1=CC[C@@]2(C)CCCC(C)(C)[C@@]23C[C@@H]13
REMARK SMILES IDX 1 1 2 2 3 3 4 4 5 5 7 6 8 7 9 8 10 9 13 10 15 11 14 12 11 13
REMARK SMILES IDX 12 14 6 15
REMARK H PARENT
REMARK Flexibility Score: inf
ROOT
ATOM      1  C   UNL     1     170.445 172.402 136.943  1.00  0.00     0.039 C 
ATOM      2  C   UNL     1     169.895 172.778 138.290  1.00  0.00    -0.074 C 
ATOM      3  C   UNL     1     170.324 172.114 139.384  1.00  0.00    -0.027 C 
ATOM      4  C   UNL     1     169.822 172.445 140.768  1.00  0.00     0.034 C 
ATOM      5  C   UNL     1     168.331 172.892 140.730  1.00  0.00    -0.022 C 
ATOM      6  C   UNL     1     167.921 173.389 142.138  1.00  0.00     0.008 C 
ATOM      7  C   UNL     1     166.507 173.995 142.180  1.00  0.00     0.001 C 
ATOM      8  C   UNL     1     166.329 175.146 141.178  1.00  0.00     0.007 C 
ATOM      9  C   UNL     1     166.686 174.790 139.705  1.00  0.00    -0.029 C 
ATOM     10  C   UNL     1     168.102 174.071 139.701  1.00  0.00    -0.012 C 
ATOM     11  C   UNL     1     168.868 173.897 138.381  1.00  0.00     0.022 C 
ATOM     12  C   UNL     1     169.301 174.995 139.350  1.00  0.00     0.017 C 
ATOM     13  C   UNL     1     165.601 173.876 139.082  1.00  0.00     0.012 C 
ATOM     14  C   UNL     1     166.632 176.125 138.905  1.00  0.00     0.012 C 
ATOM     15  C   UNL     1     167.505 171.625 140.344  1.00  0.00     0.012 C 
ENDROOT
TORSDOF 0
ENDMDL
MODEL 4
REMARK VINA RESULT:    -2.544      1.160      4.195
REMARK INTER + INTRA:          -2.544
REMARK INTER:                  -2.544
REMARK INTRA:                   0.000
REMARK UNBOUND:                 0.000
REMARK SMILES CC1=CC[C@@]2(C)CCCC(C)(C)[C@@]23C[C@@H]13
REMARK SMILES IDX 1 1 2 2 3 3 4 4 5 5 7 6 8 7 9 8 10 9 13 10 15 11 14 12 11 13
REMARK SMILES IDX 12 14 6 15
REMARK H PARENT
REMARK Flexibility Score: inf
ROOT
ATOM      1  C   UNL     1     161.445 159.618 137.024  1.00  0.00     0.039 C 
ATOM      2  C   UNL     1     162.047 159.241 138.348  1.00  0.00    -0.074 C 
ATOM      3  C   UNL     1     161.636 159.880 139.464  1.00  0.00    -0.027 C 
ATOM      4  C   UNL     1     162.191 159.545 140.826  1.00  0.00     0.034 C 
ATOM      5  C   UNL     1     163.691 159.139 140.735  1.00  0.00    -0.022 C 
ATOM      6  C   UNL     1     164.159 158.636 142.122  1.00  0.00     0.008 C 
ATOM      7  C   UNL     1     165.590 158.067 142.112  1.00  0.00     0.001 C 
ATOM      8  C   UNL     1     165.766 156.934 141.089  1.00  0.00     0.007 C 
ATOM      9  C   UNL     1     165.352 157.298 139.633  1.00  0.00    -0.029 C 
ATOM     10  C   UNL     1     163.919 157.979 139.684  1.00  0.00    -0.012 C 
ATOM     11  C   UNL     1     163.106 158.148 138.391  1.00  0.00     0.022 C 
ATOM     12  C   UNL     1     162.733 157.027 139.359  1.00  0.00     0.017 C 
ATOM     13  C   UNL     1     166.392 158.248 138.988  1.00  0.00     0.012 C 
ATOM     14  C   UNL     1     165.415 155.975 138.815  1.00  0.00     0.012 C 
ATOM     15  C   UNL     1     164.471 160.432 140.339  1.00  0.00     0.012 C 
ENDROOT
TORSDOF 0
ENDMDL
MODEL 5
REMARK VINA RESULT:    -2.493     12.775     15.360
REMARK INTER + INTRA:          -2.493
REMARK INTER:                  -2.493
REMARK INTRA:                   0.000
REMARK UNBOUND:                 0.000
REMARK SMILES CC1=CC[C@@]2(C)CCCC(C)(C)[C@@]23C[C@@H]13
REMARK SMILES IDX 1 1 2 2 3 3 4 4 5 5 7 6 8 7 9 8 10 9 13 10 15 11 14 12 11 13
REMARK SMILES IDX 12 14 6 15
REMARK H PARENT
REMARK Flexibility Score: inf
ROOT
ATOM      1  C   UNL     1     168.255 169.520 138.469  1.00  0.00     0.039 C 
ATOM      2  C   UNL     1     168.069 170.991 138.224  1.00  0.00    -0.074 C 
ATOM      3  C   UNL     1     169.032 171.677 137.574  1.00  0.00    -0.027 C 
ATOM      4  C   UNL     1     168.906 173.152 137.285  1.00  0.00     0.034 C 
ATOM      5  C   UNL     1     168.142 173.883 138.428  1.00  0.00    -0.022 C 
ATOM      6  C   UNL     1     167.884 175.348 138.001  1.00  0.00     0.008 C 
ATOM      7  C   UNL     1     167.003 176.125 138.997  1.00  0.00     0.001 C 
ATOM      8  C   UNL     1     165.653 175.437 139.249  1.00  0.00     0.007 C 
ATOM      9  C   UNL     1     165.751 173.953 139.707  1.00  0.00    -0.029 C 
ATOM     10  C   UNL     1     166.747 173.200 138.727  1.00  0.00    -0.012 C 
ATOM     11  C   UNL     1     166.796 171.664 138.717  1.00  0.00     0.022 C 
ATOM     12  C   UNL     1     166.059 172.389 137.593  1.00  0.00     0.017 C 
ATOM     13  C   UNL     1     166.244 173.862 141.173  1.00  0.00     0.012 C 
ATOM     14  C   UNL     1     164.296 173.397 139.709  1.00  0.00     0.012 C 
ATOM     15  C   UNL     1     169.080 173.842 139.675  1.00  0.00     0.012 C 
ENDROOT
TORSDOF 0
ENDMDL
MODEL 6
REMARK VINA RESULT:    -2.452      1.357      4.160
REMARK INTER + INTRA:          -2.452
REMARK INTER:                  -2.452
REMARK INTRA:                   0.000
REMARK UNBOUND:                 0.000
REMARK SMILES CC1=CC[C@@]2(C)CCCC(C)(C)[C@@]23C[C@@H]13
REMARK SMILES IDX 1 1 2 2 3 3 4 4 5 5 7 6 8 7 9 8 10 9 13 10 15 11 14 12 11 13
REMARK SMILES IDX 12 14 6 15
REMARK H PARENT
REMARK Flexibility Score: inf
ROOT
ATOM      1  C   UNL     1     165.691 162.139 140.615  1.00  0.00     0.039 C 
ATOM      2  C   UNL     1     165.304 160.933 139.807  1.00  0.00    -0.074 C 
ATOM      3  C   UNL     1     164.206 160.989 139.024  1.00  0.00    -0.027 C 
ATOM      4  C   UNL     1     163.766 159.819 138.179  1.00  0.00     0.034 C 
ATOM      5  C   UNL     1     164.083 158.469 138.885  1.00  0.00    -0.022 C 
ATOM      6  C   UNL     1     163.779 157.308 137.907  1.00  0.00     0.008 C 
ATOM      7  C   UNL     1     164.197 155.930 138.450  1.00  0.00     0.001 C 
ATOM      8  C   UNL     1     165.683 155.875 138.837  1.00  0.00     0.007 C 
ATOM      9  C   UNL     1     166.138 156.976 139.838  1.00  0.00    -0.029 C 
ATOM     10  C   UNL     1     165.604 158.375 139.310  1.00  0.00    -0.012 C 
ATOM     11  C   UNL     1     166.163 159.680 139.897  1.00  0.00     0.022 C 
ATOM     12  C   UNL     1     166.648 159.217 138.524  1.00  0.00     0.017 C 
ATOM     13  C   UNL     1     165.600 156.682 141.261  1.00  0.00     0.012 C 
ATOM     14  C   UNL     1     167.689 156.867 139.936  1.00  0.00     0.012 C 
ATOM     15  C   UNL     1     163.136 158.391 140.124  1.00  0.00     0.012 C 
ENDROOT
TORSDOF 0
ENDMDL
MODEL 7
REMARK VINA RESULT:    -2.432     12.916     15.486
REMARK INTER + INTRA:          -2.432
REMARK INTER:                  -2.432
REMARK INTRA:                   0.000
REMARK UNBOUND:                 0.000
REMARK SMILES CC1=CC[C@@]2(C)CCCC(C)(C)[C@@]23C[C@@H]13
REMARK SMILES IDX 1 1 2 2 3 3 4 4 5 5 7 6 8 7 9 8 10 9 13 10 15 11 14 12 11 13
REMARK SMILES IDX 12 14 6 15
REMARK H PARENT
REMARK Flexibility Score: inf
ROOT
ATOM      1  C   UNL     1     166.056 169.840 140.471  1.00  0.00     0.039 C 
ATOM      2  C   UNL     1     166.525 171.040 139.697  1.00  0.00    -0.074 C 
ATOM      3  C   UNL     1     167.643 170.943 138.947  1.00  0.00    -0.027 C 
ATOM      4  C   UNL     1     168.165 172.104 138.137  1.00  0.00     0.034 C 
ATOM      5  C   UNL     1     167.892 173.456 138.858  1.00  0.00    -0.022 C 
ATOM      6  C   UNL     1     168.281 174.617 137.910  1.00  0.00     0.008 C 
ATOM      7  C   UNL     1     167.913 176.005 138.465  1.00  0.00     0.001 C 
ATOM      8  C   UNL     1     166.420 176.125 138.807  1.00  0.00     0.007 C 
ATOM      9  C   UNL     1     165.881 175.031 139.774  1.00  0.00    -0.029 C 
ATOM     10  C   UNL     1     166.364 173.617 139.237  1.00  0.00    -0.012 C 
ATOM     11  C   UNL     1     165.725 172.331 139.783  1.00  0.00     0.022 C 
ATOM     12  C   UNL     1     165.306 172.839 138.405  1.00  0.00     0.017 C 
ATOM     13  C   UNL     1     166.388 175.275 141.218  1.00  0.00     0.012 C 
ATOM     14  C   UNL     1     164.335 175.213 139.826  1.00  0.00     0.012 C 
ATOM     15  C   UNL     1     168.802 173.468 140.126  1.00  0.00     0.012 C 
ENDROOT
TORSDOF 0
ENDMDL
MODEL 8
REMARK VINA RESULT:    -0.600      1.407      4.136
REMARK INTER + INTRA:          -0.600
REMARK INTER:                  -0.600
REMARK INTRA:                   0.000
REMARK UNBOUND:                 0.000
REMARK SMILES CC1=CC[C@@]2(C)CCCC(C)(C)[C@@]23C[C@@H]13
REMARK SMILES IDX 1 1 2 2 3 3 4 4 5 5 7 6 8 7 9 8 10 9 13 10 15 11 14 12 11 13
REMARK SMILES IDX 12 14 6 15
REMARK H PARENT
REMARK Flexibility Score: inf
ROOT
ATOM      1  C   UNL     1     163.494 162.422 138.459  1.00  0.00     0.039 C 
ATOM      2  C   UNL     1     163.747 160.960 138.218  1.00  0.00    -0.074 C 
ATOM      3  C   UNL     1     162.825 160.235 137.550  1.00  0.00    -0.027 C 
ATOM      4  C   UNL     1     163.018 158.766 137.264  1.00  0.00     0.034 C 
ATOM      5  C   UNL     1     163.792 158.067 138.421  1.00  0.00    -0.022 C 
ATOM      6  C   UNL     1     164.119 156.614 137.999  1.00  0.00     0.008 C 
ATOM      7  C   UNL     1     165.014 155.875 139.010  1.00  0.00     0.001 C 
ATOM      8  C   UNL     1     166.329 156.619 139.286  1.00  0.00     0.007 C 
ATOM      9  C   UNL     1     166.161 158.097 139.742  1.00  0.00    -0.029 C 
ATOM     10  C   UNL     1     165.151 158.809 138.745  1.00  0.00    -0.012 C 
ATOM     11  C   UNL     1     165.037 160.341 138.734  1.00  0.00     0.022 C 
ATOM     12  C   UNL     1     165.825 159.648 137.624  1.00  0.00     0.017 C 
ATOM     13  C   UNL     1     165.638 158.167 141.199  1.00  0.00     0.012 C 
ATOM     14  C   UNL     1     167.590 158.714 139.771  1.00  0.00     0.012 C 
ATOM     15  C   UNL     1     162.831 158.068 139.651  1.00  0.00     0.012 C 
ENDROOT
TORSDOF 0
ENDMDL
