MODEL 1
REMARK VINA RESULT:    -6.339      0.000      0.000
REMARK INTER + INTRA:          -6.339
REMARK INTER:                  -6.339
REMARK INTRA:                   0.000
REMARK UNBOUND:                 0.000
REMARK SMILES C=C1CCC[C@@]2(C)CC(=O)C(=C(C)C)C[C@H]12
REMARK SMILES IDX 13 1 12 2 11 3 15 4 16 5 2 6 1 7 3 8 4 9 5 10 6 11 8 12 9 13
REMARK SMILES IDX 10 14 7 15 14 16
REMARK H PARENT
REMARK Flexibility Score: inf
ROOT
ATOM      1  C   UNL     1      14.250 -19.872  19.999  1.00  0.00     0.039 C 
ATOM      2  C   UNL     1      13.359 -18.804  19.407  1.00  0.00    -0.070 C 
ATOM      3  C   UNL     1      12.012 -18.784  19.633  1.00  0.00    -0.006 C 
ATOM      4  C   UNL     1      11.119 -17.737  18.980  1.00  0.00     0.047 C 
ATOM      5  C   UNL     1       9.683 -18.253  18.715  1.00  0.00     0.025 C 
ATOM      6  C   UNL     1       8.729 -17.232  18.096  1.00  0.00    -0.073 C 
ATOM      7  C   UNL     1       9.071 -15.963  17.800  1.00  0.00     0.008 C 
ATOM      8  C   UNL     1       7.339 -17.727  17.773  1.00  0.00     0.031 C 
ATOM      9  C   UNL     1       6.704 -18.375  19.006  1.00  0.00     0.005 C 
ATOM     10  C   UNL     1       7.625 -19.440  19.625  1.00  0.00     0.008 C 
ATOM     11  C   UNL     1       9.038 -18.893  19.985  1.00  0.00    -0.018 C 
ATOM     12  C   UNL     1       9.916 -20.085  20.439  1.00  0.00     0.088 C 
ATOM     13  C   UNL     1      11.355 -19.694  20.615  1.00  0.00     0.159 C 
ATOM     14  O   UNL     1      11.981 -20.139  21.614  1.00  0.00    -0.295 OA
ATOM     15  C   UNL     1       8.919 -17.870  21.149  1.00  0.00     0.012 C 
ATOM     16  C   UNL     1      14.022 -17.776  18.519  1.00  0.00     0.039 C 
ENDROOT
TORSDOF 0
ENDMDL
MODEL 2
REMARK VINA RESULT:    -6.243     10.975     12.867
REMARK INTER + INTRA:          -6.243
REMARK INTER:                  -6.243
REMARK INTRA:                   0.000
REMARK UNBOUND:                 0.000
REMARK SMILES C=C1CCC[C@@]2(C)CC(=O)C(=C(C)C)C[C@H]12
REMARK SMILES IDX 13 1 12 2 11 3 15 4 16 5 2 6 1 7 3 8 4 9 5 10 6 11 8 12 9 13
REMARK SMILES IDX 10 14 7 15 14 16
REMARK H PARENT
REMARK Flexibility Score: inf
ROOT
ATOM      1  C   UNL     1       2.712 -22.491  29.798  1.00  0.00     0.039 C 
ATOM      2  C   UNL     1       1.775 -23.401  29.037  1.00  0.00    -0.070 C 
ATOM      3  C   UNL     1       1.691 -23.370  27.674  1.00  0.00    -0.006 C 
ATOM      4  C   UNL     1       0.699 -24.249  26.925  1.00  0.00     0.047 C 
ATOM      5  C   UNL     1       0.209 -23.610  25.602  1.00  0.00     0.025 C 
ATOM      6  C   UNL     1      -0.760 -24.466  24.787  1.00  0.00    -0.073 C 
ATOM      7  C   UNL     1      -1.171 -25.696  25.152  1.00  0.00     0.008 C 
ATOM      8  C   UNL     1      -1.300 -23.842  23.522  1.00  0.00     0.031 C 
ATOM      9  C   UNL     1      -0.151 -23.344  22.640  1.00  0.00     0.005 C 
ATOM     10  C   UNL     1       0.817 -22.443  23.424  1.00  0.00     0.008 C 
ATOM     11  C   UNL     1       1.389 -23.126  24.703  1.00  0.00    -0.018 C 
ATOM     12  C   UNL     1       2.209 -22.072  25.486  1.00  0.00     0.088 C 
ATOM     13  C   UNL     1       2.636 -22.575  26.836  1.00  0.00     0.159 C 
ATOM     14  O   UNL     1       3.806 -22.323  27.230  1.00  0.00    -0.295 OA
ATOM     15  C   UNL     1       2.321 -24.300  24.292  1.00  0.00     0.012 C 
ATOM     16  C   UNL     1       0.904 -24.326  29.856  1.00  0.00     0.039 C 
ENDROOT
TORSDOF 0
ENDMDL
MODEL 3
REMARK VINA RESULT:    -6.153      1.967      5.508
REMARK INTER + INTRA:          -6.153
REMARK INTER:                  -6.153
REMARK INTRA:                   0.000
REMARK UNBOUND:                 0.000
REMARK SMILES C=C1CCC[C@@]2(C)CC(=O)C(=C(C)C)C[C@H]12
REMARK SMILES IDX 13 1 12 2 11 3 15 4 16 5 2 6 1 7 3 8 4 9 5 10 6 11 8 12 9 13
REMARK SMILES IDX 10 14 7 15 14 16
REMARK H PARENT
REMARK Flexibility Score: inf
ROOT
ATOM      1  C   UNL     1       7.258 -17.681  17.141  1.00  0.00     0.039 C 
ATOM      2  C   UNL     1       8.026 -18.247  18.314  1.00  0.00    -0.070 C 
ATOM      3  C   UNL     1       9.362 -18.018  18.477  1.00  0.00    -0.006 C 
ATOM      4  C   UNL     1      10.134 -18.646  19.630  1.00  0.00     0.047 C 
ATOM      5  C   UNL     1      11.618 -18.919  19.282  1.00  0.00     0.025 C 
ATOM      6  C   UNL     1      12.453 -19.512  20.416  1.00  0.00    -0.073 C 
ATOM      7  C   UNL     1      11.973 -19.781  21.645  1.00  0.00     0.008 C 
ATOM      8  C   UNL     1      13.889 -19.843  20.085  1.00  0.00     0.031 C 
ATOM      9  C   UNL     1      14.593 -18.623  19.482  1.00  0.00     0.005 C 
ATOM     10  C   UNL     1      13.795 -18.031  18.309  1.00  0.00     0.008 C 
ATOM     11  C   UNL     1      12.330 -17.662  18.689  1.00  0.00    -0.018 C 
ATOM     12  C   UNL     1      11.589 -17.237  17.397  1.00  0.00     0.088 C 
ATOM     13  C   UNL     1      10.115 -17.055  17.623  1.00  0.00     0.159 C 
ATOM     14  O   UNL     1       9.543 -16.068  17.089  1.00  0.00    -0.295 OA
ATOM     15  C   UNL     1      12.336 -16.475  19.692  1.00  0.00     0.012 C 
ATOM     16  C   UNL     1       7.253 -19.113  19.282  1.00  0.00     0.039 C 
ENDROOT
TORSDOF 0
ENDMDL
MODEL 4
REMARK VINA RESULT:    -6.144      6.005      8.410
REMARK INTER + INTRA:          -6.144
REMARK INTER:                  -6.144
REMARK INTRA:                   0.000
REMARK UNBOUND:                 0.000
REMARK SMILES C=C1CCC[C@@]2(C)CC(=O)C(=C(C)C)C[C@H]12
REMARK SMILES IDX 13 1 12 2 11 3 15 4 16 5 2 6 1 7 3 8 4 9 5 10 6 11 8 12 9 13
REMARK SMILES IDX 10 14 7 15 14 16
REMARK H PARENT
REMARK Flexibility Score: inf
ROOT
ATOM      1  C   UNL     1       5.161 -15.440  27.713  1.00  0.00     0.039 C 
ATOM      2  C   UNL     1       6.369 -14.606  27.351  1.00  0.00    -0.070 C 
ATOM      3  C   UNL     1       6.873 -14.583  26.082  1.00  0.00    -0.006 C 
ATOM      4  C   UNL     1       8.127 -13.786  25.746  1.00  0.00     0.047 C 
ATOM      5  C   UNL     1       8.947 -14.414  24.591  1.00  0.00     0.025 C 
ATOM      6  C   UNL     1      10.196 -13.635  24.184  1.00  0.00    -0.073 C 
ATOM      7  C   UNL     1      10.584 -12.478  24.754  1.00  0.00     0.008 C 
ATOM      8  C   UNL     1      11.046 -14.256  23.100  1.00  0.00     0.031 C 
ATOM      9  C   UNL     1      10.191 -14.579  21.871  1.00  0.00     0.005 C 
ATOM     10  C   UNL     1       8.947 -15.402  22.246  1.00  0.00     0.008 C 
ATOM     11  C   UNL     1       8.069 -14.720  23.337  1.00  0.00    -0.018 C 
ATOM     12  C   UNL     1       6.951 -15.710  23.745  1.00  0.00     0.088 C 
ATOM     13  C   UNL     1       6.171 -15.226  24.934  1.00  0.00     0.159 C 
ATOM     14  O   UNL     1       4.918 -15.363  24.928  1.00  0.00    -0.295 OA
ATOM     15  C   UNL     1       7.425 -13.430  22.755  1.00  0.00     0.012 C 
ATOM     16  C   UNL     1       7.020 -13.824  28.469  1.00  0.00     0.039 C 
ENDROOT
TORSDOF 0
ENDMDL
MODEL 5
REMARK VINA RESULT:    -6.107      9.559     11.157
REMARK INTER + INTRA:          -6.107
REMARK INTER:                  -6.107
REMARK INTRA:                   0.000
REMARK UNBOUND:                 0.000
REMARK SMILES C=C1CCC[C@@]2(C)CC(=O)C(=C(C)C)C[C@H]12
REMARK SMILES IDX 13 1 12 2 11 3 15 4 16 5 2 6 1 7 3 8 4 9 5 10 6 11 8 12 9 13
REMARK SMILES IDX 10 14 7 15 14 16
REMARK H PARENT
REMARK Flexibility Score: inf
ROOT
ATOM      1  C   UNL     1       6.770 -23.970  25.901  1.00  0.00     0.039 C 
ATOM      2  C   UNL     1       5.317 -23.808  26.284  1.00  0.00    -0.070 C 
ATOM      3  C   UNL     1       4.306 -24.249  25.478  1.00  0.00    -0.006 C 
ATOM      4  C   UNL     1       2.847 -24.024  25.849  1.00  0.00     0.047 C 
ATOM      5  C   UNL     1       1.927 -23.881  24.610  1.00  0.00     0.025 C 
ATOM      6  C   UNL     1       0.443 -23.693  24.922  1.00  0.00    -0.073 C 
ATOM      7  C   UNL     1      -0.069 -23.661  26.168  1.00  0.00     0.008 C 
ATOM      8  C   UNL     1      -0.468 -23.491  23.734  1.00  0.00     0.031 C 
ATOM      9  C   UNL     1      -0.273 -24.618  22.715  1.00  0.00     0.005 C 
ATOM     10  C   UNL     1       1.210 -24.801  22.349  1.00  0.00     0.008 C 
ATOM     11  C   UNL     1       2.120 -25.046  23.589  1.00  0.00    -0.018 C 
ATOM     12  C   UNL     1       3.593 -25.048  23.113  1.00  0.00     0.088 C 
ATOM     13  C   UNL     1       4.560 -25.076  24.262  1.00  0.00     0.159 C 
ATOM     14  O   UNL     1       5.574 -25.820  24.177  1.00  0.00    -0.295 OA
ATOM     15  C   UNL     1       1.782 -26.426  24.217  1.00  0.00     0.012 C 
ATOM     16  C   UNL     1       5.028 -23.100  27.587  1.00  0.00     0.039 C 
ENDROOT
TORSDOF 0
ENDMDL
MODEL 6
REMARK VINA RESULT:    -6.097      1.032      1.230
REMARK INTER + INTRA:          -6.097
REMARK INTER:                  -6.097
REMARK INTRA:                   0.000
REMARK UNBOUND:                 0.000
REMARK SMILES C=C1CCC[C@@]2(C)CC(=O)C(=C(C)C)C[C@H]12
REMARK SMILES IDX 13 1 12 2 11 3 15 4 16 5 2 6 1 7 3 8 4 9 5 10 6 11 8 12 9 13
REMARK SMILES IDX 10 14 7 15 14 16
REMARK H PARENT
REMARK Flexibility Score: inf
ROOT
ATOM      1  C   UNL     1      15.410 -19.126  19.441  1.00  0.00     0.039 C 
ATOM      2  C   UNL     1      14.272 -18.381  18.782  1.00  0.00    -0.070 C 
ATOM      3  C   UNL     1      12.997 -18.438  19.267  1.00  0.00    -0.006 C 
ATOM      4  C   UNL     1      11.851 -17.731  18.557  1.00  0.00     0.047 C 
ATOM      5  C   UNL     1      10.492 -18.452  18.744  1.00  0.00     0.025 C 
ATOM      6  C   UNL     1       9.297 -17.766  18.085  1.00  0.00    -0.073 C 
ATOM      7  C   UNL     1       9.375 -16.612  17.395  1.00  0.00     0.008 C 
ATOM      8  C   UNL     1       7.970 -18.479  18.202  1.00  0.00     0.031 C 
ATOM      9  C   UNL     1       7.664 -18.799  19.668  1.00  0.00     0.005 C 
ATOM     10  C   UNL     1       8.835 -19.531  20.345  1.00  0.00     0.008 C 
ATOM     11  C   UNL     1      10.182 -18.755  20.244  1.00  0.00    -0.018 C 
ATOM     12  C   UNL     1      11.303 -19.660  20.809  1.00  0.00     0.088 C 
ATOM     13  C   UNL     1      12.670 -19.083  20.572  1.00  0.00     0.159 C 
ATOM     14  O   UNL     1      13.519 -19.146  21.502  1.00  0.00    -0.295 OA
ATOM     15  C   UNL     1      10.097 -17.453  21.089  1.00  0.00     0.012 C 
ATOM     16  C   UNL     1      14.602 -17.595  17.533  1.00  0.00     0.039 C 
ENDROOT
TORSDOF 0
ENDMDL
MODEL 7
REMARK VINA RESULT:    -5.777     10.732     12.130
REMARK INTER + INTRA:          -5.777
REMARK INTER:                  -5.777
REMARK INTRA:                   0.000
REMARK UNBOUND:                 0.000
REMARK SMILES C=C1CCC[C@@]2(C)CC(=O)C(=C(C)C)C[C@H]12
REMARK SMILES IDX 13 1 12 2 11 3 15 4 16 5 2 6 1 7 3 8 4 9 5 10 6 11 8 12 9 13
REMARK SMILES IDX 10 14 7 15 14 16
REMARK H PARENT
REMARK Flexibility Score: inf
ROOT
ATOM      1  C   UNL     1       4.648 -23.969  29.057  1.00  0.00     0.039 C 
ATOM      2  C   UNL     1       3.249 -23.860  28.495  1.00  0.00    -0.070 C 
ATOM      3  C   UNL     1       2.954 -24.249  27.220  1.00  0.00    -0.006 C 
ATOM      4  C   UNL     1       1.553 -24.077  26.647  1.00  0.00     0.047 C 
ATOM      5  C   UNL     1       1.554 -23.847  25.115  1.00  0.00     0.025 C 
ATOM      6  C   UNL     1       0.172 -23.707  24.479  1.00  0.00    -0.073 C 
ATOM      7  C   UNL     1      -0.986 -23.783  25.164  1.00  0.00     0.008 C 
ATOM      8  C   UNL     1       0.146 -23.422  22.996  1.00  0.00     0.031 C 
ATOM      9  C   UNL     1       0.982 -24.459  22.239  1.00  0.00     0.005 C 
ATOM     10  C   UNL     1       2.395 -24.589  22.832  1.00  0.00     0.008 C 
ATOM     11  C   UNL     1       2.392 -24.921  24.354  1.00  0.00    -0.018 C 
ATOM     12  C   UNL     1       3.853 -24.862  24.863  1.00  0.00     0.088 C 
ATOM     13  C   UNL     1       3.936 -24.970  26.359  1.00  0.00     0.159 C 
ATOM     14  O   UNL     1       4.841 -25.690  26.861  1.00  0.00    -0.295 OA
ATOM     15  C   UNL     1       1.830 -26.353  24.572  1.00  0.00     0.012 C 
ATOM     16  C   UNL     1       2.194 -23.265  29.398  1.00  0.00     0.039 C 
ENDROOT
TORSDOF 0
ENDMDL
MODEL 8
REMARK VINA RESULT:    -5.776      9.857     12.080
REMARK INTER + INTRA:          -5.776
REMARK INTER:                  -5.776
REMARK INTRA:                   0.000
REMARK UNBOUND:                 0.000
REMARK SMILES C=C1CCC[C@@]2(C)CC(=O)C(=C(C)C)C[C@H]12
REMARK SMILES IDX 13 1 12 2 11 3 15 4 16 5 2 6 1 7 3 8 4 9 5 10 6 11 8 12 9 13
REMARK SMILES IDX 10 14 7 15 14 16
REMARK H PARENT
REMARK Flexibility Score: inf
ROOT
ATOM      1  C   UNL     1      -0.995 -23.624  23.517  1.00  0.00     0.039 C 
ATOM      2  C   UNL     1       0.280 -24.428  23.411  1.00  0.00    -0.070 C 
ATOM      3  C   UNL     1       1.286 -24.306  24.327  1.00  0.00    -0.006 C 
ATOM      4  C   UNL     1       2.590 -25.077  24.173  1.00  0.00     0.047 C 
ATOM      5  C   UNL     1       3.805 -24.328  24.774  1.00  0.00     0.025 C 
ATOM      6  C   UNL     1       5.137 -25.074  24.684  1.00  0.00    -0.073 C 
ATOM      7  C   UNL     1       5.281 -26.297  24.140  1.00  0.00     0.008 C 
ATOM      8  C   UNL     1       6.348 -24.341  25.210  1.00  0.00     0.031 C 
ATOM      9  C   UNL     1       6.100 -23.858  26.642  1.00  0.00     0.005 C 
ATOM     10  C   UNL     1       4.786 -23.066  26.754  1.00  0.00     0.008 C 
ATOM     11  C   UNL     1       3.548 -23.860  26.241  1.00  0.00    -0.018 C 
ATOM     12  C   UNL     1       2.327 -22.907  26.250  1.00  0.00     0.088 C 
ATOM     13  C   UNL     1       1.127 -23.518  25.583  1.00  0.00     0.159 C 
ATOM     14  O   UNL     1      -0.003 -23.360  26.118  1.00  0.00    -0.295 OA
ATOM     15  C   UNL     1       3.270 -25.059  27.190  1.00  0.00     0.012 C 
ATOM     16  C   UNL     1       0.411 -25.349  22.219  1.00  0.00     0.039 C 
ENDROOT
TORSDOF 0
ENDMDL
MODEL 9
REMARK VINA RESULT:    -5.772      2.693      4.832
REMARK INTER + INTRA:          -5.772
REMARK INTER:                  -5.772
REMARK INTRA:                   0.000
REMARK UNBOUND:                 0.000
REMARK SMILES C=C1CCC[C@@]2(C)CC(=O)C(=C(C)C)C[C@H]12
REMARK SMILES IDX 13 1 12 2 11 3 15 4 16 5 2 6 1 7 3 8 4 9 5 10 6 11 8 12 9 13
REMARK SMILES IDX 10 14 7 15 14 16
REMARK H PARENT
REMARK Flexibility Score: inf
ROOT
ATOM      1  C   UNL     1       9.351 -14.083  24.490  1.00  0.00     0.039 C 
ATOM      2  C   UNL     1       8.498 -14.909  23.554  1.00  0.00    -0.070 C 
ATOM      3  C   UNL     1       9.020 -15.936  22.822  1.00  0.00    -0.006 C 
ATOM      4  C   UNL     1       8.161 -16.720  21.839  1.00  0.00     0.047 C 
ATOM      5  C   UNL     1       8.971 -17.265  20.636  1.00  0.00     0.025 C 
ATOM      6  C   UNL     1       8.167 -18.095  19.635  1.00  0.00    -0.073 C 
ATOM      7  C   UNL     1       6.853 -18.363  19.760  1.00  0.00     0.008 C 
ATOM      8  C   UNL     1       8.919 -18.589  18.422  1.00  0.00     0.031 C 
ATOM      9  C   UNL     1      10.184 -19.341  18.848  1.00  0.00     0.005 C 
ATOM     10  C   UNL     1      11.035 -18.511  19.824  1.00  0.00     0.008 C 
ATOM     11  C   UNL     1      10.245 -18.048  21.084  1.00  0.00    -0.018 C 
ATOM     12  C   UNL     1      11.152 -17.092  21.897  1.00  0.00     0.088 C 
ATOM     13  C   UNL     1      10.412 -16.432  23.026  1.00  0.00     0.159 C 
ATOM     14  O   UNL     1      10.989 -16.323  24.141  1.00  0.00    -0.295 OA
ATOM     15  C   UNL     1       9.887 -19.283  21.957  1.00  0.00     0.012 C 
ATOM     16  C   UNL     1       7.042 -14.521  23.435  1.00  0.00     0.039 C 
ENDROOT
TORSDOF 0
ENDMDL
