MODEL 1
REMARK VINA RESULT:    -6.256      0.000      0.000
REMARK INTER + INTRA:         -10.118
REMARK INTER:                  -9.548
REMARK INTRA:                  -0.570
REMARK UNBOUND:                -0.570
REMARK SMILES CCCCCCCCCCC(=O)[O-]
REMARK SMILES IDX 7 1 8 2 9 3 10 4 11 5 12 6 13 7 6 8 5 9 4 10 3 11 2 12 1 13
REMARK H PARENT
REMARK Flexibility Score: inf
ROOT
ATOM      1  C   UNL     1     -22.281 -23.875  30.021  1.00  0.00     0.000 C 
ENDROOT
BRANCH   1   2
ATOM      2  C   UNL     1     -23.128 -24.537  28.919  1.00  0.00     0.000 C 
BRANCH   2   3
ATOM      3  C   UNL     1     -23.562 -25.969  29.284  1.00  0.00     0.006 C 
BRANCH   3   4
ATOM      4  C   UNL     1     -25.082 -26.147  29.433  1.00  0.00     0.053 C 
BRANCH   4   5
ATOM      5  C   UNL     1     -25.437 -26.968  30.634  1.00  0.00     0.041 C 
ATOM      6  O   UNL     1     -25.987 -28.092  30.494  1.00  0.00    -0.550 OA
ATOM      7  O   UNL     1     -25.191 -26.475  31.910  1.00  0.00    -0.550 OA
ENDBRANCH   4   5
ENDBRANCH   3   4
ENDBRANCH   2   3
ENDBRANCH   1   2
BRANCH   1   8
ATOM      8  C   UNL     1     -23.023 -23.784  31.364  1.00  0.00     0.000 C 
BRANCH   8   9
ATOM      9  C   UNL     1     -22.803 -22.435  32.069  1.00  0.00    -0.000 C 
BRANCH   9  10
ATOM     10  C   UNL     1     -21.613 -21.645  31.492  1.00  0.00    -0.000 C 
BRANCH  10  11
ATOM     11  C   UNL     1     -21.973 -20.293  30.844  1.00  0.00    -0.000 C 
BRANCH  11  12
ATOM     12  C   UNL     1     -21.685 -20.198  29.335  1.00  0.00    -0.003 C 
ATOM     13  C   UNL     1     -20.971 -18.904  28.947  1.00  0.00     0.004 C 
ENDBRANCH  11  12
ENDBRANCH  10  11
ENDBRANCH   9  10
ENDBRANCH   8   9
ENDBRANCH   1   8
TORSDOF 9
ENDMDL
MODEL 2
REMARK VINA RESULT:    -6.216      5.042      7.924
REMARK INTER + INTRA:         -10.057
REMARK INTER:                  -9.533
REMARK INTRA:                  -0.525
REMARK UNBOUND:                -0.570
REMARK SMILES CCCCCCCCCCC(=O)[O-]
REMARK SMILES IDX 7 1 8 2 9 3 10 4 11 5 12 6 13 7 6 8 5 9 4 10 3 11 2 12 1 13
REMARK H PARENT
REMARK Flexibility Score: inf
ROOT
ATOM      1  C   UNL     1     -22.047 -20.709  30.625  1.00  0.00     0.000 C 
ENDROOT
BRANCH   1   2
ATOM      2  C   UNL     1     -21.254 -19.393  30.731  1.00  0.00     0.000 C 
BRANCH   2   3
ATOM      3  C   UNL     1     -20.513 -19.041  29.428  1.00  0.00     0.006 C 
BRANCH   3   4
ATOM      4  C   UNL     1     -20.431 -17.533  29.138  1.00  0.00     0.053 C 
BRANCH   4   5
ATOM      5  C   UNL     1     -19.110 -16.955  29.543  1.00  0.00     0.041 C 
ATOM      6  O   UNL     1     -18.805 -16.864  30.761  1.00  0.00    -0.550 OA
ATOM      7  O   UNL     1     -18.231 -16.484  28.576  1.00  0.00    -0.550 OA
ENDBRANCH   4   5
ENDBRANCH   3   4
ENDBRANCH   2   3
ENDBRANCH   1   2
BRANCH   1   8
ATOM      8  C   UNL     1     -22.223 -21.179  29.172  1.00  0.00     0.000 C 
BRANCH   8   9
ATOM      9  C   UNL     1     -22.176 -22.710  29.039  1.00  0.00    -0.000 C 
BRANCH   9  10
ATOM     10  C   UNL     1     -22.064 -23.427  30.397  1.00  0.00    -0.000 C 
BRANCH  10  11
ATOM     11  C   UNL     1     -23.057 -24.586  30.614  1.00  0.00    -0.000 C 
BRANCH  11  12
ATOM     12  C   UNL     1     -23.799 -25.053  29.348  1.00  0.00    -0.003 C 
ATOM     13  C   UNL     1     -23.751 -26.568  29.156  1.00  0.00     0.004 C 
ENDBRANCH  11  12
ENDBRANCH  10  11
ENDBRANCH   9  10
ENDBRANCH   8   9
ENDBRANCH   1   8
TORSDOF 9
ENDMDL
MODEL 3
REMARK VINA RESULT:    -6.212      1.676      2.685
REMARK INTER + INTRA:         -10.051
REMARK INTER:                  -9.316
REMARK INTRA:                  -0.735
REMARK UNBOUND:                -0.570
REMARK SMILES CCCCCCCCCCC(=O)[O-]
REMARK SMILES IDX 7 1 8 2 9 3 10 4 11 5 12 6 13 7 6 8 5 9 4 10 3 11 2 12 1 13
REMARK H PARENT
REMARK Flexibility Score: inf
ROOT
ATOM      1  C   UNL     1     -22.299 -20.879  29.588  1.00  0.00     0.000 C 
ENDROOT
BRANCH   1   2
ATOM      2  C   UNL     1     -22.132 -22.072  28.630  1.00  0.00     0.000 C 
BRANCH   2   3
ATOM      3  C   UNL     1     -22.027 -23.418  29.372  1.00  0.00     0.006 C 
BRANCH   3   4
ATOM      4  C   UNL     1     -23.094 -24.447  28.965  1.00  0.00     0.053 C 
BRANCH   4   5
ATOM      5  C   UNL     1     -23.527 -25.296  30.120  1.00  0.00     0.041 C 
ATOM      6  O   UNL     1     -23.923 -26.475  29.927  1.00  0.00    -0.550 OA
ATOM      7  O   UNL     1     -23.525 -24.772  31.407  1.00  0.00    -0.550 OA
ENDBRANCH   4   5
ENDBRANCH   3   4
ENDBRANCH   2   3
ENDBRANCH   1   2
BRANCH   1   8
ATOM      8  C   UNL     1     -22.187 -21.286  31.066  1.00  0.00     0.000 C 
BRANCH   8   9
ATOM      9  C   UNL     1     -20.977 -20.642  31.764  1.00  0.00    -0.000 C 
BRANCH   9  10
ATOM     10  C   UNL     1     -20.847 -19.136  31.469  1.00  0.00    -0.000 C 
BRANCH  10  11
ATOM     11  C   UNL     1     -19.425 -18.655  31.115  1.00  0.00    -0.000 C 
BRANCH  11  12
ATOM     12  C   UNL     1     -19.227 -18.237  29.648  1.00  0.00    -0.003 C 
ATOM     13  C   UNL     1     -20.489 -17.645  29.022  1.00  0.00     0.004 C 
ENDBRANCH  11  12
ENDBRANCH  10  11
ENDBRANCH   9  10
ENDBRANCH   8   9
ENDBRANCH   1   8
TORSDOF 9
ENDMDL
MODEL 4
REMARK VINA RESULT:    -6.197      4.402      7.159
REMARK INTER + INTRA:         -10.028
REMARK INTER:                  -9.524
REMARK INTRA:                  -0.504
REMARK UNBOUND:                -0.570
REMARK SMILES CCCCCCCCCCC(=O)[O-]
REMARK SMILES IDX 7 1 8 2 9 3 10 4 11 5 12 6 13 7 6 8 5 9 4 10 3 11 2 12 1 13
REMARK H PARENT
REMARK Flexibility Score: inf
ROOT
ATOM      1  C   UNL     1     -22.654 -22.437  31.696  1.00  0.00     0.000 C 
ENDROOT
BRANCH   1   2
ATOM      2  C   UNL     1     -21.454 -21.473  31.718  1.00  0.00     0.000 C 
BRANCH   2   3
ATOM      3  C   UNL     1     -21.680 -20.225  30.843  1.00  0.00     0.006 C 
BRANCH   3   4
ATOM      4  C   UNL     1     -20.812 -19.017  31.233  1.00  0.00     0.053 C 
BRANCH   4   5
ATOM      5  C   UNL     1     -20.133 -18.407  30.046  1.00  0.00     0.041 C 
ATOM      6  O   UNL     1     -18.922 -18.656  29.810  1.00  0.00    -0.550 OA
ATOM      7  O   UNL     1     -20.830 -17.534  29.219  1.00  0.00    -0.550 OA
ENDBRANCH   4   5
ENDBRANCH   3   4
ENDBRANCH   2   3
ENDBRANCH   1   2
BRANCH   1   8
ATOM      8  C   UNL     1     -22.349 -23.747  30.953  1.00  0.00     0.000 C 
BRANCH   8   9
ATOM      9  C   UNL     1     -22.305 -23.562  29.427  1.00  0.00    -0.000 C 
BRANCH   9  10
ATOM     10  C   UNL     1     -23.036 -24.684  28.666  1.00  0.00    -0.000 C 
BRANCH  10  11
ATOM     11  C   UNL     1     -23.472 -25.887  29.527  1.00  0.00    -0.000 C 
BRANCH  11  12
ATOM     12  C   UNL     1     -24.989 -26.005  29.759  1.00  0.00    -0.003 C 
ATOM     13  C   UNL     1     -25.371 -25.935  31.237  1.00  0.00     0.004 C 
ENDBRANCH  11  12
ENDBRANCH  10  11
ENDBRANCH   9  10
ENDBRANCH   8   9
ENDBRANCH   1   8
TORSDOF 9
ENDMDL
MODEL 5
REMARK VINA RESULT:    -6.135      1.335      2.569
REMARK INTER + INTRA:          -9.933
REMARK INTER:                  -9.467
REMARK INTRA:                  -0.466
REMARK UNBOUND:                -0.570
REMARK SMILES CCCCCCCCCCC(=O)[O-]
REMARK SMILES IDX 7 1 8 2 9 3 10 4 11 5 12 6 13 7 6 8 5 9 4 10 3 11 2 12 1 13
REMARK H PARENT
REMARK Flexibility Score: inf
ROOT
ATOM      1  C   UNL     1     -22.366 -22.289  31.653  1.00  0.00     0.000 C 
ENDROOT
BRANCH   1   2
ATOM      2  C   UNL     1     -22.339 -23.373  30.560  1.00  0.00     0.000 C 
BRANCH   2   3
ATOM      3  C   UNL     1     -23.076 -24.658  30.982  1.00  0.00     0.006 C 
BRANCH   3   4
ATOM      4  C   UNL     1     -23.665 -25.460  29.810  1.00  0.00     0.053 C 
BRANCH   4   5
ATOM      5  C   UNL     1     -25.076 -25.886  30.073  1.00  0.00     0.041 C 
ATOM      6  O   UNL     1     -25.473 -26.067  31.254  1.00  0.00    -0.550 OA
ATOM      7  O   UNL     1     -25.943 -26.118  29.012  1.00  0.00    -0.550 OA
ENDBRANCH   4   5
ENDBRANCH   3   4
ENDBRANCH   2   3
ENDBRANCH   1   2
BRANCH   1   8
ATOM      8  C   UNL     1     -21.829 -20.936  31.158  1.00  0.00     0.000 C 
BRANCH   8   9
ATOM      9  C   UNL     1     -22.365 -20.564  29.765  1.00  0.00    -0.000 C 
BRANCH   9  10
ATOM     10  C   UNL     1     -21.289 -19.941  28.857  1.00  0.00    -0.000 C 
BRANCH  10  11
ATOM     11  C   UNL     1     -20.861 -18.507  29.231  1.00  0.00    -0.000 C 
BRANCH  11  12
ATOM     12  C   UNL     1     -19.356 -18.326  29.497  1.00  0.00    -0.003 C 
ATOM     13  C   UNL     1     -19.003 -18.394  30.982  1.00  0.00     0.004 C 
ENDBRANCH  11  12
ENDBRANCH  10  11
ENDBRANCH   9  10
ENDBRANCH   8   9
ENDBRANCH   1   8
TORSDOF 9
ENDMDL
MODEL 6
REMARK VINA RESULT:    -6.121      4.845      7.876
REMARK INTER + INTRA:          -9.912
REMARK INTER:                  -9.536
REMARK INTRA:                  -0.376
REMARK UNBOUND:                -0.570
REMARK SMILES CCCCCCCCCCC(=O)[O-]
REMARK SMILES IDX 7 1 8 2 9 3 10 4 11 5 12 6 13 7 6 8 5 9 4 10 3 11 2 12 1 13
REMARK H PARENT
REMARK Flexibility Score: inf
ROOT
ATOM      1  C   UNL     1     -22.137 -20.679  29.556  1.00  0.00     0.000 C 
ENDROOT
BRANCH   1   2
ATOM      2  C   UNL     1     -21.293 -19.530  28.973  1.00  0.00     0.000 C 
BRANCH   2   3
ATOM      3  C   UNL     1     -20.495 -18.774  30.052  1.00  0.00     0.006 C 
BRANCH   3   4
ATOM      4  C   UNL     1     -19.756 -17.530  29.532  1.00  0.00     0.053 C 
BRANCH   4   5
ATOM      5  C   UNL     1     -18.885 -16.914  30.583  1.00  0.00     0.041 C 
ATOM      6  O   UNL     1     -18.236 -15.864  30.333  1.00  0.00    -0.550 OA
ATOM      7  O   UNL     1     -18.764 -17.518  31.828  1.00  0.00    -0.550 OA
ENDBRANCH   4   5
ENDBRANCH   3   4
ENDBRANCH   2   3
ENDBRANCH   1   2
BRANCH   1   8
ATOM      8  C   UNL     1     -21.944 -20.844  31.072  1.00  0.00     0.000 C 
BRANCH   8   9
ATOM      9  C   UNL     1     -22.335 -22.248  31.566  1.00  0.00    -0.000 C 
BRANCH   9  10
ATOM     10  C   UNL     1     -22.267 -23.313  30.456  1.00  0.00    -0.000 C 
BRANCH  10  11
ATOM     11  C   UNL     1     -23.055 -24.609  30.738  1.00  0.00    -0.000 C 
BRANCH  11  12
ATOM     12  C   UNL     1     -23.518 -25.374  29.486  1.00  0.00    -0.003 C 
ATOM     13  C   UNL     1     -25.002 -25.736  29.525  1.00  0.00     0.004 C 
ENDBRANCH  11  12
ENDBRANCH  10  11
ENDBRANCH   9  10
ENDBRANCH   8   9
ENDBRANCH   1   8
TORSDOF 9
ENDMDL
MODEL 7
REMARK VINA RESULT:    -5.942      1.925      2.705
REMARK INTER + INTRA:          -9.639
REMARK INTER:                  -9.179
REMARK INTRA:                  -0.460
REMARK UNBOUND:                -0.570
REMARK SMILES CCCCCCCCCCC(=O)[O-]
REMARK SMILES IDX 7 1 8 2 9 3 10 4 11 5 12 6 13 7 6 8 5 9 4 10 3 11 2 12 1 13
REMARK H PARENT
REMARK Flexibility Score: inf
ROOT
ATOM      1  C   UNL     1     -22.161 -22.369  31.689  1.00  0.00     0.000 C 
ENDROOT
BRANCH   1   2
ATOM      2  C   UNL     1     -23.419 -23.249  31.810  1.00  0.00     0.000 C 
BRANCH   2   3
ATOM      3  C   UNL     1     -23.126 -24.739  31.552  1.00  0.00     0.006 C 
BRANCH   3   4
ATOM      4  C   UNL     1     -24.216 -25.464  30.745  1.00  0.00     0.053 C 
BRANCH   4   5
ATOM      5  C   UNL     1     -23.798 -25.705  29.327  1.00  0.00     0.041 C 
ATOM      6  O   UNL     1     -24.123 -26.772  28.743  1.00  0.00    -0.550 OA
ATOM      7  O   UNL     1     -23.020 -24.766  28.663  1.00  0.00    -0.550 OA
ENDBRANCH   4   5
ENDBRANCH   3   4
ENDBRANCH   2   3
ENDBRANCH   1   2
BRANCH   1   8
ATOM      8  C   UNL     1     -22.114 -21.580  30.371  1.00  0.00     0.000 C 
BRANCH   8   9
ATOM      9  C   UNL     1     -21.899 -20.074  30.593  1.00  0.00    -0.000 C 
BRANCH   9  10
ATOM     10  C   UNL     1     -20.797 -19.772  31.624  1.00  0.00    -0.000 C 
BRANCH  10  11
ATOM     11  C   UNL     1     -19.797 -18.671  31.216  1.00  0.00    -0.000 C 
BRANCH  11  12
ATOM     12  C   UNL     1     -19.477 -18.608  29.712  1.00  0.00    -0.003 C 
ATOM     13  C   UNL     1     -20.057 -17.368  29.033  1.00  0.00     0.004 C 
ENDBRANCH  11  12
ENDBRANCH  10  11
ENDBRANCH   9  10
ENDBRANCH   8   9
ENDBRANCH   1   8
TORSDOF 9
ENDMDL
MODEL 8
REMARK VINA RESULT:    -5.939      5.759      8.581
REMARK INTER + INTRA:          -9.634
REMARK INTER:                  -9.333
REMARK INTRA:                  -0.301
REMARK UNBOUND:                -0.570
REMARK SMILES CCCCCCCCCCC(=O)[O-]
REMARK SMILES IDX 7 1 8 2 9 3 10 4 11 5 12 6 13 7 6 8 5 9 4 10 3 11 2 12 1 13
REMARK H PARENT
REMARK Flexibility Score: inf
ROOT
ATOM      1  C   UNL     1     -20.920 -19.374  30.799  1.00  0.00     0.000 C 
ENDROOT
BRANCH   1   2
ATOM      2  C   UNL     1     -20.608 -18.939  29.355  1.00  0.00     0.000 C 
BRANCH   2   3
ATOM      3  C   UNL     1     -19.988 -17.531  29.281  1.00  0.00     0.006 C 
BRANCH   3   4
ATOM      4  C   UNL     1     -18.503 -17.517  28.884  1.00  0.00     0.053 C 
BRANCH   4   5
ATOM      5  C   UNL     1     -18.020 -16.137  28.564  1.00  0.00     0.041 C 
ATOM      6  O   UNL     1     -17.752 -15.328  29.491  1.00  0.00    -0.550 OA
ATOM      7  O   UNL     1     -17.899 -15.731  27.240  1.00  0.00    -0.550 OA
ENDBRANCH   4   5
ENDBRANCH   3   4
ENDBRANCH   2   3
ENDBRANCH   1   2
BRANCH   1   8
ATOM      8  C   UNL     1     -22.073 -20.388  30.876  1.00  0.00     0.000 C 
BRANCH   8   9
ATOM      9  C   UNL     1     -21.669 -21.685  31.598  1.00  0.00    -0.000 C 
BRANCH   9  10
ATOM     10  C   UNL     1     -22.407 -22.925  31.060  1.00  0.00    -0.000 C 
BRANCH  10  11
ATOM     11  C   UNL     1     -22.138 -23.260  29.579  1.00  0.00    -0.000 C 
BRANCH  11  12
ATOM     12  C   UNL     1     -22.989 -24.408  29.007  1.00  0.00    -0.003 C 
ATOM     13  C   UNL     1     -23.693 -25.224  30.090  1.00  0.00     0.004 C 
ENDBRANCH  11  12
ENDBRANCH  10  11
ENDBRANCH   9  10
ENDBRANCH   8   9
ENDBRANCH   1   8
TORSDOF 9
ENDMDL
MODEL 9
REMARK VINA RESULT:    -5.806      4.008      7.172
REMARK INTER + INTRA:          -9.431
REMARK INTER:                  -9.092
REMARK INTRA:                  -0.339
REMARK UNBOUND:                -0.570
REMARK SMILES CCCCCCCCCCC(=O)[O-]
REMARK SMILES IDX 7 1 8 2 9 3 10 4 11 5 12 6 13 7 6 8 5 9 4 10 3 11 2 12 1 13
REMARK H PARENT
REMARK Flexibility Score: inf
ROOT
ATOM      1  C   UNL     1     -22.624 -23.406  30.699  1.00  0.00     0.000 C 
ENDROOT
BRANCH   1   2
ATOM      2  C   UNL     1     -22.008 -22.163  31.366  1.00  0.00     0.000 C 
BRANCH   2   3
ATOM      3  C   UNL     1     -22.077 -20.913  30.469  1.00  0.00     0.006 C 
BRANCH   3   4
ATOM      4  C   UNL     1     -21.271 -19.715  30.995  1.00  0.00     0.053 C 
BRANCH   4   5
ATOM      5  C   UNL     1     -20.522 -19.017  29.902  1.00  0.00     0.041 C 
ATOM      6  O   UNL     1     -21.038 -18.893  28.760  1.00  0.00    -0.550 OA
ATOM      7  O   UNL     1     -19.240 -18.534  30.135  1.00  0.00    -0.550 OA
ENDBRANCH   4   5
ENDBRANCH   3   4
ENDBRANCH   2   3
ENDBRANCH   1   2
BRANCH   1   8
ATOM      8  C   UNL     1     -23.524 -24.206  31.655  1.00  0.00     0.000 C 
BRANCH   8   9
ATOM      9  C   UNL     1     -24.047 -25.507  31.021  1.00  0.00    -0.000 C 
BRANCH   9  10
ATOM     10  C   UNL     1     -23.440 -25.783  29.633  1.00  0.00    -0.000 C 
BRANCH  10  11
ATOM     11  C   UNL     1     -24.304 -26.653  28.698  1.00  0.00    -0.000 C 
BRANCH  11  12
ATOM     12  C   UNL     1     -25.599 -27.197  29.327  1.00  0.00    -0.003 C 
ATOM     13  C   UNL     1     -26.362 -28.138  28.397  1.00  0.00     0.004 C 
ENDBRANCH  11  12
ENDBRANCH  10  11
ENDBRANCH   9  10
ENDBRANCH   8   9
ENDBRANCH   1   8
TORSDOF 9
ENDMDL
