MODEL 1
REMARK VINA RESULT:    -6.167      0.000      0.000
REMARK INTER + INTRA:          -7.749
REMARK INTER:                  -7.429
REMARK INTRA:                  -0.321
REMARK UNBOUND:                -0.321
REMARK SMILES CCCCc1oc(O)c2ccccc12
REMARK SMILES IDX 4 1 5 2 7 3 6 4 9 5 14 6 10 7 13 8 11 9 12 10 8 11 3 13 2 14
REMARK SMILES IDX 1 15
REMARK H PARENT 8 12
REMARK Flexibility Score: inf
ROOT
ATOM      1  C   UNL     1      13.942  71.143  61.015  1.00  0.00     0.076 C 
ENDROOT
BRANCH   1   2
ATOM      2  C   UNL     1      14.904  71.839  61.934  1.00  0.00     0.116 A 
ATOM      3  C   UNL     1      15.615  73.137  63.486  1.00  0.00     0.290 A 
ATOM      4  O   UNL     1      14.542  72.741  62.829  1.00  0.00    -0.430 OA
ATOM      5  C   UNL     1      16.722  72.475  63.010  1.00  0.00     0.066 A 
ATOM      6  C   UNL     1      16.274  71.644  62.018  1.00  0.00     0.027 A 
ATOM      7  C   UNL     1      18.065  72.538  63.376  1.00  0.00     0.016 A 
ATOM      8  C   UNL     1      17.146  70.810  61.316  1.00  0.00     0.012 A 
ATOM      9  C   UNL     1      18.967  71.707  62.685  1.00  0.00     0.001 A 
ATOM     10  C   UNL     1      18.510  70.848  61.661  1.00  0.00     0.001 A 
BRANCH   3  11
ATOM     11  O   UNL     1      15.607  74.083  64.504  1.00  0.00    -0.480 OA
ATOM     12  H   UNL     1      14.842  74.117  65.167  1.00  0.00     0.297 HD
ENDBRANCH   3  11
ENDBRANCH   1   2
BRANCH   1  13
ATOM     13  C   UNL     1      13.757  69.667  61.404  1.00  0.00     0.008 C 
BRANCH  13  14
ATOM     14  C   UNL     1      13.031  69.463  62.745  1.00  0.00    -0.003 C 
ATOM     15  C   UNL     1      12.182  68.191  62.767  1.00  0.00     0.004 C 
ENDBRANCH  13  14
ENDBRANCH   1  13
TORSDOF 4
ENDMDL
MODEL 2
REMARK VINA RESULT:    -6.107      2.245      4.452
REMARK INTER + INTRA:          -7.678
REMARK INTER:                  -7.404
REMARK INTRA:                  -0.274
REMARK UNBOUND:                -0.321
REMARK SMILES CCCCc1oc(O)c2ccccc12
REMARK SMILES IDX 4 1 5 2 7 3 6 4 9 5 14 6 10 7 13 8 11 9 12 10 8 11 3 13 2 14
REMARK SMILES IDX 1 15
REMARK H PARENT 8 12
REMARK Flexibility Score: inf
ROOT
ATOM      1  C   UNL     1      15.641  73.754  63.968  1.00  0.00     0.076 C 
ENDROOT
BRANCH   1   2
ATOM      2  C   UNL     1      16.570  72.781  63.302  1.00  0.00     0.116 A 
ATOM      3  C   UNL     1      18.389  71.753  62.818  1.00  0.00     0.290 A 
ATOM      4  O   UNL     1      17.870  72.727  63.540  1.00  0.00    -0.430 OA
ATOM      5  C   UNL     1      17.402  71.141  62.082  1.00  0.00     0.066 A 
ATOM      6  C   UNL     1      16.237  71.794  62.387  1.00  0.00     0.027 A 
ATOM      7  C   UNL     1      17.442  70.075  61.187  1.00  0.00     0.016 A 
ATOM      8  C   UNL     1      15.021  71.421  61.813  1.00  0.00     0.012 A 
ATOM      9  C   UNL     1      16.230  69.677  60.593  1.00  0.00     0.001 A 
ATOM     10  C   UNL     1      15.026  70.347  60.904  1.00  0.00     0.001 A 
BRANCH   3  11
ATOM     11  O   UNL     1      19.736  71.409  62.818  1.00  0.00    -0.480 OA
ATOM     12  H   UNL     1      20.051  70.571  62.344  1.00  0.00     0.297 HD
ENDBRANCH   3  11
ENDBRANCH   1   2
BRANCH   1  13
ATOM     13  C   UNL     1      15.548  73.502  65.481  1.00  0.00     0.008 C 
BRANCH  13  14
ATOM     14  C   UNL     1      16.614  74.248  66.303  1.00  0.00    -0.003 C 
ATOM     15  C   UNL     1      17.592  73.300  66.997  1.00  0.00     0.004 C 
ENDBRANCH  13  14
ENDBRANCH   1  13
TORSDOF 4
ENDMDL
MODEL 3
REMARK VINA RESULT:    -5.899      1.798      4.071
REMARK INTER + INTRA:          -7.427
REMARK INTER:                  -7.072
REMARK INTRA:                  -0.355
REMARK UNBOUND:                -0.321
REMARK SMILES CCCCc1oc(O)c2ccccc12
REMARK SMILES IDX 4 1 5 2 7 3 6 4 9 5 14 6 10 7 13 8 11 9 12 10 8 11 3 13 2 14
REMARK SMILES IDX 1 15
REMARK H PARENT 8 12
REMARK Flexibility Score: inf
ROOT
ATOM      1  C   UNL     1      14.863  73.801  63.659  1.00  0.00     0.076 C 
ENDROOT
BRANCH   1   2
ATOM      2  C   UNL     1      15.038  72.566  62.824  1.00  0.00     0.116 A 
ATOM      3  C   UNL     1      14.521  70.854  61.641  1.00  0.00     0.290 A 
ATOM      4  O   UNL     1      14.031  71.853  62.349  1.00  0.00    -0.430 OA
ATOM      5  C   UNL     1      15.894  70.908  61.647  1.00  0.00     0.066 A 
ATOM      6  C   UNL     1      16.231  72.000  62.402  1.00  0.00     0.027 A 
ATOM      7  C   UNL     1      16.855  70.095  61.049  1.00  0.00     0.016 A 
ATOM      8  C   UNL     1      17.563  72.359  62.613  1.00  0.00     0.012 A 
ATOM      9  C   UNL     1      18.207  70.432  61.245  1.00  0.00     0.001 A 
ATOM     10  C   UNL     1      18.559  71.558  62.023  1.00  0.00     0.001 A 
BRANCH   3  11
ATOM     11  O   UNL     1      13.747  69.899  60.991  1.00  0.00    -0.480 OA
ATOM     12  H   UNL     1      14.186  69.174  60.437  1.00  0.00     0.297 HD
ENDBRANCH   3  11
ENDBRANCH   1   2
BRANCH   1  13
ATOM     13  C   UNL     1      15.006  73.495  65.158  1.00  0.00     0.008 C 
BRANCH  13  14
ATOM     14  C   UNL     1      16.373  73.887  65.747  1.00  0.00    -0.003 C 
ATOM     15  C   UNL     1      16.284  74.310  67.213  1.00  0.00     0.004 C 
ENDBRANCH  13  14
ENDBRANCH   1  13
TORSDOF 4
ENDMDL
MODEL 4
REMARK VINA RESULT:    -5.863      1.454      2.445
REMARK INTER + INTRA:          -7.384
REMARK INTER:                  -7.052
REMARK INTRA:                  -0.331
REMARK UNBOUND:                -0.321
REMARK SMILES CCCCc1oc(O)c2ccccc12
REMARK SMILES IDX 4 1 5 2 7 3 6 4 9 5 14 6 10 7 13 8 11 9 12 10 8 11 3 13 2 14
REMARK SMILES IDX 1 15
REMARK H PARENT 8 12
REMARK Flexibility Score: inf
ROOT
ATOM      1  C   UNL     1      13.249  71.416  61.785  1.00  0.00     0.076 C 
ENDROOT
BRANCH   1   2
ATOM      2  C   UNL     1      14.466  72.015  62.427  1.00  0.00     0.116 A 
ATOM      3  C   UNL     1      15.651  73.230  63.738  1.00  0.00     0.290 A 
ATOM      4  O   UNL     1      14.418  72.938  63.373  1.00  0.00    -0.430 OA
ATOM      5  C   UNL     1      16.543  72.476  63.012  1.00  0.00     0.066 A 
ATOM      6  C   UNL     1      15.791  71.698  62.172  1.00  0.00     0.027 A 
ATOM      7  C   UNL     1      17.935  72.416  63.032  1.00  0.00     0.016 A 
ATOM      8  C   UNL     1      16.385  70.796  61.287  1.00  0.00     0.012 A 
ATOM      9  C   UNL     1      18.561  71.515  62.151  1.00  0.00     0.001 A 
ATOM     10  C   UNL     1      17.789  70.710  61.283  1.00  0.00     0.001 A 
BRANCH   3  11
ATOM     11  O   UNL     1      15.980  74.163  64.714  1.00  0.00    -0.480 OA
ATOM     12  H   UNL     1      15.482  74.179  65.596  1.00  0.00     0.297 HD
ENDBRANCH   3  11
ENDBRANCH   1   2
BRANCH   1  13
ATOM     13  C   UNL     1      12.934  72.085  60.437  1.00  0.00     0.008 C 
BRANCH  13  14
ATOM     14  C   UNL     1      12.505  73.558  60.558  1.00  0.00    -0.003 C 
ATOM     15  C   UNL     1      12.555  74.298  59.221  1.00  0.00     0.004 C 
ENDBRANCH  13  14
ENDBRANCH   1  13
TORSDOF 4
ENDMDL
MODEL 5
REMARK VINA RESULT:    -5.772      2.195      4.035
REMARK INTER + INTRA:          -7.274
REMARK INTER:                  -6.939
REMARK INTRA:                  -0.335
REMARK UNBOUND:                -0.321
REMARK SMILES CCCCc1oc(O)c2ccccc12
REMARK SMILES IDX 4 1 5 2 7 3 6 4 9 5 14 6 10 7 13 8 11 9 12 10 8 11 3 13 2 14
REMARK SMILES IDX 1 15
REMARK H PARENT 8 12
REMARK Flexibility Score: inf
ROOT
ATOM      1  C   UNL     1      18.071  72.423  62.366  1.00  0.00     0.076 C 
ENDROOT
BRANCH   1   2
ATOM      2  C   UNL     1      16.863  72.833  63.157  1.00  0.00     0.116 A 
ATOM      3  C   UNL     1      14.811  73.261  63.610  1.00  0.00     0.290 A 
ATOM      4  O   UNL     1      15.642  72.895  62.654  1.00  0.00    -0.430 OA
ATOM      5  C   UNL     1      15.503  73.445  64.783  1.00  0.00     0.066 A 
ATOM      6  C   UNL     1      16.816  73.173  64.500  1.00  0.00     0.027 A 
ATOM      7  C   UNL     1      15.082  73.820  66.058  1.00  0.00     0.016 A 
ATOM      8  C   UNL     1      17.806  73.256  65.480  1.00  0.00     0.012 A 
ATOM      9  C   UNL     1      16.059  73.912  67.066  1.00  0.00     0.001 A 
ATOM     10  C   UNL     1      17.414  73.632  66.779  1.00  0.00     0.001 A 
BRANCH   3  11
ATOM     11  O   UNL     1      13.442  73.429  63.439  1.00  0.00    -0.480 OA
ATOM     12  H   UNL     1      12.943  74.138  63.962  1.00  0.00     0.297 HD
ENDBRANCH   3  11
ENDBRANCH   1   2
BRANCH   1  13
ATOM     13  C   UNL     1      18.173  70.895  62.241  1.00  0.00     0.008 C 
BRANCH  13  14
ATOM     14  C   UNL     1      17.656  70.343  60.900  1.00  0.00    -0.003 C 
ATOM     15  C   UNL     1      16.242  69.770  61.006  1.00  0.00     0.004 C 
ENDBRANCH  13  14
ENDBRANCH   1  13
TORSDOF 4
ENDMDL
MODEL 6
REMARK VINA RESULT:    -5.721      2.119      3.463
REMARK INTER + INTRA:          -7.212
REMARK INTER:                  -6.922
REMARK INTRA:                  -0.290
REMARK UNBOUND:                -0.321
REMARK SMILES CCCCc1oc(O)c2ccccc12
REMARK SMILES IDX 4 1 5 2 7 3 6 4 9 5 14 6 10 7 13 8 11 9 12 10 8 11 3 13 2 14
REMARK SMILES IDX 1 15
REMARK H PARENT 8 12
REMARK Flexibility Score: inf
ROOT
ATOM      1  C   UNL     1      13.795  73.125  63.109  1.00  0.00     0.076 C 
ENDROOT
BRANCH   1   2
ATOM      2  C   UNL     1      14.654  72.122  62.395  1.00  0.00     0.116 A 
ATOM      3  C   UNL     1      15.186  70.486  61.115  1.00  0.00     0.290 A 
ATOM      4  O   UNL     1      14.175  71.178  61.602  1.00  0.00    -0.430 OA
ATOM      5  C   UNL     1      16.371  70.988  61.599  1.00  0.00     0.066 A 
ATOM      6  C   UNL     1      16.037  72.034  62.418  1.00  0.00     0.027 A 
ATOM      7  C   UNL     1      17.694  70.611  61.379  1.00  0.00     0.016 A 
ATOM      8  C   UNL     1      17.012  72.783  63.078  1.00  0.00     0.012 A 
ATOM      9  C   UNL     1      18.699  71.349  62.032  1.00  0.00     0.001 A 
ATOM     10  C   UNL     1      18.359  72.429  62.877  1.00  0.00     0.001 A 
BRANCH   3  11
ATOM     11  O   UNL     1      15.054  69.412  60.242  1.00  0.00    -0.480 OA
ATOM     12  H   UNL     1      14.532  68.589  60.517  1.00  0.00     0.297 HD
ENDBRANCH   3  11
ENDBRANCH   1   2
BRANCH   1  13
ATOM     13  C   UNL     1      12.338  73.071  62.622  1.00  0.00     0.008 C 
BRANCH  13  14
ATOM     14  C   UNL     1      11.973  74.184  61.624  1.00  0.00    -0.003 C 
ATOM     15  C   UNL     1      12.243  73.785  60.173  1.00  0.00     0.004 C 
ENDBRANCH  13  14
ENDBRANCH   1  13
TORSDOF 4
ENDMDL
MODEL 7
REMARK VINA RESULT:    -5.713      1.984      3.104
REMARK INTER + INTRA:          -7.202
REMARK INTER:                  -6.856
REMARK INTRA:                  -0.347
REMARK UNBOUND:                -0.321
REMARK SMILES CCCCc1oc(O)c2ccccc12
REMARK SMILES IDX 4 1 5 2 7 3 6 4 9 5 14 6 10 7 13 8 11 9 12 10 8 11 3 13 2 14
REMARK SMILES IDX 1 15
REMARK H PARENT 8 12
REMARK Flexibility Score: inf
ROOT
ATOM      1  C   UNL     1      14.936  72.139  61.473  1.00  0.00     0.076 C 
ENDROOT
BRANCH   1   2
ATOM      2  C   UNL     1      16.090  72.359  62.407  1.00  0.00     0.116 A 
ATOM      3  C   UNL     1      18.112  72.418  63.120  1.00  0.00     0.290 A 
ATOM      4  O   UNL     1      17.346  72.088  62.097  1.00  0.00    -0.430 OA
ATOM      5  C   UNL     1      17.338  72.924  64.137  1.00  0.00     0.066 A 
ATOM      6  C   UNL     1      16.044  72.889  63.687  1.00  0.00     0.027 A 
ATOM      7  C   UNL     1      17.671  73.409  65.400  1.00  0.00     0.016 A 
ATOM      8  C   UNL     1      14.985  73.341  64.476  1.00  0.00     0.012 A 
ATOM      9  C   UNL     1      16.623  73.872  66.217  1.00  0.00     0.001 A 
ATOM     10  C   UNL     1      15.288  73.838  65.757  1.00  0.00     0.001 A 
BRANCH   3  11
ATOM     11  O   UNL     1      19.493  72.269  63.146  1.00  0.00    -0.480 OA
ATOM     12  H   UNL     1      19.924  71.577  63.747  1.00  0.00     0.297 HD
ENDBRANCH   3  11
ENDBRANCH   1   2
BRANCH   1  13
ATOM     13  C   UNL     1      14.519  70.660  61.428  1.00  0.00     0.008 C 
BRANCH  13  14
ATOM     14  C   UNL     1      13.433  70.288  62.454  1.00  0.00    -0.003 C 
ATOM     15  C   UNL     1      13.067  68.804  62.411  1.00  0.00     0.004 C 
ENDBRANCH  13  14
ENDBRANCH   1  13
TORSDOF 4
ENDMDL
MODEL 8
REMARK VINA RESULT:    -5.562      2.704      5.215
REMARK INTER + INTRA:          -7.021
REMARK INTER:                  -6.769
REMARK INTRA:                  -0.252
REMARK UNBOUND:                -0.321
REMARK SMILES CCCCc1oc(O)c2ccccc12
REMARK SMILES IDX 4 1 5 2 7 3 6 4 9 5 14 6 10 7 13 8 11 9 12 10 8 11 3 13 2 14
REMARK SMILES IDX 1 15
REMARK H PARENT 8 12
REMARK Flexibility Score: inf
ROOT
ATOM      1  C   UNL     1      16.940  73.899  65.812  1.00  0.00     0.076 C 
ENDROOT
BRANCH   1   2
ATOM      2  C   UNL     1      16.820  73.283  64.449  1.00  0.00     0.116 A 
ATOM      3  C   UNL     1      17.401  72.316  62.625  1.00  0.00     0.290 A 
ATOM      4  O   UNL     1      17.846  72.806  63.766  1.00  0.00    -0.430 OA
ATOM      5  C   UNL     1      16.037  72.473  62.552  1.00  0.00     0.066 A 
ATOM      6  C   UNL     1      15.660  73.091  63.714  1.00  0.00     0.027 A 
ATOM      7  C   UNL     1      15.116  72.118  61.568  1.00  0.00     0.016 A 
ATOM      8  C   UNL     1      14.324  73.400  63.976  1.00  0.00     0.012 A 
ATOM      9  C   UNL     1      13.762  72.417  61.805  1.00  0.00     0.001 A 
ATOM     10  C   UNL     1      13.368  73.055  63.002  1.00  0.00     0.001 A 
BRANCH   3  11
ATOM     11  O   UNL     1      18.206  71.730  61.655  1.00  0.00    -0.480 OA
ATOM     12  H   UNL     1      17.794  71.332  60.819  1.00  0.00     0.297 HD
ENDBRANCH   3  11
ENDBRANCH   1   2
BRANCH   1  13
ATOM     13  C   UNL     1      18.015  73.197  66.657  1.00  0.00     0.008 C 
BRANCH  13  14
ATOM     14  C   UNL     1      17.664  73.093  68.152  1.00  0.00    -0.003 C 
ATOM     15  C   UNL     1      16.182  72.798  68.389  1.00  0.00     0.004 C 
ENDBRANCH  13  14
ENDBRANCH   1  13
TORSDOF 4
ENDMDL
MODEL 9
REMARK VINA RESULT:    -5.506      2.336      4.791
REMARK INTER + INTRA:          -6.954
REMARK INTER:                  -6.768
REMARK INTRA:                  -0.186
REMARK UNBOUND:                -0.321
REMARK SMILES CCCCc1oc(O)c2ccccc12
REMARK SMILES IDX 4 1 5 2 7 3 6 4 9 5 14 6 10 7 13 8 11 9 12 10 8 11 3 13 2 14
REMARK SMILES IDX 1 15
REMARK H PARENT 8 12
REMARK Flexibility Score: inf
ROOT
ATOM      1  C   UNL     1      16.853  69.901  61.246  1.00  0.00     0.076 C 
ENDROOT
BRANCH   1   2
ATOM      2  C   UNL     1      15.475  70.495  61.202  1.00  0.00     0.116 A 
ATOM      3  C   UNL     1      13.421  70.761  60.645  1.00  0.00     0.290 A 
ATOM      4  O   UNL     1      14.504  70.041  60.427  1.00  0.00    -0.430 OA
ATOM      5  C   UNL     1      13.682  71.720  61.594  1.00  0.00     0.066 A 
ATOM      6  C   UNL     1      14.993  71.555  61.954  1.00  0.00     0.027 A 
ATOM      7  C   UNL     1      12.876  72.705  62.161  1.00  0.00     0.016 A 
ATOM      8  C   UNL     1      15.594  72.369  62.916  1.00  0.00     0.012 A 
ATOM      9  C   UNL     1      13.455  73.541  63.134  1.00  0.00     0.001 A 
ATOM     10  C   UNL     1      14.807  73.374  63.509  1.00  0.00     0.001 A 
BRANCH   3  11
ATOM     11  O   UNL     1      12.205  70.564  60.001  1.00  0.00    -0.480 OA
ATOM     12  H   UNL     1      12.057  69.744  59.424  1.00  0.00     0.297 HD
ENDBRANCH   3  11
ENDBRANCH   1   2
BRANCH   1  13
ATOM     13  C   UNL     1      17.938  70.982  61.127  1.00  0.00     0.008 C 
BRANCH  13  14
ATOM     14  C   UNL     1      18.881  71.054  62.342  1.00  0.00    -0.003 C 
ATOM     15  C   UNL     1      19.349  72.479  62.641  1.00  0.00     0.004 C 
ENDBRANCH  13  14
ENDBRANCH   1  13
TORSDOF 4
ENDMDL
