MODEL 1
REMARK VINA RESULT:    81.288      0.000      0.000
REMARK INTER + INTRA:         106.889
REMARK INTER:                 107.425
REMARK INTRA:                  -0.536
REMARK UNBOUND:                -0.536
REMARK SMILES C=C(CC[C@H](C)[C@@H]1CC[C@@]2(C)[C@@H]3CC[C@H]4C(C)(C)[C@H](O)CC[C@]45C[C@]35CC[C@@]12C)C(C)C
REMARK SMILES IDX 4 1 3 2 2 3 1 4 30 5 31 6 32 7 5 8 6 9 7 10 8 11 28 12 9 13
REMARK SMILES IDX 10 14 27 15 29 16 11 17 12 18 26 19 25 20 13 21 23 22 24 23
REMARK SMILES IDX 14 24 15 25 22 26 16 27 21 28 19 29 17 30 18 31 20 32
REMARK H PARENT 20 33
REMARK Flexibility Score: inf
ROOT
ATOM      1  C   UNL     1     -28.359  25.799   6.160  1.00  0.00     0.008 C 
ENDROOT
BRANCH   1   2
ATOM      2  C   UNL     1     -26.895  26.193   6.440  1.00  0.00     0.031 C 
BRANCH   2   3
ATOM      3  C   UNL     1     -26.316  27.151   5.407  1.00  0.00    -0.075 C 
ATOM      4  C   UNL     1     -27.124  28.067   4.845  1.00  0.00     0.008 C 
BRANCH   3   5
ATOM      5  C   UNL     1     -24.841  27.140   5.009  1.00  0.00     0.008 C 
ATOM      6  C   UNL     1     -24.130  28.402   5.513  1.00  0.00     0.012 C 
ATOM      7  C   UNL     1     -24.091  25.877   5.456  1.00  0.00     0.012 C 
ENDBRANCH   3   5
ENDBRANCH   2   3
ENDBRANCH   1   2
BRANCH   1   8
ATOM      8  C   UNL     1     -28.964  24.746   7.128  1.00  0.00    -0.010 C 
ATOM      9  C   UNL     1     -27.847  23.824   7.660  1.00  0.00     0.008 C 
BRANCH   8  10
ATOM     10  C   UNL     1     -30.256  24.029   6.586  1.00  0.00    -0.002 C 
ATOM     11  C   UNL     1     -30.050  23.389   5.218  1.00  0.00     0.005 C 
ATOM     12  C   UNL     1     -31.677  24.716   6.538  1.00  0.00    -0.024 C 
ATOM     13  C   UNL     1     -31.431  22.918   4.822  1.00  0.00     0.008 C 
ATOM     14  C   UNL     1     -32.402  24.038   5.269  1.00  0.00    -0.024 C 
ATOM     15  C   UNL     1     -32.433  24.392   7.873  1.00  0.00     0.008 C 
ATOM     16  C   UNL     1     -31.597  26.265   6.426  1.00  0.00     0.012 C 
ATOM     17  C   UNL     1     -32.549  25.009   4.055  1.00  0.00     0.012 C 
ATOM     18  C   UNL     1     -33.797  23.407   5.650  1.00  0.00     0.002 C 
ATOM     19  C   UNL     1     -33.916  24.793   7.862  1.00  0.00     0.008 C 
ATOM     20  C   UNL     1     -34.619  24.366   6.549  1.00  0.00    -0.020 C 
ATOM     21  C   UNL     1     -34.590  22.784   4.482  1.00  0.00     0.005 C 
ATOM     22  C   UNL     1     -36.172  24.241   6.524  1.00  0.00    -0.020 C 
ATOM     23  C   UNL     1     -35.470  25.460   5.898  1.00  0.00     0.015 C 
ATOM     24  C   UNL     1     -35.897  22.187   4.998  1.00  0.00     0.005 C 
ATOM     25  C   UNL     1     -36.848  23.312   5.456  1.00  0.00     0.004 C 
ATOM     26  C   UNL     1     -36.902  24.518   7.864  1.00  0.00     0.010 C 
ATOM     27  C   UNL     1     -38.272  22.809   5.885  1.00  0.00    -0.006 C 
ATOM     28  C   UNL     1     -38.441  24.548   7.792  1.00  0.00     0.033 C 
ATOM     29  C   UNL     1     -39.059  24.013   6.488  1.00  0.00     0.120 C 
ATOM     30  C   UNL     1     -39.055  22.295   4.647  1.00  0.00     0.014 C 
ATOM     31  C   UNL     1     -38.207  21.640   6.904  1.00  0.00     0.014 C 
BRANCH  29  32
ATOM     32  O   UNL     1     -39.125  25.073   5.561  1.00  0.00    -0.393 OA
ATOM     33  H   UNL     1     -40.064  25.132   5.243  1.00  0.00     0.210 HD
ENDBRANCH  29  32
ENDBRANCH   8  10
ENDBRANCH   1   8
TORSDOF 6
ENDMDL
MODEL 2
REMARK VINA RESULT:    82.807      9.874     12.208
REMARK INTER + INTRA:         108.896
REMARK INTER:                 109.267
REMARK INTRA:                  -0.371
REMARK UNBOUND:                -0.536
REMARK SMILES C=C(CC[C@H](C)[C@@H]1CC[C@@]2(C)[C@@H]3CC[C@H]4C(C)(C)[C@H](O)CC[C@]45C[C@]35CC[C@@]12C)C(C)C
REMARK SMILES IDX 4 1 3 2 2 3 1 4 30 5 31 6 32 7 5 8 6 9 7 10 8 11 28 12 9 13
REMARK SMILES IDX 10 14 27 15 29 16 11 17 12 18 26 19 25 20 13 21 23 22 24 23
REMARK SMILES IDX 14 24 15 25 22 26 16 27 21 28 19 29 17 30 18 31 20 32
REMARK H PARENT 20 33
REMARK Flexibility Score: inf
ROOT
ATOM      1  C   UNL     1     -25.597  31.265  -4.621  1.00  0.00     0.008 C 
ENDROOT
BRANCH   1   2
ATOM      2  C   UNL     1     -26.403  30.384  -5.597  1.00  0.00     0.031 C 
BRANCH   2   3
ATOM      3  C   UNL     1     -26.442  30.932  -7.018  1.00  0.00    -0.075 C 
ATOM      4  C   UNL     1     -27.504  31.662  -7.405  1.00  0.00     0.008 C 
BRANCH   3   5
ATOM      5  C   UNL     1     -25.304  30.721  -8.014  1.00  0.00     0.008 C 
ATOM      6  C   UNL     1     -25.353  29.308  -8.607  1.00  0.00     0.012 C 
ATOM      7  C   UNL     1     -25.254  31.777  -9.127  1.00  0.00     0.012 C 
ENDBRANCH   3   5
ENDBRANCH   2   3
ENDBRANCH   1   2
BRANCH   1   8
ATOM      8  C   UNL     1     -26.417  31.906  -3.469  1.00  0.00    -0.010 C 
ATOM      9  C   UNL     1     -26.021  31.262  -2.124  1.00  0.00     0.008 C 
BRANCH   8  10
ATOM     10  C   UNL     1     -27.961  32.022  -3.754  1.00  0.00    -0.002 C 
ATOM     11  C   UNL     1     -28.389  33.434  -4.135  1.00  0.00     0.005 C 
ATOM     12  C   UNL     1     -29.071  31.478  -2.771  1.00  0.00    -0.024 C 
ATOM     13  C   UNL     1     -29.898  33.357  -4.195  1.00  0.00     0.008 C 
ATOM     14  C   UNL     1     -30.321  32.468  -2.999  1.00  0.00    -0.024 C 
ATOM     15  C   UNL     1     -29.421  30.006  -3.180  1.00  0.00     0.008 C 
ATOM     16  C   UNL     1     -28.600  31.438  -1.290  1.00  0.00     0.012 C 
ATOM     17  C   UNL     1     -30.569  33.432  -1.796  1.00  0.00     0.012 C 
ATOM     18  C   UNL     1     -31.640  31.683  -3.365  1.00  0.00     0.002 C 
ATOM     19  C   UNL     1     -30.655  29.437  -2.463  1.00  0.00     0.008 C 
ATOM     20  C   UNL     1     -31.829  30.448  -2.449  1.00  0.00    -0.020 C 
ATOM     21  C   UNL     1     -32.904  32.549  -3.546  1.00  0.00     0.005 C 
ATOM     22  C   UNL     1     -33.278  29.925  -2.215  1.00  0.00    -0.020 C 
ATOM     23  C   UNL     1     -32.501  30.622  -1.084  1.00  0.00     0.015 C 
ATOM     24  C   UNL     1     -34.092  31.666  -3.927  1.00  0.00     0.005 C 
ATOM     25  C   UNL     1     -34.491  30.774  -2.733  1.00  0.00     0.004 C 
ATOM     26  C   UNL     1     -33.435  28.390  -2.057  1.00  0.00     0.010 C 
ATOM     27  C   UNL     1     -35.785  29.920  -2.981  1.00  0.00    -0.006 C 
ATOM     28  C   UNL     1     -34.844  27.899  -1.670  1.00  0.00     0.033 C 
ATOM     29  C   UNL     1     -35.968  28.944  -1.778  1.00  0.00     0.120 C 
ATOM     30  C   UNL     1     -37.032  30.841  -3.046  1.00  0.00     0.014 C 
ATOM     31  C   UNL     1     -35.729  29.130  -4.316  1.00  0.00     0.014 C 
BRANCH  29  32
ATOM     32  O   UNL     1     -36.027  29.661  -0.566  1.00  0.00    -0.393 OA
ATOM     33  H   UNL     1     -35.377  29.243   0.058  1.00  0.00     0.210 HD
ENDBRANCH  29  32
ENDBRANCH   8  10
ENDBRANCH   1   8
TORSDOF 6
ENDMDL
