MODEL 1
REMARK VINA RESULT:    28.447      0.000      0.000
REMARK INTER + INTRA:          32.293
REMARK INTER:                  32.604
REMARK INTRA:                  -0.311
REMARK UNBOUND:                -0.311
REMARK SMILES O=C1C[C@@H](c2ccc(O)cc2)Oc2cc(O)cc(O)c21
REMARK SMILES IDX 3 1 4 2 12 3 13 4 14 5 15 6 17 7 18 8 20 9 2 10 1 11 5 12
REMARK SMILES IDX 6 13 11 14 7 15 10 16 8 17 9 18 19 20 16 22
REMARK H PARENT 9 19 19 21 16 23
REMARK Flexibility Score: inf
ROOT
ATOM      1  C   UNL     1     -26.359   0.451 -14.965  1.00  0.00     0.131 C 
ATOM      2  C   UNL     1     -26.807  -0.062 -13.589  1.00  0.00     0.211 C 
ATOM      3  O   UNL     1     -26.174   0.683 -12.545  1.00  0.00    -0.484 OA
ATOM      4  C   UNL     1     -25.971   2.068 -12.621  1.00  0.00     0.138 A 
ATOM      5  C   UNL     1     -25.608   2.763 -11.466  1.00  0.00     0.093 A 
ATOM      6  C   UNL     1     -25.412   4.147 -11.507  1.00  0.00     0.123 A 
ATOM      7  C   UNL     1     -25.551   4.830 -12.716  1.00  0.00     0.093 A 
ATOM      8  C   UNL     1     -25.875   4.148 -13.895  1.00  0.00     0.133 A 
ATOM      9  C   UNL     1     -26.122   2.750 -13.847  1.00  0.00     0.102 A 
ATOM     10  C   UNL     1     -26.539   1.939 -15.018  1.00  0.00     0.174 C 
ATOM     11  O   UNL     1     -27.088   2.459 -16.025  1.00  0.00    -0.294 OA
ENDROOT
BRANCH   2  12
ATOM     12  C   UNL     1     -26.493  -1.531 -13.439  1.00  0.00    -0.007 A 
ATOM     13  C   UNL     1     -25.607  -1.967 -12.440  1.00  0.00     0.011 A 
ATOM     14  C   UNL     1     -27.124  -2.485 -14.258  1.00  0.00     0.011 A 
ATOM     15  C   UNL     1     -25.338  -3.329 -12.278  1.00  0.00     0.046 A 
ATOM     16  C   UNL     1     -26.854  -3.846 -14.095  1.00  0.00     0.046 A 
ATOM     17  C   UNL     1     -25.959  -4.272 -13.108  1.00  0.00     0.115 A 
BRANCH  17  18
ATOM     18  O   UNL     1     -25.698  -5.632 -12.956  1.00  0.00    -0.508 OA
ATOM     19  H   UNL     1     -24.762  -6.006 -13.055  1.00  0.00     0.293 HD
ENDBRANCH  17  18
ENDBRANCH   2  12
BRANCH   8  20
ATOM     20  O   UNL     1     -25.903   4.888 -15.079  1.00  0.00    -0.507 OA
ATOM     21  H   UNL     1     -26.706   5.409 -15.400  1.00  0.00     0.293 HD
ENDBRANCH   8  20
BRANCH   6  22
ATOM     22  O   UNL     1     -25.072   4.850 -10.354  1.00  0.00    -0.508 OA
ATOM     23  H   UNL     1     -24.203   5.367 -10.285  1.00  0.00     0.293 HD
ENDBRANCH   6  22
TORSDOF 4
ENDMDL
