MODEL 1
REMARK VINA RESULT:    -3.504      0.000      0.000
REMARK INTER + INTRA:          -4.635
REMARK INTER:                  -4.528
REMARK INTRA:                  -0.107
REMARK UNBOUND:                -0.107
REMARK SMILES CCCCCCC(=O)[O-]
REMARK SMILES IDX 5 1 6 2 7 3 8 4 9 5 4 6 3 7 2 8 1 9
REMARK H PARENT
REMARK Flexibility Score: inf
ROOT
ATOM      1  C   UNL     1       7.966  -4.391  -8.673  1.00  0.00     0.006 C 
ENDROOT
BRANCH   1   2
ATOM      2  C   UNL     1       8.591  -5.725  -8.244  1.00  0.00     0.053 C 
BRANCH   2   3
ATOM      3  C   UNL     1       8.992  -5.711  -6.801  1.00  0.00     0.041 C 
ATOM      4  O   UNL     1       9.862  -4.897  -6.393  1.00  0.00    -0.550 OA
ATOM      5  O   UNL     1       8.382  -6.576  -5.902  1.00  0.00    -0.550 OA
ENDBRANCH   2   3
ENDBRANCH   1   2
BRANCH   1   6
ATOM      6  C   UNL     1       6.431  -4.426  -8.628  1.00  0.00     0.000 C 
BRANCH   6   7
ATOM      7  C   UNL     1       5.832  -3.898  -9.940  1.00  0.00    -0.000 C 
BRANCH   7   8
ATOM      8  C   UNL     1       4.407  -3.351  -9.760  1.00  0.00    -0.003 C 
ATOM      9  C   UNL     1       3.330  -4.393 -10.064  1.00  0.00     0.004 C 
ENDBRANCH   7   8
ENDBRANCH   6   7
ENDBRANCH   1   6
TORSDOF 5
ENDMDL
MODEL 2
REMARK VINA RESULT:    -3.483      1.104      1.604
REMARK INTER + INTRA:          -4.607
REMARK INTER:                  -4.451
REMARK INTRA:                  -0.157
REMARK UNBOUND:                -0.107
REMARK SMILES CCCCCCC(=O)[O-]
REMARK SMILES IDX 5 1 6 2 7 3 8 4 9 5 4 6 3 7 2 8 1 9
REMARK H PARENT
REMARK Flexibility Score: inf
ROOT
ATOM      1  C   UNL     1       7.957  -4.783  -7.781  1.00  0.00     0.006 C 
ENDROOT
BRANCH   1   2
ATOM      2  C   UNL     1       9.369  -5.147  -7.305  1.00  0.00     0.053 C 
BRANCH   2   3
ATOM      3  C   UNL     1       9.336  -6.077  -6.131  1.00  0.00     0.041 C 
ATOM      4  O   UNL     1       8.523  -7.038  -6.106  1.00  0.00    -0.550 OA
ATOM      5  O   UNL     1      10.227  -5.900  -5.079  1.00  0.00    -0.550 OA
ENDBRANCH   2   3
ENDBRANCH   1   2
BRANCH   1   6
ATOM      6  C   UNL     1       7.851  -4.744  -9.313  1.00  0.00     0.000 C 
BRANCH   6   7
ATOM      7  C   UNL     1       6.669  -3.871  -9.759  1.00  0.00    -0.000 C 
BRANCH   7   8
ATOM      8  C   UNL     1       5.478  -3.948  -8.792  1.00  0.00    -0.003 C 
ATOM      9  C   UNL     1       4.255  -3.181  -9.296  1.00  0.00     0.004 C 
ENDBRANCH   7   8
ENDBRANCH   6   7
ENDBRANCH   1   6
TORSDOF 5
ENDMDL
MODEL 3
REMARK VINA RESULT:    -3.336      1.203      2.017
REMARK INTER + INTRA:          -4.418
REMARK INTER:                  -4.355
REMARK INTRA:                  -0.063
REMARK UNBOUND:                -0.107
REMARK SMILES CCCCCCC(=O)[O-]
REMARK SMILES IDX 5 1 6 2 7 3 8 4 9 5 4 6 3 7 2 8 1 9
REMARK H PARENT
REMARK Flexibility Score: inf
ROOT
ATOM      1  C   UNL     1       8.331  -5.411  -7.168  1.00  0.00     0.006 C 
ENDROOT
BRANCH   1   2
ATOM      2  C   UNL     1       9.863  -5.378  -7.102  1.00  0.00     0.053 C 
BRANCH   2   3
ATOM      3  C   UNL     1      10.356  -5.304  -5.689  1.00  0.00     0.041 C 
ATOM      4  O   UNL     1      10.268  -6.307  -4.934  1.00  0.00    -0.550 OA
ATOM      5  O   UNL     1      10.943  -4.136  -5.219  1.00  0.00    -0.550 OA
ENDBRANCH   2   3
ENDBRANCH   1   2
BRANCH   1   6
ATOM      6  C   UNL     1       7.787  -4.734  -8.434  1.00  0.00     0.000 C 
BRANCH   6   7
ATOM      7  C   UNL     1       6.321  -4.317  -8.248  1.00  0.00    -0.000 C 
BRANCH   7   8
ATOM      8  C   UNL     1       5.660  -3.875  -9.563  1.00  0.00    -0.003 C 
ATOM      9  C   UNL     1       4.246  -3.330  -9.361  1.00  0.00     0.004 C 
ENDBRANCH   7   8
ENDBRANCH   6   7
ENDBRANCH   1   6
TORSDOF 5
ENDMDL
MODEL 4
REMARK VINA RESULT:    -3.241      3.286      5.303
REMARK INTER + INTRA:          -4.295
REMARK INTER:                  -4.180
REMARK INTRA:                  -0.114
REMARK UNBOUND:                -0.107
REMARK SMILES CCCCCCC(=O)[O-]
REMARK SMILES IDX 5 1 6 2 7 3 8 4 9 5 4 6 3 7 2 8 1 9
REMARK H PARENT
REMARK Flexibility Score: inf
ROOT
ATOM      1  C   UNL     1       6.415  -4.339  -8.375  1.00  0.00     0.006 C 
ENDROOT
BRANCH   1   2
ATOM      2  C   UNL     1       5.738  -3.620  -9.549  1.00  0.00     0.053 C 
BRANCH   2   3
ATOM      3  C   UNL     1       4.273  -3.422  -9.307  1.00  0.00     0.041 C 
ATOM      4  O   UNL     1       3.435  -4.222  -9.799  1.00  0.00    -0.550 OA
ATOM      5  O   UNL     1       3.836  -2.370  -8.510  1.00  0.00    -0.550 OA
ENDBRANCH   2   3
ENDBRANCH   1   2
BRANCH   1   6
ATOM      6  C   UNL     1       7.714  -5.043  -8.795  1.00  0.00     0.000 C 
BRANCH   6   7
ATOM      7  C   UNL     1       8.731  -5.051  -7.644  1.00  0.00    -0.000 C 
BRANCH   7   8
ATOM      8  C   UNL     1       8.385  -6.079  -6.556  1.00  0.00    -0.003 C 
ATOM      9  C   UNL     1       9.106  -7.413  -6.750  1.00  0.00     0.004 C 
ENDBRANCH   7   8
ENDBRANCH   6   7
ENDBRANCH   1   6
TORSDOF 5
ENDMDL
MODEL 5
REMARK VINA RESULT:    -3.240      1.826      3.101
REMARK INTER + INTRA:          -4.293
REMARK INTER:                  -4.177
REMARK INTRA:                  -0.117
REMARK UNBOUND:                -0.107
REMARK SMILES CCCCCCC(=O)[O-]
REMARK SMILES IDX 5 1 6 2 7 3 8 4 9 5 4 6 3 7 2 8 1 9
REMARK H PARENT
REMARK Flexibility Score: inf
ROOT
ATOM      1  C   UNL     1       9.337  -6.212  -6.487  1.00  0.00     0.006 C 
ENDROOT
BRANCH   1   2
ATOM      2  C   UNL     1      10.745  -6.104  -5.886  1.00  0.00     0.053 C 
BRANCH   2   3
ATOM      3  C   UNL     1      10.784  -5.151  -4.732  1.00  0.00     0.041 C 
ATOM      4  O   UNL     1      10.524  -5.553  -3.568  1.00  0.00    -0.550 OA
ATOM      5  O   UNL     1      11.140  -3.824  -4.939  1.00  0.00    -0.550 OA
ENDBRANCH   2   3
ENDBRANCH   1   2
BRANCH   1   6
ATOM      6  C   UNL     1       9.046  -5.087  -7.492  1.00  0.00     0.000 C 
BRANCH   6   7
ATOM      7  C   UNL     1       7.546  -4.759  -7.528  1.00  0.00    -0.000 C 
BRANCH   7   8
ATOM      8  C   UNL     1       7.016  -4.576  -8.959  1.00  0.00    -0.003 C 
ATOM      9  C   UNL     1       5.600  -4.000  -8.996  1.00  0.00     0.004 C 
ENDBRANCH   7   8
ENDBRANCH   6   7
ENDBRANCH   1   6
TORSDOF 5
ENDMDL
MODEL 6
REMARK VINA RESULT:    -2.884     12.726     14.591
REMARK INTER + INTRA:          -3.834
REMARK INTER:                  -3.489
REMARK INTRA:                  -0.345
REMARK UNBOUND:                -0.107
REMARK SMILES CCCCCCC(=O)[O-]
REMARK SMILES IDX 5 1 6 2 7 3 8 4 9 5 4 6 3 7 2 8 1 9
REMARK H PARENT
REMARK Flexibility Score: inf
ROOT
ATOM      1  C   UNL     1      -8.014  -3.623  -6.243  1.00  0.00     0.006 C 
ENDROOT
BRANCH   1   2
ATOM      2  C   UNL     1      -7.305  -2.337  -6.685  1.00  0.00     0.053 C 
BRANCH   2   3
ATOM      3  C   UNL     1      -6.800  -2.438  -8.092  1.00  0.00     0.041 C 
ATOM      4  O   UNL     1      -7.267  -1.687  -8.989  1.00  0.00    -0.550 OA
ATOM      5  O   UNL     1      -5.790  -3.340  -8.405  1.00  0.00    -0.550 OA
ENDBRANCH   2   3
ENDBRANCH   1   2
BRANCH   1   6
ATOM      6  C   UNL     1      -7.588  -4.069  -4.836  1.00  0.00     0.000 C 
BRANCH   6   7
ATOM      7  C   UNL     1      -6.225  -4.776  -4.874  1.00  0.00    -0.000 C 
BRANCH   7   8
ATOM      8  C   UNL     1      -6.169  -5.897  -5.923  1.00  0.00    -0.003 C 
ATOM      9  C   UNL     1      -4.747  -6.190  -6.400  1.00  0.00     0.004 C 
ENDBRANCH   7   8
ENDBRANCH   6   7
ENDBRANCH   1   6
TORSDOF 5
ENDMDL
MODEL 7
REMARK VINA RESULT:    -2.875      3.595      6.289
REMARK INTER + INTRA:          -3.822
REMARK INTER:                  -3.626
REMARK INTRA:                  -0.196
REMARK UNBOUND:                -0.107
REMARK SMILES CCCCCCC(=O)[O-]
REMARK SMILES IDX 5 1 6 2 7 3 8 4 9 5 4 6 3 7 2 8 1 9
REMARK H PARENT
REMARK Flexibility Score: inf
ROOT
ATOM      1  C   UNL     1      11.010  -6.510  -6.304  1.00  0.00     0.006 C 
ENDROOT
BRANCH   1   2
ATOM      2  C   UNL     1      10.173  -5.485  -7.081  1.00  0.00     0.053 C 
BRANCH   2   3
ATOM      3  C   UNL     1       8.705  -5.723  -6.909  1.00  0.00     0.041 C 
ATOM      4  O   UNL     1       7.875  -5.119  -7.638  1.00  0.00    -0.550 OA
ATOM      5  O   UNL     1       8.255  -6.637  -5.964  1.00  0.00    -0.550 OA
ENDBRANCH   2   3
ENDBRANCH   1   2
BRANCH   1   6
ATOM      6  C   UNL     1      11.889  -5.851  -5.231  1.00  0.00     0.000 C 
BRANCH   6   7
ATOM      7  C   UNL     1      11.346  -4.466  -4.851  1.00  0.00    -0.000 C 
BRANCH   7   8
ATOM      8  C   UNL     1      11.777  -4.028  -3.442  1.00  0.00    -0.003 C 
ATOM      9  C   UNL     1      11.944  -5.206  -2.482  1.00  0.00     0.004 C 
ENDBRANCH   7   8
ENDBRANCH   6   7
ENDBRANCH   1   6
TORSDOF 5
ENDMDL
MODEL 8
REMARK VINA RESULT:    -2.865     12.869     14.552
REMARK INTER + INTRA:          -3.809
REMARK INTER:                  -3.544
REMARK INTRA:                  -0.266
REMARK UNBOUND:                -0.107
REMARK SMILES CCCCCCC(=O)[O-]
REMARK SMILES IDX 5 1 6 2 7 3 8 4 9 5 4 6 3 7 2 8 1 9
REMARK H PARENT
REMARK Flexibility Score: inf
ROOT
ATOM      1  C   UNL     1      -7.027  -4.259  -4.960  1.00  0.00     0.006 C 
ENDROOT
BRANCH   1   2
ATOM      2  C   UNL     1      -8.062  -3.582  -5.867  1.00  0.00     0.053 C 
BRANCH   2   3
ATOM      3  C   UNL     1      -7.502  -2.365  -6.537  1.00  0.00     0.041 C 
ATOM      4  O   UNL     1      -7.852  -1.216  -6.160  1.00  0.00    -0.550 OA
ATOM      5  O   UNL     1      -6.569  -2.501  -7.558  1.00  0.00    -0.550 OA
ENDBRANCH   2   3
ENDBRANCH   1   2
BRANCH   1   6
ATOM      6  C   UNL     1      -6.765  -5.718  -5.363  1.00  0.00     0.000 C 
BRANCH   6   7
ATOM      7  C   UNL     1      -5.264  -6.039  -5.319  1.00  0.00    -0.000 C 
BRANCH   7   8
ATOM      8  C   UNL     1      -4.678  -6.318  -6.711  1.00  0.00    -0.003 C 
ATOM      9  C   UNL     1      -5.711  -6.170  -7.829  1.00  0.00     0.004 C 
ENDBRANCH   7   8
ENDBRANCH   6   7
ENDBRANCH   1   6
TORSDOF 5
ENDMDL
MODEL 9
REMARK VINA RESULT:    -2.843      2.888      5.941
REMARK INTER + INTRA:          -3.781
REMARK INTER:                  -3.640
REMARK INTRA:                  -0.141
REMARK UNBOUND:                -0.107
REMARK SMILES CCCCCCC(=O)[O-]
REMARK SMILES IDX 5 1 6 2 7 3 8 4 9 5 4 6 3 7 2 8 1 9
REMARK H PARENT
REMARK Flexibility Score: inf
ROOT
ATOM      1  C   UNL     1       9.911  -5.372  -6.939  1.00  0.00     0.006 C 
ENDROOT
BRANCH   1   2
ATOM      2  C   UNL     1       8.393  -5.590  -6.994  1.00  0.00     0.053 C 
BRANCH   2   3
ATOM      3  C   UNL     1       7.749  -4.744  -8.050  1.00  0.00     0.041 C 
ATOM      4  O   UNL     1       8.419  -4.346  -9.038  1.00  0.00    -0.550 OA
ATOM      5  O   UNL     1       6.400  -4.425  -7.957  1.00  0.00    -0.550 OA
ENDBRANCH   2   3
ENDBRANCH   1   2
BRANCH   1   6
ATOM      6  C   UNL     1      10.538  -5.964  -5.668  1.00  0.00     0.000 C 
BRANCH   6   7
ATOM      7  C   UNL     1      11.717  -5.105  -5.186  1.00  0.00    -0.000 C 
BRANCH   7   8
ATOM      8  C   UNL     1      11.347  -4.210  -3.994  1.00  0.00    -0.003 C 
ATOM      9  C   UNL     1      11.021  -5.009  -2.732  1.00  0.00     0.004 C 
ENDBRANCH   7   8
ENDBRANCH   6   7
ENDBRANCH   1   6
TORSDOF 5
ENDMDL
