MODEL 1
REMARK VINA RESULT:    -3.930      0.000      0.000
REMARK INTER + INTRA:          -4.313
REMARK INTER:                  -4.160
REMARK INTRA:                  -0.153
REMARK UNBOUND:                -0.153
REMARK SMILES CC1=CCC(C(C)C)=CC1
REMARK SMILES IDX 1 1 2 2 3 3 4 4 5 5 9 6 10 7 6 8 7 9 8 10
REMARK H PARENT
REMARK Flexibility Score: inf
ROOT
ATOM      1  C   UNL     1     139.999 154.368 158.859  1.00  0.00     0.039 C 
ATOM      2  C   UNL     1     139.383 154.066 160.197  1.00  0.00    -0.073 C 
ATOM      3  C   UNL     1     138.889 152.839 160.446  1.00  0.00    -0.023 C 
ATOM      4  C   UNL     1     138.310 152.496 161.796  1.00  0.00     0.058 C 
ATOM      5  C   UNL     1     137.675 153.706 162.454  1.00  0.00    -0.068 C 
ATOM      6  C   UNL     1     138.176 154.936 162.202  1.00  0.00    -0.023 C 
ATOM      7  C   UNL     1     139.357 155.122 161.282  1.00  0.00     0.057 C 
ENDROOT
BRANCH   5   8
ATOM      8  C   UNL     1     136.515 153.508 163.417  1.00  0.00     0.009 C 
ATOM      9  C   UNL     1     135.169 153.511 162.682  1.00  0.00     0.012 C 
ATOM     10  C   UNL     1     136.692 152.227 164.242  1.00  0.00     0.012 C 
ENDBRANCH   5   8
TORSDOF 1
ENDMDL
MODEL 2
REMARK VINA RESULT:    -3.849     21.242     22.438
REMARK INTER + INTRA:          -4.227
REMARK INTER:                  -4.058
REMARK INTRA:                  -0.169
REMARK UNBOUND:                -0.153
REMARK SMILES CC1=CCC(C(C)C)=CC1
REMARK SMILES IDX 1 1 2 2 3 3 4 4 5 5 9 6 10 7 6 8 7 9 8 10
REMARK H PARENT
REMARK Flexibility Score: inf
ROOT
ATOM      1  C   UNL     1     154.056 139.109 165.184  1.00  0.00     0.039 C 
ATOM      2  C   UNL     1     153.842 138.381 163.887  1.00  0.00    -0.073 C 
ATOM      3  C   UNL     1     153.330 139.035 162.827  1.00  0.00    -0.023 C 
ATOM      4  C   UNL     1     153.152 138.340 161.500  1.00  0.00     0.058 C 
ATOM      5  C   UNL     1     152.861 136.862 161.679  1.00  0.00    -0.068 C 
ATOM      6  C   UNL     1     153.380 136.210 162.745  1.00  0.00    -0.023 C 
ATOM      7  C   UNL     1     154.243 136.927 163.752  1.00  0.00     0.057 C 
ENDROOT
BRANCH   5   8
ATOM      8  C   UNL     1     152.029 136.133 160.636  1.00  0.00     0.009 C 
ATOM      9  C   UNL     1     151.374 134.876 161.220  1.00  0.00     0.012 C 
ATOM     10  C   UNL     1     150.982 137.065 160.014  1.00  0.00     0.012 C 
ENDBRANCH   5   8
TORSDOF 1
ENDMDL
MODEL 3
REMARK VINA RESULT:    -3.758     21.182     22.496
REMARK INTER + INTRA:          -4.130
REMARK INTER:                  -3.987
REMARK INTRA:                  -0.143
REMARK UNBOUND:                -0.153
REMARK SMILES CC1=CCC(C(C)C)=CC1
REMARK SMILES IDX 1 1 2 2 3 3 4 4 5 5 9 6 10 7 6 8 7 9 8 10
REMARK H PARENT
REMARK Flexibility Score: inf
ROOT
ATOM      1  C   UNL     1     150.268 136.727 158.856  1.00  0.00     0.039 C 
ATOM      2  C   UNL     1     151.150 136.880 160.065  1.00  0.00    -0.073 C 
ATOM      3  C   UNL     1     151.701 138.076 160.346  1.00  0.00    -0.023 C 
ATOM      4  C   UNL     1     152.548 138.267 161.579  1.00  0.00     0.058 C 
ATOM      5  C   UNL     1     153.288 136.996 161.950  1.00  0.00    -0.068 C 
ATOM      6  C   UNL     1     152.729 135.798 161.667  1.00  0.00    -0.023 C 
ATOM      7  C   UNL     1     151.383 135.707 160.993  1.00  0.00     0.057 C 
ENDROOT
BRANCH   5   8
ATOM      8  C   UNL     1     154.623 137.094 162.671  1.00  0.00     0.009 C 
ATOM      9  C   UNL     1     154.849 138.498 163.245  1.00  0.00     0.012 C 
ATOM     10  C   UNL     1     154.743 136.023 163.763  1.00  0.00     0.012 C 
ENDBRANCH   5   8
TORSDOF 1
ENDMDL
MODEL 4
REMARK VINA RESULT:    -3.293      0.713      1.707
REMARK INTER + INTRA:          -3.638
REMARK INTER:                  -3.503
REMARK INTRA:                  -0.136
REMARK UNBOUND:                -0.153
REMARK SMILES CC1=CCC(C(C)C)=CC1
REMARK SMILES IDX 1 1 2 2 3 3 4 4 5 5 9 6 10 7 6 8 7 9 8 10
REMARK H PARENT
REMARK Flexibility Score: inf
ROOT
ATOM      1  C   UNL     1     140.802 153.625 159.311  1.00  0.00     0.039 C 
ATOM      2  C   UNL     1     139.622 153.753 160.235  1.00  0.00    -0.073 C 
ATOM      3  C   UNL     1     139.473 154.863 160.982  1.00  0.00    -0.023 C 
ATOM      4  C   UNL     1     138.274 155.038 161.879  1.00  0.00     0.058 C 
ATOM      5  C   UNL     1     137.775 153.707 162.409  1.00  0.00    -0.068 C 
ATOM      6  C   UNL     1     137.925 152.596 161.653  1.00  0.00    -0.023 C 
ATOM      7  C   UNL     1     138.576 152.660 160.295  1.00  0.00     0.057 C 
ENDROOT
BRANCH   5   8
ATOM      8  C   UNL     1     137.078 153.656 163.759  1.00  0.00     0.009 C 
ATOM      9  C   UNL     1     135.775 154.464 163.748  1.00  0.00     0.012 C 
ATOM     10  C   UNL     1     136.828 152.208 164.199  1.00  0.00     0.012 C 
ENDBRANCH   5   8
TORSDOF 1
ENDMDL
MODEL 5
REMARK VINA RESULT:    -3.242     21.070     22.354
REMARK INTER + INTRA:          -3.584
REMARK INTER:                  -3.441
REMARK INTRA:                  -0.143
REMARK UNBOUND:                -0.153
REMARK SMILES CC1=CCC(C(C)C)=CC1
REMARK SMILES IDX 1 1 2 2 3 3 4 4 5 5 9 6 10 7 6 8 7 9 8 10
REMARK H PARENT
REMARK Flexibility Score: inf
ROOT
ATOM      1  C   UNL     1     155.125 136.352 163.686  1.00  0.00     0.039 C 
ATOM      2  C   UNL     1     153.821 136.536 162.959  1.00  0.00    -0.073 C 
ATOM      3  C   UNL     1     153.066 135.463 162.655  1.00  0.00    -0.023 C 
ATOM      4  C   UNL     1     151.732 135.624 161.970  1.00  0.00     0.058 C 
ATOM      5  C   UNL     1     151.716 136.834 161.056  1.00  0.00    -0.068 C 
ATOM      6  C   UNL     1     152.475 137.909 161.368  1.00  0.00    -0.023 C 
ATOM      7  C   UNL     1     153.330 137.924 162.610  1.00  0.00     0.057 C 
ENDROOT
BRANCH   5   8
ATOM      8  C   UNL     1     150.817 136.831 159.831  1.00  0.00     0.009 C 
ATOM      9  C   UNL     1     149.840 138.013 159.850  1.00  0.00     0.012 C 
ATOM     10  C   UNL     1     151.642 136.816 158.537  1.00  0.00     0.012 C 
ENDBRANCH   5   8
TORSDOF 1
ENDMDL
MODEL 6
REMARK VINA RESULT:    -3.103      1.016      4.521
REMARK INTER + INTRA:          -3.437
REMARK INTER:                  -3.290
REMARK INTRA:                  -0.147
REMARK UNBOUND:                -0.153
REMARK SMILES CC1=CCC(C(C)C)=CC1
REMARK SMILES IDX 1 1 2 2 3 3 4 4 5 5 9 6 10 7 6 8 7 9 8 10
REMARK H PARENT
REMARK Flexibility Score: inf
ROOT
ATOM      1  C   UNL     1     135.155 153.620 163.344  1.00  0.00     0.039 C 
ATOM      2  C   UNL     1     136.538 153.673 162.758  1.00  0.00    -0.073 C 
ATOM      3  C   UNL     1     137.120 154.864 162.519  1.00  0.00    -0.023 C 
ATOM      4  C   UNL     1     138.525 154.944 161.977  1.00  0.00     0.058 C 
ATOM      5  C   UNL     1     138.848 153.760 161.084  1.00  0.00    -0.068 C 
ATOM      6  C   UNL     1     138.262 152.567 161.331  1.00  0.00    -0.023 C 
ATOM      7  C   UNL     1     137.299 152.395 162.478  1.00  0.00     0.057 C 
ENDROOT
BRANCH   5   8
ATOM      8  C   UNL     1     139.855 153.929 159.958  1.00  0.00     0.009 C 
ATOM      9  C   UNL     1     140.885 152.793 159.953  1.00  0.00     0.012 C 
ATOM     10  C   UNL     1     139.152 154.045 158.599  1.00  0.00     0.012 C 
ENDBRANCH   5   8
TORSDOF 1
ENDMDL
MODEL 7
REMARK VINA RESULT:    -3.072     16.569     17.550
REMARK INTER + INTRA:          -3.405
REMARK INTER:                  -3.253
REMARK INTRA:                  -0.152
REMARK UNBOUND:                -0.153
REMARK SMILES CC1=CCC(C(C)C)=CC1
REMARK SMILES IDX 1 1 2 2 3 3 4 4 5 5 9 6 10 7 6 8 7 9 8 10
REMARK H PARENT
REMARK Flexibility Score: inf
ROOT
ATOM      1  C   UNL     1     139.337 137.482 164.229  1.00  0.00     0.039 C 
ATOM      2  C   UNL     1     138.211 136.849 163.458  1.00  0.00    -0.073 C 
ATOM      3  C   UNL     1     138.444 136.327 162.239  1.00  0.00    -0.023 C 
ATOM      4  C   UNL     1     137.343 135.644 161.466  1.00  0.00     0.058 C 
ATOM      5  C   UNL     1     135.987 136.248 161.775  1.00  0.00    -0.068 C 
ATOM      6  C   UNL     1     135.759 136.769 163.002  1.00  0.00    -0.023 C 
ATOM      7  C   UNL     1     136.827 136.755 164.065  1.00  0.00     0.057 C 
ENDROOT
BRANCH   5   8
ATOM      8  C   UNL     1     134.898 136.218 160.715  1.00  0.00     0.009 C 
ATOM      9  C   UNL     1     135.034 137.391 159.737  1.00  0.00     0.012 C 
ATOM     10  C   UNL     1     134.886 134.876 159.971  1.00  0.00     0.012 C 
ENDBRANCH   5   8
TORSDOF 1
ENDMDL
MODEL 8
REMARK VINA RESULT:    -2.533      1.145      4.328
REMARK INTER + INTRA:          -2.834
REMARK INTER:                  -2.685
REMARK INTRA:                  -0.148
REMARK UNBOUND:                -0.153
REMARK SMILES CC1=CCC(C(C)C)=CC1
REMARK SMILES IDX 1 1 2 2 3 3 4 4 5 5 9 6 10 7 6 8 7 9 8 10
REMARK H PARENT
REMARK Flexibility Score: inf
ROOT
ATOM      1  C   UNL     1     136.798 152.134 164.679  1.00  0.00     0.039 C 
ATOM      2  C   UNL     1     137.271 152.690 163.365  1.00  0.00    -0.073 C 
ATOM      3  C   UNL     1     137.432 151.870 162.309  1.00  0.00    -0.023 C 
ATOM      4  C   UNL     1     137.858 152.411 160.967  1.00  0.00     0.058 C 
ATOM      5  C   UNL     1     138.753 153.627 161.114  1.00  0.00    -0.068 C 
ATOM      6  C   UNL     1     138.584 154.448 162.175  1.00  0.00    -0.023 C 
ATOM      7  C   UNL     1     137.522 154.175 163.210  1.00  0.00     0.057 C 
ENDROOT
BRANCH   5   8
ATOM      8  C   UNL     1     139.791 153.923 160.043  1.00  0.00     0.009 C 
ATOM      9  C   UNL     1     140.859 152.825 159.980  1.00  0.00     0.012 C 
ATOM     10  C   UNL     1     139.131 154.133 158.674  1.00  0.00     0.012 C 
ENDBRANCH   5   8
TORSDOF 1
ENDMDL
