MODEL 1
REMARK VINA RESULT:    -4.263      0.000      0.000
REMARK INTER + INTRA:          -5.465
REMARK INTER:                  -5.135
REMARK INTRA:                  -0.330
REMARK UNBOUND:                -0.330
REMARK SMILES NC(=O)C[C@@H]([NH3+])C(=O)[O-]
REMARK SMILES IDX 4 1 5 2 6 3 7 7 8 8 9 9 2 10 3 11 1 12
REMARK H PARENT 6 4 6 5 6 6 1 13 1 14
REMARK Flexibility Score: inf
ROOT
ATOM      1  C   UNL     1     -23.163 -14.655 -13.498  1.00  0.00     0.171 C 
ENDROOT
BRANCH   1   2
ATOM      2  C   UNL     1     -22.661 -14.512 -14.949  1.00  0.00     0.237 C 
BRANCH   2   3
ATOM      3  N   UNL     1     -21.335 -15.123 -15.123  1.00  0.00    -0.350 N 
ATOM      4  H   UNL     1     -20.579 -14.446 -14.869  1.00  0.00     0.345 HD
ATOM      5  H   UNL     1     -21.206 -15.426 -16.114  1.00  0.00     0.345 HD
ATOM      6  H   UNL     1     -21.253 -15.971 -14.516  1.00  0.00     0.345 HD
ENDBRANCH   2   3
BRANCH   2   7
ATOM      7  C   UNL     1     -23.651 -15.137 -15.896  1.00  0.00     0.100 C 
ATOM      8  O   UNL     1     -23.495 -15.032 -17.143  1.00  0.00    -0.544 OA
ATOM      9  O   UNL     1     -24.734 -15.850 -15.398  1.00  0.00    -0.544 OA
ENDBRANCH   2   7
ENDBRANCH   1   2
BRANCH   1  10
ATOM     10  C   UNL     1     -22.373 -15.679 -12.735  1.00  0.00     0.223 C 
ATOM     11  O   UNL     1     -22.317 -16.865 -13.156  1.00  0.00    -0.275 OA
ATOM     12  N   UNL     1     -21.714 -15.327 -11.519  1.00  0.00    -0.369 N 
ATOM     13  H   UNL     1     -21.770 -14.354 -11.143  1.00  0.00     0.159 HD
ATOM     14  H   UNL     1     -21.174 -16.045 -10.986  1.00  0.00     0.159 HD
ENDBRANCH   1  10
TORSDOF 4
ENDMDL
MODEL 2
REMARK VINA RESULT:    -4.082      1.470      1.849
REMARK INTER + INTRA:          -5.248
REMARK INTER:                  -4.783
REMARK INTRA:                  -0.465
REMARK UNBOUND:                -0.330
REMARK SMILES NC(=O)C[C@@H]([NH3+])C(=O)[O-]
REMARK SMILES IDX 4 1 5 2 6 3 7 7 8 8 9 9 2 10 3 11 1 12
REMARK H PARENT 6 4 6 5 6 6 1 13 1 14
REMARK Flexibility Score: inf
ROOT
ATOM      1  C   UNL     1     -22.884 -14.038 -13.175  1.00  0.00     0.171 C 
ENDROOT
BRANCH   1   2
ATOM      2  C   UNL     1     -22.712 -14.737 -14.538  1.00  0.00     0.237 C 
BRANCH   2   3
ATOM      3  N   UNL     1     -21.297 -15.005 -14.832  1.00  0.00    -0.350 N 
ATOM      4  H   UNL     1     -21.205 -15.671 -15.634  1.00  0.00     0.345 HD
ATOM      5  H   UNL     1     -20.827 -15.410 -13.992  1.00  0.00     0.345 HD
ATOM      6  H   UNL     1     -20.810 -14.111 -15.071  1.00  0.00     0.345 HD
ENDBRANCH   2   3
BRANCH   2   7
ATOM      7  C   UNL     1     -23.501 -16.020 -14.558  1.00  0.00     0.100 C 
ATOM      8  O   UNL     1     -24.514 -16.136 -15.298  1.00  0.00    -0.544 OA
ATOM      9  O   UNL     1     -23.101 -17.092 -13.770  1.00  0.00    -0.544 OA
ENDBRANCH   2   7
ENDBRANCH   1   2
BRANCH   1  10
ATOM     10  C   UNL     1     -21.800 -14.426 -12.211  1.00  0.00     0.223 C 
ATOM     11  O   UNL     1     -20.669 -13.875 -12.287  1.00  0.00    -0.275 OA
ATOM     12  N   UNL     1     -22.030 -15.438 -11.232  1.00  0.00    -0.369 N 
ATOM     13  H   UNL     1     -22.953 -15.922 -11.169  1.00  0.00     0.159 HD
ATOM     14  H   UNL     1     -21.269 -15.712 -10.570  1.00  0.00     0.159 HD
ENDBRANCH   1  10
TORSDOF 4
ENDMDL
MODEL 3
REMARK VINA RESULT:    -4.047     16.059     16.402
REMARK INTER + INTRA:          -5.206
REMARK INTER:                  -4.937
REMARK INTRA:                  -0.269
REMARK UNBOUND:                -0.330
REMARK SMILES NC(=O)C[C@@H]([NH3+])C(=O)[O-]
REMARK SMILES IDX 4 1 5 2 6 3 7 7 8 8 9 9 2 10 3 11 1 12
REMARK H PARENT 6 4 6 5 6 6 1 13 1 14
REMARK Flexibility Score: inf
ROOT
ATOM      1  C   UNL     1     -27.601 -31.115 -17.024  1.00  0.00     0.171 C 
ENDROOT
BRANCH   1   2
ATOM      2  C   UNL     1     -28.115 -30.258 -18.199  1.00  0.00     0.237 C 
BRANCH   2   3
ATOM      3  N   UNL     1     -27.620 -28.876 -18.114  1.00  0.00    -0.350 N 
ATOM      4  H   UNL     1     -27.398 -28.503 -19.066  1.00  0.00     0.345 HD
ATOM      5  H   UNL     1     -26.761 -28.838 -17.521  1.00  0.00     0.345 HD
ATOM      6  H   UNL     1     -28.344 -28.267 -17.669  1.00  0.00     0.345 HD
ENDBRANCH   2   3
BRANCH   2   7
ATOM      7  C   UNL     1     -27.701 -30.881 -19.506  1.00  0.00     0.100 C 
ATOM      8  O   UNL     1     -28.445 -31.723 -20.076  1.00  0.00    -0.544 OA
ATOM      9  O   UNL     1     -26.500 -30.514 -20.101  1.00  0.00    -0.544 OA
ENDBRANCH   2   7
ENDBRANCH   1   2
BRANCH   1  10
ATOM     10  C   UNL     1     -28.050 -30.568 -15.700  1.00  0.00     0.223 C 
ATOM     11  O   UNL     1     -29.125 -29.916 -15.625  1.00  0.00    -0.275 OA
ATOM     12  N   UNL     1     -27.250 -30.751 -14.533  1.00  0.00    -0.369 N 
ATOM     13  H   UNL     1     -26.344 -31.269 -14.580  1.00  0.00     0.159 HD
ATOM     14  H   UNL     1     -27.561 -30.360 -13.615  1.00  0.00     0.159 HD
ENDBRANCH   1  10
TORSDOF 4
ENDMDL
MODEL 4
REMARK VINA RESULT:    -4.031      2.262      3.556
REMARK INTER + INTRA:          -5.186
REMARK INTER:                  -4.908
REMARK INTRA:                  -0.278
REMARK UNBOUND:                -0.330
REMARK SMILES NC(=O)C[C@@H]([NH3+])C(=O)[O-]
REMARK SMILES IDX 4 1 5 2 6 3 7 7 8 8 9 9 2 10 3 11 1 12
REMARK H PARENT 6 4 6 5 6 6 1 13 1 14
REMARK Flexibility Score: inf
ROOT
ATOM      1  C   UNL     1     -22.275 -16.814 -13.533  1.00  0.00     0.171 C 
ENDROOT
BRANCH   1   2
ATOM      2  C   UNL     1     -22.326 -15.441 -12.832  1.00  0.00     0.237 C 
BRANCH   2   3
ATOM      3  N   UNL     1     -22.095 -15.565 -11.386  1.00  0.00    -0.350 N 
ATOM      4  H   UNL     1     -21.972 -16.568 -11.115  1.00  0.00     0.345 HD
ATOM      5  H   UNL     1     -22.902 -15.162 -10.858  1.00  0.00     0.345 HD
ATOM      6  H   UNL     1     -21.237 -15.030 -11.117  1.00  0.00     0.345 HD
ENDBRANCH   2   3
BRANCH   2   7
ATOM      7  C   UNL     1     -21.308 -14.516 -13.446  1.00  0.00     0.100 C 
ATOM      8  O   UNL     1     -20.247 -14.235 -12.827  1.00  0.00    -0.544 OA
ATOM      9  O   UNL     1     -21.527 -13.982 -14.709  1.00  0.00    -0.544 OA
ENDBRANCH   2   7
ENDBRANCH   1   2
BRANCH   1  10
ATOM     10  C   UNL     1     -23.444 -17.012 -14.453  1.00  0.00     0.223 C 
ATOM     11  O   UNL     1     -24.139 -18.059 -14.364  1.00  0.00    -0.275 OA
ATOM     12  N   UNL     1     -23.753 -16.040 -15.451  1.00  0.00    -0.369 N 
ATOM     13  H   UNL     1     -23.173 -15.178 -15.556  1.00  0.00     0.159 HD
ATOM     14  H   UNL     1     -24.561 -16.187 -16.097  1.00  0.00     0.159 HD
ENDBRANCH   1  10
TORSDOF 4
ENDMDL
MODEL 5
REMARK VINA RESULT:    -3.987      1.858      3.831
REMARK INTER + INTRA:          -5.134
REMARK INTER:                  -4.875
REMARK INTRA:                  -0.259
REMARK UNBOUND:                -0.330
REMARK SMILES NC(=O)C[C@@H]([NH3+])C(=O)[O-]
REMARK SMILES IDX 4 1 5 2 6 3 7 7 8 8 9 9 2 10 3 11 1 12
REMARK H PARENT 6 4 6 5 6 6 1 13 1 14
REMARK Flexibility Score: inf
ROOT
ATOM      1  C   UNL     1     -23.182 -14.838 -14.309  1.00  0.00     0.171 C 
ENDROOT
BRANCH   1   2
ATOM      2  C   UNL     1     -22.539 -15.917 -13.414  1.00  0.00     0.237 C 
BRANCH   2   3
ATOM      3  N   UNL     1     -22.666 -17.255 -14.010  1.00  0.00    -0.350 N 
ATOM      4  H   UNL     1     -23.253 -17.876 -13.406  1.00  0.00     0.345 HD
ATOM      5  H   UNL     1     -21.721 -17.686 -14.130  1.00  0.00     0.345 HD
ATOM      6  H   UNL     1     -23.106 -17.182 -14.956  1.00  0.00     0.345 HD
ENDBRANCH   2   3
BRANCH   2   7
ATOM      7  C   UNL     1     -21.090 -15.587 -13.177  1.00  0.00     0.100 C 
ATOM      8  O   UNL     1     -20.754 -14.444 -12.766  1.00  0.00    -0.544 OA
ATOM      9  O   UNL     1     -20.113 -16.552 -13.392  1.00  0.00    -0.544 OA
ENDBRANCH   2   7
ENDBRANCH   1   2
BRANCH   1  10
ATOM     10  C   UNL     1     -23.832 -15.436 -15.522  1.00  0.00     0.223 C 
ATOM     11  O   UNL     1     -24.873 -16.134 -15.394  1.00  0.00    -0.275 OA
ATOM     12  N   UNL     1     -23.259 -15.251 -16.816  1.00  0.00    -0.369 N 
ATOM     13  H   UNL     1     -22.383 -14.696 -16.939  1.00  0.00     0.159 HD
ATOM     14  H   UNL     1     -23.708 -15.678 -17.657  1.00  0.00     0.159 HD
ENDBRANCH   1  10
TORSDOF 4
ENDMDL
MODEL 6
REMARK VINA RESULT:    -3.943      1.680      2.044
REMARK INTER + INTRA:          -5.080
REMARK INTER:                  -4.739
REMARK INTRA:                  -0.341
REMARK UNBOUND:                -0.330
REMARK SMILES NC(=O)C[C@@H]([NH3+])C(=O)[O-]
REMARK SMILES IDX 4 1 5 2 6 3 7 7 8 8 9 9 2 10 3 11 1 12
REMARK H PARENT 6 4 6 5 6 6 1 13 1 14
REMARK Flexibility Score: inf
ROOT
ATOM      1  C   UNL     1     -22.396 -15.242 -12.769  1.00  0.00     0.171 C 
ENDROOT
BRANCH   1   2
ATOM      2  C   UNL     1     -22.344 -14.051 -13.747  1.00  0.00     0.237 C 
BRANCH   2   3
ATOM      3  N   UNL     1     -21.033 -13.951 -14.404  1.00  0.00    -0.350 N 
ATOM      4  H   UNL     1     -20.761 -14.867 -14.830  1.00  0.00     0.345 HD
ATOM      5  H   UNL     1     -20.305 -13.663 -13.712  1.00  0.00     0.345 HD
ATOM      6  H   UNL     1     -21.067 -13.222 -15.154  1.00  0.00     0.345 HD
ENDBRANCH   2   3
BRANCH   2   7
ATOM      7  C   UNL     1     -23.434 -14.187 -14.777  1.00  0.00     0.100 C 
ATOM      8  O   UNL     1     -24.622 -13.875 -14.494  1.00  0.00    -0.544 OA
ATOM      9  O   UNL     1     -23.130 -14.641 -16.054  1.00  0.00    -0.544 OA
ENDBRANCH   2   7
ENDBRANCH   1   2
BRANCH   1  10
ATOM     10  C   UNL     1     -21.944 -16.516 -13.421  1.00  0.00     0.223 C 
ATOM     11  O   UNL     1     -20.729 -16.846 -13.374  1.00  0.00    -0.275 OA
ATOM     12  N   UNL     1     -22.873 -17.340 -14.123  1.00  0.00    -0.369 N 
ATOM     13  H   UNL     1     -23.880 -17.072 -14.193  1.00  0.00     0.159 HD
ATOM     14  H   UNL     1     -22.552 -18.221 -14.585  1.00  0.00     0.159 HD
ENDBRANCH   1  10
TORSDOF 4
ENDMDL
MODEL 7
REMARK VINA RESULT:    -3.839      2.343      3.744
REMARK INTER + INTRA:          -4.955
REMARK INTER:                  -4.676
REMARK INTRA:                  -0.279
REMARK UNBOUND:                -0.330
REMARK SMILES NC(=O)C[C@@H]([NH3+])C(=O)[O-]
REMARK SMILES IDX 4 1 5 2 6 3 7 7 8 8 9 9 2 10 3 11 1 12
REMARK H PARENT 6 4 6 5 6 6 1 13 1 14
REMARK Flexibility Score: inf
ROOT
ATOM      1  C   UNL     1     -22.700 -16.233 -13.313  1.00  0.00     0.171 C 
ENDROOT
BRANCH   1   2
ATOM      2  C   UNL     1     -21.389 -15.548 -13.749  1.00  0.00     0.237 C 
BRANCH   2   3
ATOM      3  N   UNL     1     -21.496 -14.994 -15.106  1.00  0.00    -0.350 N 
ATOM      4  H   UNL     1     -22.051 -14.107 -15.102  1.00  0.00     0.345 HD
ATOM      5  H   UNL     1     -21.957 -15.685 -15.741  1.00  0.00     0.345 HD
ATOM      6  H   UNL     1     -20.541 -14.799 -15.486  1.00  0.00     0.345 HD
ENDBRANCH   2   3
BRANCH   2   7
ATOM      7  C   UNL     1     -21.030 -14.462 -12.770  1.00  0.00     0.100 C 
ATOM      8  O   UNL     1     -21.864 -14.079 -11.907  1.00  0.00    -0.544 OA
ATOM      9  O   UNL     1     -19.764 -13.889 -12.801  1.00  0.00    -0.544 OA
ENDBRANCH   2   7
ENDBRANCH   1   2
BRANCH   1  10
ATOM     10  C   UNL     1     -23.499 -16.705 -14.494  1.00  0.00     0.223 C 
ATOM     11  O   UNL     1     -24.201 -15.884 -15.142  1.00  0.00    -0.275 OA
ATOM     12  N   UNL     1     -23.496 -18.082 -14.866  1.00  0.00    -0.369 N 
ATOM     13  H   UNL     1     -22.939 -18.781 -14.327  1.00  0.00     0.159 HD
ATOM     14  H   UNL     1     -24.062 -18.408 -15.682  1.00  0.00     0.159 HD
ENDBRANCH   1  10
TORSDOF 4
ENDMDL
MODEL 8
REMARK VINA RESULT:    -3.768     16.089     16.399
REMARK INTER + INTRA:          -4.870
REMARK INTER:                  -4.750
REMARK INTRA:                  -0.119
REMARK UNBOUND:                -0.330
REMARK SMILES NC(=O)C[C@@H]([NH3+])C(=O)[O-]
REMARK SMILES IDX 4 1 5 2 6 3 7 7 8 8 9 9 2 10 3 11 1 12
REMARK H PARENT 6 4 6 5 6 6 1 13 1 14
REMARK Flexibility Score: inf
ROOT
ATOM      1  C   UNL     1     -28.818 -30.285 -17.166  1.00  0.00     0.171 C 
ENDROOT
BRANCH   1   2
ATOM      2  C   UNL     1     -27.978 -31.016 -18.232  1.00  0.00     0.237 C 
BRANCH   2   3
ATOM      3  N   UNL     1     -28.830 -31.729 -19.194  1.00  0.00    -0.350 N 
ATOM      4  H   UNL     1     -29.202 -32.613 -18.776  1.00  0.00     0.345 HD
ATOM      5  H   UNL     1     -28.285 -31.958 -20.056  1.00  0.00     0.345 HD
ATOM      6  H   UNL     1     -29.633 -31.120 -19.476  1.00  0.00     0.345 HD
ENDBRANCH   2   3
BRANCH   2   7
ATOM      7  C   UNL     1     -27.093 -30.030 -18.949  1.00  0.00     0.100 C 
ATOM      8  O   UNL     1     -26.373 -30.402 -19.913  1.00  0.00    -0.544 OA
ATOM      9  O   UNL     1     -27.083 -28.696 -18.561  1.00  0.00    -0.544 OA
ENDBRANCH   2   7
ENDBRANCH   1   2
BRANCH   1  10
ATOM     10  C   UNL     1     -28.371 -30.630 -15.774  1.00  0.00     0.223 C 
ATOM     11  O   UNL     1     -27.340 -31.334 -15.605  1.00  0.00    -0.275 OA
ATOM     12  N   UNL     1     -29.125 -30.195 -14.643  1.00  0.00    -0.369 N 
ATOM     13  H   UNL     1     -29.995 -29.630 -14.765  1.00  0.00     0.159 HD
ATOM     14  H   UNL     1     -28.816 -30.446 -13.677  1.00  0.00     0.159 HD
ENDBRANCH   1  10
TORSDOF 4
ENDMDL
MODEL 9
REMARK VINA RESULT:    -3.571      1.944      2.152
REMARK INTER + INTRA:          -4.632
REMARK INTER:                  -4.541
REMARK INTRA:                  -0.092
REMARK UNBOUND:                -0.330
REMARK SMILES NC(=O)C[C@@H]([NH3+])C(=O)[O-]
REMARK SMILES IDX 4 1 5 2 6 3 7 7 8 8 9 9 2 10 3 11 1 12
REMARK H PARENT 6 4 6 5 6 6 1 13 1 14
REMARK Flexibility Score: inf
ROOT
ATOM      1  C   UNL     1     -22.680 -15.065 -12.963  1.00  0.00     0.171 C 
ENDROOT
BRANCH   1   2
ATOM      2  C   UNL     1     -22.752 -15.710 -14.362  1.00  0.00     0.237 C 
BRANCH   2   3
ATOM      3  N   UNL     1     -23.232 -17.097 -14.292  1.00  0.00    -0.350 N 
ATOM      4  H   UNL     1     -24.177 -17.140 -13.846  1.00  0.00     0.345 HD
ATOM      5  H   UNL     1     -22.564 -17.681 -13.740  1.00  0.00     0.345 HD
ATOM      6  H   UNL     1     -23.290 -17.501 -15.255  1.00  0.00     0.345 HD
ENDBRANCH   2   3
BRANCH   2   7
ATOM      7  C   UNL     1     -23.646 -14.893 -15.256  1.00  0.00     0.100 C 
ATOM      8  O   UNL     1     -24.495 -14.104 -14.761  1.00  0.00    -0.544 OA
ATOM      9  O   UNL     1     -23.526 -14.992 -16.637  1.00  0.00    -0.544 OA
ENDBRANCH   2   7
ENDBRANCH   1   2
BRANCH   1  10
ATOM     10  C   UNL     1     -21.262 -14.830 -12.531  1.00  0.00     0.223 C 
ATOM     11  O   UNL     1     -20.995 -13.876 -11.754  1.00  0.00    -0.275 OA
ATOM     12  N   UNL     1     -20.209 -15.659 -13.022  1.00  0.00    -0.369 N 
ATOM     13  H   UNL     1     -20.408 -16.440 -13.686  1.00  0.00     0.159 HD
ATOM     14  H   UNL     1     -19.221 -15.485 -12.728  1.00  0.00     0.159 HD
ENDBRANCH   1  10
TORSDOF 4
ENDMDL
