MODEL 1
REMARK VINA RESULT:    -3.349      0.000      0.000
REMARK INTER + INTRA:          -6.935
REMARK INTER:                  -5.699
REMARK INTRA:                  -1.236
REMARK UNBOUND:                -1.236
REMARK SMILES CCCCCCCCCCCCCC(=O)[O-]
REMARK SMILES IDX 8 1 9 2 10 3 11 4 12 5 13 6 14 7 15 8 16 9 7 10 6 11 5 12
REMARK SMILES IDX 4 13 3 14 2 15 1 16
REMARK H PARENT
REMARK Flexibility Score: inf
ROOT
ATOM      1  C   UNL     1      10.620  -3.969  19.353  1.00  0.00     0.000 C 
ENDROOT
BRANCH   1   2
ATOM      2  C   UNL     1       9.687  -2.772  19.112  1.00  0.00     0.000 C 
BRANCH   2   3
ATOM      3  C   UNL     1       8.759  -2.499  20.310  1.00  0.00     0.000 C 
BRANCH   3   4
ATOM      4  C   UNL     1       7.271  -2.556  19.929  1.00  0.00     0.000 C 
BRANCH   4   5
ATOM      5  C   UNL     1       7.054  -2.876  18.440  1.00  0.00     0.006 C 
BRANCH   5   6
ATOM      6  C   UNL     1       6.010  -1.952  17.796  1.00  0.00     0.053 C 
BRANCH   6   7
ATOM      7  C   UNL     1       6.069  -2.002  16.300  1.00  0.00     0.041 C 
ATOM      8  O   UNL     1       7.149  -2.283  15.716  1.00  0.00    -0.550 OA
ATOM      9  O   UNL     1       4.938  -1.707  15.548  1.00  0.00    -0.550 OA
ENDBRANCH   6   7
ENDBRANCH   5   6
ENDBRANCH   4   5
ENDBRANCH   3   4
ENDBRANCH   2   3
ENDBRANCH   1   2
BRANCH   1  10
ATOM     10  C   UNL     1       9.937  -5.101  20.141  1.00  0.00     0.000 C 
BRANCH  10  11
ATOM     11  C   UNL     1       9.695  -6.354  19.285  1.00  0.00    -0.000 C 
BRANCH  11  12
ATOM     12  C   UNL     1       8.531  -6.180  18.299  1.00  0.00    -0.000 C 
BRANCH  12  13
ATOM     13  C   UNL     1       9.034  -6.217  16.847  1.00  0.00    -0.000 C 
BRANCH  13  14
ATOM     14  C   UNL     1       8.735  -7.553  16.142  1.00  0.00    -0.000 C 
BRANCH  14  15
ATOM     15  C   UNL     1       7.444  -8.252  16.604  1.00  0.00    -0.003 C 
ATOM     16  C   UNL     1       7.659  -9.717  16.982  1.00  0.00     0.004 C 
ENDBRANCH  14  15
ENDBRANCH  13  14
ENDBRANCH  12  13
ENDBRANCH  11  12
ENDBRANCH  10  11
ENDBRANCH   1  10
TORSDOF 12
ENDMDL
MODEL 2
REMARK VINA RESULT:    -3.298      1.615      2.521
REMARK INTER + INTRA:          -6.847
REMARK INTER:                  -4.886
REMARK INTRA:                  -1.962
REMARK UNBOUND:                -1.236
REMARK SMILES CCCCCCCCCCCCCC(=O)[O-]
REMARK SMILES IDX 8 1 9 2 10 3 11 4 12 5 13 6 14 7 15 8 16 9 7 10 6 11 5 12
REMARK SMILES IDX 4 13 3 14 2 15 1 16
REMARK H PARENT
REMARK Flexibility Score: inf
ROOT
ATOM      1  C   UNL     1      10.976  -4.814  20.517  1.00  0.00     0.000 C 
ENDROOT
BRANCH   1   2
ATOM      2  C   UNL     1      10.384  -3.442  20.157  1.00  0.00     0.000 C 
BRANCH   2   3
ATOM      3  C   UNL     1       8.860  -3.386  20.367  1.00  0.00     0.000 C 
BRANCH   3   4
ATOM      4  C   UNL     1       8.178  -2.340  19.471  1.00  0.00     0.000 C 
BRANCH   4   5
ATOM      5  C   UNL     1       6.749  -2.747  19.070  1.00  0.00     0.006 C 
BRANCH   5   6
ATOM      6  C   UNL     1       6.439  -2.404  17.606  1.00  0.00     0.053 C 
BRANCH   6   7
ATOM      7  C   UNL     1       5.328  -1.405  17.491  1.00  0.00     0.041 C 
ATOM      8  O   UNL     1       4.578  -1.175  18.476  1.00  0.00    -0.550 OA
ATOM      9  O   UNL     1       5.100  -0.753  16.286  1.00  0.00    -0.550 OA
ENDBRANCH   6   7
ENDBRANCH   5   6
ENDBRANCH   4   5
ENDBRANCH   3   4
ENDBRANCH   2   3
ENDBRANCH   1   2
BRANCH   1  10
ATOM     10  C   UNL     1      10.003  -5.971  20.229  1.00  0.00     0.000 C 
BRANCH  10  11
ATOM     11  C   UNL     1      10.597  -7.020  19.276  1.00  0.00    -0.000 C 
BRANCH  11  12
ATOM     12  C   UNL     1       9.686  -7.309  18.074  1.00  0.00    -0.000 C 
BRANCH  12  13
ATOM     13  C   UNL     1       8.464  -6.376  18.076  1.00  0.00    -0.000 C 
BRANCH  13  14
ATOM     14  C   UNL     1       8.525  -5.306  16.970  1.00  0.00    -0.000 C 
BRANCH  14  15
ATOM     15  C   UNL     1       9.942  -4.962  16.481  1.00  0.00    -0.003 C 
ATOM     16  C   UNL     1      10.235  -3.463  16.499  1.00  0.00     0.004 C 
ENDBRANCH  14  15
ENDBRANCH  13  14
ENDBRANCH  12  13
ENDBRANCH  11  12
ENDBRANCH  10  11
ENDBRANCH   1  10
TORSDOF 12
ENDMDL
MODEL 3
REMARK VINA RESULT:    -3.298      2.600      5.084
REMARK INTER + INTRA:          -6.847
REMARK INTER:                  -4.863
REMARK INTRA:                  -1.984
REMARK UNBOUND:                -1.236
REMARK SMILES CCCCCCCCCCCCCC(=O)[O-]
REMARK SMILES IDX 8 1 9 2 10 3 11 4 12 5 13 6 14 7 15 8 16 9 7 10 6 11 5 12
REMARK SMILES IDX 4 13 3 14 2 15 1 16
REMARK H PARENT
REMARK Flexibility Score: inf
ROOT
ATOM      1  C   UNL     1       9.053  -2.083  19.894  1.00  0.00     0.000 C 
ENDROOT
BRANCH   1   2
ATOM      2  C   UNL     1       9.944  -3.185  19.300  1.00  0.00     0.000 C 
BRANCH   2   3
ATOM      3  C   UNL     1      10.244  -4.308  20.310  1.00  0.00     0.000 C 
BRANCH   3   4
ATOM      4  C   UNL     1       9.721  -5.676  19.845  1.00  0.00     0.000 C 
BRANCH   4   5
ATOM      5  C   UNL     1       9.427  -5.714  18.335  1.00  0.00     0.006 C 
BRANCH   5   6
ATOM      6  C   UNL     1       8.062  -6.346  18.027  1.00  0.00     0.053 C 
BRANCH   6   7
ATOM      7  C   UNL     1       8.203  -7.698  17.397  1.00  0.00     0.041 C 
ATOM      8  O   UNL     1       9.158  -8.453  17.722  1.00  0.00    -0.550 OA
ATOM      9  O   UNL     1       7.300  -8.112  16.426  1.00  0.00    -0.550 OA
ENDBRANCH   6   7
ENDBRANCH   5   6
ENDBRANCH   4   5
ENDBRANCH   3   4
ENDBRANCH   2   3
ENDBRANCH   1   2
BRANCH   1  10
ATOM     10  C   UNL     1       7.699  -2.623  20.389  1.00  0.00     0.000 C 
BRANCH  10  11
ATOM     11  C   UNL     1       6.780  -3.058  19.236  1.00  0.00    -0.000 C 
BRANCH  11  12
ATOM     12  C   UNL     1       6.136  -1.866  18.512  1.00  0.00    -0.000 C 
BRANCH  12  13
ATOM     13  C   UNL     1       6.381  -1.947  16.997  1.00  0.00    -0.000 C 
BRANCH  13  14
ATOM     14  C   UNL     1       7.472  -2.967  16.620  1.00  0.00    -0.000 C 
BRANCH  14  15
ATOM     15  C   UNL     1       8.630  -2.393  15.785  1.00  0.00    -0.003 C 
ATOM     16  C   UNL     1       9.176  -1.078  16.341  1.00  0.00     0.004 C 
ENDBRANCH  14  15
ENDBRANCH  13  14
ENDBRANCH  12  13
ENDBRANCH  11  12
ENDBRANCH  10  11
ENDBRANCH   1  10
TORSDOF 12
ENDMDL
MODEL 4
REMARK VINA RESULT:    -3.269      1.698      2.607
REMARK INTER + INTRA:          -6.799
REMARK INTER:                  -5.397
REMARK INTRA:                  -1.401
REMARK UNBOUND:                -1.236
REMARK SMILES CCCCCCCCCCCCCC(=O)[O-]
REMARK SMILES IDX 8 1 9 2 10 3 11 4 12 5 13 6 14 7 15 8 16 9 7 10 6 11 5 12
REMARK SMILES IDX 4 13 3 14 2 15 1 16
REMARK H PARENT
REMARK Flexibility Score: inf
ROOT
ATOM      1  C   UNL     1       9.943  -2.185  19.331  1.00  0.00     0.000 C 
ENDROOT
BRANCH   1   2
ATOM      2  C   UNL     1       9.000  -1.011  19.025  1.00  0.00     0.000 C 
BRANCH   2   3
ATOM      3  C   UNL     1       7.719  -1.047  19.878  1.00  0.00     0.000 C 
BRANCH   3   4
ATOM      4  C   UNL     1       7.117  -2.458  19.982  1.00  0.00     0.000 C 
BRANCH   4   5
ATOM      5  C   UNL     1       6.431  -2.905  18.679  1.00  0.00     0.006 C 
BRANCH   5   6
ATOM      6  C   UNL     1       5.728  -1.742  17.966  1.00  0.00     0.053 C 
BRANCH   6   7
ATOM      7  C   UNL     1       5.861  -1.838  16.477  1.00  0.00     0.041 C 
ATOM      8  O   UNL     1       6.858  -2.415  15.966  1.00  0.00    -0.550 OA
ATOM      9  O   UNL     1       4.903  -1.262  15.653  1.00  0.00    -0.550 OA
ENDBRANCH   6   7
ENDBRANCH   5   6
ENDBRANCH   4   5
ENDBRANCH   3   4
ENDBRANCH   2   3
ENDBRANCH   1   2
BRANCH   1  10
ATOM     10  C   UNL     1      10.495  -2.138  20.767  1.00  0.00     0.000 C 
BRANCH  10  11
ATOM     11  C   UNL     1      10.962  -3.515  21.266  1.00  0.00    -0.000 C 
BRANCH  11  12
ATOM     12  C   UNL     1      11.123  -4.532  20.126  1.00  0.00    -0.000 C 
BRANCH  12  13
ATOM     13  C   UNL     1      10.394  -5.844  20.455  1.00  0.00    -0.000 C 
BRANCH  13  14
ATOM     14  C   UNL     1       9.740  -6.493  19.221  1.00  0.00    -0.000 C 
BRANCH  14  15
ATOM     15  C   UNL     1       8.649  -5.642  18.546  1.00  0.00    -0.003 C 
ATOM     16  C   UNL     1       9.035  -5.177  17.143  1.00  0.00     0.004 C 
ENDBRANCH  14  15
ENDBRANCH  13  14
ENDBRANCH  12  13
ENDBRANCH  11  12
ENDBRANCH  10  11
ENDBRANCH   1  10
TORSDOF 12
ENDMDL
MODEL 5
REMARK VINA RESULT:    -3.242      1.721      2.604
REMARK INTER + INTRA:          -6.752
REMARK INTER:                  -5.354
REMARK INTRA:                  -1.398
REMARK UNBOUND:                -1.236
REMARK SMILES CCCCCCCCCCCCCC(=O)[O-]
REMARK SMILES IDX 8 1 9 2 10 3 11 4 12 5 13 6 14 7 15 8 16 9 7 10 6 11 5 12
REMARK SMILES IDX 4 13 3 14 2 15 1 16
REMARK H PARENT
REMARK Flexibility Score: inf
ROOT
ATOM      1  C   UNL     1       9.562  -2.273  20.071  1.00  0.00     0.000 C 
ENDROOT
BRANCH   1   2
ATOM      2  C   UNL     1       8.231  -2.357  20.834  1.00  0.00     0.000 C 
BRANCH   2   3
ATOM      3  C   UNL     1       7.040  -2.662  19.908  1.00  0.00     0.000 C 
BRANCH   3   4
ATOM      4  C   UNL     1       6.511  -1.409  19.193  1.00  0.00     0.000 C 
BRANCH   4   5
ATOM      5  C   UNL     1       7.047  -1.277  17.757  1.00  0.00     0.006 C 
BRANCH   5   6
ATOM      6  C   UNL     1       6.206  -2.073  16.750  1.00  0.00     0.053 C 
BRANCH   6   7
ATOM      7  C   UNL     1       5.344  -1.179  15.912  1.00  0.00     0.041 C 
ATOM      8  O   UNL     1       4.809  -1.618  14.859  1.00  0.00    -0.550 OA
ATOM      9  O   UNL     1       5.157   0.149  16.276  1.00  0.00    -0.550 OA
ENDBRANCH   6   7
ENDBRANCH   5   6
ENDBRANCH   4   5
ENDBRANCH   3   4
ENDBRANCH   2   3
ENDBRANCH   1   2
BRANCH   1  10
ATOM     10  C   UNL     1      10.754  -2.775  20.907  1.00  0.00     0.000 C 
BRANCH  10  11
ATOM     11  C   UNL     1      10.856  -4.308  20.930  1.00  0.00    -0.000 C 
BRANCH  11  12
ATOM     12  C   UNL     1      10.648  -4.934  19.543  1.00  0.00    -0.000 C 
BRANCH  12  13
ATOM     13  C   UNL     1       9.662  -6.111  19.615  1.00  0.00    -0.000 C 
BRANCH  13  14
ATOM     14  C   UNL     1       8.815  -6.263  18.338  1.00  0.00    -0.000 C 
BRANCH  14  15
ATOM     15  C   UNL     1       8.386  -4.937  17.685  1.00  0.00    -0.003 C 
ATOM     16  C   UNL     1       8.959  -4.747  16.282  1.00  0.00     0.004 C 
ENDBRANCH  14  15
ENDBRANCH  13  14
ENDBRANCH  12  13
ENDBRANCH  11  12
ENDBRANCH  10  11
ENDBRANCH   1  10
TORSDOF 12
ENDMDL
MODEL 6
REMARK VINA RESULT:    -3.191      9.834     11.733
REMARK INTER + INTRA:          -6.666
REMARK INTER:                  -5.041
REMARK INTRA:                  -1.625
REMARK UNBOUND:                -1.236
REMARK SMILES CCCCCCCCCCCCCC(=O)[O-]
REMARK SMILES IDX 8 1 9 2 10 3 11 4 12 5 13 6 14 7 15 8 16 9 7 10 6 11 5 12
REMARK SMILES IDX 4 13 3 14 2 15 1 16
REMARK H PARENT
REMARK Flexibility Score: inf
ROOT
ATOM      1  C   UNL     1      -1.032  -1.784  24.601  1.00  0.00     0.000 C 
ENDROOT
BRANCH   1   2
ATOM      2  C   UNL     1       0.474  -1.479  24.610  1.00  0.00     0.000 C 
BRANCH   2   3
ATOM      3  C   UNL     1       1.326  -2.708  24.243  1.00  0.00     0.000 C 
BRANCH   3   4
ATOM      4  C   UNL     1       0.495  -3.834  23.607  1.00  0.00     0.000 C 
BRANCH   4   5
ATOM      5  C   UNL     1       0.828  -5.217  24.194  1.00  0.00     0.006 C 
BRANCH   5   6
ATOM      6  C   UNL     1      -0.245  -5.701  25.179  1.00  0.00     0.053 C 
BRANCH   6   7
ATOM      7  C   UNL     1      -0.183  -7.183  25.389  1.00  0.00     0.041 C 
ATOM      8  O   UNL     1      -1.192  -7.806  25.812  1.00  0.00    -0.550 OA
ATOM      9  O   UNL     1       0.999  -7.872  25.147  1.00  0.00    -0.550 OA
ENDBRANCH   6   7
ENDBRANCH   5   6
ENDBRANCH   4   5
ENDBRANCH   3   4
ENDBRANCH   2   3
ENDBRANCH   1   2
BRANCH   1  10
ATOM     10  C   UNL     1      -1.804  -0.911  23.595  1.00  0.00     0.000 C 
BRANCH  10  11
ATOM     11  C   UNL     1      -2.212  -1.686  22.332  1.00  0.00    -0.000 C 
BRANCH  11  12
ATOM     12  C   UNL     1      -1.681  -1.038  21.044  1.00  0.00    -0.000 C 
BRANCH  12  13
ATOM     13  C   UNL     1      -0.194  -1.366  20.839  1.00  0.00    -0.000 C 
BRANCH  13  14
ATOM     14  C   UNL     1       0.644  -0.135  20.448  1.00  0.00    -0.000 C 
BRANCH  14  15
ATOM     15  C   UNL     1       0.192   1.186  21.096  1.00  0.00    -0.003 C 
ATOM     16  C   UNL     1       0.882   1.465  22.430  1.00  0.00     0.004 C 
ENDBRANCH  14  15
ENDBRANCH  13  14
ENDBRANCH  12  13
ENDBRANCH  11  12
ENDBRANCH  10  11
ENDBRANCH   1  10
TORSDOF 12
ENDMDL
MODEL 7
REMARK VINA RESULT:    -3.187      2.745      5.183
REMARK INTER + INTRA:          -6.659
REMARK INTER:                  -4.899
REMARK INTRA:                  -1.760
REMARK UNBOUND:                -1.236
REMARK SMILES CCCCCCCCCCCCCC(=O)[O-]
REMARK SMILES IDX 8 1 9 2 10 3 11 4 12 5 13 6 14 7 15 8 16 9 7 10 6 11 5 12
REMARK SMILES IDX 4 13 3 14 2 15 1 16
REMARK H PARENT
REMARK Flexibility Score: inf
ROOT
ATOM      1  C   UNL     1      10.929  -3.917  20.756  1.00  0.00     0.000 C 
ENDROOT
BRANCH   1   2
ATOM      2  C   UNL     1      11.049  -5.028  19.701  1.00  0.00     0.000 C 
BRANCH   2   3
ATOM      3  C   UNL     1       9.795  -5.920  19.640  1.00  0.00     0.000 C 
BRANCH   3   4
ATOM      4  C   UNL     1      10.002  -7.171  18.772  1.00  0.00     0.000 C 
BRANCH   4   5
ATOM      5  C   UNL     1       9.399  -7.022  17.365  1.00  0.00     0.006 C 
BRANCH   5   6
ATOM      6  C   UNL     1       7.886  -7.282  17.353  1.00  0.00     0.053 C 
BRANCH   6   7
ATOM      7  C   UNL     1       7.557  -8.632  16.794  1.00  0.00     0.041 C 
ATOM      8  O   UNL     1       8.037  -9.671  17.322  1.00  0.00    -0.550 OA
ATOM      9  O   UNL     1       6.746  -8.743  15.672  1.00  0.00    -0.550 OA
ENDBRANCH   6   7
ENDBRANCH   5   6
ENDBRANCH   4   5
ENDBRANCH   3   4
ENDBRANCH   2   3
ENDBRANCH   1   2
BRANCH   1  10
ATOM     10  C   UNL     1      10.490  -2.572  20.148  1.00  0.00     0.000 C 
BRANCH  10  11
ATOM     11  C   UNL     1       9.313  -1.938  20.907  1.00  0.00    -0.000 C 
BRANCH  11  12
ATOM     12  C   UNL     1       8.008  -2.731  20.740  1.00  0.00    -0.000 C 
BRANCH  12  13
ATOM     13  C   UNL     1       7.304  -2.357  19.426  1.00  0.00    -0.000 C 
BRANCH  13  14
ATOM     14  C   UNL     1       7.272  -3.515  18.412  1.00  0.00    -0.000 C 
BRANCH  14  15
ATOM     15  C   UNL     1       7.754  -3.149  16.998  1.00  0.00    -0.003 C 
ATOM     16  C   UNL     1       9.247  -3.403  16.790  1.00  0.00     0.004 C 
ENDBRANCH  14  15
ENDBRANCH  13  14
ENDBRANCH  12  13
ENDBRANCH  11  12
ENDBRANCH  10  11
ENDBRANCH   1  10
TORSDOF 12
ENDMDL
MODEL 8
REMARK VINA RESULT:    -3.186      2.641      5.409
REMARK INTER + INTRA:          -6.656
REMARK INTER:                  -5.009
REMARK INTRA:                  -1.647
REMARK UNBOUND:                -1.236
REMARK SMILES CCCCCCCCCCCCCC(=O)[O-]
REMARK SMILES IDX 8 1 9 2 10 3 11 4 12 5 13 6 14 7 15 8 16 9 7 10 6 11 5 12
REMARK SMILES IDX 4 13 3 14 2 15 1 16
REMARK H PARENT
REMARK Flexibility Score: inf
ROOT
ATOM      1  C   UNL     1      10.638  -2.743  19.886  1.00  0.00     0.000 C 
ENDROOT
BRANCH   1   2
ATOM      2  C   UNL     1      10.269  -4.061  20.586  1.00  0.00     0.000 C 
BRANCH   2   3
ATOM      3  C   UNL     1      10.764  -5.297  19.813  1.00  0.00     0.000 C 
BRANCH   3   4
ATOM      4  C   UNL     1       9.643  -6.313  19.544  1.00  0.00     0.000 C 
BRANCH   4   5
ATOM      5  C   UNL     1       9.584  -6.751  18.070  1.00  0.00     0.006 C 
BRANCH   5   6
ATOM      6  C   UNL     1       8.141  -6.887  17.565  1.00  0.00     0.053 C 
BRANCH   6   7
ATOM      7  C   UNL     1       7.837  -8.281  17.111  1.00  0.00     0.041 C 
ATOM      8  O   UNL     1       8.526  -9.249  17.530  1.00  0.00    -0.550 OA
ATOM      9  O   UNL     1       6.814  -8.510  16.200  1.00  0.00    -0.550 OA
ENDBRANCH   6   7
ENDBRANCH   5   6
ENDBRANCH   4   5
ENDBRANCH   3   4
ENDBRANCH   2   3
ENDBRANCH   1   2
BRANCH   1  10
ATOM     10  C   UNL     1      10.538  -2.842  18.353  1.00  0.00     0.000 C 
BRANCH  10  11
ATOM     11  C   UNL     1       9.232  -2.243  17.807  1.00  0.00    -0.000 C 
BRANCH  11  12
ATOM     12  C   UNL     1       8.174  -3.313  17.500  1.00  0.00    -0.000 C 
BRANCH  12  13
ATOM     13  C   UNL     1       7.087  -3.335  18.587  1.00  0.00    -0.000 C 
BRANCH  13  14
ATOM     14  C   UNL     1       7.096  -2.074  19.470  1.00  0.00    -0.000 C 
BRANCH  14  15
ATOM     15  C   UNL     1       6.102  -0.979  19.043  1.00  0.00    -0.003 C 
ATOM     16  C   UNL     1       4.974  -1.507  18.157  1.00  0.00     0.004 C 
ENDBRANCH  14  15
ENDBRANCH  13  14
ENDBRANCH  12  13
ENDBRANCH  11  12
ENDBRANCH  10  11
ENDBRANCH   1  10
TORSDOF 12
ENDMDL
MODEL 9
REMARK VINA RESULT:    -3.169      9.992     12.277
REMARK INTER + INTRA:          -6.627
REMARK INTER:                  -5.562
REMARK INTRA:                  -1.065
REMARK UNBOUND:                -1.236
REMARK SMILES CCCCCCCCCCCCCC(=O)[O-]
REMARK SMILES IDX 8 1 9 2 10 3 11 4 12 5 13 6 14 7 15 8 16 9 7 10 6 11 5 12
REMARK SMILES IDX 4 13 3 14 2 15 1 16
REMARK H PARENT
REMARK Flexibility Score: inf
ROOT
ATOM      1  C   UNL     1      -2.258  -0.870  20.780  1.00  0.00     0.000 C 
ENDROOT
BRANCH   1   2
ATOM      2  C   UNL     1      -0.725  -0.773  20.827  1.00  0.00     0.000 C 
BRANCH   2   3
ATOM      3  C   UNL     1      -0.077  -1.995  21.501  1.00  0.00     0.000 C 
BRANCH   3   4
ATOM      4  C   UNL     1       0.076  -1.820  23.020  1.00  0.00     0.000 C 
BRANCH   4   5
ATOM      5  C   UNL     1      -0.300  -3.091  23.803  1.00  0.00     0.006 C 
BRANCH   5   6
ATOM      6  C   UNL     1       0.934  -3.909  24.206  1.00  0.00     0.053 C 
BRANCH   6   7
ATOM      7  C   UNL     1       0.609  -5.361  24.378  1.00  0.00     0.041 C 
ATOM      8  O   UNL     1       1.028  -6.207  23.543  1.00  0.00    -0.550 OA
ATOM      9  O   UNL     1      -0.182  -5.778  25.440  1.00  0.00    -0.550 OA
ENDBRANCH   6   7
ENDBRANCH   5   6
ENDBRANCH   4   5
ENDBRANCH   3   4
ENDBRANCH   2   3
ENDBRANCH   1   2
BRANCH   1  10
ATOM     10  C   UNL     1      -2.932  -0.103  21.932  1.00  0.00     0.000 C 
BRANCH  10  11
ATOM     11  C   UNL     1      -4.039  -0.921  22.617  1.00  0.00    -0.000 C 
BRANCH  11  12
ATOM     12  C   UNL     1      -3.867  -2.434  22.415  1.00  0.00    -0.000 C 
BRANCH  12  13
ATOM     13  C   UNL     1      -5.165  -3.068  21.890  1.00  0.00    -0.000 C 
BRANCH  13  14
ATOM     14  C   UNL     1      -5.164  -3.259  20.362  1.00  0.00    -0.000 C 
BRANCH  14  15
ATOM     15  C   UNL     1      -5.620  -4.649  19.885  1.00  0.00    -0.003 C 
ATOM     16  C   UNL     1      -5.328  -4.901  18.406  1.00  0.00     0.004 C 
ENDBRANCH  14  15
ENDBRANCH  13  14
ENDBRANCH  12  13
ENDBRANCH  11  12
ENDBRANCH  10  11
ENDBRANCH   1  10
TORSDOF 12
ENDMDL
