MODEL 1
REMARK VINA RESULT:    -5.446      0.000      0.000
REMARK INTER + INTRA:          -6.662
REMARK INTER:                  -6.401
REMARK INTRA:                  -0.261
REMARK UNBOUND:                -0.261
REMARK SMILES O=c1c(O)c(-c2ccc(O)c(O)c2)oc2cc(O)ccc12
REMARK SMILES IDX 5 1 3 2 2 3 1 4 21 5 15 6 14 7 16 8 17 9 19 10 20 11 6 12
REMARK SMILES IDX 7 13 8 14 9 15 13 16 11 17 10 18 12 20 4 22 18 24
REMARK H PARENT 10 19 12 21 4 23 18 25
REMARK Flexibility Score: inf
ROOT
ATOM      1  C   UNL     1      23.971  -0.913  12.694  1.00  0.00     0.180 A 
ATOM      2  C   UNL     1      25.188  -0.952  13.406  1.00  0.00     0.208 A 
ATOM      3  C   UNL     1      25.510  -2.111  14.130  1.00  0.00     0.235 A 
ATOM      4  O   UNL     1      26.598  -2.175  14.766  1.00  0.00    -0.285 OA
ATOM      5  C   UNL     1      24.611  -3.188  14.146  1.00  0.00     0.069 A 
ATOM      6  C   UNL     1      23.403  -3.062  13.426  1.00  0.00     0.142 A 
ATOM      7  O   UNL     1      23.140  -1.951  12.746  1.00  0.00    -0.452 OA
ATOM      8  C   UNL     1      22.476  -4.109  13.424  1.00  0.00     0.094 A 
ATOM      9  C   UNL     1      22.740  -5.286  14.132  1.00  0.00     0.119 A 
ATOM     10  C   UNL     1      23.939  -5.417  14.847  1.00  0.00     0.047 A 
ATOM     11  C   UNL     1      24.872  -4.375  14.855  1.00  0.00     0.020 A 
ENDROOT
BRANCH   1  12
ATOM     12  C   UNL     1      23.568   0.264  11.892  1.00  0.00     0.025 A 
ATOM     13  C   UNL     1      24.178   0.554  10.658  1.00  0.00     0.016 A 
ATOM     14  C   UNL     1      23.764   1.657   9.908  1.00  0.00     0.051 A 
ATOM     15  C   UNL     1      22.728   2.479  10.371  1.00  0.00     0.157 A 
ATOM     16  C   UNL     1      22.516   1.080  12.341  1.00  0.00     0.062 A 
ATOM     17  C   UNL     1      22.100   2.185  11.592  1.00  0.00     0.158 A 
BRANCH  15  18
ATOM     18  O   UNL     1      22.319   3.581   9.620  1.00  0.00    -0.504 OA
ATOM     19  H   UNL     1      21.784   4.336  10.033  1.00  0.00     0.293 HD
ENDBRANCH  15  18
BRANCH  17  20
ATOM     20  O   UNL     1      21.060   2.980  12.076  1.00  0.00    -0.504 OA
ATOM     21  H   UNL     1      20.270   3.243  11.500  1.00  0.00     0.293 HD
ENDBRANCH  17  20
ENDBRANCH   1  12
BRANCH   2  22
ATOM     22  O   UNL     1      26.041   0.154  13.413  1.00  0.00    -0.502 OA
ATOM     23  H   UNL     1      26.484   0.491  14.259  1.00  0.00     0.293 HD
ENDBRANCH   2  22
BRANCH   9  24
ATOM     24  O   UNL     1      21.806  -6.319  14.119  1.00  0.00    -0.508 OA
ATOM     25  H   UNL     1      22.079  -7.277  13.931  1.00  0.00     0.293 HD
ENDBRANCH   9  24
TORSDOF 5
ENDMDL
MODEL 2
REMARK VINA RESULT:    -5.380      6.479     10.001
REMARK INTER + INTRA:          -6.585
REMARK INTER:                  -6.593
REMARK INTRA:                   0.009
REMARK UNBOUND:                -0.261
REMARK SMILES O=c1c(O)c(-c2ccc(O)c(O)c2)oc2cc(O)ccc12
REMARK SMILES IDX 5 1 3 2 2 3 1 4 21 5 15 6 14 7 16 8 17 9 19 10 20 11 6 12
REMARK SMILES IDX 7 13 8 14 9 15 13 16 11 17 10 18 12 20 4 22 18 24
REMARK H PARENT 10 19 12 21 4 23 18 25
REMARK Flexibility Score: inf
ROOT
ATOM      1  C   UNL     1      21.906  -9.325  16.656  1.00  0.00     0.180 A 
ATOM      2  C   UNL     1      21.372  -9.448  17.956  1.00  0.00     0.208 A 
ATOM      3  C   UNL     1      20.496 -10.511  18.228  1.00  0.00     0.235 A 
ATOM      4  O   UNL     1      20.013 -10.649  19.385  1.00  0.00    -0.285 OA
ATOM      5  C   UNL     1      20.158 -11.407  17.202  1.00  0.00     0.069 A 
ATOM      6  C   UNL     1      20.717 -11.202  15.922  1.00  0.00     0.142 A 
ATOM      7  O   UNL     1      21.549 -10.189  15.709  1.00  0.00    -0.452 OA
ATOM      8  C   UNL     1      20.398 -12.067  14.871  1.00  0.00     0.094 A 
ATOM      9  C   UNL     1      19.526 -13.141  15.081  1.00  0.00     0.119 A 
ATOM     10  C   UNL     1      18.970 -13.350  16.351  1.00  0.00     0.047 A 
ATOM     11  C   UNL     1      19.282 -12.489  17.409  1.00  0.00     0.020 A 
ENDROOT
BRANCH   1  12
ATOM     12  C   UNL     1      22.851  -8.244  16.295  1.00  0.00     0.025 A 
ATOM     13  C   UNL     1      22.606  -7.389  15.205  1.00  0.00     0.016 A 
ATOM     14  C   UNL     1      23.500  -6.361  14.898  1.00  0.00     0.051 A 
ATOM     15  C   UNL     1      24.644  -6.162  15.682  1.00  0.00     0.157 A 
ATOM     16  C   UNL     1      23.989  -8.026  17.090  1.00  0.00     0.062 A 
ATOM     17  C   UNL     1      24.887  -6.997  16.785  1.00  0.00     0.158 A 
BRANCH  15  18
ATOM     18  O   UNL     1      25.536  -5.136  15.372  1.00  0.00    -0.504 OA
ATOM     19  H   UNL     1      25.355  -4.175  15.639  1.00  0.00     0.293 HD
ENDBRANCH  15  18
BRANCH  17  20
ATOM     20  O   UNL     1      26.013  -6.820  17.589  1.00  0.00    -0.504 OA
ATOM     21  H   UNL     1      26.581  -5.983  17.543  1.00  0.00     0.293 HD
ENDBRANCH  17  20
ENDBRANCH   1  12
BRANCH   2  22
ATOM     22  O   UNL     1      21.688  -8.512  18.943  1.00  0.00    -0.502 OA
ATOM     23  H   UNL     1      22.377  -8.695  19.663  1.00  0.00     0.293 HD
ENDBRANCH   2  22
BRANCH   9  24
ATOM     24  O   UNL     1      19.219 -13.994  14.024  1.00  0.00    -0.508 OA
ATOM     25  H   UNL     1      19.944 -14.390  13.437  1.00  0.00     0.293 HD
ENDBRANCH   9  24
TORSDOF 5
ENDMDL
MODEL 3
REMARK VINA RESULT:    -5.307      2.394      6.825
REMARK INTER + INTRA:          -6.499
REMARK INTER:                  -6.232
REMARK INTRA:                  -0.266
REMARK UNBOUND:                -0.261
REMARK SMILES O=c1c(O)c(-c2ccc(O)c(O)c2)oc2cc(O)ccc12
REMARK SMILES IDX 5 1 3 2 2 3 1 4 21 5 15 6 14 7 16 8 17 9 19 10 20 11 6 12
REMARK SMILES IDX 7 13 8 14 9 15 13 16 11 17 10 18 12 20 4 22 18 24
REMARK H PARENT 10 19 12 21 4 23 18 25
REMARK Flexibility Score: inf
ROOT
ATOM      1  C   UNL     1      24.006  -0.654  12.357  1.00  0.00     0.180 A 
ATOM      2  C   UNL     1      23.646  -1.652  11.427  1.00  0.00     0.208 A 
ATOM      3  C   UNL     1      23.272  -1.265  10.130  1.00  0.00     0.235 A 
ATOM      4  O   UNL     1      22.956  -2.139   9.278  1.00  0.00    -0.285 OA
ATOM      5  C   UNL     1      23.246   0.098   9.797  1.00  0.00     0.069 A 
ATOM      6  C   UNL     1      23.598   1.037  10.791  1.00  0.00     0.142 A 
ATOM      7  O   UNL     1      23.954   0.629  12.004  1.00  0.00    -0.452 OA
ATOM      8  C   UNL     1      23.575   2.405  10.502  1.00  0.00     0.094 A 
ATOM      9  C   UNL     1      23.206   2.851   9.228  1.00  0.00     0.119 A 
ATOM     10  C   UNL     1      22.858   1.922   8.237  1.00  0.00     0.047 A 
ATOM     11  C   UNL     1      22.877   0.552   8.518  1.00  0.00     0.020 A 
ENDROOT
BRANCH   1  12
ATOM     12  C   UNL     1      24.429  -0.982  13.737  1.00  0.00     0.025 A 
ATOM     13  C   UNL     1      23.496  -1.353  14.721  1.00  0.00     0.016 A 
ATOM     14  C   UNL     1      23.922  -1.682  16.010  1.00  0.00     0.051 A 
ATOM     15  C   UNL     1      25.286  -1.657  16.332  1.00  0.00     0.157 A 
ATOM     16  C   UNL     1      25.796  -0.980  14.059  1.00  0.00     0.062 A 
ATOM     17  C   UNL     1      26.226  -1.307  15.349  1.00  0.00     0.158 A 
BRANCH  15  18
ATOM     18  O   UNL     1      25.708  -1.983  17.620  1.00  0.00    -0.504 OA
ATOM     19  H   UNL     1      26.382  -2.721  17.788  1.00  0.00     0.293 HD
ENDBRANCH  15  18
BRANCH  17  20
ATOM     20  O   UNL     1      27.592  -1.281  15.636  1.00  0.00    -0.504 OA
ATOM     21  H   UNL     1      27.948  -0.969  16.531  1.00  0.00     0.293 HD
ENDBRANCH  17  20
ENDBRANCH   1  12
BRANCH   2  22
ATOM     22  O   UNL     1      23.633  -2.997  11.802  1.00  0.00    -0.502 OA
ATOM     23  H   UNL     1      22.772  -3.515  11.935  1.00  0.00     0.293 HD
ENDBRANCH   2  22
BRANCH   9  24
ATOM     24  O   UNL     1      23.190   4.217   8.956  1.00  0.00    -0.508 OA
ATOM     25  H   UNL     1      23.395   4.575   8.030  1.00  0.00     0.293 HD
ENDBRANCH   9  24
TORSDOF 5
ENDMDL
MODEL 4
REMARK VINA RESULT:    -5.272      2.381      6.587
REMARK INTER + INTRA:          -6.457
REMARK INTER:                  -6.133
REMARK INTRA:                  -0.324
REMARK UNBOUND:                -0.261
REMARK SMILES O=c1c(O)c(-c2ccc(O)c(O)c2)oc2cc(O)ccc12
REMARK SMILES IDX 5 1 3 2 2 3 1 4 21 5 15 6 14 7 16 8 17 9 19 10 20 11 6 12
REMARK SMILES IDX 7 13 8 14 9 15 13 16 11 17 10 18 12 20 4 22 18 24
REMARK H PARENT 10 19 12 21 4 23 18 25
REMARK Flexibility Score: inf
ROOT
ATOM      1  C   UNL     1      23.608  -0.765  12.940  1.00  0.00     0.180 A 
ATOM      2  C   UNL     1      23.008  -1.764  12.145  1.00  0.00     0.208 A 
ATOM      3  C   UNL     1      22.608  -1.439  10.839  1.00  0.00     0.235 A 
ATOM      4  O   UNL     1      22.079  -2.317  10.104  1.00  0.00    -0.285 OA
ATOM      5  C   UNL     1      22.794  -0.131  10.365  1.00  0.00     0.069 A 
ATOM      6  C   UNL     1      23.381   0.817  11.231  1.00  0.00     0.142 A 
ATOM      7  O   UNL     1      23.754   0.467  12.457  1.00  0.00    -0.452 OA
ATOM      8  C   UNL     1      23.575   2.134  10.800  1.00  0.00     0.094 A 
ATOM      9  C   UNL     1      23.191   2.518   9.511  1.00  0.00     0.119 A 
ATOM     10  C   UNL     1      22.610   1.579   8.647  1.00  0.00     0.047 A 
ATOM     11  C   UNL     1      22.411   0.260   9.069  1.00  0.00     0.020 A 
ENDROOT
BRANCH   1  12
ATOM     12  C   UNL     1      24.073  -1.034  14.319  1.00  0.00     0.025 A 
ATOM     13  C   UNL     1      25.379  -1.489  14.576  1.00  0.00     0.016 A 
ATOM     14  C   UNL     1      25.803  -1.713  15.888  1.00  0.00     0.051 A 
ATOM     15  C   UNL     1      24.936  -1.473  16.963  1.00  0.00     0.157 A 
ATOM     16  C   UNL     1      23.216  -0.775  15.401  1.00  0.00     0.062 A 
ATOM     17  C   UNL     1      23.637  -0.998  16.716  1.00  0.00     0.158 A 
BRANCH  15  18
ATOM     18  O   UNL     1      25.362  -1.699  18.271  1.00  0.00    -0.504 OA
ATOM     19  H   UNL     1      25.986  -2.464  18.501  1.00  0.00     0.293 HD
ENDBRANCH  15  18
BRANCH  17  20
ATOM     20  O   UNL     1      22.753  -0.742  17.765  1.00  0.00    -0.504 OA
ATOM     21  H   UNL     1      21.939  -1.319  17.935  1.00  0.00     0.293 HD
ENDBRANCH  17  20
ENDBRANCH   1  12
BRANCH   2  22
ATOM     22  O   UNL     1      22.790  -3.044  12.660  1.00  0.00    -0.502 OA
ATOM     23  H   UNL     1      22.154  -3.702  12.226  1.00  0.00     0.293 HD
ENDBRANCH   2  22
BRANCH   9  24
ATOM     24  O   UNL     1      23.392   3.832   9.097  1.00  0.00    -0.508 OA
ATOM     25  H   UNL     1      24.323   4.227   9.022  1.00  0.00     0.293 HD
ENDBRANCH   9  24
TORSDOF 5
ENDMDL
MODEL 5
REMARK VINA RESULT:    -5.204      2.712      3.698
REMARK INTER + INTRA:          -6.378
REMARK INTER:                  -6.062
REMARK INTRA:                  -0.316
REMARK UNBOUND:                -0.261
REMARK SMILES O=c1c(O)c(-c2ccc(O)c(O)c2)oc2cc(O)ccc12
REMARK SMILES IDX 5 1 3 2 2 3 1 4 21 5 15 6 14 7 16 8 17 9 19 10 20 11 6 12
REMARK SMILES IDX 7 13 8 14 9 15 13 16 11 17 10 18 12 20 4 22 18 24
REMARK H PARENT 10 19 12 21 4 23 18 25
REMARK Flexibility Score: inf
ROOT
ATOM      1  C   UNL     1      24.448  -1.429  13.797  1.00  0.00     0.180 A 
ATOM      2  C   UNL     1      25.439  -2.432  13.745  1.00  0.00     0.208 A 
ATOM      3  C   UNL     1      26.010  -2.881  14.946  1.00  0.00     0.235 A 
ATOM      4  O   UNL     1      26.891  -3.784  14.926  1.00  0.00    -0.285 OA
ATOM      5  C   UNL     1      25.599  -2.312  16.161  1.00  0.00     0.069 A 
ATOM      6  C   UNL     1      24.618  -1.298  16.127  1.00  0.00     0.142 A 
ATOM      7  O   UNL     1      24.096  -0.907  14.970  1.00  0.00    -0.452 OA
ATOM      8  C   UNL     1      24.188  -0.699  17.316  1.00  0.00     0.094 A 
ATOM      9  C   UNL     1      24.724  -1.102  18.543  1.00  0.00     0.119 A 
ATOM     10  C   UNL     1      25.697  -2.111  18.582  1.00  0.00     0.047 A 
ATOM     11  C   UNL     1      26.134  -2.715  17.398  1.00  0.00     0.020 A 
ENDROOT
BRANCH   1  12
ATOM     12  C   UNL     1      23.785  -0.916  12.577  1.00  0.00     0.025 A 
ATOM     13  C   UNL     1      22.559  -1.443  12.132  1.00  0.00     0.016 A 
ATOM     14  C   UNL     1      21.941  -0.925  10.991  1.00  0.00     0.051 A 
ATOM     15  C   UNL     1      22.530   0.132  10.285  1.00  0.00     0.157 A 
ATOM     16  C   UNL     1      24.360   0.158  11.877  1.00  0.00     0.062 A 
ATOM     17  C   UNL     1      23.744   0.678  10.734  1.00  0.00     0.158 A 
BRANCH  15  18
ATOM     18  O   UNL     1      21.911   0.645   9.146  1.00  0.00    -0.504 OA
ATOM     19  H   UNL     1      22.222   0.393   8.214  1.00  0.00     0.293 HD
ENDBRANCH  15  18
BRANCH  17  20
ATOM     20  O   UNL     1      24.352   1.736  10.058  1.00  0.00    -0.504 OA
ATOM     21  H   UNL     1      24.343   1.806   9.048  1.00  0.00     0.293 HD
ENDBRANCH  17  20
ENDBRANCH   1  12
BRANCH   2  22
ATOM     22  O   UNL     1      25.865  -2.944  12.517  1.00  0.00    -0.502 OA
ATOM     23  H   UNL     1      26.840  -3.133  12.317  1.00  0.00     0.293 HD
ENDBRANCH   2  22
BRANCH   9  24
ATOM     24  O   UNL     1      24.284  -0.496  19.717  1.00  0.00    -0.508 OA
ATOM     25  H   UNL     1      23.704  -0.993  20.384  1.00  0.00     0.293 HD
ENDBRANCH   9  24
TORSDOF 5
ENDMDL
MODEL 6
REMARK VINA RESULT:    -5.204      2.137      3.698
REMARK INTER + INTRA:          -6.378
REMARK INTER:                  -6.271
REMARK INTRA:                  -0.107
REMARK UNBOUND:                -0.261
REMARK SMILES O=c1c(O)c(-c2ccc(O)c(O)c2)oc2cc(O)ccc12
REMARK SMILES IDX 5 1 3 2 2 3 1 4 21 5 15 6 14 7 16 8 17 9 19 10 20 11 6 12
REMARK SMILES IDX 7 13 8 14 9 15 13 16 11 17 10 18 12 20 4 22 18 24
REMARK H PARENT 10 19 12 21 4 23 18 25
REMARK Flexibility Score: inf
ROOT
ATOM      1  C   UNL     1      23.602  -0.259  11.770  1.00  0.00     0.180 A 
ATOM      2  C   UNL     1      22.602  -1.028  12.401  1.00  0.00     0.208 A 
ATOM      3  C   UNL     1      22.900  -1.654  13.622  1.00  0.00     0.235 A 
ATOM      4  O   UNL     1      22.019  -2.339  14.210  1.00  0.00    -0.285 OA
ATOM      5  C   UNL     1      24.183  -1.518  14.172  1.00  0.00     0.069 A 
ATOM      6  C   UNL     1      25.136  -0.750  13.468  1.00  0.00     0.142 A 
ATOM      7  O   UNL     1      24.811  -0.166  12.320  1.00  0.00    -0.452 OA
ATOM      8  C   UNL     1      26.429  -0.598  13.979  1.00  0.00     0.094 A 
ATOM      9  C   UNL     1      26.785  -1.203  15.189  1.00  0.00     0.119 A 
ATOM     10  C   UNL     1      25.842  -1.965  15.893  1.00  0.00     0.047 A 
ATOM     11  C   UNL     1      24.546  -2.123  15.389  1.00  0.00     0.020 A 
ENDROOT
BRANCH   1  12
ATOM     12  C   UNL     1      23.361   0.447  10.492  1.00  0.00     0.025 A 
ATOM     13  C   UNL     1      22.989  -0.250   9.328  1.00  0.00     0.016 A 
ATOM     14  C   UNL     1      22.743   0.441   8.139  1.00  0.00     0.051 A 
ATOM     15  C   UNL     1      22.852   1.838   8.097  1.00  0.00     0.157 A 
ATOM     16  C   UNL     1      23.448   1.849  10.449  1.00  0.00     0.062 A 
ATOM     17  C   UNL     1      23.203   2.544   9.260  1.00  0.00     0.158 A 
BRANCH  15  18
ATOM     18  O   UNL     1      22.608   2.524   6.908  1.00  0.00    -0.504 OA
ATOM     19  H   UNL     1      23.012   2.223   6.029  1.00  0.00     0.293 HD
ENDBRANCH  15  18
BRANCH  17  20
ATOM     20  O   UNL     1      23.311   3.935   9.252  1.00  0.00    -0.504 OA
ATOM     21  H   UNL     1      24.207   4.405   9.201  1.00  0.00     0.293 HD
ENDBRANCH  17  20
ENDBRANCH   1  12
BRANCH   2  22
ATOM     22  O   UNL     1      21.349  -1.186  11.804  1.00  0.00    -0.502 OA
ATOM     23  H   UNL     1      20.702  -1.912  12.088  1.00  0.00     0.293 HD
ENDBRANCH   2  22
BRANCH   9  24
ATOM     24  O   UNL     1      28.077  -1.041  15.684  1.00  0.00    -0.508 OA
ATOM     25  H   UNL     1      28.476  -0.120  15.829  1.00  0.00     0.293 HD
ENDBRANCH   9  24
TORSDOF 5
ENDMDL
MODEL 7
REMARK VINA RESULT:    -5.181      8.601     10.051
REMARK INTER + INTRA:          -6.351
REMARK INTER:                  -6.077
REMARK INTRA:                  -0.273
REMARK UNBOUND:                -0.261
REMARK SMILES O=c1c(O)c(-c2ccc(O)c(O)c2)oc2cc(O)ccc12
REMARK SMILES IDX 5 1 3 2 2 3 1 4 21 5 15 6 14 7 16 8 17 9 19 10 20 11 6 12
REMARK SMILES IDX 7 13 8 14 9 15 13 16 11 17 10 18 12 20 4 22 18 24
REMARK H PARENT 10 19 12 21 4 23 18 25
REMARK Flexibility Score: inf
ROOT
ATOM      1  C   UNL     1      14.693   2.184  15.492  1.00  0.00     0.180 A 
ATOM      2  C   UNL     1      14.038   2.823  16.566  1.00  0.00     0.208 A 
ATOM      3  C   UNL     1      13.977   2.167  17.806  1.00  0.00     0.235 A 
ATOM      4  O   UNL     1      13.406   2.722  18.785  1.00  0.00    -0.285 OA
ATOM      5  C   UNL     1      14.547   0.892  17.942  1.00  0.00     0.069 A 
ATOM      6  C   UNL     1      15.164   0.311  16.813  1.00  0.00     0.142 A 
ATOM      7  O   UNL     1      15.209   0.969  15.660  1.00  0.00    -0.452 OA
ATOM      8  C   UNL     1      15.736  -0.962  16.905  1.00  0.00     0.094 A 
ATOM      9  C   UNL     1      15.700  -1.666  18.113  1.00  0.00     0.119 A 
ATOM     10  C   UNL     1      15.091  -1.092  19.238  1.00  0.00     0.047 A 
ATOM     11  C   UNL     1      14.515   0.181  19.155  1.00  0.00     0.020 A 
ENDROOT
BRANCH   1  12
ATOM     12  C   UNL     1      14.816   2.817  14.160  1.00  0.00     0.025 A 
ATOM     13  C   UNL     1      13.738   2.841  13.257  1.00  0.00     0.016 A 
ATOM     14  C   UNL     1      13.871   3.465  12.014  1.00  0.00     0.051 A 
ATOM     15  C   UNL     1      15.076   4.086  11.660  1.00  0.00     0.157 A 
ATOM     16  C   UNL     1      16.015   3.460  13.808  1.00  0.00     0.062 A 
ATOM     17  C   UNL     1      16.151   4.085  12.564  1.00  0.00     0.158 A 
BRANCH  15  18
ATOM     18  O   UNL     1      15.206   4.707  10.418  1.00  0.00    -0.504 OA
ATOM     19  H   UNL     1      15.339   5.708  10.336  1.00  0.00     0.293 HD
ENDBRANCH  15  18
BRANCH  17  20
ATOM     20  O   UNL     1      17.361   4.702  12.244  1.00  0.00    -0.504 OA
ATOM     21  H   UNL     1      17.666   4.825  11.287  1.00  0.00     0.293 HD
ENDBRANCH  17  20
ENDBRANCH   1  12
BRANCH   2  22
ATOM     22  O   UNL     1      13.437   4.071  16.387  1.00  0.00    -0.502 OA
ATOM     23  H   UNL     1      12.431   4.186  16.344  1.00  0.00     0.293 HD
ENDBRANCH   2  22
BRANCH   9  24
ATOM     24  O   UNL     1      16.275  -2.932  18.188  1.00  0.00    -0.508 OA
ATOM     25  H   UNL     1      16.971  -3.238  17.517  1.00  0.00     0.293 HD
ENDBRANCH   9  24
TORSDOF 5
ENDMDL
MODEL 8
REMARK VINA RESULT:    -5.178      8.660     10.027
REMARK INTER + INTRA:          -6.348
REMARK INTER:                  -6.030
REMARK INTRA:                  -0.318
REMARK UNBOUND:                -0.261
REMARK SMILES O=c1c(O)c(-c2ccc(O)c(O)c2)oc2cc(O)ccc12
REMARK SMILES IDX 5 1 3 2 2 3 1 4 21 5 15 6 14 7 16 8 17 9 19 10 20 11 6 12
REMARK SMILES IDX 7 13 8 14 9 15 13 16 11 17 10 18 12 20 4 22 18 24
REMARK H PARENT 10 19 12 21 4 23 18 25
REMARK Flexibility Score: inf
ROOT
ATOM      1  C   UNL     1      15.109   0.943  15.669  1.00  0.00     0.180 A 
ATOM      2  C   UNL     1      15.770  -0.295  15.804  1.00  0.00     0.208 A 
ATOM      3  C   UNL     1      15.744  -0.943  17.049  1.00  0.00     0.235 A 
ATOM      4  O   UNL     1      16.319  -2.057  17.192  1.00  0.00    -0.285 OA
ATOM      5  C   UNL     1      15.083  -0.338  18.129  1.00  0.00     0.069 A 
ATOM      6  C   UNL     1      14.465   0.914  17.918  1.00  0.00     0.142 A 
ATOM      7  O   UNL     1      14.505   1.489  16.722  1.00  0.00    -0.452 OA
ATOM      8  C   UNL     1      13.804   1.554  18.971  1.00  0.00     0.094 A 
ATOM      9  C   UNL     1      13.749   0.960  20.236  1.00  0.00     0.119 A 
ATOM     10  C   UNL     1      14.360  -0.285  20.449  1.00  0.00     0.047 A 
ATOM     11  C   UNL     1      15.024  -0.932  19.402  1.00  0.00     0.020 A 
ENDROOT
BRANCH   1  12
ATOM     12  C   UNL     1      15.075   1.679  14.385  1.00  0.00     0.025 A 
ATOM     13  C   UNL     1      14.127   1.376  13.391  1.00  0.00     0.016 A 
ATOM     14  C   UNL     1      14.098   2.101  12.198  1.00  0.00     0.051 A 
ATOM     15  C   UNL     1      15.007   3.146  11.983  1.00  0.00     0.157 A 
ATOM     16  C   UNL     1      15.969   2.742  14.173  1.00  0.00     0.062 A 
ATOM     17  C   UNL     1      15.944   3.469  12.978  1.00  0.00     0.158 A 
BRANCH  15  18
ATOM     18  O   UNL     1      14.978   3.866  10.789  1.00  0.00    -0.504 OA
ATOM     19  H   UNL     1      14.702   4.841  10.763  1.00  0.00     0.293 HD
ENDBRANCH  15  18
BRANCH  17  20
ATOM     20  O   UNL     1      16.856   4.509  12.798  1.00  0.00    -0.504 OA
ATOM     21  H   UNL     1      17.844   4.340  12.654  1.00  0.00     0.293 HD
ENDBRANCH  17  20
ENDBRANCH   1  12
BRANCH   2  22
ATOM     22  O   UNL     1      16.462  -0.850  14.725  1.00  0.00    -0.502 OA
ATOM     23  H   UNL     1      17.472  -0.932  14.714  1.00  0.00     0.293 HD
ENDBRANCH   2  22
BRANCH   9  24
ATOM     24  O   UNL     1      13.086   1.610  21.273  1.00  0.00    -0.508 OA
ATOM     25  H   UNL     1      13.298   1.412  22.245  1.00  0.00     0.293 HD
ENDBRANCH   9  24
TORSDOF 5
ENDMDL
MODEL 9
REMARK VINA RESULT:    -4.998      5.040      9.843
REMARK INTER + INTRA:          -6.135
REMARK INTER:                  -6.022
REMARK INTRA:                  -0.113
REMARK UNBOUND:                -0.261
REMARK SMILES O=c1c(O)c(-c2ccc(O)c(O)c2)oc2cc(O)ccc12
REMARK SMILES IDX 5 1 3 2 2 3 1 4 21 5 15 6 14 7 16 8 17 9 19 10 20 11 6 12
REMARK SMILES IDX 7 13 8 14 9 15 13 16 11 17 10 18 12 20 4 22 18 24
REMARK H PARENT 10 19 12 21 4 23 18 25
REMARK Flexibility Score: inf
ROOT
ATOM      1  C   UNL     1      22.858  -8.525  16.305  1.00  0.00     0.180 A 
ATOM      2  C   UNL     1      23.967  -8.880  17.102  1.00  0.00     0.208 A 
ATOM      3  C   UNL     1      25.039  -7.981  17.208  1.00  0.00     0.235 A 
ATOM      4  O   UNL     1      26.037  -8.271  17.923  1.00  0.00    -0.285 OA
ATOM      5  C   UNL     1      24.993  -6.766  16.506  1.00  0.00     0.069 A 
ATOM      6  C   UNL     1      23.859  -6.495  15.712  1.00  0.00     0.142 A 
ATOM      7  O   UNL     1      22.861  -7.369  15.646  1.00  0.00    -0.452 OA
ATOM      8  C   UNL     1      23.779  -5.299  14.990  1.00  0.00     0.094 A 
ATOM      9  C   UNL     1      24.820  -4.367  15.052  1.00  0.00     0.119 A 
ATOM     10  C   UNL     1      25.948  -4.631  15.842  1.00  0.00     0.047 A 
ATOM     11  C   UNL     1      26.037  -5.824  16.567  1.00  0.00     0.020 A 
ENDROOT
BRANCH   1  12
ATOM     12  C   UNL     1      21.681  -9.410  16.158  1.00  0.00     0.025 A 
ATOM     13  C   UNL     1      21.325  -9.956  14.911  1.00  0.00     0.016 A 
ATOM     14  C   UNL     1      20.224 -10.808  14.802  1.00  0.00     0.051 A 
ATOM     15  C   UNL     1      19.469 -11.138  15.936  1.00  0.00     0.157 A 
ATOM     16  C   UNL     1      20.934  -9.762  17.295  1.00  0.00     0.062 A 
ATOM     17  C   UNL     1      19.830 -10.614  17.188  1.00  0.00     0.158 A 
BRANCH  15  18
ATOM     18  O   UNL     1      18.369 -11.987  15.823  1.00  0.00    -0.504 OA
ATOM     19  H   UNL     1      18.316 -12.694  15.099  1.00  0.00     0.293 HD
ENDBRANCH  15  18
BRANCH  17  20
ATOM     20  O   UNL     1      19.104 -10.930  18.337  1.00  0.00    -0.504 OA
ATOM     21  H   UNL     1      19.495 -10.830  19.266  1.00  0.00     0.293 HD
ENDBRANCH  17  20
ENDBRANCH   1  12
BRANCH   2  22
ATOM     22  O   UNL     1      24.006 -10.118  17.749  1.00  0.00    -0.502 OA
ATOM     23  H   UNL     1      23.468 -10.309  18.586  1.00  0.00     0.293 HD
ENDBRANCH   2  22
BRANCH   9  24
ATOM     24  O   UNL     1      24.724  -3.181  14.328  1.00  0.00    -0.508 OA
ATOM     25  H   UNL     1      24.339  -2.339  14.740  1.00  0.00     0.293 HD
ENDBRANCH   9  24
TORSDOF 5
ENDMDL
