MODEL 1
REMARK VINA RESULT:    -3.928      0.000      0.000
REMARK INTER + INTRA:          -5.572
REMARK INTER:                  -5.305
REMARK INTRA:                  -0.267
REMARK UNBOUND:                -0.267
REMARK SMILES CCCCCCCC(=O)[O-]
REMARK SMILES IDX 5 1 6 2 7 3 8 4 9 5 10 6 4 7 3 8 2 9 1 10
REMARK H PARENT
REMARK Flexibility Score: inf
ROOT
ATOM      1  C   UNL     1       8.397  -6.736  -4.245  1.00  0.00     0.000 C 
ENDROOT
BRANCH   1   2
ATOM      2  C   UNL     1       8.050  -8.074  -3.572  1.00  0.00     0.006 C 
BRANCH   2   3
ATOM      3  C   UNL     1       8.019  -7.977  -2.041  1.00  0.00     0.053 C 
BRANCH   3   4
ATOM      4  C   UNL     1       7.733  -9.316  -1.440  1.00  0.00     0.041 C 
ATOM      5  O   UNL     1       7.303  -9.402  -0.259  1.00  0.00    -0.550 OA
ATOM      6  O   UNL     1       7.986 -10.473  -2.166  1.00  0.00    -0.550 OA
ENDBRANCH   3   4
ENDBRANCH   2   3
ENDBRANCH   1   2
BRANCH   1   7
ATOM      7  C   UNL     1       8.559  -5.590  -3.233  1.00  0.00     0.000 C 
BRANCH   7   8
ATOM      8  C   UNL     1       8.555  -4.205  -3.903  1.00  0.00    -0.000 C 
BRANCH   8   9
ATOM      9  C   UNL     1       7.376  -4.019  -4.870  1.00  0.00    -0.003 C 
ATOM     10  C   UNL     1       7.863  -3.601  -6.254  1.00  0.00     0.004 C 
ENDBRANCH   8   9
ENDBRANCH   7   8
ENDBRANCH   1   7
TORSDOF 6
ENDMDL
MODEL 2
REMARK VINA RESULT:    -3.884      3.719      5.859
REMARK INTER + INTRA:          -5.513
REMARK INTER:                  -5.211
REMARK INTRA:                  -0.302
REMARK UNBOUND:                -0.267
REMARK SMILES CCCCCCCC(=O)[O-]
REMARK SMILES IDX 5 1 6 2 7 3 8 4 9 5 10 6 4 7 3 8 2 9 1 10
REMARK H PARENT
REMARK Flexibility Score: inf
ROOT
ATOM      1  C   UNL     1       8.582  -5.654  -3.101  1.00  0.00     0.000 C 
ENDROOT
BRANCH   1   2
ATOM      2  C   UNL     1       8.795  -4.349  -3.886  1.00  0.00     0.006 C 
BRANCH   2   3
ATOM      3  C   UNL     1       7.600  -3.993  -4.781  1.00  0.00     0.053 C 
BRANCH   3   4
ATOM      4  C   UNL     1       8.039  -3.851  -6.203  1.00  0.00     0.041 C 
ATOM      5  O   UNL     1       9.120  -4.369  -6.588  1.00  0.00    -0.550 OA
ATOM      6  O   UNL     1       7.279  -3.104  -7.094  1.00  0.00    -0.550 OA
ENDBRANCH   3   4
ENDBRANCH   2   3
ENDBRANCH   1   2
BRANCH   1   7
ATOM      7  C   UNL     1       8.309  -6.856  -4.020  1.00  0.00     0.000 C 
BRANCH   7   8
ATOM      8  C   UNL     1       8.303  -8.192  -3.256  1.00  0.00    -0.000 C 
BRANCH   8   9
ATOM      9  C   UNL     1       8.397  -8.005  -1.734  1.00  0.00    -0.003 C 
ATOM     10  C   UNL     1       7.495  -8.995  -1.004  1.00  0.00     0.004 C 
ENDBRANCH   8   9
ENDBRANCH   7   8
ENDBRANCH   1   7
TORSDOF 6
ENDMDL
MODEL 3
REMARK VINA RESULT:    -3.863     21.212     22.289
REMARK INTER + INTRA:          -5.485
REMARK INTER:                  -5.222
REMARK INTRA:                  -0.263
REMARK UNBOUND:                -0.267
REMARK SMILES CCCCCCCC(=O)[O-]
REMARK SMILES IDX 5 1 6 2 7 3 8 4 9 5 10 6 4 7 3 8 2 9 1 10
REMARK H PARENT
REMARK Flexibility Score: inf
ROOT
ATOM      1  C   UNL     1      -7.899   8.673  -8.988  1.00  0.00     0.000 C 
ENDROOT
BRANCH   1   2
ATOM      2  C   UNL     1      -8.611   8.328  -7.669  1.00  0.00     0.006 C 
BRANCH   2   3
ATOM      3  C   UNL     1      -8.630   6.821  -7.382  1.00  0.00     0.053 C 
BRANCH   3   4
ATOM      4  C   UNL     1      -9.989   6.257  -7.647  1.00  0.00     0.041 C 
ATOM      5  O   UNL     1     -11.019   6.917  -7.348  1.00  0.00    -0.550 OA
ATOM      6  O   UNL     1     -10.120   4.981  -8.181  1.00  0.00    -0.550 OA
ENDBRANCH   3   4
ENDBRANCH   2   3
ENDBRANCH   1   2
BRANCH   1   7
ATOM      7  C   UNL     1      -6.848   7.622  -9.384  1.00  0.00     0.000 C 
BRANCH   7   8
ATOM      8  C   UNL     1      -7.097   7.038 -10.785  1.00  0.00    -0.000 C 
BRANCH   8   9
ATOM      9  C   UNL     1      -5.863   6.323 -11.356  1.00  0.00    -0.003 C 
ATOM     10  C   UNL     1      -4.814   7.328 -11.822  1.00  0.00     0.004 C 
ENDBRANCH   8   9
ENDBRANCH   7   8
ENDBRANCH   1   7
TORSDOF 6
ENDMDL
MODEL 4
REMARK VINA RESULT:    -3.834      3.963      6.024
REMARK INTER + INTRA:          -5.445
REMARK INTER:                  -5.256
REMARK INTRA:                  -0.189
REMARK UNBOUND:                -0.267
REMARK SMILES CCCCCCCC(=O)[O-]
REMARK SMILES IDX 5 1 6 2 7 3 8 4 9 5 10 6 4 7 3 8 2 9 1 10
REMARK H PARENT
REMARK Flexibility Score: inf
ROOT
ATOM      1  C   UNL     1       7.168  -9.557   1.050  1.00  0.00     0.000 C 
ENDROOT
BRANCH   1   2
ATOM      2  C   UNL     1       6.744 -10.463   2.217  1.00  0.00     0.006 C 
BRANCH   2   3
ATOM      3  C   UNL     1       5.221 -10.586   2.350  1.00  0.00     0.053 C 
BRANCH   3   4
ATOM      4  C   UNL     1       4.800 -10.354   3.766  1.00  0.00     0.041 C 
ATOM      5  O   UNL     1       3.983  -9.437   4.043  1.00  0.00    -0.550 OA
ATOM      6  O   UNL     1       5.347 -11.120   4.788  1.00  0.00    -0.550 OA
ENDBRANCH   3   4
ENDBRANCH   2   3
ENDBRANCH   1   2
BRANCH   1   7
ATOM      7  C   UNL     1       8.659  -9.704   0.700  1.00  0.00     0.000 C 
BRANCH   7   8
ATOM      8  C   UNL     1       9.065  -8.860  -0.520  1.00  0.00    -0.000 C 
BRANCH   8   9
ATOM      9  C   UNL     1       7.906  -8.648  -1.506  1.00  0.00    -0.003 C 
ATOM     10  C   UNL     1       8.180  -7.464  -2.427  1.00  0.00     0.004 C 
ENDBRANCH   8   9
ENDBRANCH   7   8
ENDBRANCH   1   7
TORSDOF 6
ENDMDL
MODEL 5
REMARK VINA RESULT:    -3.710      1.598      2.543
REMARK INTER + INTRA:          -5.278
REMARK INTER:                  -5.134
REMARK INTRA:                  -0.144
REMARK UNBOUND:                -0.267
REMARK SMILES CCCCCCCC(=O)[O-]
REMARK SMILES IDX 5 1 6 2 7 3 8 4 9 5 10 6 4 7 3 8 2 9 1 10
REMARK H PARENT
REMARK Flexibility Score: inf
ROOT
ATOM      1  C   UNL     1       7.666  -8.120  -1.913  1.00  0.00     0.000 C 
ENDROOT
BRANCH   1   2
ATOM      2  C   UNL     1       8.245  -9.370  -1.230  1.00  0.00     0.006 C 
BRANCH   2   3
ATOM      3  C   UNL     1       8.451  -9.180   0.279  1.00  0.00     0.053 C 
BRANCH   3   4
ATOM      4  C   UNL     1       7.373  -9.878   1.044  1.00  0.00     0.041 C 
ATOM      5  O   UNL     1       7.662 -10.813   1.837  1.00  0.00    -0.550 OA
ATOM      6  O   UNL     1       6.043  -9.531   0.847  1.00  0.00    -0.550 OA
ENDBRANCH   3   4
ENDBRANCH   2   3
ENDBRANCH   1   2
BRANCH   1   7
ATOM      7  C   UNL     1       8.759  -7.167  -2.423  1.00  0.00     0.000 C 
BRANCH   7   8
ATOM      8  C   UNL     1       8.372  -6.476  -3.742  1.00  0.00    -0.000 C 
BRANCH   8   9
ATOM      9  C   UNL     1       8.315  -4.946  -3.614  1.00  0.00    -0.003 C 
ATOM     10  C   UNL     1       7.237  -4.361  -4.522  1.00  0.00     0.004 C 
ENDBRANCH   8   9
ENDBRANCH   7   8
ENDBRANCH   1   7
TORSDOF 6
ENDMDL
MODEL 6
REMARK VINA RESULT:    -3.458     21.002     22.223
REMARK INTER + INTRA:          -4.937
REMARK INTER:                  -4.517
REMARK INTRA:                  -0.420
REMARK UNBOUND:                -0.267
REMARK SMILES CCCCCCCC(=O)[O-]
REMARK SMILES IDX 5 1 6 2 7 3 8 4 9 5 10 6 4 7 3 8 2 9 1 10
REMARK H PARENT
REMARK Flexibility Score: inf
ROOT
ATOM      1  C   UNL     1      -7.773   8.844  -8.878  1.00  0.00     0.000 C 
ENDROOT
BRANCH   1   2
ATOM      2  C   UNL     1      -6.875   7.688  -9.350  1.00  0.00     0.006 C 
BRANCH   2   3
ATOM      3  C   UNL     1      -6.950   7.459 -10.865  1.00  0.00     0.053 C 
BRANCH   3   4
ATOM      4  C   UNL     1      -5.763   6.679 -11.333  1.00  0.00     0.041 C 
ATOM      5  O   UNL     1      -4.713   7.275 -11.689  1.00  0.00    -0.550 OA
ATOM      6  O   UNL     1      -5.832   5.295 -11.422  1.00  0.00    -0.550 OA
ENDBRANCH   3   4
ENDBRANCH   2   3
ENDBRANCH   1   2
BRANCH   1   7
ATOM      7  C   UNL     1      -8.655   8.455  -7.680  1.00  0.00     0.000 C 
BRANCH   7   8
ATOM      8  C   UNL     1      -8.590   6.951  -7.362  1.00  0.00    -0.000 C 
BRANCH   8   9
ATOM      9  C   UNL     1      -9.909   6.225  -7.665  1.00  0.00    -0.003 C 
ATOM     10  C   UNL     1      -9.783   5.360  -8.916  1.00  0.00     0.004 C 
ENDBRANCH   8   9
ENDBRANCH   7   8
ENDBRANCH   1   7
TORSDOF 6
ENDMDL
MODEL 7
REMARK VINA RESULT:    -3.397      4.038      7.315
REMARK INTER + INTRA:          -4.855
REMARK INTER:                  -4.684
REMARK INTRA:                  -0.171
REMARK UNBOUND:                -0.267
REMARK SMILES CCCCCCCC(=O)[O-]
REMARK SMILES IDX 5 1 6 2 7 3 8 4 9 5 10 6 4 7 3 8 2 9 1 10
REMARK H PARENT
REMARK Flexibility Score: inf
ROOT
ATOM      1  C   UNL     1       7.078  -9.714   1.477  1.00  0.00     0.000 C 
ENDROOT
BRANCH   1   2
ATOM      2  C   UNL     1       8.381  -9.987   0.706  1.00  0.00     0.006 C 
BRANCH   2   3
ATOM      3  C   UNL     1       8.799  -8.812  -0.187  1.00  0.00     0.053 C 
BRANCH   3   4
ATOM      4  C   UNL     1       8.092  -8.880  -1.503  1.00  0.00     0.041 C 
ATOM      5  O   UNL     1       7.903  -7.833  -2.176  1.00  0.00    -0.550 OA
ATOM      6  O   UNL     1       7.598 -10.094  -1.965  1.00  0.00    -0.550 OA
ENDBRANCH   3   4
ENDBRANCH   2   3
ENDBRANCH   1   2
BRANCH   1   7
ATOM      7  C   UNL     1       6.807 -10.764   2.567  1.00  0.00     0.000 C 
BRANCH   7   8
ATOM      8  C   UNL     1       6.043 -10.182   3.769  1.00  0.00    -0.000 C 
BRANCH   8   9
ATOM      9  C   UNL     1       4.639 -10.786   3.926  1.00  0.00    -0.003 C 
ATOM     10  C   UNL     1       3.590  -9.693   4.108  1.00  0.00     0.004 C 
ENDBRANCH   8   9
ENDBRANCH   7   8
ENDBRANCH   1   7
TORSDOF 6
ENDMDL
MODEL 8
REMARK VINA RESULT:    -3.383      2.722      4.648
REMARK INTER + INTRA:          -4.836
REMARK INTER:                  -4.769
REMARK INTRA:                  -0.068
REMARK UNBOUND:                -0.267
REMARK SMILES CCCCCCCC(=O)[O-]
REMARK SMILES IDX 5 1 6 2 7 3 8 4 9 5 10 6 4 7 3 8 2 9 1 10
REMARK H PARENT
REMARK Flexibility Score: inf
ROOT
ATOM      1  C   UNL     1       7.524  -9.334   0.268  1.00  0.00     0.000 C 
ENDROOT
BRANCH   1   2
ATOM      2  C   UNL     1       8.283 -10.130   1.343  1.00  0.00     0.006 C 
BRANCH   2   3
ATOM      3  C   UNL     1       7.372 -11.074   2.137  1.00  0.00     0.053 C 
BRANCH   3   4
ATOM      4  C   UNL     1       6.038 -10.438   2.369  1.00  0.00     0.041 C 
ATOM      5  O   UNL     1       5.889  -9.600   3.296  1.00  0.00    -0.550 OA
ATOM      6  O   UNL     1       4.948 -10.807   1.592  1.00  0.00    -0.550 OA
ENDBRANCH   3   4
ENDBRANCH   2   3
ENDBRANCH   1   2
BRANCH   1   7
ATOM      7  C   UNL     1       8.200  -9.412  -1.111  1.00  0.00     0.000 C 
BRANCH   7   8
ATOM      8  C   UNL     1       7.784  -8.256  -2.038  1.00  0.00    -0.000 C 
BRANCH   8   9
ATOM      9  C   UNL     1       8.877  -7.186  -2.177  1.00  0.00    -0.003 C 
ATOM     10  C   UNL     1       8.439  -6.078  -3.130  1.00  0.00     0.004 C 
ENDBRANCH   8   9
ENDBRANCH   7   8
ENDBRANCH   1   7
TORSDOF 6
ENDMDL
MODEL 9
REMARK VINA RESULT:    -3.334      3.663      5.201
REMARK INTER + INTRA:          -4.771
REMARK INTER:                  -4.398
REMARK INTRA:                  -0.372
REMARK UNBOUND:                -0.267
REMARK SMILES CCCCCCCC(=O)[O-]
REMARK SMILES IDX 5 1 6 2 7 3 8 4 9 5 10 6 4 7 3 8 2 9 1 10
REMARK H PARENT
REMARK Flexibility Score: inf
ROOT
ATOM      1  C   UNL     1       8.853  -4.454  -6.722  1.00  0.00     0.000 C 
ENDROOT
BRANCH   1   2
ATOM      2  C   UNL     1       8.172  -5.503  -7.617  1.00  0.00     0.006 C 
BRANCH   2   3
ATOM      3  C   UNL     1       8.864  -6.871  -7.559  1.00  0.00     0.053 C 
BRANCH   3   4
ATOM      4  C   UNL     1       8.065  -7.891  -8.305  1.00  0.00     0.041 C 
ATOM      5  O   UNL     1       8.254  -9.119  -8.099  1.00  0.00    -0.550 OA
ATOM      6  O   UNL     1       7.143  -7.488  -9.263  1.00  0.00    -0.550 OA
ENDBRANCH   3   4
ENDBRANCH   2   3
ENDBRANCH   1   2
BRANCH   1   7
ATOM      7  C   UNL     1       7.845  -3.498  -6.062  1.00  0.00     0.000 C 
BRANCH   7   8
ATOM      8  C   UNL     1       7.460  -3.938  -4.638  1.00  0.00    -0.000 C 
BRANCH   8   9
ATOM      9  C   UNL     1       8.640  -4.551  -3.869  1.00  0.00    -0.003 C 
ATOM     10  C   UNL     1       8.272  -5.919  -3.303  1.00  0.00     0.004 C 
ENDBRANCH   8   9
ENDBRANCH   7   8
ENDBRANCH   1   7
TORSDOF 6
ENDMDL
