MODEL 1
REMARK VINA RESULT:    -3.047      0.000      0.000
REMARK INTER + INTRA:          -4.818
REMARK INTER:                  -4.650
REMARK INTRA:                  -0.168
REMARK UNBOUND:                -0.168
REMARK SMILES CC1=CCC[C@@H](C)C(=O)C[C@H](C(C)C)C(=O)C1
REMARK SMILES IDX 8 1 9 2 6 3 7 4 5 5 4 6 3 7 2 8 1 9 10 11 11 12 15 13 16 14
REMARK SMILES IDX 17 15 12 17 13 18 14 19
REMARK H PARENT
REMARK Flexibility Score: 70.00
ROOT
ATOM      1  C   UNL     1      21.534  36.845  85.135  1.00  0.00     0.136 C 
ATOM      2  O   UNL     1      20.356  37.168  85.062  1.00  0.00    -0.299 OA
ENDROOT
BRANCH   1   3
ATOM      3  C   UNL     1      21.959  35.462  84.677  1.00  0.00     0.053 C 
ATOM      4  C   UNL     1      20.729  34.610  84.336  1.00  0.00     0.016 C 
BRANCH   3   5
ATOM      5  C   UNL     1      22.823  34.775  85.760  1.00  0.00     0.015 C 
BRANCH   5   6
ATOM      6  C   UNL     1      21.969  34.306  86.953  1.00  0.00     0.028 C 
BRANCH   6   7
ATOM      7  C   UNL     1      22.756  34.165  88.233  1.00  0.00    -0.028 C 
ATOM      8  C   UNL     1      22.986  35.155  89.132  1.00  0.00    -0.070 CG0
ATOM      9  C   UNL     1      23.886  34.843  90.301  1.00  0.00     0.039 C 
ATOM     10  G   UNL     1      22.346  36.535  89.049  1.00  0.00     0.000 G0
ENDBRANCH   6   7
ENDBRANCH   5   6
ENDBRANCH   3   5
ENDBRANCH   1   3
BRANCH   1  11
ATOM     11  C   UNL     1      22.536  37.844  85.672  1.00  0.00     0.087 C 
BRANCH  11  12
ATOM     12  C   UNL     1      22.198  38.287  87.119  1.00  0.00     0.066 C 
BRANCH  12  13
ATOM     13  C   UNL     1      23.026  37.516  88.137  1.00  0.00     0.140 C 
ATOM     14  O   UNL     1      24.234  37.685  88.214  1.00  0.00    -0.299 OA
BRANCH  13  15
ATOM     15  C   UNL     1      22.345  36.557  89.083  1.00  0.00     0.106 CG0
ATOM     16  G   UNL     1      22.973  35.169  89.120  1.00  0.00     0.000 G0
ENDBRANCH  13  15
ENDBRANCH  12  13
BRANCH  12  17
ATOM     17  C   UNL     1      22.250  39.837  87.294  1.00  0.00    -0.006 C 
ATOM     18  C   UNL     1      21.714  40.566  86.051  1.00  0.00     0.008 C 
ATOM     19  C   UNL     1      21.557  40.364  88.564  1.00  0.00     0.008 C 
ENDBRANCH  12  17
ENDBRANCH  11  12
ENDBRANCH   1  11
TORSDOF 1
ENDMDL
MODEL 2
REMARK VINA RESULT:    -2.817      2.071      4.191
REMARK INTER + INTRA:          -4.466
REMARK INTER:                  -4.528
REMARK INTRA:                   0.062
REMARK UNBOUND:                -0.168
REMARK SMILES CC1=CCC[C@@H](C)C(=O)C[C@H](C(C)C)C(=O)C1
REMARK SMILES IDX 8 1 9 2 6 3 7 4 5 5 4 6 3 7 2 8 1 9 10 11 11 12 15 13 16 14
REMARK SMILES IDX 17 15 12 17 13 18 14 19
REMARK H PARENT
REMARK Flexibility Score: 70.00
ROOT
ATOM      1  C   UNL     1      21.238  37.066  88.769  1.00  0.00     0.136 C 
ATOM      2  O   UNL     1      20.502  37.022  89.745  1.00  0.00    -0.299 OA
ENDROOT
BRANCH   1   3
ATOM      3  C   UNL     1      22.498  37.909  88.820  1.00  0.00     0.053 C 
ATOM      4  C   UNL     1      22.643  38.735  87.535  1.00  0.00     0.016 C 
BRANCH   3   5
ATOM      5  C   UNL     1      23.740  37.013  89.041  1.00  0.00     0.015 C 
BRANCH   5   6
ATOM      6  C   UNL     1      23.551  36.069  90.244  1.00  0.00     0.028 C 
BRANCH   6   7
ATOM      7  C   UNL     1      24.013  34.658  89.975  1.00  0.00    -0.028 C 
ATOM      8  C   UNL     1      23.205  33.588  89.776  1.00  0.00    -0.070 CG0
ATOM      9  C   UNL     1      23.858  32.237  89.626  1.00  0.00     0.039 C 
ATOM     10  G   UNL     1      21.690  33.686  89.646  1.00  0.00     0.000 G0
ENDBRANCH   6   7
ENDBRANCH   5   6
ENDBRANCH   3   5
ENDBRANCH   1   3
BRANCH   1  11
ATOM     11  C   UNL     1      20.869  36.266  87.538  1.00  0.00     0.087 C 
BRANCH  11  12
ATOM     12  C   UNL     1      21.745  34.996  87.384  1.00  0.00     0.066 C 
BRANCH  12  13
ATOM     13  C   UNL     1      21.196  33.846  88.219  1.00  0.00     0.140 C 
ATOM     14  O   UNL     1      20.381  33.068  87.747  1.00  0.00    -0.299 OA
BRANCH  13  15
ATOM     15  C   UNL     1      21.687  33.646  89.632  1.00  0.00     0.106 CG0
ATOM     16  G   UNL     1      23.204  33.587  89.760  1.00  0.00     0.000 G0
ENDBRANCH  13  15
ENDBRANCH  12  13
BRANCH  12  17
ATOM     17  C   UNL     1      22.009  34.632  85.890  1.00  0.00    -0.006 C 
ATOM     18  C   UNL     1      20.933  35.223  84.964  1.00  0.00     0.008 C 
ATOM     19  C   UNL     1      23.414  34.998  85.379  1.00  0.00     0.008 C 
ENDBRANCH  12  17
ENDBRANCH  11  12
ENDBRANCH   1  11
TORSDOF 1
ENDMDL
MODEL 3
REMARK VINA RESULT:    -2.804      2.672      4.808
REMARK INTER + INTRA:          -4.447
REMARK INTER:                  -4.130
REMARK INTRA:                  -0.318
REMARK UNBOUND:                -0.168
REMARK SMILES CC1=CCC[C@@H](C)C(=O)C[C@H](C(C)C)C(=O)C1
REMARK SMILES IDX 8 1 9 2 6 3 7 4 5 5 4 6 3 7 2 8 1 9 10 11 11 12 15 13 16 14
REMARK SMILES IDX 17 15 12 17 13 18 14 19
REMARK H PARENT
REMARK Flexibility Score: 70.00
ROOT
ATOM      1  C   UNL     1      23.342  35.285  86.901  1.00  0.00     0.136 C 
ATOM      2  O   UNL     1      24.170  35.976  87.477  1.00  0.00    -0.299 OA
ENDROOT
BRANCH   1   3
ATOM      3  C   UNL     1      22.898  35.664  85.499  1.00  0.00     0.053 C 
ATOM      4  C   UNL     1      22.416  37.120  85.466  1.00  0.00     0.016 C 
BRANCH   3   5
ATOM      5  C   UNL     1      21.791  34.705  85.004  1.00  0.00     0.015 C 
BRANCH   5   6
ATOM      6  C   UNL     1      20.385  35.285  85.253  1.00  0.00     0.028 C 
BRANCH   6   7
ATOM      7  C   UNL     1      19.340  34.228  85.515  1.00  0.00    -0.028 C 
ATOM      8  C   UNL     1      18.942  33.800  86.739  1.00  0.00    -0.070 CG0
ATOM      9  C   UNL     1      17.958  32.659  86.794  1.00  0.00     0.039 C 
ATOM     10  G   UNL     1      19.394  34.439  88.046  1.00  0.00     0.000 G0
ENDBRANCH   6   7
ENDBRANCH   5   6
ENDBRANCH   3   5
ENDBRANCH   1   3
BRANCH   1  11
ATOM     11  C   UNL     1      22.790  34.064  87.603  1.00  0.00     0.087 C 
BRANCH  11  12
ATOM     12  C   UNL     1      21.899  34.441  88.815  1.00  0.00     0.066 C 
BRANCH  12  13
ATOM     13  C   UNL     1      20.548  33.744  88.741  1.00  0.00     0.140 C 
ATOM     14  O   UNL     1      20.389  32.640  89.240  1.00  0.00    -0.299 OA
BRANCH  13  15
ATOM     15  C   UNL     1      19.384  34.436  88.075  1.00  0.00     0.106 CG0
ATOM     16  G   UNL     1      18.952  33.800  86.760  1.00  0.00     0.000 G0
ENDBRANCH  13  15
ENDBRANCH  12  13
BRANCH  12  17
ATOM     17  C   UNL     1      22.640  34.260  90.177  1.00  0.00    -0.006 C 
ATOM     18  C   UNL     1      23.820  33.282  90.054  1.00  0.00     0.008 C 
ATOM     19  C   UNL     1      23.098  35.572  90.838  1.00  0.00     0.008 C 
ENDBRANCH  12  17
ENDBRANCH  11  12
ENDBRANCH   1  11
TORSDOF 1
ENDMDL
MODEL 4
REMARK VINA RESULT:    -2.783      8.652     10.681
REMARK INTER + INTRA:          -4.415
REMARK INTER:                  -4.396
REMARK INTRA:                  -0.019
REMARK UNBOUND:                -0.168
REMARK SMILES CC1=CCC[C@@H](C)C(=O)C[C@H](C(C)C)C(=O)C1
REMARK SMILES IDX 8 1 9 2 6 3 7 4 5 5 4 6 3 7 2 8 1 9 10 11 11 12 15 13 16 14
REMARK SMILES IDX 17 15 12 17 13 18 14 19
REMARK H PARENT
REMARK Flexibility Score: 70.00
ROOT
ATOM      1  C   UNL     1      27.807  45.713  87.972  1.00  0.00     0.136 C 
ATOM      2  O   UNL     1      28.646  44.933  88.401  1.00  0.00    -0.299 OA
ENDROOT
BRANCH   1   3
ATOM      3  C   UNL     1      26.799  46.325  88.928  1.00  0.00     0.053 C 
ATOM      4  C   UNL     1      27.488  47.325  89.865  1.00  0.00     0.016 C 
BRANCH   3   5
ATOM      5  C   UNL     1      26.078  45.220  89.735  1.00  0.00     0.015 C 
BRANCH   5   6
ATOM      6  C   UNL     1      24.980  44.533  88.900  1.00  0.00     0.028 C 
BRANCH   6   7
ATOM      7  C   UNL     1      24.327  45.454  87.898  1.00  0.00    -0.028 C 
ATOM      8  C   UNL     1      24.459  45.374  86.551  1.00  0.00    -0.070 CG0
ATOM      9  C   UNL     1      23.811  46.452  85.719  1.00  0.00     0.039 C 
ATOM     10  G   UNL     1      25.177  44.235  85.839  1.00  0.00     0.000 G0
ENDBRANCH   6   7
ENDBRANCH   5   6
ENDBRANCH   3   5
ENDBRANCH   1   3
BRANCH   1  11
ATOM     11  C   UNL     1      27.807  46.052  86.498  1.00  0.00     0.087 C 
BRANCH  11  12
ATOM     12  C   UNL     1      27.735  44.784  85.608  1.00  0.00     0.066 C 
BRANCH  12  13
ATOM     13  C   UNL     1      26.359  44.637  84.973  1.00  0.00     0.140 C 
ATOM     14  O   UNL     1      26.203  44.826  83.776  1.00  0.00    -0.299 OA
BRANCH  13  15
ATOM     15  C   UNL     1      25.183  44.224  85.823  1.00  0.00     0.106 CG0
ATOM     16  G   UNL     1      24.484  45.382  86.523  1.00  0.00     0.000 G0
ENDBRANCH  13  15
ENDBRANCH  12  13
BRANCH  12  17
ATOM     17  C   UNL     1      28.920  44.699  84.596  1.00  0.00    -0.006 C 
ATOM     18  C   UNL     1      29.326  46.090  84.081  1.00  0.00     0.008 C 
ATOM     19  C   UNL     1      30.154  43.939  85.114  1.00  0.00     0.008 C 
ENDBRANCH  12  17
ENDBRANCH  11  12
ENDBRANCH   1  11
TORSDOF 1
ENDMDL
MODEL 5
REMARK VINA RESULT:    -2.717      2.240      4.712
REMARK INTER + INTRA:          -4.314
REMARK INTER:                  -4.447
REMARK INTRA:                   0.133
REMARK UNBOUND:                -0.168
REMARK SMILES CC1=CCC[C@@H](C)C(=O)C[C@H](C(C)C)C(=O)C1
REMARK SMILES IDX 8 1 9 2 6 3 7 4 5 5 4 6 3 7 2 8 1 9 10 11 11 12 15 13 16 14
REMARK SMILES IDX 17 15 12 17 13 18 14 19
REMARK H PARENT
REMARK Flexibility Score: 70.00
ROOT
ATOM      1  C   UNL     1      22.999  35.092  86.331  1.00  0.00     0.136 C 
ATOM      2  O   UNL     1      23.869  34.811  85.518  1.00  0.00    -0.299 OA
ENDROOT
BRANCH   1   3
ATOM      3  C   UNL     1      22.668  36.549  86.596  1.00  0.00     0.053 C 
ATOM      4  C   UNL     1      22.398  37.285  85.277  1.00  0.00     0.016 C 
BRANCH   3   5
ATOM      5  C   UNL     1      23.812  37.230  87.383  1.00  0.00     0.015 C 
BRANCH   5   6
ATOM      6  C   UNL     1      23.529  37.244  88.897  1.00  0.00     0.028 C 
BRANCH   6   7
ATOM      7  C   UNL     1      22.128  37.689  89.239  1.00  0.00    -0.028 C 
ATOM      8  C   UNL     1      21.175  36.919  89.821  1.00  0.00    -0.070 CG0
ATOM      9  C   UNL     1      19.800  37.514  89.988  1.00  0.00     0.039 C 
ATOM     10  G   UNL     1      21.435  35.516  90.357  1.00  0.00     0.000 G0
ENDBRANCH   6   7
ENDBRANCH   5   6
ENDBRANCH   3   5
ENDBRANCH   1   3
BRANCH   1  11
ATOM     11  C   UNL     1      22.273  33.973  87.044  1.00  0.00     0.087 C 
BRANCH  11  12
ATOM     12  C   UNL     1      22.539  33.984  88.571  1.00  0.00     0.066 C 
BRANCH  12  13
ATOM     13  C   UNL     1      21.300  34.421  89.341  1.00  0.00     0.140 C 
ATOM     14  O   UNL     1      20.225  33.871  89.155  1.00  0.00    -0.299 OA
BRANCH  13  15
ATOM     15  C   UNL     1      21.408  35.523  90.367  1.00  0.00     0.106 CG0
ATOM     16  G   UNL     1      21.163  36.919  89.808  1.00  0.00     0.000 G0
ENDBRANCH  13  15
ENDBRANCH  12  13
BRANCH  12  17
ATOM     17  C   UNL     1      23.167  32.647  89.076  1.00  0.00    -0.006 C 
ATOM     18  C   UNL     1      24.340  32.900  90.037  1.00  0.00     0.008 C 
ATOM     19  C   UNL     1      22.163  31.663  89.703  1.00  0.00     0.008 C 
ENDBRANCH  12  17
ENDBRANCH  11  12
ENDBRANCH   1  11
TORSDOF 1
ENDMDL
MODEL 6
REMARK VINA RESULT:    -2.656      2.280      5.499
REMARK INTER + INTRA:          -4.221
REMARK INTER:                  -3.892
REMARK INTRA:                  -0.329
REMARK UNBOUND:                -0.168
REMARK SMILES CC1=CCC[C@@H](C)C(=O)C[C@H](C(C)C)C(=O)C1
REMARK SMILES IDX 8 1 9 2 6 3 7 4 5 5 4 6 3 7 2 8 1 9 10 11 11 12 15 13 16 14
REMARK SMILES IDX 17 15 12 17 13 18 14 19
REMARK H PARENT
REMARK Flexibility Score: 70.00
ROOT
ATOM      1  C   UNL     1      23.135  38.111  87.698  1.00  0.00     0.136 C 
ATOM      2  O   UNL     1      24.191  37.760  88.205  1.00  0.00    -0.299 OA
ENDROOT
BRANCH   1   3
ATOM      3  C   UNL     1      22.241  39.090  88.436  1.00  0.00     0.053 C 
ATOM      4  C   UNL     1      21.087  38.348  89.124  1.00  0.00     0.016 C 
BRANCH   3   5
ATOM      5  C   UNL     1      21.702  40.168  87.466  1.00  0.00     0.015 C 
BRANCH   5   6
ATOM      6  C   UNL     1      20.169  40.094  87.331  1.00  0.00     0.028 C 
BRANCH   6   7
ATOM      7  C   UNL     1      19.697  40.039  85.899  1.00  0.00    -0.028 C 
ATOM      8  C   UNL     1      19.404  38.909  85.208  1.00  0.00    -0.070 CG0
ATOM      9  C   UNL     1      19.048  39.054  83.750  1.00  0.00     0.039 C 
ATOM     10  G   UNL     1      19.367  37.521  85.835  1.00  0.00     0.000 G0
ENDBRANCH   6   7
ENDBRANCH   5   6
ENDBRANCH   3   5
ENDBRANCH   1   3
BRANCH   1  11
ATOM     11  C   UNL     1      22.756  37.561  86.340  1.00  0.00     0.087 C 
BRANCH  11  12
ATOM     12  C   UNL     1      21.699  36.432  86.442  1.00  0.00     0.066 C 
BRANCH  12  13
ATOM     13  C   UNL     1      20.565  36.650  85.450  1.00  0.00     0.140 C 
ATOM     14  O   UNL     1      20.585  36.112  84.354  1.00  0.00    -0.299 OA
BRANCH  13  15
ATOM     15  C   UNL     1      19.388  37.512  85.837  1.00  0.00     0.106 CG0
ATOM     16  G   UNL     1      19.405  38.902  85.214  1.00  0.00     0.000 G0
ENDBRANCH  13  15
ENDBRANCH  12  13
BRANCH  12  17
ATOM     17  C   UNL     1      22.340  35.010  86.379  1.00  0.00    -0.006 C 
ATOM     18  C   UNL     1      23.645  35.012  85.566  1.00  0.00     0.008 C 
ATOM     19  C   UNL     1      22.565  34.345  87.749  1.00  0.00     0.008 C 
ENDBRANCH  12  17
ENDBRANCH  11  12
ENDBRANCH   1  11
TORSDOF 1
ENDMDL
MODEL 7
REMARK VINA RESULT:    -2.625      8.410     10.255
REMARK INTER + INTRA:          -4.174
REMARK INTER:                  -4.066
REMARK INTRA:                  -0.107
REMARK UNBOUND:                -0.168
REMARK SMILES CC1=CCC[C@@H](C)C(=O)C[C@H](C(C)C)C(=O)C1
REMARK SMILES IDX 8 1 9 2 6 3 7 4 5 5 4 6 3 7 2 8 1 9 10 11 11 12 15 13 16 14
REMARK SMILES IDX 17 15 12 17 13 18 14 19
REMARK H PARENT
REMARK Flexibility Score: 70.00
ROOT
ATOM      1  C   UNL     1      26.763  45.135  87.587  1.00  0.00     0.136 C 
ATOM      2  O   UNL     1      27.754  44.692  88.149  1.00  0.00    -0.299 OA
ENDROOT
BRANCH   1   3
ATOM      3  C   UNL     1      25.400  44.968  88.234  1.00  0.00     0.053 C 
ATOM      4  C   UNL     1      25.547  44.406  89.655  1.00  0.00     0.016 C 
BRANCH   3   5
ATOM      5  C   UNL     1      24.499  44.055  87.371  1.00  0.00     0.015 C 
BRANCH   5   6
ATOM      6  C   UNL     1      23.378  44.854  86.680  1.00  0.00     0.028 C 
BRANCH   6   7
ATOM      7  C   UNL     1      23.106  44.403  85.266  1.00  0.00    -0.028 C 
ATOM      8  C   UNL     1      23.760  44.838  84.160  1.00  0.00    -0.070 CG0
ATOM      9  C   UNL     1      23.273  44.346  82.820  1.00  0.00     0.039 C 
ATOM     10  G   UNL     1      24.981  45.748  84.204  1.00  0.00     0.000 G0
ENDBRANCH   6   7
ENDBRANCH   5   6
ENDBRANCH   3   5
ENDBRANCH   1   3
BRANCH   1  11
ATOM     11  C   UNL     1      26.928  45.847  86.263  1.00  0.00     0.087 C 
BRANCH  11  12
ATOM     12  C   UNL     1      27.273  44.867  85.112  1.00  0.00     0.066 C 
BRANCH  12  13
ATOM     13  C   UNL     1      26.285  45.001  83.961  1.00  0.00     0.140 C 
ATOM     14  O   UNL     1      26.525  44.499  82.874  1.00  0.00    -0.299 OA
BRANCH  13  15
ATOM     15  C   UNL     1      24.982  45.732  84.175  1.00  0.00     0.106 CG0
ATOM     16  G   UNL     1      23.752  44.833  84.141  1.00  0.00     0.000 G0
ENDBRANCH  13  15
ENDBRANCH  12  13
BRANCH  12  17
ATOM     17  C   UNL     1      28.771  44.956  84.683  1.00  0.00    -0.006 C 
ATOM     18  C   UNL     1      29.298  46.399  84.761  1.00  0.00     0.008 C 
ATOM     19  C   UNL     1      29.713  44.001  85.438  1.00  0.00     0.008 C 
ENDBRANCH  12  17
ENDBRANCH  11  12
ENDBRANCH   1  11
TORSDOF 1
ENDMDL
MODEL 8
REMARK VINA RESULT:    -2.568      1.885      4.364
REMARK INTER + INTRA:          -4.087
REMARK INTER:                  -3.923
REMARK INTRA:                  -0.164
REMARK UNBOUND:                -0.168
REMARK SMILES CC1=CCC[C@@H](C)C(=O)C[C@H](C(C)C)C(=O)C1
REMARK SMILES IDX 8 1 9 2 6 3 7 4 5 5 4 6 3 7 2 8 1 9 10 11 11 12 15 13 16 14
REMARK SMILES IDX 17 15 12 17 13 18 14 19
REMARK H PARENT
REMARK Flexibility Score: 70.00
ROOT
ATOM      1  C   UNL     1      21.023  34.985  86.055  1.00  0.00     0.136 C 
ATOM      2  O   UNL     1      19.886  35.369  85.820  1.00  0.00    -0.299 OA
ENDROOT
BRANCH   1   3
ATOM      3  C   UNL     1      22.173  35.489  85.201  1.00  0.00     0.053 C 
ATOM      4  C   UNL     1      23.513  34.997  85.764  1.00  0.00     0.016 C 
BRANCH   3   5
ATOM      5  C   UNL     1      22.145  37.033  85.113  1.00  0.00     0.015 C 
BRANCH   5   6
ATOM      6  C   UNL     1      22.483  37.685  86.467  1.00  0.00     0.028 C 
BRANCH   6   7
ATOM      7  C   UNL     1      21.317  38.415  87.087  1.00  0.00    -0.028 C 
ATOM      8  C   UNL     1      20.764  38.138  88.294  1.00  0.00    -0.070 CG0
ATOM      9  C   UNL     1      19.535  38.914  88.694  1.00  0.00     0.039 C 
ATOM     10  G   UNL     1      21.344  37.129  89.277  1.00  0.00     0.000 G0
ENDBRANCH   6   7
ENDBRANCH   5   6
ENDBRANCH   3   5
ENDBRANCH   1   3
BRANCH   1  11
ATOM     11  C   UNL     1      21.250  34.021  87.199  1.00  0.00     0.087 C 
BRANCH  11  12
ATOM     12  C   UNL     1      21.894  34.715  88.427  1.00  0.00     0.066 C 
BRANCH  12  13
ATOM     13  C   UNL     1      20.927  35.700  89.071  1.00  0.00     0.140 C 
ATOM     14  O   UNL     1      19.816  35.338  89.428  1.00  0.00    -0.299 OA
BRANCH  13  15
ATOM     15  C   UNL     1      21.357  37.128  89.299  1.00  0.00     0.106 CG0
ATOM     16  G   UNL     1      20.769  38.121  88.304  1.00  0.00     0.000 G0
ENDBRANCH  13  15
ENDBRANCH  12  13
BRANCH  12  17
ATOM     17  C   UNL     1      22.526  33.694  89.424  1.00  0.00    -0.006 C 
ATOM     18  C   UNL     1      22.627  32.289  88.808  1.00  0.00     0.008 C 
ATOM     19  C   UNL     1      23.885  34.122  90.006  1.00  0.00     0.008 C 
ENDBRANCH  12  17
ENDBRANCH  11  12
ENDBRANCH   1  11
TORSDOF 1
ENDMDL
MODEL 9
REMARK VINA RESULT:    -2.505      8.629     10.733
REMARK INTER + INTRA:          -3.990
REMARK INTER:                  -3.709
REMARK INTRA:                  -0.282
REMARK UNBOUND:                -0.168
REMARK SMILES CC1=CCC[C@@H](C)C(=O)C[C@H](C(C)C)C(=O)C1
REMARK SMILES IDX 8 1 9 2 6 3 7 4 5 5 4 6 3 7 2 8 1 9 10 11 11 12 15 13 16 14
REMARK SMILES IDX 17 15 12 17 13 18 14 19
REMARK H PARENT
REMARK Flexibility Score: 70.00
ROOT
ATOM      1  C   UNL     1      25.452  44.790  83.864  1.00  0.00     0.136 C 
ATOM      2  O   UNL     1      24.802  45.009  82.852  1.00  0.00    -0.299 OA
ENDROOT
BRANCH   1   3
ATOM      3  C   UNL     1      24.777  44.885  85.220  1.00  0.00     0.053 C 
ATOM      4  C   UNL     1      23.513  44.015  85.251  1.00  0.00     0.016 C 
BRANCH   3   5
ATOM      5  C   UNL     1      24.441  46.357  85.557  1.00  0.00     0.015 C 
BRANCH   5   6
ATOM      6  C   UNL     1      25.625  47.066  86.242  1.00  0.00     0.028 C 
BRANCH   6   7
ATOM      7  C   UNL     1      26.263  46.244  87.334  1.00  0.00    -0.028 C 
ATOM      8  C   UNL     1      27.563  45.859  87.374  1.00  0.00    -0.070 CG0
ATOM      9  C   UNL     1      27.989  44.949  88.500  1.00  0.00     0.039 C 
ATOM     10  G   UNL     1      28.616  46.334  86.381  1.00  0.00     0.000 G0
ENDBRANCH   6   7
ENDBRANCH   5   6
ENDBRANCH   3   5
ENDBRANCH   1   3
BRANCH   1  11
ATOM     11  C   UNL     1      26.914  44.422  83.732  1.00  0.00     0.087 C 
BRANCH  11  12
ATOM     12  C   UNL     1      27.845  45.641  83.956  1.00  0.00     0.066 C 
BRANCH  12  13
ATOM     13  C   UNL     1      28.755  45.424  85.157  1.00  0.00     0.140 C 
ATOM     14  O   UNL     1      29.611  44.552  85.140  1.00  0.00    -0.299 OA
BRANCH  13  15
ATOM     15  C   UNL     1      28.620  46.315  86.368  1.00  0.00     0.106 CG0
ATOM     16  G   UNL     1      27.574  45.846  87.371  1.00  0.00     0.000 G0
ENDBRANCH  13  15
ENDBRANCH  12  13
BRANCH  12  17
ATOM     17  C   UNL     1      28.595  46.064  82.654  1.00  0.00    -0.006 C 
ATOM     18  C   UNL     1      28.987  44.845  81.804  1.00  0.00     0.008 C 
ATOM     19  C   UNL     1      27.850  47.100  81.792  1.00  0.00     0.008 C 
ENDBRANCH  12  17
ENDBRANCH  11  12
ENDBRANCH   1  11
TORSDOF 1
ENDMDL
