MODEL 1
REMARK VINA RESULT:    -3.810      0.000      0.000
REMARK INTER + INTRA:          -7.207
REMARK INTER:                  -6.037
REMARK INTRA:                  -1.170
REMARK UNBOUND:                -1.170
REMARK SMILES CCCCCCCCCCCC(=O)[O-]
REMARK SMILES IDX 7 1 8 2 9 3 10 4 11 5 12 6 13 7 14 8 6 9 5 10 4 11 3 12 2 13
REMARK SMILES IDX 1 14
REMARK H PARENT
REMARK Flexibility Score: inf
ROOT
ATOM      1  C   UNL     1      -6.351   9.639  -8.918  1.00  0.00     0.000 C 
ENDROOT
BRANCH   1   2
ATOM      2  C   UNL     1      -4.833   9.509  -8.716  1.00  0.00     0.000 C 
BRANCH   2   3
ATOM      3  C   UNL     1      -4.317   8.091  -9.004  1.00  0.00     0.000 C 
BRANCH   3   4
ATOM      4  C   UNL     1      -3.374   7.613  -7.890  1.00  0.00     0.006 C 
BRANCH   4   5
ATOM      5  C   UNL     1      -4.069   7.560  -6.523  1.00  0.00     0.053 C 
BRANCH   5   6
ATOM      6  C   UNL     1      -3.905   6.222  -5.869  1.00  0.00     0.041 C 
ATOM      7  O   UNL     1      -3.556   6.145  -4.662  1.00  0.00    -0.550 OA
ATOM      8  O   UNL     1      -4.168   5.061  -6.586  1.00  0.00    -0.550 OA
ENDBRANCH   5   6
ENDBRANCH   4   5
ENDBRANCH   3   4
ENDBRANCH   2   3
ENDBRANCH   1   2
BRANCH   1   9
ATOM      9  C   UNL     1      -7.157   9.029  -7.762  1.00  0.00     0.000 C 
BRANCH   9  10
ATOM     10  C   UNL     1      -7.900   7.765  -8.216  1.00  0.00    -0.000 C 
BRANCH  10  11
ATOM     11  C   UNL     1      -7.382   6.524  -7.474  1.00  0.00    -0.000 C 
BRANCH  11  12
ATOM     12  C   UNL     1      -7.164   5.326  -8.422  1.00  0.00    -0.000 C 
BRANCH  12  13
ATOM     13  C   UNL     1      -8.189   5.252  -9.567  1.00  0.00    -0.003 C 
ATOM     14  C   UNL     1      -9.181   4.102  -9.408  1.00  0.00     0.004 C 
ENDBRANCH  12  13
ENDBRANCH  11  12
ENDBRANCH  10  11
ENDBRANCH   9  10
ENDBRANCH   1   9
TORSDOF 10
ENDMDL
MODEL 2
REMARK VINA RESULT:    -3.681      1.771      4.389
REMARK INTER + INTRA:          -7.003
REMARK INTER:                  -5.861
REMARK INTRA:                  -1.141
REMARK UNBOUND:                -1.170
REMARK SMILES CCCCCCCCCCCC(=O)[O-]
REMARK SMILES IDX 7 1 8 2 9 3 10 4 11 5 12 6 13 7 14 8 6 9 5 10 4 11 3 12 2 13
REMARK SMILES IDX 1 14
REMARK H PARENT
REMARK Flexibility Score: inf
ROOT
ATOM      1  C   UNL     1      -5.823   9.349  -9.740  1.00  0.00     0.000 C 
ENDROOT
BRANCH   1   2
ATOM      2  C   UNL     1      -6.509  10.049  -8.557  1.00  0.00     0.000 C 
BRANCH   2   3
ATOM      3  C   UNL     1      -7.478   9.125  -7.804  1.00  0.00     0.000 C 
BRANCH   3   4
ATOM      4  C   UNL     1      -7.760   7.850  -8.612  1.00  0.00     0.006 C 
BRANCH   4   5
ATOM      5  C   UNL     1      -7.724   6.589  -7.740  1.00  0.00     0.053 C 
BRANCH   5   6
ATOM      6  C   UNL     1      -7.471   5.358  -8.555  1.00  0.00     0.041 C 
ATOM      7  O   UNL     1      -6.494   4.609  -8.287  1.00  0.00    -0.550 OA
ATOM      8  O   UNL     1      -8.333   5.020  -9.591  1.00  0.00    -0.550 OA
ENDBRANCH   5   6
ENDBRANCH   4   5
ENDBRANCH   3   4
ENDBRANCH   2   3
ENDBRANCH   1   2
BRANCH   1   9
ATOM      9  C   UNL     1      -4.294   9.489  -9.707  1.00  0.00     0.000 C 
BRANCH   9  10
ATOM     10  C   UNL     1      -3.755   9.302  -8.283  1.00  0.00    -0.000 C 
BRANCH  10  11
ATOM     11  C   UNL     1      -3.595   7.812  -7.944  1.00  0.00    -0.000 C 
BRANCH  11  12
ATOM     12  C   UNL     1      -4.409   7.406  -6.697  1.00  0.00    -0.000 C 
BRANCH  12  13
ATOM     13  C   UNL     1      -4.184   5.948  -6.263  1.00  0.00    -0.003 C 
ATOM     14  C   UNL     1      -3.434   5.828  -4.937  1.00  0.00     0.004 C 
ENDBRANCH  12  13
ENDBRANCH  11  12
ENDBRANCH  10  11
ENDBRANCH   9  10
ENDBRANCH   1   9
TORSDOF 10
ENDMDL
MODEL 3
REMARK VINA RESULT:    -3.639      2.007      3.333
REMARK INTER + INTRA:          -6.937
REMARK INTER:                  -6.110
REMARK INTRA:                  -0.827
REMARK UNBOUND:                -1.170
REMARK SMILES CCCCCCCCCCCC(=O)[O-]
REMARK SMILES IDX 7 1 8 2 9 3 10 4 11 5 12 6 13 7 14 8 6 9 5 10 4 11 3 12 2 13
REMARK SMILES IDX 1 14
REMARK H PARENT
REMARK Flexibility Score: inf
ROOT
ATOM      1  C   UNL     1      -6.948   5.584  -8.048  1.00  0.00     0.000 C 
ENDROOT
BRANCH   1   2
ATOM      2  C   UNL     1      -7.331   6.755  -7.130  1.00  0.00     0.000 C 
BRANCH   2   3
ATOM      3  C   UNL     1      -6.239   7.834  -7.060  1.00  0.00     0.000 C 
BRANCH   3   4
ATOM      4  C   UNL     1      -5.041   7.460  -7.946  1.00  0.00     0.006 C 
BRANCH   4   5
ATOM      5  C   UNL     1      -3.753   7.274  -7.133  1.00  0.00     0.053 C 
BRANCH   5   6
ATOM      6  C   UNL     1      -3.901   6.202  -6.098  1.00  0.00     0.041 C 
ATOM      7  O   UNL     1      -4.001   4.995  -6.444  1.00  0.00    -0.550 OA
ATOM      8  O   UNL     1      -3.895   6.532  -4.748  1.00  0.00    -0.550 OA
ENDBRANCH   5   6
ENDBRANCH   4   5
ENDBRANCH   3   4
ENDBRANCH   2   3
ENDBRANCH   1   2
BRANCH   1   9
ATOM      9  C   UNL     1      -7.885   5.448  -9.257  1.00  0.00     0.000 C 
BRANCH   9  10
ATOM     10  C   UNL     1      -8.798   4.225  -9.111  1.00  0.00    -0.000 C 
BRANCH  10  11
ATOM     11  C   UNL     1     -10.012   4.543  -8.224  1.00  0.00    -0.000 C 
BRANCH  11  12
ATOM     12  C   UNL     1     -10.125   3.581  -7.023  1.00  0.00    -0.000 C 
BRANCH  12  13
ATOM     13  C   UNL     1     -10.046   4.288  -5.659  1.00  0.00    -0.003 C 
ATOM     14  C   UNL     1     -10.121   3.321  -4.479  1.00  0.00     0.004 C 
ENDBRANCH  12  13
ENDBRANCH  11  12
ENDBRANCH  10  11
ENDBRANCH   9  10
ENDBRANCH   1   9
TORSDOF 10
ENDMDL
MODEL 4
REMARK VINA RESULT:    -3.521      3.460      6.311
REMARK INTER + INTRA:          -6.751
REMARK INTER:                  -6.226
REMARK INTRA:                  -0.525
REMARK UNBOUND:                -1.170
REMARK SMILES CCCCCCCCCCCC(=O)[O-]
REMARK SMILES IDX 7 1 8 2 9 3 10 4 11 5 12 6 13 7 14 8 6 9 5 10 4 11 3 12 2 13
REMARK SMILES IDX 1 14
REMARK H PARENT
REMARK Flexibility Score: inf
ROOT
ATOM      1  C   UNL     1      -3.773   5.706  -5.964  1.00  0.00     0.000 C 
ENDROOT
BRANCH   1   2
ATOM      2  C   UNL     1      -3.427   7.125  -6.440  1.00  0.00     0.000 C 
BRANCH   2   3
ATOM      3  C   UNL     1      -4.604   7.816  -7.145  1.00  0.00     0.000 C 
BRANCH   3   4
ATOM      4  C   UNL     1      -5.935   7.459  -6.467  1.00  0.00     0.006 C 
BRANCH   4   5
ATOM      5  C   UNL     1      -7.041   7.149  -7.484  1.00  0.00     0.053 C 
BRANCH   5   6
ATOM      6  C   UNL     1      -7.344   5.683  -7.542  1.00  0.00     0.041 C 
ATOM      7  O   UNL     1      -8.484   5.257  -7.214  1.00  0.00    -0.550 OA
ATOM      8  O   UNL     1      -6.378   4.790  -7.990  1.00  0.00    -0.550 OA
ENDBRANCH   5   6
ENDBRANCH   4   5
ENDBRANCH   3   4
ENDBRANCH   2   3
ENDBRANCH   1   2
BRANCH   1   9
ATOM      9  C   UNL     1      -3.384   5.461  -4.499  1.00  0.00     0.000 C 
BRANCH   9  10
ATOM     10  C   UNL     1      -2.617   4.141  -4.346  1.00  0.00    -0.000 C 
BRANCH  10  11
ATOM     11  C   UNL     1      -2.975   3.444  -3.025  1.00  0.00    -0.000 C 
BRANCH  11  12
ATOM     12  C   UNL     1      -1.741   2.819  -2.342  1.00  0.00    -0.000 C 
BRANCH  12  13
ATOM     13  C   UNL     1      -0.700   2.270  -3.333  1.00  0.00    -0.003 C 
ATOM     14  C   UNL     1      -0.685   0.744  -3.400  1.00  0.00     0.004 C 
ENDBRANCH  12  13
ENDBRANCH  11  12
ENDBRANCH  10  11
ENDBRANCH   9  10
ENDBRANCH   1   9
TORSDOF 10
ENDMDL
MODEL 5
REMARK VINA RESULT:    -3.510      2.429      4.811
REMARK INTER + INTRA:          -6.733
REMARK INTER:                  -5.258
REMARK INTRA:                  -1.474
REMARK UNBOUND:                -1.170
REMARK SMILES CCCCCCCCCCCC(=O)[O-]
REMARK SMILES IDX 7 1 8 2 9 3 10 4 11 5 12 6 13 7 14 8 6 9 5 10 4 11 3 12 2 13
REMARK SMILES IDX 1 14
REMARK H PARENT
REMARK Flexibility Score: inf
ROOT
ATOM      1  C   UNL     1      -4.556   7.130  -6.527  1.00  0.00     0.000 C 
ENDROOT
BRANCH   1   2
ATOM      2  C   UNL     1      -4.701   5.618  -6.763  1.00  0.00     0.000 C 
BRANCH   2   3
ATOM      3  C   UNL     1      -5.966   5.262  -7.558  1.00  0.00     0.000 C 
BRANCH   3   4
ATOM      4  C   UNL     1      -7.091   6.272  -7.282  1.00  0.00     0.006 C 
BRANCH   4   5
ATOM      5  C   UNL     1      -8.297   6.065  -8.207  1.00  0.00     0.053 C 
BRANCH   5   6
ATOM      6  C   UNL     1      -9.075   4.838  -7.837  1.00  0.00     0.041 C 
ATOM      7  O   UNL     1      -9.485   4.054  -8.732  1.00  0.00    -0.550 OA
ATOM      8  O   UNL     1      -9.318   4.546  -6.500  1.00  0.00    -0.550 OA
ENDBRANCH   5   6
ENDBRANCH   4   5
ENDBRANCH   3   4
ENDBRANCH   2   3
ENDBRANCH   1   2
BRANCH   1   9
ATOM      9  C   UNL     1      -3.388   7.743  -7.313  1.00  0.00     0.000 C 
BRANCH   9  10
ATOM     10  C   UNL     1      -3.876   8.866  -8.237  1.00  0.00    -0.000 C 
BRANCH  10  11
ATOM     11  C   UNL     1      -4.559   8.293  -9.489  1.00  0.00    -0.000 C 
BRANCH  11  12
ATOM     12  C   UNL     1      -6.014   8.786  -9.636  1.00  0.00    -0.000 C 
BRANCH  12  13
ATOM     13  C   UNL     1      -6.445   9.769  -8.534  1.00  0.00    -0.003 C 
ATOM     14  C   UNL     1      -7.953   9.766  -8.287  1.00  0.00     0.004 C 
ENDBRANCH  12  13
ENDBRANCH  11  12
ENDBRANCH  10  11
ENDBRANCH   9  10
ENDBRANCH   1   9
TORSDOF 10
ENDMDL
MODEL 6
REMARK VINA RESULT:    -3.489      2.924      4.364
REMARK INTER + INTRA:          -6.699
REMARK INTER:                  -5.960
REMARK INTRA:                  -0.739
REMARK UNBOUND:                -1.170
REMARK SMILES CCCCCCCCCCCC(=O)[O-]
REMARK SMILES IDX 7 1 8 2 9 3 10 4 11 5 12 6 13 7 14 8 6 9 5 10 4 11 3 12 2 13
REMARK SMILES IDX 1 14
REMARK H PARENT
REMARK Flexibility Score: inf
ROOT
ATOM      1  C   UNL     1      -4.059   7.141  -6.119  1.00  0.00     0.000 C 
ENDROOT
BRANCH   1   2
ATOM      2  C   UNL     1      -3.730   5.655  -5.911  1.00  0.00     0.000 C 
BRANCH   2   3
ATOM      3  C   UNL     1      -3.378   5.326  -4.452  1.00  0.00     0.000 C 
BRANCH   3   4
ATOM      4  C   UNL     1      -2.568   4.024  -4.362  1.00  0.00     0.006 C 
BRANCH   4   5
ATOM      5  C   UNL     1      -2.795   3.289  -3.035  1.00  0.00     0.053 C 
BRANCH   5   6
ATOM      6  C   UNL     1      -1.520   2.717  -2.494  1.00  0.00     0.041 C 
ATOM      7  O   UNL     1      -0.940   3.269  -1.521  1.00  0.00    -0.550 OA
ATOM      8  O   UNL     1      -0.989   1.556  -3.043  1.00  0.00    -0.550 OA
ENDBRANCH   5   6
ENDBRANCH   4   5
ENDBRANCH   3   4
ENDBRANCH   2   3
ENDBRANCH   1   2
BRANCH   1   9
ATOM      9  C   UNL     1      -3.788   7.612  -7.555  1.00  0.00     0.000 C 
BRANCH   9  10
ATOM     10  C   UNL     1      -4.997   8.365  -8.125  1.00  0.00    -0.000 C 
BRANCH  10  11
ATOM     11  C   UNL     1      -6.221   8.220  -7.208  1.00  0.00    -0.000 C 
BRANCH  11  12
ATOM     12  C   UNL     1      -7.428   7.599  -7.940  1.00  0.00    -0.000 C 
BRANCH  12  13
ATOM     13  C   UNL     1      -7.778   6.180  -7.456  1.00  0.00    -0.003 C 
ATOM     14  C   UNL     1      -6.740   5.137  -7.863  1.00  0.00     0.004 C 
ENDBRANCH  12  13
ENDBRANCH  11  12
ENDBRANCH  10  11
ENDBRANCH   9  10
ENDBRANCH   1   9
TORSDOF 10
ENDMDL
MODEL 7
REMARK VINA RESULT:    -3.476      3.024      5.938
REMARK INTER + INTRA:          -6.679
REMARK INTER:                  -6.145
REMARK INTRA:                  -0.534
REMARK UNBOUND:                -1.170
REMARK SMILES CCCCCCCCCCCC(=O)[O-]
REMARK SMILES IDX 7 1 8 2 9 3 10 4 11 5 12 6 13 7 14 8 6 9 5 10 4 11 3 12 2 13
REMARK SMILES IDX 1 14
REMARK H PARENT
REMARK Flexibility Score: inf
ROOT
ATOM      1  C   UNL     1      -4.159   7.102  -6.181  1.00  0.00     0.000 C 
ENDROOT
BRANCH   1   2
ATOM      2  C   UNL     1      -3.827   7.608  -7.594  1.00  0.00     0.000 C 
BRANCH   2   3
ATOM      3  C   UNL     1      -5.056   8.172  -8.324  1.00  0.00     0.000 C 
BRANCH   3   4
ATOM      4  C   UNL     1      -5.843   7.051  -9.019  1.00  0.00     0.006 C 
BRANCH   4   5
ATOM      5  C   UNL     1      -7.189   6.775  -8.335  1.00  0.00     0.053 C 
BRANCH   5   6
ATOM      6  C   UNL     1      -7.266   5.374  -7.809  1.00  0.00     0.041 C 
ATOM      7  O   UNL     1      -6.286   4.594  -7.937  1.00  0.00    -0.550 OA
ATOM      8  O   UNL     1      -8.410   4.941  -7.150  1.00  0.00    -0.550 OA
ENDBRANCH   5   6
ENDBRANCH   4   5
ENDBRANCH   3   4
ENDBRANCH   2   3
ENDBRANCH   1   2
BRANCH   1   9
ATOM      9  C   UNL     1      -3.775   5.630  -5.973  1.00  0.00     0.000 C 
BRANCH   9  10
ATOM     10  C   UNL     1      -3.376   5.366  -4.516  1.00  0.00    -0.000 C 
BRANCH  10  11
ATOM     11  C   UNL     1      -2.580   4.058  -4.389  1.00  0.00    -0.000 C 
BRANCH  11  12
ATOM     12  C   UNL     1      -2.793   3.376  -3.021  1.00  0.00    -0.000 C 
BRANCH  12  13
ATOM     13  C   UNL     1      -1.562   2.600  -2.522  1.00  0.00    -0.003 C 
ATOM     14  C   UNL     1      -0.801   3.333  -1.419  1.00  0.00     0.004 C 
ENDBRANCH  12  13
ENDBRANCH  11  12
ENDBRANCH  10  11
ENDBRANCH   9  10
ENDBRANCH   1   9
TORSDOF 10
ENDMDL
MODEL 8
REMARK VINA RESULT:    -3.309      2.861      3.922
REMARK INTER + INTRA:          -6.413
REMARK INTER:                  -5.483
REMARK INTRA:                  -0.930
REMARK UNBOUND:                -1.170
REMARK SMILES CCCCCCCCCCCC(=O)[O-]
REMARK SMILES IDX 7 1 8 2 9 3 10 4 11 5 12 6 13 7 14 8 6 9 5 10 4 11 3 12 2 13
REMARK SMILES IDX 1 14
REMARK H PARENT
REMARK Flexibility Score: inf
ROOT
ATOM      1  C   UNL     1      -5.051   7.094  -6.619  1.00  0.00     0.000 C 
ENDROOT
BRANCH   1   2
ATOM      2  C   UNL     1      -3.846   7.766  -7.296  1.00  0.00     0.000 C 
BRANCH   2   3
ATOM      3  C   UNL     1      -4.152   8.219  -8.732  1.00  0.00     0.000 C 
BRANCH   3   4
ATOM      4  C   UNL     1      -5.070   9.450  -8.735  1.00  0.00     0.006 C 
BRANCH   4   5
ATOM      5  C   UNL     1      -6.461   9.136  -9.301  1.00  0.00     0.053 C 
BRANCH   5   6
ATOM      6  C   UNL     1      -7.543   9.437  -8.310  1.00  0.00     0.041 C 
ATOM      7  O   UNL     1      -8.754   9.303  -8.632  1.00  0.00    -0.550 OA
ATOM      8  O   UNL     1      -7.214   9.837  -7.020  1.00  0.00    -0.550 OA
ENDBRANCH   5   6
ENDBRANCH   4   5
ENDBRANCH   3   4
ENDBRANCH   2   3
ENDBRANCH   1   2
BRANCH   1   9
ATOM      9  C   UNL     1      -5.258   5.645  -7.080  1.00  0.00     0.000 C 
BRANCH   9  10
ATOM     10  C   UNL     1      -6.479   5.529  -8.001  1.00  0.00    -0.000 C 
BRANCH  10  11
ATOM     11  C   UNL     1      -7.772   5.890  -7.253  1.00  0.00    -0.000 C 
BRANCH  11  12
ATOM     12  C   UNL     1      -8.835   4.777  -7.355  1.00  0.00    -0.000 C 
BRANCH  12  13
ATOM     13  C   UNL     1      -9.702   4.635  -6.092  1.00  0.00    -0.003 C 
ATOM     14  C   UNL     1      -9.707   3.217  -5.526  1.00  0.00     0.004 C 
ENDBRANCH  12  13
ENDBRANCH  11  12
ENDBRANCH  10  11
ENDBRANCH   9  10
ENDBRANCH   1   9
TORSDOF 10
ENDMDL
MODEL 9
REMARK VINA RESULT:    -3.264      2.788      5.174
REMARK INTER + INTRA:          -6.342
REMARK INTER:                  -5.467
REMARK INTRA:                  -0.875
REMARK UNBOUND:                -1.170
REMARK SMILES CCCCCCCCCCCC(=O)[O-]
REMARK SMILES IDX 7 1 8 2 9 3 10 4 11 5 12 6 13 7 14 8 6 9 5 10 4 11 3 12 2 13
REMARK SMILES IDX 1 14
REMARK H PARENT
REMARK Flexibility Score: inf
ROOT
ATOM      1  C   UNL     1      -7.500   7.443  -8.549  1.00  0.00     0.000 C 
ENDROOT
BRANCH   1   2
ATOM      2  C   UNL     1      -7.389   6.086  -9.261  1.00  0.00     0.000 C 
BRANCH   2   3
ATOM      3  C   UNL     1      -7.429   4.901  -8.285  1.00  0.00     0.000 C 
BRANCH   3   4
ATOM      4  C   UNL     1      -8.280   5.235  -7.050  1.00  0.00     0.006 C 
BRANCH   4   5
ATOM      5  C   UNL     1      -9.654   4.555  -7.089  1.00  0.00     0.053 C 
BRANCH   5   6
ATOM      6  C   UNL     1      -9.939   3.807  -5.823  1.00  0.00     0.041 C 
ATOM      7  O   UNL     1      -9.994   2.548  -5.829  1.00  0.00    -0.550 OA
ATOM      8  O   UNL     1     -10.112   4.498  -4.630  1.00  0.00    -0.550 OA
ENDBRANCH   5   6
ENDBRANCH   4   5
ENDBRANCH   3   4
ENDBRANCH   2   3
ENDBRANCH   1   2
BRANCH   1   9
ATOM      9  C   UNL     1      -6.513   8.483  -9.098  1.00  0.00     0.000 C 
BRANCH   9  10
ATOM     10  C   UNL     1      -5.602   9.019  -7.986  1.00  0.00    -0.000 C 
BRANCH  10  11
ATOM     11  C   UNL     1      -4.123   8.758  -8.309  1.00  0.00    -0.000 C 
BRANCH  11  12
ATOM     12  C   UNL     1      -3.531   7.621  -7.451  1.00  0.00    -0.000 C 
BRANCH  12  13
ATOM     13  C   UNL     1      -4.491   7.103  -6.367  1.00  0.00    -0.003 C 
ATOM     14  C   UNL     1      -3.829   6.121  -5.402  1.00  0.00     0.004 C 
ENDBRANCH  12  13
ENDBRANCH  11  12
ENDBRANCH  10  11
ENDBRANCH   9  10
ENDBRANCH   1   9
TORSDOF 10
ENDMDL
