MODEL 1
REMARK VINA RESULT:    -3.111      0.000      0.000
REMARK INTER + INTRA:          -3.624
REMARK INTER:                  -3.566
REMARK INTRA:                  -0.059
REMARK UNBOUND:                -0.059
REMARK SMILES CC(C)[C@H]([NH3+])C(=O)[O-]
REMARK SMILES IDX 4 1 5 2 6 6 7 7 8 8 2 9 1 10 3 11
REMARK H PARENT 5 3 5 4 5 5
REMARK Flexibility Score: inf
ROOT
ATOM      1  C   UNL     1      11.196   0.180   0.099  1.00  0.00     0.230 C 
ENDROOT
BRANCH   1   2
ATOM      2  N   UNL     1      12.512  -0.190   0.638  1.00  0.00    -0.350 N 
ATOM      3  H   UNL     1      13.257   0.068  -0.050  1.00  0.00     0.345 HD
ATOM      4  H   UNL     1      12.558  -1.223   0.794  1.00  0.00     0.345 HD
ATOM      5  H   UNL     1      12.708   0.302   1.540  1.00  0.00     0.345 HD
ENDBRANCH   1   2
BRANCH   1   6
ATOM      6  C   UNL     1      11.165   1.639  -0.291  1.00  0.00     0.099 C 
ATOM      7  O   UNL     1      10.466   2.464   0.356  1.00  0.00    -0.544 OA
ATOM      8  O   UNL     1      11.891   2.075  -1.392  1.00  0.00    -0.544 OA
ENDBRANCH   1   6
BRANCH   1   9
ATOM      9  C   UNL     1      10.041  -0.209   1.070  1.00  0.00     0.047 C 
ATOM     10  C   UNL     1       8.983  -1.128   0.436  1.00  0.00     0.014 C 
ATOM     11  C   UNL     1      10.585  -0.845   2.359  1.00  0.00     0.014 C 
ENDBRANCH   1   9
TORSDOF 3
ENDMDL
MODEL 2
REMARK VINA RESULT:    -3.107      1.526      2.227
REMARK INTER + INTRA:          -3.620
REMARK INTER:                  -3.553
REMARK INTRA:                  -0.067
REMARK UNBOUND:                -0.059
REMARK SMILES CC(C)[C@H]([NH3+])C(=O)[O-]
REMARK SMILES IDX 4 1 5 2 6 6 7 7 8 8 2 9 1 10 3 11
REMARK H PARENT 5 3 5 4 5 5
REMARK Flexibility Score: inf
ROOT
ATOM      1  C   UNL     1      12.833   1.210   0.175  1.00  0.00     0.230 C 
ENDROOT
BRANCH   1   2
ATOM      2  N   UNL     1      12.858   1.541   1.607  1.00  0.00    -0.350 N 
ATOM      3  H   UNL     1      12.695   0.673   2.168  1.00  0.00     0.345 HD
ATOM      4  H   UNL     1      12.095   2.220   1.832  1.00  0.00     0.345 HD
ATOM      5  H   UNL     1      13.777   1.951   1.889  1.00  0.00     0.345 HD
ENDBRANCH   1   2
BRANCH   1   6
ATOM      6  C   UNL     1      12.023   2.224  -0.598  1.00  0.00     0.099 C 
ATOM      7  O   UNL     1      11.271   3.039  -0.000  1.00  0.00    -0.544 OA
ATOM      8  O   UNL     1      12.082   2.242  -1.986  1.00  0.00    -0.544 OA
ENDBRANCH   1   6
BRANCH   1   9
ATOM      9  C   UNL     1      12.360  -0.254  -0.073  1.00  0.00     0.047 C 
ATOM     10  C   UNL     1      13.216  -1.310   0.649  1.00  0.00     0.014 C 
ATOM     11  C   UNL     1      10.880  -0.435   0.297  1.00  0.00     0.014 C 
ENDBRANCH   1   9
TORSDOF 3
ENDMDL
MODEL 3
REMARK VINA RESULT:    -3.087      1.727      2.449
REMARK INTER + INTRA:          -3.597
REMARK INTER:                  -3.541
REMARK INTRA:                  -0.056
REMARK UNBOUND:                -0.059
REMARK SMILES CC(C)[C@H]([NH3+])C(=O)[O-]
REMARK SMILES IDX 4 1 5 2 6 6 7 7 8 8 2 9 1 10 3 11
REMARK H PARENT 5 3 5 4 5 5
REMARK Flexibility Score: inf
ROOT
ATOM      1  C   UNL     1      11.431   1.554   0.192  1.00  0.00     0.230 C 
ENDROOT
BRANCH   1   2
ATOM      2  N   UNL     1      10.114   2.008   0.662  1.00  0.00    -0.350 N 
ATOM      3  H   UNL     1       9.432   1.983  -0.131  1.00  0.00     0.345 HD
ATOM      4  H   UNL     1      10.175   2.993   1.006  1.00  0.00     0.345 HD
ATOM      5  H   UNL     1       9.751   1.398   1.431  1.00  0.00     0.345 HD
ENDBRANCH   1   2
BRANCH   1   6
ATOM      6  C   UNL     1      11.927   2.424  -0.939  1.00  0.00     0.099 C 
ATOM      7  O   UNL     1      12.057   1.957  -2.102  1.00  0.00    -0.544 OA
ATOM      8  O   UNL     1      12.275   3.746  -0.692  1.00  0.00    -0.544 OA
ENDBRANCH   1   6
BRANCH   1   9
ATOM      9  C   UNL     1      11.425   0.038  -0.170  1.00  0.00     0.047 C 
ATOM     10  C   UNL     1      12.712  -0.699   0.240  1.00  0.00     0.014 C 
ATOM     11  C   UNL     1      10.200  -0.674   0.422  1.00  0.00     0.014 C 
ENDBRANCH   1   9
TORSDOF 3
ENDMDL
MODEL 4
REMARK VINA RESULT:    -3.072      1.673      2.002
REMARK INTER + INTRA:          -3.580
REMARK INTER:                  -3.649
REMARK INTRA:                   0.069
REMARK UNBOUND:                -0.059
REMARK SMILES CC(C)[C@H]([NH3+])C(=O)[O-]
REMARK SMILES IDX 4 1 5 2 6 6 7 7 8 8 2 9 1 10 3 11
REMARK H PARENT 5 3 5 4 5 5
REMARK Flexibility Score: inf
ROOT
ATOM      1  C   UNL     1      11.001   1.082   1.543  1.00  0.00     0.230 C 
ENDROOT
BRANCH   1   2
ATOM      2  N   UNL     1      10.310   1.044   2.840  1.00  0.00    -0.350 N 
ATOM      3  H   UNL     1      10.654   0.226   3.395  1.00  0.00     0.345 HD
ATOM      4  H   UNL     1       9.281   0.927   2.696  1.00  0.00     0.345 HD
ATOM      5  H   UNL     1      10.484   1.915   3.392  1.00  0.00     0.345 HD
ENDBRANCH   1   2
BRANCH   1   6
ATOM      6  C   UNL     1      10.458   2.194   0.677  1.00  0.00     0.099 C 
ATOM      7  O   UNL     1       9.217   2.330   0.505  1.00  0.00    -0.544 OA
ATOM      8  O   UNL     1      11.335   3.061   0.036  1.00  0.00    -0.544 OA
ENDBRANCH   1   6
BRANCH   1   9
ATOM      9  C   UNL     1      10.974  -0.305   0.832  1.00  0.00     0.047 C 
ATOM     10  C   UNL     1       9.557  -0.874   0.641  1.00  0.00     0.014 C 
ATOM     11  C   UNL     1      11.706  -0.255  -0.518  1.00  0.00     0.014 C 
ENDBRANCH   1   9
TORSDOF 3
ENDMDL
MODEL 5
REMARK VINA RESULT:    -3.006      1.891      2.114
REMARK INTER + INTRA:          -3.504
REMARK INTER:                  -3.443
REMARK INTRA:                  -0.061
REMARK UNBOUND:                -0.059
REMARK SMILES CC(C)[C@H]([NH3+])C(=O)[O-]
REMARK SMILES IDX 4 1 5 2 6 6 7 7 8 8 2 9 1 10 3 11
REMARK H PARENT 5 3 5 4 5 5
REMARK Flexibility Score: inf
ROOT
ATOM      1  C   UNL     1      10.752   1.331   1.867  1.00  0.00     0.230 C 
ENDROOT
BRANCH   1   2
ATOM      2  N   UNL     1      10.144   1.656   3.165  1.00  0.00    -0.350 N 
ATOM      3  H   UNL     1      10.791   1.368   3.936  1.00  0.00     0.345 HD
ATOM      4  H   UNL     1       9.247   1.133   3.283  1.00  0.00     0.345 HD
ATOM      5  H   UNL     1       9.958   2.682   3.255  1.00  0.00     0.345 HD
ENDBRANCH   1   2
BRANCH   1   6
ATOM      6  C   UNL     1      10.271   2.280   0.795  1.00  0.00     0.099 C 
ATOM      7  O   UNL     1       9.049   2.348   0.495  1.00  0.00    -0.544 OA
ATOM      8  O   UNL     1      11.187   3.067   0.108  1.00  0.00    -0.544 OA
ENDBRANCH   1   6
BRANCH   1   9
ATOM      9  C   UNL     1      10.541  -0.165   1.488  1.00  0.00     0.047 C 
ATOM     10  C   UNL     1      11.581  -0.702   0.489  1.00  0.00     0.014 C 
ATOM     11  C   UNL     1      10.503  -1.059   2.737  1.00  0.00     0.014 C 
ENDBRANCH   1   9
TORSDOF 3
ENDMDL
MODEL 6
REMARK VINA RESULT:    -2.697      2.954      3.531
REMARK INTER + INTRA:          -3.150
REMARK INTER:                  -3.102
REMARK INTRA:                  -0.048
REMARK UNBOUND:                -0.059
REMARK SMILES CC(C)[C@H]([NH3+])C(=O)[O-]
REMARK SMILES IDX 4 1 5 2 6 6 7 7 8 8 2 9 1 10 3 11
REMARK H PARENT 5 3 5 4 5 5
REMARK Flexibility Score: inf
ROOT
ATOM      1  C   UNL     1      12.107  -0.454   0.941  1.00  0.00     0.230 C 
ENDROOT
BRANCH   1   2
ATOM      2  N   UNL     1      11.932  -0.346  -0.514  1.00  0.00    -0.350 N 
ATOM      3  H   UNL     1      11.245  -1.066  -0.837  1.00  0.00     0.345 HD
ATOM      4  H   UNL     1      12.841  -0.524  -0.999  1.00  0.00     0.345 HD
ATOM      5  H   UNL     1      11.576   0.599  -0.787  1.00  0.00     0.345 HD
ENDBRANCH   1   2
BRANCH   1   6
ATOM      6  C   UNL     1      13.173  -1.469   1.281  1.00  0.00     0.099 C 
ATOM      7  O   UNL     1      14.017  -1.831   0.419  1.00  0.00    -0.544 OA
ATOM      8  O   UNL     1      13.208  -2.035   2.550  1.00  0.00    -0.544 OA
ENDBRANCH   1   6
BRANCH   1   9
ATOM      9  C   UNL     1      10.756  -0.732   1.668  1.00  0.00     0.047 C 
ATOM     10  C   UNL     1      10.457   0.252   2.813  1.00  0.00     0.014 C 
ATOM     11  C   UNL     1       9.583  -0.756   0.677  1.00  0.00     0.014 C 
ENDBRANCH   1   9
TORSDOF 3
ENDMDL
MODEL 7
REMARK VINA RESULT:    -2.687      1.553      1.764
REMARK INTER + INTRA:          -3.138
REMARK INTER:                  -3.081
REMARK INTRA:                  -0.058
REMARK UNBOUND:                -0.059
REMARK SMILES CC(C)[C@H]([NH3+])C(=O)[O-]
REMARK SMILES IDX 4 1 5 2 6 6 7 7 8 8 2 9 1 10 3 11
REMARK H PARENT 5 3 5 4 5 5
REMARK Flexibility Score: inf
ROOT
ATOM      1  C   UNL     1      11.493   1.162   1.328  1.00  0.00     0.230 C 
ENDROOT
BRANCH   1   2
ATOM      2  N   UNL     1      12.698   1.744   1.934  1.00  0.00    -0.350 N 
ATOM      3  H   UNL     1      12.657   2.788   1.863  1.00  0.00     0.345 HD
ATOM      4  H   UNL     1      13.551   1.419   1.423  1.00  0.00     0.345 HD
ATOM      5  H   UNL     1      12.783   1.484   2.944  1.00  0.00     0.345 HD
ENDBRANCH   1   2
BRANCH   1   6
ATOM      6  C   UNL     1      10.812   2.158   0.420  1.00  0.00     0.099 C 
ATOM      7  O   UNL     1       9.555   2.210   0.346  1.00  0.00    -0.544 OA
ATOM      8  O   UNL     1      11.577   3.010  -0.368  1.00  0.00    -0.544 OA
ENDBRANCH   1   6
BRANCH   1   9
ATOM      9  C   UNL     1      10.532   0.572   2.403  1.00  0.00     0.047 C 
ATOM     10  C   UNL     1      10.295  -0.941   2.257  1.00  0.00     0.014 C 
ATOM     11  C   UNL     1      11.019   0.892   3.825  1.00  0.00     0.014 C 
ENDBRANCH   1   9
TORSDOF 3
ENDMDL
MODEL 8
REMARK VINA RESULT:    -2.571      2.505      2.997
REMARK INTER + INTRA:          -3.006
REMARK INTER:                  -2.958
REMARK INTRA:                  -0.047
REMARK UNBOUND:                -0.059
REMARK SMILES CC(C)[C@H]([NH3+])C(=O)[O-]
REMARK SMILES IDX 4 1 5 2 6 6 7 7 8 8 2 9 1 10 3 11
REMARK H PARENT 5 3 5 4 5 5
REMARK Flexibility Score: inf
ROOT
ATOM      1  C   UNL     1      10.126   1.066   1.427  1.00  0.00     0.230 C 
ENDROOT
BRANCH   1   2
ATOM      2  N   UNL     1      10.705   2.034   0.486  1.00  0.00    -0.350 N 
ATOM      3  H   UNL     1      10.193   2.944   0.561  1.00  0.00     0.345 HD
ATOM      4  H   UNL     1      10.605   1.686  -0.495  1.00  0.00     0.345 HD
ATOM      5  H   UNL     1      11.717   2.206   0.687  1.00  0.00     0.345 HD
ENDBRANCH   1   2
BRANCH   1   6
ATOM      6  C   UNL     1      10.627   1.313   2.830  1.00  0.00     0.099 C 
ATOM      7  O   UNL     1      11.727   0.834   3.216  1.00  0.00    -0.544 OA
ATOM      8  O   UNL     1       9.856   2.053   3.719  1.00  0.00    -0.544 OA
ENDBRANCH   1   6
BRANCH   1   9
ATOM      9  C   UNL     1      10.350  -0.403   0.957  1.00  0.00     0.047 C 
ATOM     10  C   UNL     1       9.074  -1.087   0.437  1.00  0.00     0.014 C 
ATOM     11  C   UNL     1      11.461  -0.488  -0.101  1.00  0.00     0.014 C 
ENDBRANCH   1   9
TORSDOF 3
ENDMDL
MODEL 9
REMARK VINA RESULT:    -2.468      2.831      3.428
REMARK INTER + INTRA:          -2.888
REMARK INTER:                  -2.872
REMARK INTRA:                  -0.015
REMARK UNBOUND:                -0.059
REMARK SMILES CC(C)[C@H]([NH3+])C(=O)[O-]
REMARK SMILES IDX 4 1 5 2 6 6 7 7 8 8 2 9 1 10 3 11
REMARK H PARENT 5 3 5 4 5 5
REMARK Flexibility Score: inf
ROOT
ATOM      1  C   UNL     1      12.547  -0.712   1.292  1.00  0.00     0.230 C 
ENDROOT
BRANCH   1   2
ATOM      2  N   UNL     1      12.553   0.427   2.220  1.00  0.00    -0.350 N 
ATOM      3  H   UNL     1      13.358   1.057   1.996  1.00  0.00     0.345 HD
ATOM      4  H   UNL     1      12.670   0.090   3.203  1.00  0.00     0.345 HD
ATOM      5  H   UNL     1      11.669   0.982   2.150  1.00  0.00     0.345 HD
ENDBRANCH   1   2
BRANCH   1   6
ATOM      6  C   UNL     1      13.941  -1.009   0.794  1.00  0.00     0.099 C 
ATOM      7  O   UNL     1      14.792  -0.087   0.674  1.00  0.00    -0.544 OA
ATOM      8  O   UNL     1      14.286  -2.306   0.436  1.00  0.00    -0.544 OA
ENDBRANCH   1   6
BRANCH   1   9
ATOM      9  C   UNL     1      11.523  -0.511   0.134  1.00  0.00     0.047 C 
ATOM     10  C   UNL     1      10.055  -0.595   0.586  1.00  0.00     0.014 C 
ATOM     11  C   UNL     1      11.770   0.812  -0.606  1.00  0.00     0.014 C 
ENDBRANCH   1   9
TORSDOF 3
ENDMDL
