MODEL 1
REMARK VINA RESULT:    -3.306      0.000      0.000
REMARK INTER + INTRA:          -4.045
REMARK INTER:                  -3.886
REMARK INTRA:                  -0.159
REMARK UNBOUND:                -0.159
REMARK SMILES O=C([O-])CCC(=O)[O-]
REMARK SMILES IDX 4 1 2 2 1 3 3 4 5 5 6 6 7 7 8 8
REMARK H PARENT
REMARK Flexibility Score: inf
ROOT
ATOM      1  C   UNL     1     -29.390 -21.227 -32.442  1.00  0.00     0.059 C 
ENDROOT
BRANCH   1   2
ATOM      2  C   UNL     1     -30.733 -21.227 -33.102  1.00  0.00     0.042 C 
ATOM      3  O   UNL     1     -31.270 -22.313 -33.446  1.00  0.00    -0.550 OA
ATOM      4  O   UNL     1     -31.371 -20.025 -33.381  1.00  0.00    -0.550 OA
ENDBRANCH   1   2
BRANCH   1   5
ATOM      5  C   UNL     1     -29.401 -20.328 -31.206  1.00  0.00     0.059 C 
BRANCH   5   6
ATOM      6  C   UNL     1     -30.366 -20.849 -30.188  1.00  0.00     0.042 C 
ATOM      7  O   UNL     1     -30.238 -22.016 -29.732  1.00  0.00    -0.550 OA
ATOM      8  O   UNL     1     -31.379 -20.029 -29.706  1.00  0.00    -0.550 OA
ENDBRANCH   5   6
ENDBRANCH   1   5
TORSDOF 3
ENDMDL
MODEL 2
REMARK VINA RESULT:    -3.256      0.630      3.327
REMARK INTER + INTRA:          -3.986
REMARK INTER:                  -3.882
REMARK INTRA:                  -0.104
REMARK UNBOUND:                -0.159
REMARK SMILES O=C([O-])CCC(=O)[O-]
REMARK SMILES IDX 4 1 2 2 1 3 3 4 5 5 6 6 7 7 8 8
REMARK H PARENT
REMARK Flexibility Score: inf
ROOT
ATOM      1  C   UNL     1     -29.430 -20.672 -31.537  1.00  0.00     0.059 C 
ENDROOT
BRANCH   1   2
ATOM      2  C   UNL     1     -30.302 -21.395 -30.560  1.00  0.00     0.042 C 
ATOM      3  O   UNL     1     -31.009 -20.749 -29.742  1.00  0.00    -0.550 OA
ATOM      4  O   UNL     1     -30.298 -22.784 -30.518  1.00  0.00    -0.550 OA
ENDBRANCH   1   2
BRANCH   1   5
ATOM      5  C   UNL     1     -29.499 -21.338 -32.911  1.00  0.00     0.059 C 
BRANCH   5   6
ATOM      6  C   UNL     1     -30.898 -21.303 -33.440  1.00  0.00     0.042 C 
ATOM      7  O   UNL     1     -31.459 -22.365 -33.819  1.00  0.00    -0.550 OA
ATOM      8  O   UNL     1     -31.601 -20.105 -33.470  1.00  0.00    -0.550 OA
ENDBRANCH   5   6
ENDBRANCH   1   5
TORSDOF 3
ENDMDL
MODEL 3
REMARK VINA RESULT:    -3.027      4.294      5.653
REMARK INTER + INTRA:          -3.716
REMARK INTER:                  -3.601
REMARK INTRA:                  -0.115
REMARK UNBOUND:                -0.159
REMARK SMILES O=C([O-])CCC(=O)[O-]
REMARK SMILES IDX 4 1 2 2 1 3 3 4 5 5 6 6 7 7 8 8
REMARK H PARENT
REMARK Flexibility Score: inf
ROOT
ATOM      1  C   UNL     1     -31.149 -23.659 -36.853  1.00  0.00     0.059 C 
ENDROOT
BRANCH   1   2
ATOM      2  C   UNL     1     -31.752 -23.535 -38.216  1.00  0.00     0.042 C 
ATOM      3  O   UNL     1     -31.527 -24.413 -39.091  1.00  0.00    -0.550 OA
ATOM      4  O   UNL     1     -32.521 -22.424 -38.538  1.00  0.00    -0.550 OA
ENDBRANCH   1   2
BRANCH   1   5
ATOM      5  C   UNL     1     -32.243 -23.813 -35.796  1.00  0.00     0.059 C 
BRANCH   5   6
ATOM      6  C   UNL     1     -32.269 -22.621 -34.893  1.00  0.00     0.042 C 
ATOM      7  O   UNL     1     -31.526 -22.580 -33.877  1.00  0.00    -0.550 OA
ATOM      8  O   UNL     1     -33.077 -21.533 -35.198  1.00  0.00    -0.550 OA
ENDBRANCH   5   6
ENDBRANCH   1   5
TORSDOF 3
ENDMDL
MODEL 4
REMARK VINA RESULT:    -2.986      4.396      6.715
REMARK INTER + INTRA:          -3.669
REMARK INTER:                  -3.642
REMARK INTRA:                  -0.027
REMARK UNBOUND:                -0.159
REMARK SMILES O=C([O-])CCC(=O)[O-]
REMARK SMILES IDX 4 1 2 2 1 3 3 4 5 5 6 6 7 7 8 8
REMARK H PARENT
REMARK Flexibility Score: inf
ROOT
ATOM      1  C   UNL     1     -32.252 -23.707 -35.835  1.00  0.00     0.059 C 
ENDROOT
BRANCH   1   2
ATOM      2  C   UNL     1     -32.233 -22.511 -34.936  1.00  0.00     0.042 C 
ATOM      3  O   UNL     1     -31.501 -22.500 -33.912  1.00  0.00    -0.550 OA
ATOM      4  O   UNL     1     -33.061 -21.427 -35.202  1.00  0.00    -0.550 OA
ENDBRANCH   1   2
BRANCH   1   5
ATOM      5  C   UNL     1     -31.128 -23.618 -36.867  1.00  0.00     0.059 C 
BRANCH   5   6
ATOM      6  C   UNL     1     -31.441 -24.470 -38.056  1.00  0.00     0.042 C 
ATOM      7  O   UNL     1     -31.846 -23.942 -39.125  1.00  0.00    -0.550 OA
ATOM      8  O   UNL     1     -31.239 -25.843 -38.001  1.00  0.00    -0.550 OA
ENDBRANCH   5   6
ENDBRANCH   1   5
TORSDOF 3
ENDMDL
MODEL 5
REMARK VINA RESULT:    -2.979      2.232      3.030
REMARK INTER + INTRA:          -3.661
REMARK INTER:                  -3.625
REMARK INTRA:                  -0.036
REMARK UNBOUND:                -0.159
REMARK SMILES O=C([O-])CCC(=O)[O-]
REMARK SMILES IDX 4 1 2 2 1 3 3 4 5 5 6 6 7 7 8 8
REMARK H PARENT
REMARK Flexibility Score: inf
ROOT
ATOM      1  C   UNL     1     -31.523 -22.682 -33.880  1.00  0.00     0.059 C 
ENDROOT
BRANCH   1   2
ATOM      2  C   UNL     1     -32.440 -22.524 -35.051  1.00  0.00     0.042 C 
ATOM      3  O   UNL     1     -33.022 -21.426 -35.256  1.00  0.00    -0.550 OA
ATOM      4  O   UNL     1     -32.690 -23.602 -35.890  1.00  0.00    -0.550 OA
ENDBRANCH   1   2
BRANCH   1   5
ATOM      5  C   UNL     1     -31.089 -21.314 -33.351  1.00  0.00     0.059 C 
BRANCH   5   6
ATOM      6  C   UNL     1     -30.154 -21.473 -32.195  1.00  0.00     0.042 C 
ATOM      7  O   UNL     1     -30.478 -22.189 -31.211  1.00  0.00    -0.550 OA
ATOM      8  O   UNL     1     -28.902 -20.870 -32.225  1.00  0.00    -0.550 OA
ENDBRANCH   5   6
ENDBRANCH   1   5
TORSDOF 3
ENDMDL
MODEL 6
REMARK VINA RESULT:    -2.959      7.146      8.871
REMARK INTER + INTRA:          -3.637
REMARK INTER:                  -3.599
REMARK INTRA:                  -0.038
REMARK UNBOUND:                -0.159
REMARK SMILES O=C([O-])CCC(=O)[O-]
REMARK SMILES IDX 4 1 2 2 1 3 3 4 5 5 6 6 7 7 8 8
REMARK H PARENT
REMARK Flexibility Score: inf
ROOT
ATOM      1  C   UNL     1     -32.967 -26.842 -37.935  1.00  0.00     0.059 C 
ENDROOT
BRANCH   1   2
ATOM      2  C   UNL     1     -32.744 -28.163 -38.599  1.00  0.00     0.042 C 
ATOM      3  O   UNL     1     -31.605 -28.464 -39.045  1.00  0.00    -0.550 OA
ATOM      4  O   UNL     1     -33.804 -29.044 -38.770  1.00  0.00    -0.550 OA
ENDBRANCH   1   2
BRANCH   1   5
ATOM      5  C   UNL     1     -31.842 -25.869 -38.289  1.00  0.00     0.059 C 
BRANCH   5   6
ATOM      6  C   UNL     1     -31.886 -24.670 -37.395  1.00  0.00     0.042 C 
ATOM      7  O   UNL     1     -30.839 -24.007 -37.172  1.00  0.00    -0.550 OA
ATOM      8  O   UNL     1     -33.093 -24.255 -36.847  1.00  0.00    -0.550 OA
ENDBRANCH   5   6
ENDBRANCH   1   5
TORSDOF 3
ENDMDL
MODEL 7
REMARK VINA RESULT:    -2.950      7.144      9.168
REMARK INTER + INTRA:          -3.626
REMARK INTER:                  -3.588
REMARK INTRA:                  -0.038
REMARK UNBOUND:                -0.159
REMARK SMILES O=C([O-])CCC(=O)[O-]
REMARK SMILES IDX 4 1 2 2 1 3 3 4 5 5 6 6 7 7 8 8
REMARK H PARENT
REMARK Flexibility Score: inf
ROOT
ATOM      1  C   UNL     1     -31.860 -25.841 -38.343  1.00  0.00     0.059 C 
ENDROOT
BRANCH   1   2
ATOM      2  C   UNL     1     -31.881 -24.649 -37.439  1.00  0.00     0.042 C 
ATOM      3  O   UNL     1     -30.823 -24.002 -37.219  1.00  0.00    -0.550 OA
ATOM      4  O   UNL     1     -33.058 -24.282 -36.800  1.00  0.00    -0.550 OA
ENDBRANCH   1   2
BRANCH   1   5
ATOM      5  C   UNL     1     -32.946 -26.838 -37.940  1.00  0.00     0.059 C 
BRANCH   5   6
ATOM      6  C   UNL     1     -32.716 -28.159 -38.604  1.00  0.00     0.042 C 
ATOM      7  O   UNL     1     -31.561 -28.483 -38.988  1.00  0.00    -0.550 OA
ATOM      8  O   UNL     1     -33.768 -29.054 -38.755  1.00  0.00    -0.550 OA
ENDBRANCH   5   6
ENDBRANCH   1   5
TORSDOF 3
ENDMDL
MODEL 8
REMARK VINA RESULT:    -2.926      2.216      4.444
REMARK INTER + INTRA:          -3.597
REMARK INTER:                  -3.563
REMARK INTRA:                  -0.034
REMARK UNBOUND:                -0.159
REMARK SMILES O=C([O-])CCC(=O)[O-]
REMARK SMILES IDX 4 1 2 2 1 3 3 4 5 5 6 6 7 7 8 8
REMARK H PARENT
REMARK Flexibility Score: inf
ROOT
ATOM      1  C   UNL     1     -31.171 -21.156 -33.423  1.00  0.00     0.059 C 
ENDROOT
BRANCH   1   2
ATOM      2  C   UNL     1     -30.301 -21.129 -32.206  1.00  0.00     0.042 C 
ATOM      3  O   UNL     1     -30.809 -21.259 -31.061  1.00  0.00    -0.550 OA
ATOM      4  O   UNL     1     -28.935 -20.910 -32.332  1.00  0.00    -0.550 OA
ENDBRANCH   1   2
BRANCH   1   5
ATOM      5  C   UNL     1     -31.450 -22.598 -33.849  1.00  0.00     0.059 C 
BRANCH   5   6
ATOM      6  C   UNL     1     -32.407 -22.628 -34.997  1.00  0.00     0.042 C 
ATOM      7  O   UNL     1     -33.049 -21.592 -35.315  1.00  0.00    -0.550 OA
ATOM      8  O   UNL     1     -32.556 -23.787 -35.749  1.00  0.00    -0.550 OA
ENDBRANCH   5   6
ENDBRANCH   1   5
TORSDOF 3
ENDMDL
MODEL 9
REMARK VINA RESULT:    -2.895      5.293      6.648
REMARK INTER + INTRA:          -3.562
REMARK INTER:                  -3.440
REMARK INTRA:                  -0.122
REMARK UNBOUND:                -0.159
REMARK SMILES O=C([O-])CCC(=O)[O-]
REMARK SMILES IDX 4 1 2 2 1 3 3 4 5 5 6 6 7 7 8 8
REMARK H PARENT
REMARK Flexibility Score: inf
ROOT
ATOM      1  C   UNL     1     -31.132 -23.830 -36.787  1.00  0.00     0.059 C 
ENDROOT
BRANCH   1   2
ATOM      2  C   UNL     1     -31.282 -24.634 -38.039  1.00  0.00     0.042 C 
ATOM      3  O   UNL     1     -31.576 -24.067 -39.125  1.00  0.00    -0.550 OA
ATOM      4  O   UNL     1     -31.145 -26.016 -38.000  1.00  0.00    -0.550 OA
ENDBRANCH   1   2
BRANCH   1   5
ATOM      5  C   UNL     1     -32.471 -23.721 -36.058  1.00  0.00     0.059 C 
BRANCH   5   6
ATOM      6  C   UNL     1     -33.070 -22.365 -36.263  1.00  0.00     0.042 C 
ATOM      7  O   UNL     1     -33.674 -22.096 -37.335  1.00  0.00    -0.550 OA
ATOM      8  O   UNL     1     -33.003 -21.414 -35.253  1.00  0.00    -0.550 OA
ENDBRANCH   5   6
ENDBRANCH   1   5
TORSDOF 3
ENDMDL
