MODEL 1
REMARK VINA RESULT:    -4.162      0.000      0.000
REMARK INTER + INTRA:         -15.442
REMARK INTER:                 -10.488
REMARK INTRA:                  -4.954
REMARK UNBOUND:                -4.954
REMARK SMILES CCCCCCCCCCCCCCCCCCCCCCCCCCCC(=O)[O-]
REMARK SMILES IDX 15 1 16 2 17 3 18 4 19 5 20 6 21 7 22 8 23 9 24 10 25 11
REMARK SMILES IDX 26 12 27 13 28 14 29 15 30 16 14 17 13 18 12 19 11 20 10 21
REMARK SMILES IDX 9 22 8 23 7 24 6 25 5 26 4 27 3 28 2 29 1 30
REMARK H PARENT
REMARK Flexibility Score: inf
ROOT
ATOM      1  C   UNL     1     -11.832  -6.473   7.165  1.00  0.00     0.000 C 
ENDROOT
BRANCH   1   2
ATOM      2  C   UNL     1     -10.606  -7.225   7.713  1.00  0.00     0.000 C 
BRANCH   2   3
ATOM      3  C   UNL     1      -9.289  -6.456   7.512  1.00  0.00     0.000 C 
BRANCH   3   4
ATOM      4  C   UNL     1      -9.273  -5.650   6.195  1.00  0.00     0.000 C 
BRANCH   4   5
ATOM      5  C   UNL     1      -8.483  -4.334   6.286  1.00  0.00     0.000 C 
BRANCH   5   6
ATOM      6  C   UNL     1      -8.495  -3.541   4.969  1.00  0.00     0.000 C 
BRANCH   6   7
ATOM      7  C   UNL     1      -9.912  -3.124   4.541  1.00  0.00     0.000 C 
BRANCH   7   8
ATOM      8  C   UNL     1     -10.132  -3.280   3.027  1.00  0.00     0.000 C 
BRANCH   8   9
ATOM      9  C   UNL     1     -10.277  -1.933   2.295  1.00  0.00     0.000 C 
BRANCH   9  10
ATOM     10  C   UNL     1      -8.961  -1.172   2.054  1.00  0.00     0.000 C 
BRANCH  10  11
ATOM     11  C   UNL     1      -8.948   0.229   2.690  1.00  0.00     0.000 C 
BRANCH  11  12
ATOM     12  C   UNL     1     -10.197   0.492   3.548  1.00  0.00     0.006 C 
BRANCH  12  13
ATOM     13  C   UNL     1     -10.468   1.991   3.733  1.00  0.00     0.053 C 
BRANCH  13  14
ATOM     14  C   UNL     1     -11.672   2.409   2.950  1.00  0.00     0.041 C 
ATOM     15  O   UNL     1     -12.042   1.734   1.955  1.00  0.00    -0.550 OA
ATOM     16  O   UNL     1     -12.355   3.572   3.286  1.00  0.00    -0.550 OA
ENDBRANCH  13  14
ENDBRANCH  12  13
ENDBRANCH  11  12
ENDBRANCH  10  11
ENDBRANCH   9  10
ENDBRANCH   8   9
ENDBRANCH   7   8
ENDBRANCH   6   7
ENDBRANCH   5   6
ENDBRANCH   4   5
ENDBRANCH   3   4
ENDBRANCH   2   3
ENDBRANCH   1   2
BRANCH   1  17
ATOM     17  C   UNL     1     -12.886  -7.352   6.461  1.00  0.00     0.000 C 
BRANCH  17  18
ATOM     18  C   UNL     1     -12.907  -7.249   4.926  1.00  0.00     0.000 C 
BRANCH  18  19
ATOM     19  C   UNL     1     -12.475  -5.883   4.360  1.00  0.00     0.000 C 
BRANCH  19  20
ATOM     20  C   UNL     1     -13.363  -5.380   3.201  1.00  0.00     0.000 C 
BRANCH  20  21
ATOM     21  C   UNL     1     -14.654  -6.203   3.046  1.00  0.00     0.000 C 
BRANCH  21  22
ATOM     22  C   UNL     1     -15.929  -5.354   3.197  1.00  0.00    -0.000 C 
BRANCH  22  23
ATOM     23  C   UNL     1     -16.076  -4.635   4.551  1.00  0.00    -0.000 C 
BRANCH  23  24
ATOM     24  C   UNL     1     -16.094  -5.607   5.743  1.00  0.00    -0.000 C 
BRANCH  24  25
ATOM     25  C   UNL     1     -15.463  -5.004   7.009  1.00  0.00    -0.000 C 
BRANCH  25  26
ATOM     26  C   UNL     1     -15.105  -3.517   6.840  1.00  0.00    -0.000 C 
BRANCH  26  27
ATOM     27  C   UNL     1     -13.595  -3.284   6.653  1.00  0.00    -0.000 C 
BRANCH  27  28
ATOM     28  C   UNL     1     -13.206  -1.904   6.083  1.00  0.00    -0.000 C 
BRANCH  28  29
ATOM     29  C   UNL     1     -13.259  -1.795   4.549  1.00  0.00    -0.003 C 
ATOM     30  C   UNL     1     -13.882  -0.487   4.064  1.00  0.00     0.004 C 
ENDBRANCH  28  29
ENDBRANCH  27  28
ENDBRANCH  26  27
ENDBRANCH  25  26
ENDBRANCH  24  25
ENDBRANCH  23  24
ENDBRANCH  22  23
ENDBRANCH  21  22
ENDBRANCH  20  21
ENDBRANCH  19  20
ENDBRANCH  18  19
ENDBRANCH  17  18
ENDBRANCH   1  17
TORSDOF 26
ENDMDL
MODEL 2
REMARK VINA RESULT:    -4.154      2.926      6.941
REMARK INTER + INTRA:         -15.422
REMARK INTER:                 -10.926
REMARK INTRA:                  -4.496
REMARK UNBOUND:                -4.954
REMARK SMILES CCCCCCCCCCCCCCCCCCCCCCCCCCCC(=O)[O-]
REMARK SMILES IDX 15 1 16 2 17 3 18 4 19 5 20 6 21 7 22 8 23 9 24 10 25 11
REMARK SMILES IDX 26 12 27 13 28 14 29 15 30 16 14 17 13 18 12 19 11 20 10 21
REMARK SMILES IDX 9 22 8 23 7 24 6 25 5 26 4 27 3 28 2 29 1 30
REMARK H PARENT
REMARK Flexibility Score: inf
ROOT
ATOM      1  C   UNL     1     -10.113   0.487   3.655  1.00  0.00     0.000 C 
ENDROOT
BRANCH   1   2
ATOM      2  C   UNL     1      -9.083  -0.119   2.684  1.00  0.00     0.000 C 
BRANCH   2   3
ATOM      3  C   UNL     1      -9.643  -1.302   1.875  1.00  0.00     0.000 C 
BRANCH   3   4
ATOM      4  C   UNL     1     -10.271  -2.386   2.777  1.00  0.00     0.000 C 
BRANCH   4   5
ATOM      5  C   UNL     1      -9.240  -3.164   3.614  1.00  0.00     0.000 C 
BRANCH   5   6
ATOM      6  C   UNL     1      -9.585  -3.184   5.112  1.00  0.00     0.000 C 
BRANCH   6   7
ATOM      7  C   UNL     1      -8.614  -4.047   5.933  1.00  0.00     0.000 C 
BRANCH   7   8
ATOM      8  C   UNL     1      -9.272  -5.342   6.440  1.00  0.00     0.000 C 
BRANCH   8   9
ATOM      9  C   UNL     1      -9.650  -6.313   5.307  1.00  0.00     0.000 C 
BRANCH   9  10
ATOM     10  C   UNL     1     -11.157  -6.584   5.150  1.00  0.00     0.000 C 
BRANCH  10  11
ATOM     11  C   UNL     1     -12.029  -5.687   6.046  1.00  0.00     0.000 C 
BRANCH  11  12
ATOM     12  C   UNL     1     -12.997  -4.812   5.231  1.00  0.00     0.006 C 
BRANCH  12  13
ATOM     13  C   UNL     1     -13.019  -5.200   3.747  1.00  0.00     0.053 C 
BRANCH  13  14
ATOM     14  C   UNL     1     -14.402  -5.582   3.323  1.00  0.00     0.041 C 
ATOM     15  O   UNL     1     -14.577  -6.560   2.551  1.00  0.00    -0.550 OA
ATOM     16  O   UNL     1     -15.493  -4.828   3.739  1.00  0.00    -0.550 OA
ENDBRANCH  13  14
ENDBRANCH  12  13
ENDBRANCH  11  12
ENDBRANCH  10  11
ENDBRANCH   9  10
ENDBRANCH   8   9
ENDBRANCH   7   8
ENDBRANCH   6   7
ENDBRANCH   5   6
ENDBRANCH   4   5
ENDBRANCH   3   4
ENDBRANCH   2   3
ENDBRANCH   1   2
BRANCH   1  17
ATOM     17  C   UNL     1     -10.846   1.743   3.141  1.00  0.00     0.000 C 
BRANCH  17  18
ATOM     18  C   UNL     1     -12.029   1.472   2.195  1.00  0.00     0.000 C 
BRANCH  18  19
ATOM     19  C   UNL     1     -13.357   2.133   2.609  1.00  0.00     0.000 C 
BRANCH  19  20
ATOM     20  C   UNL     1     -13.245   3.021   3.868  1.00  0.00     0.000 C 
BRANCH  20  21
ATOM     21  C   UNL     1     -14.378   4.056   3.963  1.00  0.00     0.000 C 
BRANCH  21  22
ATOM     22  C   UNL     1     -15.498   3.818   2.933  1.00  0.00    -0.000 C 
BRANCH  22  23
ATOM     23  C   UNL     1     -16.872   3.470   3.533  1.00  0.00    -0.000 C 
BRANCH  23  24
ATOM     24  C   UNL     1     -17.269   2.002   3.305  1.00  0.00    -0.000 C 
BRANCH  24  25
ATOM     25  C   UNL     1     -17.283   1.182   4.605  1.00  0.00    -0.000 C 
BRANCH  25  26
ATOM     26  C   UNL     1     -15.869   0.807   5.083  1.00  0.00    -0.000 C 
BRANCH  26  27
ATOM     27  C   UNL     1     -15.750  -0.672   5.493  1.00  0.00    -0.000 C 
BRANCH  27  28
ATOM     28  C   UNL     1     -14.976  -1.569   4.505  1.00  0.00    -0.000 C 
BRANCH  28  29
ATOM     29  C   UNL     1     -13.498  -1.191   4.303  1.00  0.00    -0.003 C 
ATOM     30  C   UNL     1     -12.726  -1.074   5.617  1.00  0.00     0.004 C 
ENDBRANCH  28  29
ENDBRANCH  27  28
ENDBRANCH  26  27
ENDBRANCH  25  26
ENDBRANCH  24  25
ENDBRANCH  23  24
ENDBRANCH  22  23
ENDBRANCH  21  22
ENDBRANCH  20  21
ENDBRANCH  19  20
ENDBRANCH  18  19
ENDBRANCH  17  18
ENDBRANCH   1  17
TORSDOF 26
ENDMDL
MODEL 3
REMARK VINA RESULT:    -4.126      1.606      4.038
REMARK INTER + INTRA:         -15.352
REMARK INTER:                 -10.451
REMARK INTRA:                  -4.901
REMARK UNBOUND:                -4.954
REMARK SMILES CCCCCCCCCCCCCCCCCCCCCCCCCCCC(=O)[O-]
REMARK SMILES IDX 15 1 16 2 17 3 18 4 19 5 20 6 21 7 22 8 23 9 24 10 25 11
REMARK SMILES IDX 26 12 27 13 28 14 29 15 30 16 14 17 13 18 12 19 11 20 10 21
REMARK SMILES IDX 9 22 8 23 7 24 6 25 5 26 4 27 3 28 2 29 1 30
REMARK H PARENT
REMARK Flexibility Score: inf
ROOT
ATOM      1  C   UNL     1      -9.253  -5.571   6.790  1.00  0.00     0.000 C 
ENDROOT
BRANCH   1   2
ATOM      2  C   UNL     1      -8.523  -4.247   6.502  1.00  0.00     0.000 C 
BRANCH   2   3
ATOM      3  C   UNL     1      -8.559  -3.852   5.015  1.00  0.00     0.000 C 
BRANCH   3   4
ATOM      4  C   UNL     1      -9.712  -2.876   4.694  1.00  0.00     0.000 C 
BRANCH   4   5
ATOM      5  C   UNL     1     -10.309  -3.069   3.289  1.00  0.00     0.000 C 
BRANCH   5   6
ATOM      6  C   UNL     1      -9.727  -2.089   2.257  1.00  0.00     0.000 C 
BRANCH   6   7
ATOM      7  C   UNL     1      -8.594  -1.225   2.834  1.00  0.00     0.000 C 
BRANCH   7   8
ATOM      8  C   UNL     1      -8.844   0.278   2.626  1.00  0.00     0.000 C 
BRANCH   8   9
ATOM      9  C   UNL     1     -10.074   0.799   3.392  1.00  0.00     0.000 C 
BRANCH   9  10
ATOM     10  C   UNL     1     -11.178   1.421   2.519  1.00  0.00     0.000 C 
BRANCH  10  11
ATOM     11  C   UNL     1     -12.420   0.523   2.384  1.00  0.00     0.000 C 
BRANCH  11  12
ATOM     12  C   UNL     1     -12.687  -0.300   3.655  1.00  0.00     0.006 C 
BRANCH  12  13
ATOM     13  C   UNL     1     -14.125  -0.135   4.162  1.00  0.00     0.053 C 
BRANCH  13  14
ATOM     14  C   UNL     1     -14.158   0.732   5.381  1.00  0.00     0.041 C 
ATOM     15  O   UNL     1     -13.146   1.409   5.700  1.00  0.00    -0.550 OA
ATOM     16  O   UNL     1     -15.285   0.753   6.194  1.00  0.00    -0.550 OA
ENDBRANCH  13  14
ENDBRANCH  12  13
ENDBRANCH  11  12
ENDBRANCH  10  11
ENDBRANCH   9  10
ENDBRANCH   8   9
ENDBRANCH   7   8
ENDBRANCH   6   7
ENDBRANCH   5   6
ENDBRANCH   4   5
ENDBRANCH   3   4
ENDBRANCH   2   3
ENDBRANCH   1   2
BRANCH   1  17
ATOM     17  C   UNL     1      -8.941  -6.724   5.815  1.00  0.00     0.000 C 
BRANCH  17  18
ATOM     18  C   UNL     1     -10.122  -7.182   4.940  1.00  0.00     0.000 C 
BRANCH  18  19
ATOM     19  C   UNL     1     -11.008  -8.275   5.566  1.00  0.00     0.000 C 
BRANCH  19  20
ATOM     20  C   UNL     1     -12.444  -7.805   5.885  1.00  0.00     0.000 C 
BRANCH  20  21
ATOM     21  C   UNL     1     -12.535  -7.051   7.223  1.00  0.00     0.000 C 
BRANCH  21  22
ATOM     22  C   UNL     1     -13.278  -5.708   7.107  1.00  0.00    -0.000 C 
BRANCH  22  23
ATOM     23  C   UNL     1     -12.616  -4.676   6.175  1.00  0.00    -0.000 C 
BRANCH  23  24
ATOM     24  C   UNL     1     -13.620  -3.660   5.602  1.00  0.00    -0.000 C 
BRANCH  24  25
ATOM     25  C   UNL     1     -13.890  -3.874   4.103  1.00  0.00    -0.000 C 
BRANCH  25  26
ATOM     26  C   UNL     1     -13.204  -5.137   3.554  1.00  0.00    -0.000 C 
BRANCH  26  27
ATOM     27  C   UNL     1     -14.195  -6.115   2.896  1.00  0.00    -0.000 C 
BRANCH  27  28
ATOM     28  C   UNL     1     -15.684  -5.731   3.024  1.00  0.00    -0.000 C 
BRANCH  28  29
ATOM     29  C   UNL     1     -16.557  -6.752   3.774  1.00  0.00    -0.003 C 
ATOM     30  C   UNL     1     -16.183  -6.889   5.249  1.00  0.00     0.004 C 
ENDBRANCH  28  29
ENDBRANCH  27  28
ENDBRANCH  26  27
ENDBRANCH  25  26
ENDBRANCH  24  25
ENDBRANCH  23  24
ENDBRANCH  22  23
ENDBRANCH  21  22
ENDBRANCH  20  21
ENDBRANCH  19  20
ENDBRANCH  18  19
ENDBRANCH  17  18
ENDBRANCH   1  17
TORSDOF 26
ENDMDL
MODEL 4
REMARK VINA RESULT:    -4.081      2.215      6.283
REMARK INTER + INTRA:         -15.239
REMARK INTER:                 -10.620
REMARK INTRA:                  -4.618
REMARK UNBOUND:                -4.954
REMARK SMILES CCCCCCCCCCCCCCCCCCCCCCCCCCCC(=O)[O-]
REMARK SMILES IDX 15 1 16 2 17 3 18 4 19 5 20 6 21 7 22 8 23 9 24 10 25 11
REMARK SMILES IDX 26 12 27 13 28 14 29 15 30 16 14 17 13 18 12 19 11 20 10 21
REMARK SMILES IDX 9 22 8 23 7 24 6 25 5 26 4 27 3 28 2 29 1 30
REMARK H PARENT
REMARK Flexibility Score: inf
ROOT
ATOM      1  C   UNL     1      -8.881  -0.004   2.248  1.00  0.00     0.000 C 
ENDROOT
BRANCH   1   2
ATOM      2  C   UNL     1     -10.287   0.573   2.490  1.00  0.00     0.000 C 
BRANCH   2   3
ATOM      3  C   UNL     1     -10.558   0.897   3.970  1.00  0.00     0.000 C 
BRANCH   3   4
ATOM      4  C   UNL     1     -11.721   0.062   4.550  1.00  0.00     0.000 C 
BRANCH   4   5
ATOM      5  C   UNL     1     -12.526  -0.699   3.482  1.00  0.00     0.000 C 
BRANCH   5   6
ATOM      6  C   UNL     1     -13.213  -1.956   4.041  1.00  0.00     0.000 C 
BRANCH   6   7
ATOM      7  C   UNL     1     -12.599  -2.425   5.370  1.00  0.00     0.000 C 
BRANCH   7   8
ATOM      8  C   UNL     1     -13.671  -2.722   6.433  1.00  0.00     0.000 C 
BRANCH   8   9
ATOM      9  C   UNL     1     -13.807  -1.605   7.484  1.00  0.00     0.000 C 
BRANCH   9  10
ATOM     10  C   UNL     1     -15.170  -0.891   7.510  1.00  0.00     0.000 C 
BRANCH  10  11
ATOM     11  C   UNL     1     -15.349   0.115   6.359  1.00  0.00     0.000 C 
BRANCH  11  12
ATOM     12  C   UNL     1     -16.192  -0.458   5.208  1.00  0.00     0.006 C 
BRANCH  12  13
ATOM     13  C   UNL     1     -16.880   0.642   4.390  1.00  0.00     0.053 C 
BRANCH  13  14
ATOM     14  C   UNL     1     -17.387   1.726   5.287  1.00  0.00     0.041 C 
ATOM     15  O   UNL     1     -18.375   1.513   6.037  1.00  0.00    -0.550 OA
ATOM     16  O   UNL     1     -16.804   2.988   5.259  1.00  0.00    -0.550 OA
ENDBRANCH  13  14
ENDBRANCH  12  13
ENDBRANCH  11  12
ENDBRANCH  10  11
ENDBRANCH   9  10
ENDBRANCH   8   9
ENDBRANCH   7   8
ENDBRANCH   6   7
ENDBRANCH   5   6
ENDBRANCH   4   5
ENDBRANCH   3   4
ENDBRANCH   2   3
ENDBRANCH   1   2
BRANCH   1  17
ATOM     17  C   UNL     1      -8.564  -1.310   3.003  1.00  0.00     0.000 C 
BRANCH  17  18
ATOM     18  C   UNL     1      -9.498  -2.493   2.690  1.00  0.00     0.000 C 
BRANCH  18  19
ATOM     19  C   UNL     1      -9.523  -3.602   3.758  1.00  0.00     0.000 C 
BRANCH  19  20
ATOM     20  C   UNL     1      -9.113  -3.119   5.167  1.00  0.00     0.000 C 
BRANCH  20  21
ATOM     21  C   UNL     1      -8.610  -4.265   6.061  1.00  0.00     0.000 C 
BRANCH  21  22
ATOM     22  C   UNL     1      -9.286  -5.613   5.746  1.00  0.00    -0.000 C 
BRANCH  22  23
ATOM     23  C   UNL     1     -10.334  -6.072   6.777  1.00  0.00    -0.000 C 
BRANCH  23  24
ATOM     24  C   UNL     1     -11.778  -5.911   6.271  1.00  0.00    -0.000 C 
BRANCH  24  25
ATOM     25  C   UNL     1     -11.900  -6.111   4.751  1.00  0.00    -0.000 C 
BRANCH  25  26
ATOM     26  C   UNL     1     -13.319  -6.526   4.322  1.00  0.00    -0.000 C 
BRANCH  26  27
ATOM     27  C   UNL     1     -13.975  -5.510   3.369  1.00  0.00    -0.000 C 
BRANCH  27  28
ATOM     28  C   UNL     1     -15.337  -4.954   3.836  1.00  0.00    -0.000 C 
BRANCH  28  29
ATOM     29  C   UNL     1     -16.547  -5.410   3.001  1.00  0.00    -0.003 C 
ATOM     30  C   UNL     1     -16.196  -6.497   1.987  1.00  0.00     0.004 C 
ENDBRANCH  28  29
ENDBRANCH  27  28
ENDBRANCH  26  27
ENDBRANCH  25  26
ENDBRANCH  24  25
ENDBRANCH  23  24
ENDBRANCH  22  23
ENDBRANCH  21  22
ENDBRANCH  20  21
ENDBRANCH  19  20
ENDBRANCH  18  19
ENDBRANCH  17  18
ENDBRANCH   1  17
TORSDOF 26
ENDMDL
MODEL 5
REMARK VINA RESULT:    -4.080      2.768      6.943
REMARK INTER + INTRA:         -15.236
REMARK INTER:                 -10.407
REMARK INTRA:                  -4.829
REMARK UNBOUND:                -4.954
REMARK SMILES CCCCCCCCCCCCCCCCCCCCCCCCCCCC(=O)[O-]
REMARK SMILES IDX 15 1 16 2 17 3 18 4 19 5 20 6 21 7 22 8 23 9 24 10 25 11
REMARK SMILES IDX 26 12 27 13 28 14 29 15 30 16 14 17 13 18 12 19 11 20 10 21
REMARK SMILES IDX 9 22 8 23 7 24 6 25 5 26 4 27 3 28 2 29 1 30
REMARK H PARENT
REMARK Flexibility Score: inf
ROOT
ATOM      1  C   UNL     1     -10.171   0.537   3.411  1.00  0.00     0.000 C 
ENDROOT
BRANCH   1   2
ATOM      2  C   UNL     1     -10.898   1.264   2.266  1.00  0.00     0.000 C 
BRANCH   2   3
ATOM      3  C   UNL     1     -12.332   0.752   2.042  1.00  0.00     0.000 C 
BRANCH   3   4
ATOM      4  C   UNL     1     -13.320   1.292   3.099  1.00  0.00     0.000 C 
BRANCH   4   5
ATOM      5  C   UNL     1     -14.017   2.598   2.680  1.00  0.00     0.000 C 
BRANCH   5   6
ATOM      6  C   UNL     1     -13.999   3.662   3.789  1.00  0.00     0.000 C 
BRANCH   6   7
ATOM      7  C   UNL     1     -15.318   3.721   4.576  1.00  0.00     0.000 C 
BRANCH   7   8
ATOM      8  C   UNL     1     -16.546   3.759   3.651  1.00  0.00     0.000 C 
BRANCH   8   9
ATOM      9  C   UNL     1     -17.643   2.759   4.060  1.00  0.00     0.000 C 
BRANCH   9  10
ATOM     10  C   UNL     1     -17.592   1.399   3.343  1.00  0.00     0.000 C 
BRANCH  10  11
ATOM     11  C   UNL     1     -16.784   0.339   4.113  1.00  0.00     0.000 C 
BRANCH  11  12
ATOM     12  C   UNL     1     -16.886   0.521   5.637  1.00  0.00     0.006 C 
BRANCH  12  13
ATOM     13  C   UNL     1     -15.875  -0.350   6.393  1.00  0.00     0.053 C 
BRANCH  13  14
ATOM     14  C   UNL     1     -14.950   0.501   7.204  1.00  0.00     0.041 C 
ATOM     15  O   UNL     1     -15.134   0.629   8.443  1.00  0.00    -0.550 OA
ATOM     16  O   UNL     1     -13.916   1.194   6.587  1.00  0.00    -0.550 OA
ENDBRANCH  13  14
ENDBRANCH  12  13
ENDBRANCH  11  12
ENDBRANCH  10  11
ENDBRANCH   9  10
ENDBRANCH   8   9
ENDBRANCH   7   8
ENDBRANCH   6   7
ENDBRANCH   5   6
ENDBRANCH   4   5
ENDBRANCH   3   4
ENDBRANCH   2   3
ENDBRANCH   1   2
BRANCH   1  17
ATOM     17  C   UNL     1      -9.107  -0.489   2.971  1.00  0.00     0.000 C 
BRANCH  17  18
ATOM     18  C   UNL     1      -9.656  -1.746   2.272  1.00  0.00     0.000 C 
BRANCH  18  19
ATOM     19  C   UNL     1      -9.679  -3.017   3.141  1.00  0.00     0.000 C 
BRANCH  19  20
ATOM     20  C   UNL     1      -8.573  -3.053   4.219  1.00  0.00     0.000 C 
BRANCH  20  21
ATOM     21  C   UNL     1      -8.933  -3.965   5.404  1.00  0.00     0.000 C 
BRANCH  21  22
ATOM     22  C   UNL     1     -10.013  -5.006   5.054  1.00  0.00    -0.000 C 
BRANCH  22  23
ATOM     23  C   UNL     1     -10.911  -5.434   6.229  1.00  0.00    -0.000 C 
BRANCH  23  24
ATOM     24  C   UNL     1     -12.387  -5.594   5.824  1.00  0.00    -0.000 C 
BRANCH  24  25
ATOM     25  C   UNL     1     -12.555  -6.122   4.390  1.00  0.00    -0.000 C 
BRANCH  25  26
ATOM     26  C   UNL     1     -13.190  -5.083   3.448  1.00  0.00    -0.000 C 
BRANCH  26  27
ATOM     27  C   UNL     1     -14.516  -4.520   3.990  1.00  0.00    -0.000 C 
BRANCH  27  28
ATOM     28  C   UNL     1     -14.504  -3.014   4.327  1.00  0.00    -0.000 C 
BRANCH  28  29
ATOM     29  C   UNL     1     -13.180  -2.290   4.026  1.00  0.00    -0.003 C 
ATOM     30  C   UNL     1     -12.459  -1.816   5.287  1.00  0.00     0.004 C 
ENDBRANCH  28  29
ENDBRANCH  27  28
ENDBRANCH  26  27
ENDBRANCH  25  26
ENDBRANCH  24  25
ENDBRANCH  23  24
ENDBRANCH  22  23
ENDBRANCH  21  22
ENDBRANCH  20  21
ENDBRANCH  19  20
ENDBRANCH  18  19
ENDBRANCH  17  18
ENDBRANCH   1  17
TORSDOF 26
ENDMDL
MODEL 6
REMARK VINA RESULT:    -4.041      2.759      6.623
REMARK INTER + INTRA:         -15.137
REMARK INTER:                 -10.326
REMARK INTRA:                  -4.811
REMARK UNBOUND:                -4.954
REMARK SMILES CCCCCCCCCCCCCCCCCCCCCCCCCCCC(=O)[O-]
REMARK SMILES IDX 15 1 16 2 17 3 18 4 19 5 20 6 21 7 22 8 23 9 24 10 25 11
REMARK SMILES IDX 26 12 27 13 28 14 29 15 30 16 14 17 13 18 12 19 11 20 10 21
REMARK SMILES IDX 9 22 8 23 7 24 6 25 5 26 4 27 3 28 2 29 1 30
REMARK H PARENT
REMARK Flexibility Score: inf
ROOT
ATOM      1  C   UNL     1     -11.822  -6.640   6.433  1.00  0.00     0.000 C 
ENDROOT
BRANCH   1   2
ATOM      2  C   UNL     1     -13.084  -6.103   5.735  1.00  0.00     0.000 C 
BRANCH   2   3
ATOM      3  C   UNL     1     -13.124  -6.424   4.232  1.00  0.00     0.000 C 
BRANCH   3   4
ATOM      4  C   UNL     1     -13.240  -5.154   3.362  1.00  0.00     0.000 C 
BRANCH   4   5
ATOM      5  C   UNL     1     -12.242  -4.049   3.747  1.00  0.00     0.000 C 
BRANCH   5   6
ATOM      6  C   UNL     1     -12.920  -2.687   3.971  1.00  0.00     0.000 C 
BRANCH   6   7
ATOM      7  C   UNL     1     -12.464  -2.004   5.270  1.00  0.00     0.000 C 
BRANCH   7   8
ATOM      8  C   UNL     1     -13.628  -1.786   6.253  1.00  0.00     0.000 C 
BRANCH   8   9
ATOM      9  C   UNL     1     -13.831  -2.965   7.222  1.00  0.00     0.000 C 
BRANCH   9  10
ATOM     10  C   UNL     1     -15.254  -3.550   7.254  1.00  0.00     0.000 C 
BRANCH  10  11
ATOM     11  C   UNL     1     -16.061  -3.249   5.978  1.00  0.00     0.000 C 
BRANCH  11  12
ATOM     12  C   UNL     1     -16.625  -4.525   5.330  1.00  0.00     0.006 C 
BRANCH  12  13
ATOM     13  C   UNL     1     -16.660  -4.429   3.799  1.00  0.00     0.053 C 
BRANCH  13  14
ATOM     14  C   UNL     1     -16.968  -5.763   3.195  1.00  0.00     0.041 C 
ATOM     15  O   UNL     1     -16.360  -6.143   2.162  1.00  0.00    -0.550 OA
ATOM     16  O   UNL     1     -17.963  -6.565   3.743  1.00  0.00    -0.550 OA
ENDBRANCH  13  14
ENDBRANCH  12  13
ENDBRANCH  11  12
ENDBRANCH  10  11
ENDBRANCH   9  10
ENDBRANCH   8   9
ENDBRANCH   7   8
ENDBRANCH   6   7
ENDBRANCH   5   6
ENDBRANCH   4   5
ENDBRANCH   3   4
ENDBRANCH   2   3
ENDBRANCH   1   2
BRANCH   1  17
ATOM     17  C   UNL     1     -10.768  -7.269   5.499  1.00  0.00     0.000 C 
BRANCH  17  18
ATOM     18  C   UNL     1      -9.382  -6.601   5.529  1.00  0.00     0.000 C 
BRANCH  18  19
ATOM     19  C   UNL     1      -9.103  -5.737   6.773  1.00  0.00     0.000 C 
BRANCH  19  20
ATOM     20  C   UNL     1      -8.352  -4.423   6.463  1.00  0.00     0.000 C 
BRANCH  20  21
ATOM     21  C   UNL     1      -9.165  -3.477   5.562  1.00  0.00     0.000 C 
BRANCH  21  22
ATOM     22  C   UNL     1      -8.426  -3.102   4.264  1.00  0.00    -0.000 C 
BRANCH  22  23
ATOM     23  C   UNL     1      -9.221  -2.205   3.298  1.00  0.00    -0.000 C 
BRANCH  23  24
ATOM     24  C   UNL     1      -8.356  -1.106   2.657  1.00  0.00    -0.000 C 
BRANCH  24  25
ATOM     25  C   UNL     1      -9.048   0.268   2.654  1.00  0.00    -0.000 C 
BRANCH  25  26
ATOM     26  C   UNL     1     -10.240   0.331   3.626  1.00  0.00    -0.000 C 
BRANCH  26  27
ATOM     27  C   UNL     1     -11.309   1.351   3.193  1.00  0.00    -0.000 C 
BRANCH  27  28
ATOM     28  C   UNL     1     -12.596   0.743   2.598  1.00  0.00    -0.000 C 
BRANCH  28  29
ATOM     29  C   UNL     1     -13.872   0.984   3.424  1.00  0.00    -0.003 C 
ATOM     30  C   UNL     1     -14.338   2.439   3.393  1.00  0.00     0.004 C 
ENDBRANCH  28  29
ENDBRANCH  27  28
ENDBRANCH  26  27
ENDBRANCH  25  26
ENDBRANCH  24  25
ENDBRANCH  23  24
ENDBRANCH  22  23
ENDBRANCH  21  22
ENDBRANCH  20  21
ENDBRANCH  19  20
ENDBRANCH  18  19
ENDBRANCH  17  18
ENDBRANCH   1  17
TORSDOF 26
ENDMDL
MODEL 7
REMARK VINA RESULT:    -4.006      1.473      2.064
REMARK INTER + INTRA:         -15.049
REMARK INTER:                 -10.356
REMARK INTRA:                  -4.693
REMARK UNBOUND:                -4.954
REMARK SMILES CCCCCCCCCCCCCCCCCCCCCCCCCCCC(=O)[O-]
REMARK SMILES IDX 15 1 16 2 17 3 18 4 19 5 20 6 21 7 22 8 23 9 24 10 25 11
REMARK SMILES IDX 26 12 27 13 28 14 29 15 30 16 14 17 13 18 12 19 11 20 10 21
REMARK SMILES IDX 9 22 8 23 7 24 6 25 5 26 4 27 3 28 2 29 1 30
REMARK H PARENT
REMARK Flexibility Score: inf
ROOT
ATOM      1  C   UNL     1     -11.501  -6.496   7.035  1.00  0.00     0.000 C 
ENDROOT
BRANCH   1   2
ATOM      2  C   UNL     1      -9.985  -6.544   7.297  1.00  0.00     0.000 C 
BRANCH   2   3
ATOM      3  C   UNL     1      -9.154  -5.988   6.127  1.00  0.00     0.000 C 
BRANCH   3   4
ATOM      4  C   UNL     1      -8.558  -4.598   6.437  1.00  0.00     0.000 C 
BRANCH   4   5
ATOM      5  C   UNL     1      -8.635  -3.616   5.255  1.00  0.00     0.000 C 
BRANCH   5   6
ATOM      6  C   UNL     1      -9.466  -4.163   4.083  1.00  0.00     0.000 C 
BRANCH   6   7
ATOM      7  C   UNL     1      -9.701  -3.116   2.983  1.00  0.00     0.000 C 
BRANCH   7   8
ATOM      8  C   UNL     1      -8.955  -1.800   3.264  1.00  0.00     0.000 C 
BRANCH   8   9
ATOM      9  C   UNL     1      -9.026  -0.802   2.094  1.00  0.00     0.000 C 
BRANCH   9  10
ATOM     10  C   UNL     1     -10.040   0.343   2.268  1.00  0.00     0.000 C 
BRANCH  10  11
ATOM     11  C   UNL     1     -10.414   0.602   3.738  1.00  0.00     0.000 C 
BRANCH  11  12
ATOM     12  C   UNL     1     -11.874   0.228   4.044  1.00  0.00     0.006 C 
BRANCH  12  13
ATOM     13  C   UNL     1     -12.752   0.246   2.786  1.00  0.00     0.053 C 
BRANCH  13  14
ATOM     14  C   UNL     1     -13.472   1.552   2.666  1.00  0.00     0.041 C 
ATOM     15  O   UNL     1     -12.902   2.539   2.132  1.00  0.00    -0.550 OA
ATOM     16  O   UNL     1     -14.752   1.695   3.188  1.00  0.00    -0.550 OA
ENDBRANCH  13  14
ENDBRANCH  12  13
ENDBRANCH  11  12
ENDBRANCH  10  11
ENDBRANCH   9  10
ENDBRANCH   8   9
ENDBRANCH   7   8
ENDBRANCH   6   7
ENDBRANCH   5   6
ENDBRANCH   4   5
ENDBRANCH   3   4
ENDBRANCH   2   3
ENDBRANCH   1   2
BRANCH   1  17
ATOM     17  C   UNL     1     -11.956  -7.088   5.686  1.00  0.00     0.000 C 
BRANCH  17  18
ATOM     18  C   UNL     1     -13.463  -7.381   5.572  1.00  0.00     0.000 C 
BRANCH  18  19
ATOM     19  C   UNL     1     -13.930  -7.858   4.184  1.00  0.00     0.000 C 
BRANCH  19  20
ATOM     20  C   UNL     1     -15.180  -7.116   3.660  1.00  0.00     0.000 C 
BRANCH  20  21
ATOM     21  C   UNL     1     -14.847  -5.726   3.091  1.00  0.00     0.000 C 
BRANCH  21  22
ATOM     22  C   UNL     1     -15.503  -4.581   3.884  1.00  0.00    -0.000 C 
BRANCH  22  23
ATOM     23  C   UNL     1     -14.598  -3.361   4.136  1.00  0.00    -0.000 C 
BRANCH  23  24
ATOM     24  C   UNL     1     -13.132  -3.749   4.396  1.00  0.00    -0.000 C 
BRANCH  24  25
ATOM     25  C   UNL     1     -12.571  -3.119   5.682  1.00  0.00    -0.000 C 
BRANCH  25  26
ATOM     26  C   UNL     1     -13.472  -3.370   6.904  1.00  0.00    -0.000 C 
BRANCH  26  27
ATOM     27  C   UNL     1     -13.786  -2.083   7.687  1.00  0.00    -0.000 C 
BRANCH  27  28
ATOM     28  C   UNL     1     -14.157  -0.860   6.822  1.00  0.00    -0.000 C 
BRANCH  28  29
ATOM     29  C   UNL     1     -15.648  -0.478   6.839  1.00  0.00    -0.003 C 
ATOM     30  C   UNL     1     -16.273  -0.449   5.445  1.00  0.00     0.004 C 
ENDBRANCH  28  29
ENDBRANCH  27  28
ENDBRANCH  26  27
ENDBRANCH  25  26
ENDBRANCH  24  25
ENDBRANCH  23  24
ENDBRANCH  22  23
ENDBRANCH  21  22
ENDBRANCH  20  21
ENDBRANCH  19  20
ENDBRANCH  18  19
ENDBRANCH  17  18
ENDBRANCH   1  17
TORSDOF 26
ENDMDL
MODEL 8
REMARK VINA RESULT:    -3.975      2.918      6.597
REMARK INTER + INTRA:         -14.971
REMARK INTER:                 -10.421
REMARK INTRA:                  -4.550
REMARK UNBOUND:                -4.954
REMARK SMILES CCCCCCCCCCCCCCCCCCCCCCCCCCCC(=O)[O-]
REMARK SMILES IDX 15 1 16 2 17 3 18 4 19 5 20 6 21 7 22 8 23 9 24 10 25 11
REMARK SMILES IDX 26 12 27 13 28 14 29 15 30 16 14 17 13 18 12 19 11 20 10 21
REMARK SMILES IDX 9 22 8 23 7 24 6 25 5 26 4 27 3 28 2 29 1 30
REMARK H PARENT
REMARK Flexibility Score: inf
ROOT
ATOM      1  C   UNL     1      -9.622  -4.670   5.985  1.00  0.00     0.000 C 
ENDROOT
BRANCH   1   2
ATOM      2  C   UNL     1      -9.049  -5.797   6.864  1.00  0.00     0.000 C 
BRANCH   2   3
ATOM      3  C   UNL     1      -8.811  -7.103   6.087  1.00  0.00     0.000 C 
BRANCH   3   4
ATOM      4  C   UNL     1      -9.932  -7.392   5.066  1.00  0.00     0.000 C 
BRANCH   4   5
ATOM      5  C   UNL     1     -11.157  -8.094   5.678  1.00  0.00     0.000 C 
BRANCH   5   6
ATOM      6  C   UNL     1     -12.468  -7.734   4.959  1.00  0.00     0.000 C 
BRANCH   6   7
ATOM      7  C   UNL     1     -12.936  -6.302   5.262  1.00  0.00     0.000 C 
BRANCH   7   8
ATOM      8  C   UNL     1     -12.820  -5.380   4.037  1.00  0.00     0.000 C 
BRANCH   8   9
ATOM      9  C   UNL     1     -14.185  -4.930   3.486  1.00  0.00     0.000 C 
BRANCH   9  10
ATOM     10  C   UNL     1     -15.338  -5.929   3.691  1.00  0.00     0.000 C 
BRANCH  10  11
ATOM     11  C   UNL     1     -15.856  -6.533   2.374  1.00  0.00     0.000 C 
BRANCH  11  12
ATOM     12  C   UNL     1     -17.268  -7.126   2.519  1.00  0.00     0.006 C 
BRANCH  12  13
ATOM     13  C   UNL     1     -18.339  -6.237   1.875  1.00  0.00     0.053 C 
BRANCH  13  14
ATOM     14  C   UNL     1     -19.008  -5.386   2.908  1.00  0.00     0.041 C 
ATOM     15  O   UNL     1     -19.560  -5.921   3.904  1.00  0.00    -0.550 OA
ATOM     16  O   UNL     1     -19.066  -4.007   2.747  1.00  0.00    -0.550 OA
ENDBRANCH  13  14
ENDBRANCH  12  13
ENDBRANCH  11  12
ENDBRANCH  10  11
ENDBRANCH   9  10
ENDBRANCH   8   9
ENDBRANCH   7   8
ENDBRANCH   6   7
ENDBRANCH   5   6
ENDBRANCH   4   5
ENDBRANCH   3   4
ENDBRANCH   2   3
ENDBRANCH   1   2
BRANCH   1  17
ATOM     17  C   UNL     1      -8.637  -3.536   5.639  1.00  0.00     0.000 C 
BRANCH  17  18
ATOM     18  C   UNL     1      -8.628  -3.101   4.162  1.00  0.00     0.000 C 
BRANCH  18  19
ATOM     19  C   UNL     1      -9.801  -3.637   3.320  1.00  0.00     0.000 C 
BRANCH  19  20
ATOM     20  C   UNL     1     -10.236  -2.687   2.183  1.00  0.00     0.000 C 
BRANCH  20  21
ATOM     21  C   UNL     1      -9.318  -1.459   2.056  1.00  0.00     0.000 C 
BRANCH  21  22
ATOM     22  C   UNL     1     -10.094  -0.129   2.028  1.00  0.00    -0.000 C 
BRANCH  22  23
ATOM     23  C   UNL     1     -10.069   0.667   3.345  1.00  0.00    -0.000 C 
BRANCH  23  24
ATOM     24  C   UNL     1     -10.822  -0.041   4.485  1.00  0.00    -0.000 C 
BRANCH  24  25
ATOM     25  C   UNL     1     -12.337  -0.127   4.232  1.00  0.00    -0.000 C 
BRANCH  25  26
ATOM     26  C   UNL     1     -12.867  -1.569   4.306  1.00  0.00    -0.000 C 
BRANCH  26  27
ATOM     27  C   UNL     1     -12.459  -2.289   5.605  1.00  0.00    -0.000 C 
BRANCH  27  28
ATOM     28  C   UNL     1     -13.462  -2.163   6.771  1.00  0.00    -0.000 C 
BRANCH  28  29
ATOM     29  C   UNL     1     -14.886  -2.657   6.461  1.00  0.00    -0.003 C 
ATOM     30  C   UNL     1     -15.190  -4.024   7.074  1.00  0.00     0.004 C 
ENDBRANCH  28  29
ENDBRANCH  27  28
ENDBRANCH  26  27
ENDBRANCH  25  26
ENDBRANCH  24  25
ENDBRANCH  23  24
ENDBRANCH  22  23
ENDBRANCH  21  22
ENDBRANCH  20  21
ENDBRANCH  19  20
ENDBRANCH  18  19
ENDBRANCH  17  18
ENDBRANCH   1  17
TORSDOF 26
ENDMDL
MODEL 9
REMARK VINA RESULT:    -3.931      1.720      3.012
REMARK INTER + INTRA:         -14.860
REMARK INTER:                  -9.756
REMARK INTRA:                  -5.104
REMARK UNBOUND:                -4.954
REMARK SMILES CCCCCCCCCCCCCCCCCCCCCCCCCCCC(=O)[O-]
REMARK SMILES IDX 15 1 16 2 17 3 18 4 19 5 20 6 21 7 22 8 23 9 24 10 25 11
REMARK SMILES IDX 26 12 27 13 28 14 29 15 30 16 14 17 13 18 12 19 11 20 10 21
REMARK SMILES IDX 9 22 8 23 7 24 6 25 5 26 4 27 3 28 2 29 1 30
REMARK H PARENT
REMARK Flexibility Score: inf
ROOT
ATOM      1  C   UNL     1     -10.107  -6.748   5.720  1.00  0.00     0.000 C 
ENDROOT
BRANCH   1   2
ATOM      2  C   UNL     1      -9.135  -5.877   6.536  1.00  0.00     0.000 C 
BRANCH   2   3
ATOM      3  C   UNL     1      -8.923  -4.480   5.928  1.00  0.00     0.000 C 
BRANCH   3   4
ATOM      4  C   UNL     1      -9.049  -4.484   4.389  1.00  0.00     0.000 C 
BRANCH   4   5
ATOM      5  C   UNL     1      -9.246  -3.083   3.783  1.00  0.00     0.000 C 
BRANCH   5   6
ATOM      6  C   UNL     1     -10.147  -3.097   2.537  1.00  0.00     0.000 C 
BRANCH   6   7
ATOM      7  C   UNL     1     -10.361  -1.695   1.945  1.00  0.00     0.000 C 
BRANCH   7   8
ATOM      8  C   UNL     1      -9.074  -0.853   1.962  1.00  0.00     0.000 C 
BRANCH   8   9
ATOM      9  C   UNL     1      -9.183   0.403   2.845  1.00  0.00     0.000 C 
BRANCH   9  10
ATOM     10  C   UNL     1     -10.449   0.484   3.717  1.00  0.00     0.000 C 
BRANCH  10  11
ATOM     11  C   UNL     1     -10.787   1.918   4.161  1.00  0.00     0.000 C 
BRANCH  11  12
ATOM     12  C   UNL     1     -12.297   2.124   4.370  1.00  0.00     0.006 C 
BRANCH  12  13
ATOM     13  C   UNL     1     -13.109   1.765   3.119  1.00  0.00     0.053 C 
BRANCH  13  14
ATOM     14  C   UNL     1     -14.403   2.515   3.098  1.00  0.00     0.041 C 
ATOM     15  O   UNL     1     -14.434   3.708   2.698  1.00  0.00    -0.550 OA
ATOM     16  O   UNL     1     -15.566   1.916   3.568  1.00  0.00    -0.550 OA
ENDBRANCH  13  14
ENDBRANCH  12  13
ENDBRANCH  11  12
ENDBRANCH  10  11
ENDBRANCH   9  10
ENDBRANCH   8   9
ENDBRANCH   7   8
ENDBRANCH   6   7
ENDBRANCH   5   6
ENDBRANCH   4   5
ENDBRANCH   3   4
ENDBRANCH   2   3
ENDBRANCH   1   2
BRANCH   1  17
ATOM     17  C   UNL     1     -11.601  -6.408   5.890  1.00  0.00     0.000 C 
BRANCH  17  18
ATOM     18  C   UNL     1     -12.355  -6.090   4.586  1.00  0.00     0.000 C 
BRANCH  18  19
ATOM     19  C   UNL     1     -12.867  -4.643   4.467  1.00  0.00     0.000 C 
BRANCH  19  20
ATOM     20  C   UNL     1     -12.519  -3.758   5.684  1.00  0.00     0.000 C 
BRANCH  20  21
ATOM     21  C   UNL     1     -12.437  -2.264   5.324  1.00  0.00     0.000 C 
BRANCH  21  22
ATOM     22  C   UNL     1     -13.345  -1.882   4.140  1.00  0.00    -0.000 C 
BRANCH  22  23
ATOM     23  C   UNL     1     -14.716  -1.300   4.531  1.00  0.00    -0.000 C 
BRANCH  23  24
ATOM     24  C   UNL     1     -15.828  -2.363   4.559  1.00  0.00    -0.000 C 
BRANCH  24  25
ATOM     25  C   UNL     1     -16.091  -2.910   5.971  1.00  0.00    -0.000 C 
BRANCH  25  26
ATOM     26  C   UNL     1     -16.463  -1.803   6.974  1.00  0.00    -0.000 C 
BRANCH  26  27
ATOM     27  C   UNL     1     -15.967  -2.099   8.401  1.00  0.00    -0.000 C 
BRANCH  27  28
ATOM     28  C   UNL     1     -15.013  -1.044   8.999  1.00  0.00    -0.000 C 
BRANCH  28  29
ATOM     29  C   UNL     1     -13.782  -0.717   8.136  1.00  0.00    -0.003 C 
ATOM     30  C   UNL     1     -13.824   0.692   7.544  1.00  0.00     0.004 C 
ENDBRANCH  28  29
ENDBRANCH  27  28
ENDBRANCH  26  27
ENDBRANCH  25  26
ENDBRANCH  24  25
ENDBRANCH  23  24
ENDBRANCH  22  23
ENDBRANCH  21  22
ENDBRANCH  20  21
ENDBRANCH  19  20
ENDBRANCH  18  19
ENDBRANCH  17  18
ENDBRANCH   1  17
TORSDOF 26
ENDMDL
