MODEL 1
REMARK VINA RESULT:    -5.124      0.000      0.000
REMARK INTER + INTRA:          -5.273
REMARK INTER:                  -5.273
REMARK INTRA:                   0.000
REMARK UNBOUND:                 0.000
REMARK SMILES Oc1ccc2[nH]ccc2c1
REMARK SMILES IDX 3 1 4 2 5 3 9 4 8 5 7 6 6 7 10 8 2 9 1 11
REMARK H PARENT 6 10 1 12
REMARK Flexibility Score: inf
ROOT
ATOM      1  C   UNL     1      44.031  41.818  55.411  1.00  0.00     0.048 A 
ATOM      2  C   UNL     1      42.992  42.717  55.109  1.00  0.00     0.030 A 
ATOM      3  C   UNL     1      42.091  42.358  54.108  1.00  0.00     0.046 A 
ATOM      4  C   UNL     1      42.201  41.172  53.433  1.00  0.00     0.003 A 
ATOM      5  C   UNL     1      41.169  41.121  52.520  1.00  0.00     0.028 A 
ATOM      6  C   UNL     1      40.470  42.312  52.695  1.00  0.00     0.083 A 
ATOM      7  N   UNL     1      41.037  43.063  53.666  1.00  0.00    -0.361 N 
ATOM      8  C   UNL     1      43.216  40.259  53.707  1.00  0.00     0.056 A 
ATOM      9  C   UNL     1      44.145  40.590  54.713  1.00  0.00     0.116 A 
ATOM     10  H   UNL     1      40.718  44.000  54.000  1.00  0.00     0.166 HD
ENDROOT
BRANCH   9  11
ATOM     11  O   UNL     1      45.174  39.700  55.013  1.00  0.00    -0.508 OA
ATOM     12  H   UNL     1      45.011  38.874  55.575  1.00  0.00     0.293 HD
ENDBRANCH   9  11
TORSDOF 1
ENDMDL
MODEL 2
REMARK VINA RESULT:    -4.925      2.603      4.055
REMARK INTER + INTRA:          -5.069
REMARK INTER:                  -5.069
REMARK INTRA:                   0.000
REMARK UNBOUND:                 0.000
REMARK SMILES Oc1ccc2[nH]ccc2c1
REMARK SMILES IDX 3 1 4 2 5 3 9 4 8 5 7 6 6 7 10 8 2 9 1 11
REMARK H PARENT 6 10 1 12
REMARK Flexibility Score: inf
ROOT
ATOM      1  C   UNL     1      41.173  40.952  52.716  1.00  0.00     0.048 A 
ATOM      2  C   UNL     1      42.369  40.213  52.677  1.00  0.00     0.030 A 
ATOM      3  C   UNL     1      43.359  40.529  53.605  1.00  0.00     0.046 A 
ATOM      4  C   UNL     1      43.187  41.522  54.532  1.00  0.00     0.003 A 
ATOM      5  C   UNL     1      44.336  41.581  55.291  1.00  0.00     0.028 A 
ATOM      6  C   UNL     1      45.167  40.594  54.770  1.00  0.00     0.083 A 
ATOM      7  N   UNL     1      44.566  39.954  53.741  1.00  0.00    -0.361 N 
ATOM      8  C   UNL     1      42.015  42.272  54.599  1.00  0.00     0.056 A 
ATOM      9  C   UNL     1      40.993  41.980  53.675  1.00  0.00     0.116 A 
ATOM     10  H   UNL     1      44.962  39.173  53.171  1.00  0.00     0.166 HD
ENDROOT
BRANCH   9  11
ATOM     11  O   UNL     1      39.808  42.711  53.713  1.00  0.00    -0.508 OA
ATOM     12  H   UNL     1      39.082  42.506  54.388  1.00  0.00     0.293 HD
ENDBRANCH   9  11
TORSDOF 1
ENDMDL
MODEL 3
REMARK VINA RESULT:    -4.848     10.764     12.004
REMARK INTER + INTRA:          -4.989
REMARK INTER:                  -4.989
REMARK INTRA:                   0.000
REMARK UNBOUND:                 0.000
REMARK SMILES Oc1ccc2[nH]ccc2c1
REMARK SMILES IDX 3 1 4 2 5 3 9 4 8 5 7 6 6 7 10 8 2 9 1 11
REMARK H PARENT 6 10 1 12
REMARK Flexibility Score: inf
ROOT
ATOM      1  C   UNL     1      49.135  30.153  54.522  1.00  0.00     0.048 A 
ATOM      2  C   UNL     1      49.002  30.919  53.350  1.00  0.00     0.030 A 
ATOM      3  C   UNL     1      49.373  32.261  53.405  1.00  0.00     0.046 A 
ATOM      4  C   UNL     1      49.853  32.829  54.554  1.00  0.00     0.003 A 
ATOM      5  C   UNL     1      50.125  34.152  54.278  1.00  0.00     0.028 A 
ATOM      6  C   UNL     1      49.785  34.321  52.939  1.00  0.00     0.083 A 
ATOM      7  N   UNL     1      49.327  33.163  52.410  1.00  0.00    -0.361 N 
ATOM      8  C   UNL     1      49.998  32.099  55.732  1.00  0.00     0.056 A 
ATOM      9  C   UNL     1      49.632  30.739  55.713  1.00  0.00     0.116 A 
ATOM     10  H   UNL     1      49.004  33.007  51.429  1.00  0.00     0.166 HD
ENDROOT
BRANCH   9  11
ATOM     11  O   UNL     1      49.763  29.980  56.873  1.00  0.00    -0.508 OA
ATOM     12  H   UNL     1      49.121  29.226  57.086  1.00  0.00     0.293 HD
ENDBRANCH   9  11
TORSDOF 1
ENDMDL
MODEL 4
REMARK VINA RESULT:    -4.779      2.707      3.987
REMARK INTER + INTRA:          -4.919
REMARK INTER:                  -4.919
REMARK INTRA:                   0.000
REMARK UNBOUND:                 0.000
REMARK SMILES Oc1ccc2[nH]ccc2c1
REMARK SMILES IDX 3 1 4 2 5 3 9 4 8 5 7 6 6 7 10 8 2 9 1 11
REMARK H PARENT 6 10 1 12
REMARK Flexibility Score: inf
ROOT
ATOM      1  C   UNL     1      40.732  41.526  52.244  1.00  0.00     0.048 A 
ATOM      2  C   UNL     1      41.903  41.177  51.547  1.00  0.00     0.030 A 
ATOM      3  C   UNL     1      43.126  41.399  52.178  1.00  0.00     0.046 A 
ATOM      4  C   UNL     1      43.200  41.938  53.434  1.00  0.00     0.003 A 
ATOM      5  C   UNL     1      44.535  42.026  53.767  1.00  0.00     0.028 A 
ATOM      6  C   UNL     1      45.218  41.523  52.664  1.00  0.00     0.083 A 
ATOM      7  N   UNL     1      44.353  41.141  51.696  1.00  0.00    -0.361 N 
ATOM      8  C   UNL     1      42.060  42.294  54.152  1.00  0.00     0.056 A 
ATOM      9  C   UNL     1      40.807  42.084  53.544  1.00  0.00     0.116 A 
ATOM     10  H   UNL     1      44.594  40.730  50.766  1.00  0.00     0.166 HD
ENDROOT
BRANCH   9  11
ATOM     11  O   UNL     1      39.647  42.429  54.233  1.00  0.00    -0.508 OA
ATOM     12  H   UNL     1      39.184  43.316  54.077  1.00  0.00     0.293 HD
ENDBRANCH   9  11
TORSDOF 1
ENDMDL
MODEL 5
REMARK VINA RESULT:    -4.592      1.077      1.960
REMARK INTER + INTRA:          -4.726
REMARK INTER:                  -4.726
REMARK INTRA:                   0.000
REMARK UNBOUND:                 0.000
REMARK SMILES Oc1ccc2[nH]ccc2c1
REMARK SMILES IDX 3 1 4 2 5 3 9 4 8 5 7 6 6 7 10 8 2 9 1 11
REMARK H PARENT 6 10 1 12
REMARK Flexibility Score: inf
ROOT
ATOM      1  C   UNL     1      44.193  40.108  53.574  1.00  0.00     0.048 A 
ATOM      2  C   UNL     1      43.168  40.234  52.618  1.00  0.00     0.030 A 
ATOM      3  C   UNL     1      42.182  41.191  52.845  1.00  0.00     0.046 A 
ATOM      4  C   UNL     1      42.197  41.990  53.957  1.00  0.00     0.003 A 
ATOM      5  C   UNL     1      41.098  42.819  53.883  1.00  0.00     0.028 A 
ATOM      6  C   UNL     1      40.457  42.468  52.699  1.00  0.00     0.083 A 
ATOM      7  N   UNL     1      41.123  41.474  52.069  1.00  0.00    -0.361 N 
ATOM      8  C   UNL     1      43.196  41.893  54.922  1.00  0.00     0.056 A 
ATOM      9  C   UNL     1      44.210  40.935  54.724  1.00  0.00     0.116 A 
ATOM     10  H   UNL     1      40.863  41.020  51.164  1.00  0.00     0.166 HD
ENDROOT
BRANCH   9  11
ATOM     11  O   UNL     1      45.225  40.809  55.670  1.00  0.00    -0.508 OA
ATOM     12  H   UNL     1      46.165  40.541  55.404  1.00  0.00     0.293 HD
ENDBRANCH   9  11
TORSDOF 1
ENDMDL
MODEL 6
REMARK VINA RESULT:    -4.559     10.967     11.996
REMARK INTER + INTRA:          -4.692
REMARK INTER:                  -4.692
REMARK INTRA:                   0.000
REMARK UNBOUND:                 0.000
REMARK SMILES Oc1ccc2[nH]ccc2c1
REMARK SMILES IDX 3 1 4 2 5 3 9 4 8 5 7 6 6 7 10 8 2 9 1 11
REMARK H PARENT 6 10 1 12
REMARK Flexibility Score: inf
ROOT
ATOM      1  C   UNL     1      33.783  40.583  45.754  1.00  0.00     0.048 A 
ATOM      2  C   UNL     1      35.116  40.142  45.667  1.00  0.00     0.030 A 
ATOM      3  C   UNL     1      36.095  41.086  45.362  1.00  0.00     0.046 A 
ATOM      4  C   UNL     1      35.784  42.403  45.152  1.00  0.00     0.003 A 
ATOM      5  C   UNL     1      36.961  43.065  44.876  1.00  0.00     0.028 A 
ATOM      6  C   UNL     1      37.950  42.088  44.934  1.00  0.00     0.083 A 
ATOM      7  N   UNL     1      37.416  40.881  45.231  1.00  0.00    -0.361 N 
ATOM      8  C   UNL     1      34.476  42.873  45.231  1.00  0.00     0.056 A 
ATOM      9  C   UNL     1      33.460  41.946  45.537  1.00  0.00     0.116 A 
ATOM     10  H   UNL     1      37.929  39.977  45.336  1.00  0.00     0.166 HD
ENDROOT
BRANCH   9  11
ATOM     11  O   UNL     1      32.140  42.382  45.624  1.00  0.00    -0.508 OA
ATOM     12  H   UNL     1      31.778  42.805  46.469  1.00  0.00     0.293 HD
ENDBRANCH   9  11
TORSDOF 1
ENDMDL
MODEL 7
REMARK VINA RESULT:    -4.522     10.798     11.572
REMARK INTER + INTRA:          -4.654
REMARK INTER:                  -4.654
REMARK INTRA:                   0.000
REMARK UNBOUND:                 0.000
REMARK SMILES Oc1ccc2[nH]ccc2c1
REMARK SMILES IDX 3 1 4 2 5 3 9 4 8 5 7 6 6 7 10 8 2 9 1 11
REMARK H PARENT 6 10 1 12
REMARK Flexibility Score: inf
ROOT
ATOM      1  C   UNL     1      36.434  42.682  44.875  1.00  0.00     0.048 A 
ATOM      2  C   UNL     1      35.090  43.094  44.939  1.00  0.00     0.030 A 
ATOM      3  C   UNL     1      34.157  42.190  45.443  1.00  0.00     0.046 A 
ATOM      4  C   UNL     1      34.521  40.940  45.866  1.00  0.00     0.003 A 
ATOM      5  C   UNL     1      33.378  40.304  46.302  1.00  0.00     0.028 A 
ATOM      6  C   UNL     1      32.354  41.227  46.113  1.00  0.00     0.083 A 
ATOM      7  N   UNL     1      32.834  42.377  45.589  1.00  0.00    -0.361 N 
ATOM      8  C   UNL     1      35.842  40.502  45.818  1.00  0.00     0.056 A 
ATOM      9  C   UNL     1      36.812  41.389  45.313  1.00  0.00     0.116 A 
ATOM     10  H   UNL     1      32.286  43.233  45.347  1.00  0.00     0.166 HD
ENDROOT
BRANCH   9  11
ATOM     11  O   UNL     1      38.143  40.983  45.250  1.00  0.00    -0.508 OA
ATOM     12  H   UNL     1      38.458  40.310  44.562  1.00  0.00     0.293 HD
ENDBRANCH   9  11
TORSDOF 1
ENDMDL
MODEL 8
REMARK VINA RESULT:    -4.515      2.281      3.488
REMARK INTER + INTRA:          -4.647
REMARK INTER:                  -4.647
REMARK INTRA:                   0.000
REMARK UNBOUND:                 0.000
REMARK SMILES Oc1ccc2[nH]ccc2c1
REMARK SMILES IDX 3 1 4 2 5 3 9 4 8 5 7 6 6 7 10 8 2 9 1 11
REMARK H PARENT 6 10 1 12
REMARK Flexibility Score: inf
ROOT
ATOM      1  C   UNL     1      41.177  42.745  52.159  1.00  0.00     0.048 A 
ATOM      2  C   UNL     1      41.497  43.125  53.475  1.00  0.00     0.030 A 
ATOM      3  C   UNL     1      42.432  42.356  54.164  1.00  0.00     0.046 A 
ATOM      4  C   UNL     1      43.029  41.265  53.592  1.00  0.00     0.003 A 
ATOM      5  C   UNL     1      43.893  40.731  54.524  1.00  0.00     0.028 A 
ATOM      6  C   UNL     1      43.770  41.550  55.643  1.00  0.00     0.083 A 
ATOM      7  N   UNL     1      42.877  42.540  55.418  1.00  0.00    -0.361 N 
ATOM      8  C   UNL     1      42.736  40.862  52.291  1.00  0.00     0.056 A 
ATOM      9  C   UNL     1      41.794  41.616  51.565  1.00  0.00     0.116 A 
ATOM     10  H   UNL     1      42.594  43.292  56.086  1.00  0.00     0.166 HD
ENDROOT
BRANCH   9  11
ATOM     11  O   UNL     1      41.476  41.241  50.262  1.00  0.00    -0.508 OA
ATOM     12  H   UNL     1      40.893  40.435  50.071  1.00  0.00     0.293 HD
ENDBRANCH   9  11
TORSDOF 1
ENDMDL
MODEL 9
REMARK VINA RESULT:    -4.317     10.929     12.117
REMARK INTER + INTRA:          -4.443
REMARK INTER:                  -4.443
REMARK INTRA:                   0.000
REMARK UNBOUND:                 0.000
REMARK SMILES Oc1ccc2[nH]ccc2c1
REMARK SMILES IDX 3 1 4 2 5 3 9 4 8 5 7 6 6 7 10 8 2 9 1 11
REMARK H PARENT 6 10 1 12
REMARK Flexibility Score: inf
ROOT
ATOM      1  C   UNL     1      33.141  42.612  45.235  1.00  0.00     0.048 A 
ATOM      2  C   UNL     1      34.410  43.125  44.908  1.00  0.00     0.030 A 
ATOM      3  C   UNL     1      35.517  42.304  45.117  1.00  0.00     0.046 A 
ATOM      4  C   UNL     1      35.389  41.038  45.621  1.00  0.00     0.003 A 
ATOM      5  C   UNL     1      36.654  40.498  45.704  1.00  0.00     0.028 A 
ATOM      6  C   UNL     1      37.505  41.493  45.233  1.00  0.00     0.083 A 
ATOM      7  N   UNL     1      36.806  42.594  44.875  1.00  0.00    -0.361 N 
ATOM      8  C   UNL     1      34.148  40.499  45.955  1.00  0.00     0.056 A 
ATOM      9  C   UNL     1      33.008  41.302  45.757  1.00  0.00     0.116 A 
ATOM     10  H   UNL     1      37.193  43.485  44.491  1.00  0.00     0.166 HD
ENDROOT
BRANCH   9  11
ATOM     11  O   UNL     1      31.751  40.795  46.081  1.00  0.00    -0.508 OA
ATOM     12  H   UNL     1      31.048  40.633  45.370  1.00  0.00     0.293 HD
ENDBRANCH   9  11
TORSDOF 1
ENDMDL
