MODEL 1
REMARK VINA RESULT:    -1.493      0.000      0.000
REMARK INTER + INTRA:          -1.624
REMARK INTER:                  -1.624
REMARK INTRA:                   0.000
REMARK UNBOUND:                 0.000
REMARK SMILES Cc1cc(O)c2c(c1)C(=O)c1cc(O)cc(O)c1C2=O
REMARK SMILES IDX 1 1 2 2 8 3 7 4 6 5 4 6 3 7 19 8 20 9 18 10 11 11 9 12 10 13
REMARK SMILES IDX 12 14 13 15 15 16 16 17 5 18 17 20 14 22
REMARK H PARENT 5 19 17 21 14 23
REMARK Flexibility Score: inf
ROOT
ATOM      1  C   UNL     1      29.106  31.918  25.553  1.00  0.00     0.044 C 
ATOM      2  C   UNL     1      28.586  30.513  25.645  1.00  0.00    -0.047 A 
ATOM      3  C   UNL     1      28.748  29.776  26.823  1.00  0.00     0.016 A 
ATOM      4  C   UNL     1      28.241  28.471  26.928  1.00  0.00     0.038 A 
ATOM      5  C   UNL     1      27.559  27.892  25.834  1.00  0.00     0.076 A 
ATOM      6  C   UNL     1      27.325  28.672  24.674  1.00  0.00     0.127 A 
ATOM      7  C   UNL     1      27.857  29.962  24.585  1.00  0.00     0.050 A 
ATOM      8  C   UNL     1      27.169  26.461  25.928  1.00  0.00     0.201 C 
ATOM      9  O   UNL     1      27.105  25.760  24.883  1.00  0.00    -0.288 OA
ATOM     10  C   UNL     1      27.038  25.817  27.260  1.00  0.00     0.076 A 
ATOM     11  C   UNL     1      27.718  26.401  28.353  1.00  0.00     0.041 A 
ATOM     12  C   UNL     1      28.410  27.702  28.183  1.00  0.00     0.194 C 
ATOM     13  O   UNL     1      29.123  28.164  29.117  1.00  0.00    -0.289 OA
ATOM     14  C   UNL     1      27.732  25.748  29.597  1.00  0.00     0.059 A 
ATOM     15  C   UNL     1      27.065  24.533  29.768  1.00  0.00     0.120 A 
ATOM     16  C   UNL     1      26.359  23.974  28.702  1.00  0.00     0.093 A 
ATOM     17  C   UNL     1      26.313  24.614  27.460  1.00  0.00     0.131 A 
ENDROOT
BRANCH   6  18
ATOM     18  O   UNL     1      26.543  28.223  23.607  1.00  0.00    -0.507 OA
ATOM     19  H   UNL     1      25.598  27.879  23.712  1.00  0.00     0.293 HD
ENDBRANCH   6  18
BRANCH  17  20
ATOM     20  O   UNL     1      25.511  24.042  26.469  1.00  0.00    -0.507 OA
ATOM     21  H   UNL     1      24.504  23.992  26.526  1.00  0.00     0.293 HD
ENDBRANCH  17  20
BRANCH  15  22
ATOM     22  O   UNL     1      27.088  23.875  30.996  1.00  0.00    -0.508 OA
ATOM     23  H   UNL     1      26.731  24.314  31.838  1.00  0.00     0.293 HD
ENDBRANCH  15  22
TORSDOF 3
ENDMDL
MODEL 2
REMARK VINA RESULT:    -0.081      3.874      6.086
REMARK INTER + INTRA:          -0.088
REMARK INTER:                  -0.088
REMARK INTRA:                   0.000
REMARK UNBOUND:                 0.000
REMARK SMILES Cc1cc(O)c2c(c1)C(=O)c1cc(O)cc(O)c1C2=O
REMARK SMILES IDX 1 1 2 2 8 3 7 4 6 5 4 6 3 7 19 8 20 9 18 10 11 11 9 12 10 13
REMARK SMILES IDX 12 14 13 15 15 16 16 17 5 18 17 20 14 22
REMARK H PARENT 5 19 17 21 14 23
REMARK Flexibility Score: inf
ROOT
ATOM      1  C   UNL     1      29.122  24.691  29.016  1.00  0.00     0.044 C 
ATOM      2  C   UNL     1      27.773  25.345  28.956  1.00  0.00    -0.047 A 
ATOM      3  C   UNL     1      26.765  24.810  28.146  1.00  0.00     0.016 A 
ATOM      4  C   UNL     1      25.491  25.399  28.105  1.00  0.00     0.038 A 
ATOM      5  C   UNL     1      25.219  26.544  28.887  1.00  0.00     0.076 A 
ATOM      6  C   UNL     1      26.218  27.032  29.769  1.00  0.00     0.127 A 
ATOM      7  C   UNL     1      27.485  26.441  29.777  1.00  0.00     0.050 A 
ATOM      8  C   UNL     1      23.912  27.226  28.705  1.00  0.00     0.201 C 
ATOM      9  O   UNL     1      23.822  28.469  28.890  1.00  0.00    -0.288 OA
ATOM     10  C   UNL     1      22.765  26.480  28.128  1.00  0.00     0.076 A 
ATOM     11  C   UNL     1      23.039  25.332  27.348  1.00  0.00     0.041 A 
ATOM     12  C   UNL     1      24.427  24.820  27.250  1.00  0.00     0.194 C 
ATOM     13  O   UNL     1      24.697  23.876  26.458  1.00  0.00    -0.289 OA
ATOM     14  C   UNL     1      21.994  24.680  26.673  1.00  0.00     0.059 A 
ATOM     15  C   UNL     1      20.681  25.147  26.778  1.00  0.00     0.120 A 
ATOM     16  C   UNL     1      20.401  26.254  27.578  1.00  0.00     0.093 A 
ATOM     17  C   UNL     1      21.420  26.908  28.277  1.00  0.00     0.131 A 
ENDROOT
BRANCH   6  18
ATOM     18  O   UNL     1      25.985  28.070  30.673  1.00  0.00    -0.507 OA
ATOM     19  H   UNL     1      26.571  28.254  31.476  1.00  0.00     0.293 HD
ENDBRANCH   6  18
BRANCH  17  20
ATOM     20  O   UNL     1      21.050  27.951  29.130  1.00  0.00    -0.507 OA
ATOM     21  H   UNL     1      21.713  28.561  29.586  1.00  0.00     0.293 HD
ENDBRANCH  17  20
BRANCH  15  22
ATOM     22  O   UNL     1      19.643  24.511  26.099  1.00  0.00    -0.508 OA
ATOM     23  H   UNL     1      19.066  23.811  26.551  1.00  0.00     0.293 HD
ENDBRANCH  15  22
TORSDOF 3
ENDMDL
MODEL 3
REMARK VINA RESULT:     0.052      2.848      4.687
REMARK INTER + INTRA:           0.057
REMARK INTER:                   0.057
REMARK INTRA:                   0.000
REMARK UNBOUND:                 0.000
REMARK SMILES Cc1cc(O)c2c(c1)C(=O)c1cc(O)cc(O)c1C2=O
REMARK SMILES IDX 1 1 2 2 8 3 7 4 6 5 4 6 3 7 19 8 20 9 18 10 11 11 9 12 10 13
REMARK SMILES IDX 12 14 13 15 15 16 16 17 5 18 17 20 14 22
REMARK H PARENT 5 19 17 21 14 23
REMARK Flexibility Score: inf
ROOT
ATOM      1  C   UNL     1      29.121  23.876  24.329  1.00  0.00     0.044 C 
ATOM      2  C   UNL     1      28.110  24.468  25.266  1.00  0.00    -0.047 A 
ATOM      3  C   UNL     1      28.450  25.561  26.071  1.00  0.00     0.016 A 
ATOM      4  C   UNL     1      27.502  26.139  26.931  1.00  0.00     0.038 A 
ATOM      5  C   UNL     1      26.191  25.616  26.987  1.00  0.00     0.076 A 
ATOM      6  C   UNL     1      25.829  24.563  26.108  1.00  0.00     0.127 A 
ATOM      7  C   UNL     1      26.795  23.990  25.276  1.00  0.00     0.050 A 
ATOM      8  C   UNL     1      25.261  26.155  28.013  1.00  0.00     0.201 C 
ATOM      9  O   UNL     1      24.363  25.416  28.495  1.00  0.00    -0.288 OA
ATOM     10  C   UNL     1      25.509  27.497  28.600  1.00  0.00     0.076 A 
ATOM     11  C   UNL     1      26.821  28.020  28.540  1.00  0.00     0.041 A 
ATOM     12  C   UNL     1      27.868  27.302  27.774  1.00  0.00     0.194 C 
ATOM     13  O   UNL     1      29.067  27.695  27.822  1.00  0.00    -0.289 OA
ATOM     14  C   UNL     1      27.126  29.221  29.203  1.00  0.00     0.059 A 
ATOM     15  C   UNL     1      26.139  29.912  29.909  1.00  0.00     0.120 A 
ATOM     16  C   UNL     1      24.834  29.420  29.937  1.00  0.00     0.093 A 
ATOM     17  C   UNL     1      24.500  28.238  29.268  1.00  0.00     0.131 A 
ENDROOT
BRANCH   6  18
ATOM     18  O   UNL     1      24.521  24.083  26.003  1.00  0.00    -0.507 OA
ATOM     19  H   UNL     1      24.291  23.102  25.924  1.00  0.00     0.293 HD
ENDBRANCH   6  18
BRANCH  17  20
ATOM     20  O   UNL     1      23.156  27.858  29.264  1.00  0.00    -0.507 OA
ATOM     21  H   UNL     1      22.410  28.445  28.920  1.00  0.00     0.293 HD
ENDBRANCH  17  20
BRANCH  15  22
ATOM     22  O   UNL     1      26.440  31.096  30.578  1.00  0.00    -0.508 OA
ATOM     23  H   UNL     1      26.115  31.994  30.238  1.00  0.00     0.293 HD
ENDBRANCH  15  22
TORSDOF 3
ENDMDL
MODEL 4
REMARK VINA RESULT:     0.170      3.336      5.466
REMARK INTER + INTRA:           0.185
REMARK INTER:                   0.185
REMARK INTRA:                   0.000
REMARK UNBOUND:                 0.000
REMARK SMILES Cc1cc(O)c2c(c1)C(=O)c1cc(O)cc(O)c1C2=O
REMARK SMILES IDX 1 1 2 2 8 3 7 4 6 5 4 6 3 7 19 8 20 9 18 10 11 11 9 12 10 13
REMARK SMILES IDX 12 14 13 15 15 16 16 17 5 18 17 20 14 22
REMARK H PARENT 5 19 17 21 14 23
REMARK Flexibility Score: inf
ROOT
ATOM      1  C   UNL     1      20.486  27.249  29.065  1.00  0.00     0.044 C 
ATOM      2  C   UNL     1      21.971  27.404  28.911  1.00  0.00    -0.047 A 
ATOM      3  C   UNL     1      22.736  26.362  28.377  1.00  0.00     0.016 A 
ATOM      4  C   UNL     1      24.122  26.508  28.204  1.00  0.00     0.038 A 
ATOM      5  C   UNL     1      24.754  27.717  28.571  1.00  0.00     0.076 A 
ATOM      6  C   UNL     1      23.961  28.798  29.033  1.00  0.00     0.127 A 
ATOM      7  C   UNL     1      22.586  28.623  29.217  1.00  0.00     0.050 A 
ATOM      8  C   UNL     1      26.237  27.781  28.514  1.00  0.00     0.201 C 
ATOM      9  O   UNL     1      26.863  28.528  29.312  1.00  0.00    -0.288 OA
ATOM     10  C   UNL     1      26.984  26.831  27.650  1.00  0.00     0.076 A 
ATOM     11  C   UNL     1      26.348  25.624  27.280  1.00  0.00     0.041 A 
ATOM     12  C   UNL     1      24.925  25.401  27.630  1.00  0.00     0.194 C 
ATOM     13  O   UNL     1      24.390  24.278  27.415  1.00  0.00    -0.289 OA
ATOM     14  C   UNL     1      27.068  24.641  26.580  1.00  0.00     0.059 A 
ATOM     15  C   UNL     1      28.404  24.853  26.231  1.00  0.00     0.120 A 
ATOM     16  C   UNL     1      29.022  26.060  26.558  1.00  0.00     0.093 A 
ATOM     17  C   UNL     1      28.322  27.062  27.236  1.00  0.00     0.131 A 
ENDROOT
BRANCH   6  18
ATOM     18  O   UNL     1      24.488  30.067  29.286  1.00  0.00    -0.507 OA
ATOM     19  H   UNL     1      24.142  30.682  30.009  1.00  0.00     0.293 HD
ENDBRANCH   6  18
BRANCH  17  20
ATOM     20  O   UNL     1      28.978  28.278  27.448  1.00  0.00    -0.507 OA
ATOM     21  H   UNL     1      28.992  28.757  28.336  1.00  0.00     0.293 HD
ENDBRANCH  17  20
BRANCH  15  22
ATOM     22  O   UNL     1      29.125  23.876  25.549  1.00  0.00    -0.508 OA
ATOM     23  H   UNL     1      29.059  23.775  24.542  1.00  0.00     0.293 HD
ENDBRANCH  15  22
TORSDOF 3
ENDMDL
MODEL 5
REMARK VINA RESULT:     0.297      3.507      4.386
REMARK INTER + INTRA:           0.323
REMARK INTER:                   0.323
REMARK INTRA:                   0.000
REMARK UNBOUND:                 0.000
REMARK SMILES Cc1cc(O)c2c(c1)C(=O)c1cc(O)cc(O)c1C2=O
REMARK SMILES IDX 1 1 2 2 8 3 7 4 6 5 4 6 3 7 19 8 20 9 18 10 11 11 9 12 10 13
REMARK SMILES IDX 12 14 13 15 15 16 16 17 5 18 17 20 14 22
REMARK H PARENT 5 19 17 21 14 23
REMARK Flexibility Score: inf
ROOT
ATOM      1  C   UNL     1      29.125  30.134  28.441  1.00  0.00     0.044 C 
ATOM      2  C   UNL     1      28.144  29.004  28.320  1.00  0.00    -0.047 A 
ATOM      3  C   UNL     1      26.792  29.210  28.612  1.00  0.00     0.016 A 
ATOM      4  C   UNL     1      25.862  28.166  28.475  1.00  0.00     0.038 A 
ATOM      5  C   UNL     1      26.293  26.893  28.039  1.00  0.00     0.076 A 
ATOM      6  C   UNL     1      27.650  26.713  27.665  1.00  0.00     0.127 A 
ATOM      7  C   UNL     1      28.560  27.762  27.830  1.00  0.00     0.050 A 
ATOM      8  C   UNL     1      25.313  25.777  28.049  1.00  0.00     0.201 C 
ATOM      9  O   UNL     1      25.709  24.596  28.237  1.00  0.00    -0.288 OA
ATOM     10  C   UNL     1      23.857  26.074  28.026  1.00  0.00     0.076 A 
ATOM     11  C   UNL     1      23.429  27.349  28.459  1.00  0.00     0.041 A 
ATOM     12  C   UNL     1      24.430  28.396  28.778  1.00  0.00     0.194 C 
ATOM     13  O   UNL     1      24.058  29.491  29.284  1.00  0.00    -0.289 OA
ATOM     14  C   UNL     1      22.056  27.621  28.581  1.00  0.00     0.059 A 
ATOM     15  C   UNL     1      21.108  26.645  28.263  1.00  0.00     0.120 A 
ATOM     16  C   UNL     1      21.526  25.399  27.796  1.00  0.00     0.093 A 
ATOM     17  C   UNL     1      22.886  25.111  27.646  1.00  0.00     0.131 A 
ENDROOT
BRANCH   6  18
ATOM     18  O   UNL     1      28.126  25.530  27.096  1.00  0.00    -0.507 OA
ATOM     19  H   UNL     1      27.887  25.223  26.163  1.00  0.00     0.293 HD
ENDBRANCH   6  18
BRANCH  17  20
ATOM     20  O   UNL     1      23.225  23.876  27.087  1.00  0.00    -0.507 OA
ATOM     21  H   UNL     1      23.283  23.710  26.093  1.00  0.00     0.293 HD
ENDBRANCH  17  20
BRANCH  15  22
ATOM     22  O   UNL     1      19.746  26.906  28.396  1.00  0.00    -0.508 OA
ATOM     23  H   UNL     1      19.056  26.418  27.836  1.00  0.00     0.293 HD
ENDBRANCH  15  22
TORSDOF 3
ENDMDL
MODEL 6
REMARK VINA RESULT:     0.382      2.924      4.485
REMARK INTER + INTRA:           0.415
REMARK INTER:                   0.415
REMARK INTRA:                   0.000
REMARK UNBOUND:                 0.000
REMARK SMILES Cc1cc(O)c2c(c1)C(=O)c1cc(O)cc(O)c1C2=O
REMARK SMILES IDX 1 1 2 2 8 3 7 4 6 5 4 6 3 7 19 8 20 9 18 10 11 11 9 12 10 13
REMARK SMILES IDX 12 14 13 15 15 16 16 17 5 18 17 20 14 22
REMARK H PARENT 5 19 17 21 14 23
REMARK Flexibility Score: inf
ROOT
ATOM      1  C   UNL     1      29.125  23.877  25.520  1.00  0.00     0.044 C 
ATOM      2  C   UNL     1      28.347  24.987  26.163  1.00  0.00    -0.047 A 
ATOM      3  C   UNL     1      27.940  24.882  27.498  1.00  0.00     0.016 A 
ATOM      4  C   UNL     1      27.236  25.927  28.116  1.00  0.00     0.038 A 
ATOM      5  C   UNL     1      26.933  27.100  27.388  1.00  0.00     0.076 A 
ATOM      6  C   UNL     1      27.421  27.235  26.063  1.00  0.00     0.127 A 
ATOM      7  C   UNL     1      28.102  26.172  25.461  1.00  0.00     0.050 A 
ATOM      8  C   UNL     1      26.061  28.119  28.027  1.00  0.00     0.201 C 
ATOM      9  O   UNL     1      25.315  28.841  27.313  1.00  0.00    -0.288 OA
ATOM     10  C   UNL     1      25.930  28.156  29.506  1.00  0.00     0.076 A 
ATOM     11  C   UNL     1      26.237  26.983  30.233  1.00  0.00     0.041 A 
ATOM     12  C   UNL     1      26.815  25.810  29.533  1.00  0.00     0.194 C 
ATOM     13  O   UNL     1      26.972  24.721  30.151  1.00  0.00    -0.289 OA
ATOM     14  C   UNL     1      25.996  26.934  31.616  1.00  0.00     0.059 A 
ATOM     15  C   UNL     1      25.469  28.043  32.283  1.00  0.00     0.120 A 
ATOM     16  C   UNL     1      25.203  29.216  31.577  1.00  0.00     0.093 A 
ATOM     17  C   UNL     1      25.454  29.296  30.203  1.00  0.00     0.131 A 
ENDROOT
BRANCH   6  18
ATOM     18  O   UNL     1      27.285  28.414  25.325  1.00  0.00    -0.507 OA
ATOM     19  H   UNL     1      27.938  29.183  25.376  1.00  0.00     0.293 HD
ENDBRANCH   6  18
BRANCH  17  20
ATOM     20  O   UNL     1      25.250  30.531  29.582  1.00  0.00    -0.507 OA
ATOM     21  H   UNL     1      24.369  31.024  29.596  1.00  0.00     0.293 HD
ENDBRANCH  17  20
BRANCH  15  22
ATOM     22  O   UNL     1      25.216  27.995  33.653  1.00  0.00    -0.508 OA
ATOM     23  H   UNL     1      25.960  27.841  34.324  1.00  0.00     0.293 HD
ENDBRANCH  15  22
TORSDOF 3
ENDMDL
MODEL 7
REMARK VINA RESULT:     0.646     10.772     14.203
REMARK INTER + INTRA:           0.703
REMARK INTER:                   0.703
REMARK INTRA:                   0.000
REMARK UNBOUND:                 0.000
REMARK SMILES Cc1cc(O)c2c(c1)C(=O)c1cc(O)cc(O)c1C2=O
REMARK SMILES IDX 1 1 2 2 8 3 7 4 6 5 4 6 3 7 19 8 20 9 18 10 11 11 9 12 10 13
REMARK SMILES IDX 12 14 13 15 15 16 16 17 5 18 17 20 14 22
REMARK H PARENT 5 19 17 21 14 23
REMARK Flexibility Score: inf
ROOT
ATOM      1  C   UNL     1      27.872  44.125  18.461  1.00  0.00     0.044 C 
ATOM      2  C   UNL     1      27.395  42.831  19.053  1.00  0.00    -0.047 A 
ATOM      3  C   UNL     1      28.013  41.626  18.703  1.00  0.00     0.016 A 
ATOM      4  C   UNL     1      27.593  40.413  19.273  1.00  0.00     0.038 A 
ATOM      5  C   UNL     1      26.535  40.405  20.210  1.00  0.00     0.076 A 
ATOM      6  C   UNL     1      25.969  41.639  20.623  1.00  0.00     0.127 A 
ATOM      7  C   UNL     1      26.390  42.831  20.027  1.00  0.00     0.050 A 
ATOM      8  C   UNL     1      26.020  39.093  20.678  1.00  0.00     0.201 C 
ATOM      9  O   UNL     1      24.811  38.977  21.011  1.00  0.00    -0.288 OA
ATOM     10  C   UNL     1      26.877  37.884  20.574  1.00  0.00     0.076 A 
ATOM     11  C   UNL     1      27.937  37.895  19.639  1.00  0.00     0.041 A 
ATOM     12  C   UNL     1      28.259  39.142  18.903  1.00  0.00     0.194 C 
ATOM     13  O   UNL     1      29.118  39.124  17.978  1.00  0.00    -0.289 OA
ATOM     14  C   UNL     1      28.683  36.726  19.413  1.00  0.00     0.059 A 
ATOM     15  C   UNL     1      28.396  35.555  20.118  1.00  0.00     0.120 A 
ATOM     16  C   UNL     1      27.378  35.551  21.072  1.00  0.00     0.093 A 
ATOM     17  C   UNL     1      26.635  36.707  21.329  1.00  0.00     0.131 A 
ENDROOT
BRANCH   6  18
ATOM     18  O   UNL     1      25.018  41.729  21.643  1.00  0.00    -0.507 OA
ATOM     19  H   UNL     1      25.159  41.358  22.573  1.00  0.00     0.293 HD
ENDBRANCH   6  18
BRANCH  17  20
ATOM     20  O   UNL     1      25.694  36.652  22.361  1.00  0.00    -0.507 OA
ATOM     21  H   UNL     1      24.706  36.807  22.225  1.00  0.00     0.293 HD
ENDBRANCH  17  20
BRANCH  15  22
ATOM     22  O   UNL     1      29.125  34.390  19.888  1.00  0.00    -0.508 OA
ATOM     23  H   UNL     1      29.905  34.373  19.242  1.00  0.00     0.293 HD
ENDBRANCH  15  22
TORSDOF 3
ENDMDL
