MODEL 1
REMARK VINA RESULT:    -4.877      0.000      0.000
REMARK INTER + INTRA:          -5.305
REMARK INTER:                  -5.305
REMARK INTRA:                   0.000
REMARK UNBOUND:                 0.000
REMARK SMILES Oc1cccc(O)c1O
REMARK SMILES IDX 4 1 5 2 6 3 8 4 2 5 3 6 7 7 1 9 9 11
REMARK H PARENT 7 8 1 10 9 12
REMARK Flexibility Score: inf
ROOT
ATOM      1  C   UNL     1     -33.248  11.576 -34.814  1.00  0.00     0.008 A 
ATOM      2  C   UNL     1     -34.008  12.067 -33.750  1.00  0.00     0.050 A 
ATOM      3  C   UNL     1     -33.888  11.495 -32.475  1.00  0.00     0.161 A 
ATOM      4  C   UNL     1     -32.998  10.425 -32.269  1.00  0.00     0.200 A 
ATOM      5  C   UNL     1     -32.235   9.935 -33.345  1.00  0.00     0.161 A 
ATOM      6  C   UNL     1     -32.365  10.514 -34.613  1.00  0.00     0.050 A 
ENDROOT
BRANCH   3   7
ATOM      7  O   UNL     1     -34.648  11.988 -31.414  1.00  0.00    -0.504 OA
ATOM      8  H   UNL     1     -35.546  12.432 -31.566  1.00  0.00     0.293 HD
ENDBRANCH   3   7
BRANCH   5   9
ATOM      9  O   UNL     1     -31.344   8.875 -33.174  1.00  0.00    -0.504 OA
ATOM     10  H   UNL     1     -31.464   8.183 -32.444  1.00  0.00     0.293 HD
ENDBRANCH   5   9
BRANCH   4  11
ATOM     11  O   UNL     1     -32.864   9.843 -31.007  1.00  0.00    -0.502 OA
ATOM     12  H   UNL     1     -33.026  10.364 -30.153  1.00  0.00     0.293 HD
ENDBRANCH   4  11
TORSDOF 3
ENDMDL
MODEL 2
REMARK VINA RESULT:    -4.776      0.076      2.808
REMARK INTER + INTRA:          -5.194
REMARK INTER:                  -5.194
REMARK INTRA:                   0.000
REMARK UNBOUND:                 0.000
REMARK SMILES Oc1cccc(O)c1O
REMARK SMILES IDX 4 1 5 2 6 3 8 4 2 5 3 6 7 7 1 9 9 11
REMARK H PARENT 7 8 1 10 9 12
REMARK Flexibility Score: inf
ROOT
ATOM      1  C   UNL     1     -33.205  11.570 -34.785  1.00  0.00     0.008 A 
ATOM      2  C   UNL     1     -32.298  10.525 -34.591  1.00  0.00     0.050 A 
ATOM      3  C   UNL     1     -32.181   9.917 -33.333  1.00  0.00     0.161 A 
ATOM      4  C   UNL     1     -32.981  10.362 -32.264  1.00  0.00     0.200 A 
ATOM      5  C   UNL     1     -33.893  11.414 -32.466  1.00  0.00     0.161 A 
ATOM      6  C   UNL     1     -34.000  12.013 -33.727  1.00  0.00     0.050 A 
ENDROOT
BRANCH   3   7
ATOM      7  O   UNL     1     -31.275   8.875 -33.142  1.00  0.00    -0.504 OA
ATOM      8  H   UNL     1     -31.406   8.183 -32.414  1.00  0.00     0.293 HD
ENDBRANCH   3   7
BRANCH   5   9
ATOM      9  O   UNL     1     -34.701  11.878 -31.428  1.00  0.00    -0.504 OA
ATOM     10  H   UNL     1     -34.983  12.849 -31.358  1.00  0.00     0.293 HD
ENDBRANCH   5   9
BRANCH   4  11
ATOM     11  O   UNL     1     -32.880   9.769 -31.004  1.00  0.00    -0.502 OA
ATOM     12  H   UNL     1     -33.693   9.576 -30.432  1.00  0.00     0.293 HD
ENDBRANCH   4  11
TORSDOF 3
ENDMDL
MODEL 3
REMARK VINA RESULT:    -4.749      1.943      3.389
REMARK INTER + INTRA:          -5.165
REMARK INTER:                  -5.165
REMARK INTRA:                   0.000
REMARK UNBOUND:                 0.000
REMARK SMILES Oc1cccc(O)c1O
REMARK SMILES IDX 4 1 5 2 6 3 8 4 2 5 3 6 7 7 1 9 9 11
REMARK H PARENT 7 8 1 10 9 12
REMARK Flexibility Score: inf
ROOT
ATOM      1  C   UNL     1     -33.688  11.652 -33.817  1.00  0.00     0.008 A 
ATOM      2  C   UNL     1     -32.938  10.740 -33.071  1.00  0.00     0.050 A 
ATOM      3  C   UNL     1     -32.114   9.808 -33.718  1.00  0.00     0.161 A 
ATOM      4  C   UNL     1     -32.042   9.794 -35.123  1.00  0.00     0.200 A 
ATOM      5  C   UNL     1     -32.800  10.716 -35.869  1.00  0.00     0.161 A 
ATOM      6  C   UNL     1     -33.619  11.640 -35.211  1.00  0.00     0.050 A 
ENDROOT
BRANCH   3   7
ATOM      7  O   UNL     1     -31.367   8.899 -32.970  1.00  0.00    -0.504 OA
ATOM      8  H   UNL     1     -30.478   9.154 -32.558  1.00  0.00     0.293 HD
ENDBRANCH   3   7
BRANCH   5   9
ATOM      9  O   UNL     1     -32.751  10.729 -37.264  1.00  0.00    -0.504 OA
ATOM     10  H   UNL     1     -33.052  11.530 -37.806  1.00  0.00     0.293 HD
ENDBRANCH   5   9
BRANCH   4  11
ATOM     11  O   UNL     1     -31.227   8.875 -35.785  1.00  0.00    -0.502 OA
ATOM     12  H   UNL     1     -31.431   7.883 -35.798  1.00  0.00     0.293 HD
ENDBRANCH   4  11
TORSDOF 3
ENDMDL
MODEL 4
REMARK VINA RESULT:    -4.660      1.982      3.283
REMARK INTER + INTRA:          -5.069
REMARK INTER:                  -5.069
REMARK INTRA:                   0.000
REMARK UNBOUND:                 0.000
REMARK SMILES Oc1cccc(O)c1O
REMARK SMILES IDX 4 1 5 2 6 3 8 4 2 5 3 6 7 7 1 9 9 11
REMARK H PARENT 7 8 1 10 9 12
REMARK Flexibility Score: inf
ROOT
ATOM      1  C   UNL     1     -33.644  11.768 -33.888  1.00  0.00     0.008 A 
ATOM      2  C   UNL     1     -33.636  11.728 -35.284  1.00  0.00     0.050 A 
ATOM      3  C   UNL     1     -32.868  10.767 -35.958  1.00  0.00     0.161 A 
ATOM      4  C   UNL     1     -32.106   9.840 -35.223  1.00  0.00     0.200 A 
ATOM      5  C   UNL     1     -32.119   9.885 -33.817  1.00  0.00     0.161 A 
ATOM      6  C   UNL     1     -32.888  10.850 -33.157  1.00  0.00     0.050 A 
ENDROOT
BRANCH   3   7
ATOM      7  O   UNL     1     -32.862  10.729 -37.352  1.00  0.00    -0.504 OA
ATOM      8  H   UNL     1     -32.014  10.544 -37.874  1.00  0.00     0.293 HD
ENDBRANCH   3   7
BRANCH   5   9
ATOM      9  O   UNL     1     -31.374   8.981 -33.059  1.00  0.00    -0.504 OA
ATOM     10  H   UNL     1     -30.758   9.282 -32.313  1.00  0.00     0.293 HD
ENDBRANCH   5   9
BRANCH   4  11
ATOM     11  O   UNL     1     -31.336   8.875 -35.876  1.00  0.00    -0.502 OA
ATOM     12  H   UNL     1     -31.721   8.275 -36.596  1.00  0.00     0.293 HD
ENDBRANCH   4  11
TORSDOF 3
ENDMDL
MODEL 5
REMARK VINA RESULT:    -4.559      1.446      2.488
REMARK INTER + INTRA:          -4.959
REMARK INTER:                  -4.959
REMARK INTRA:                   0.000
REMARK UNBOUND:                 0.000
REMARK SMILES Oc1cccc(O)c1O
REMARK SMILES IDX 4 1 5 2 6 3 8 4 2 5 3 6 7 7 1 9 9 11
REMARK H PARENT 7 8 1 10 9 12
REMARK Flexibility Score: inf
ROOT
ATOM      1  C   UNL     1     -31.591   9.485 -34.422  1.00  0.00     0.008 A 
ATOM      2  C   UNL     1     -32.322  10.461 -35.104  1.00  0.00     0.050 A 
ATOM      3  C   UNL     1     -33.229  11.276 -34.410  1.00  0.00     0.161 A 
ATOM      4  C   UNL     1     -33.400  11.110 -33.024  1.00  0.00     0.200 A 
ATOM      5  C   UNL     1     -32.660  10.126 -32.342  1.00  0.00     0.161 A 
ATOM      6  C   UNL     1     -31.760   9.318 -33.046  1.00  0.00     0.050 A 
ENDROOT
BRANCH   3   7
ATOM      7  O   UNL     1     -33.957  12.249 -35.094  1.00  0.00    -0.504 OA
ATOM      8  H   UNL     1     -34.040  13.195 -34.743  1.00  0.00     0.293 HD
ENDBRANCH   3   7
BRANCH   5   9
ATOM      9  O   UNL     1     -32.807   9.936 -30.968  1.00  0.00    -0.504 OA
ATOM     10  H   UNL     1     -32.931   9.016 -30.562  1.00  0.00     0.293 HD
ENDBRANCH   5   9
BRANCH   4  11
ATOM     11  O   UNL     1     -34.296  11.913 -32.316  1.00  0.00    -0.502 OA
ATOM     12  H   UNL     1     -34.133  12.902 -32.167  1.00  0.00     0.293 HD
ENDBRANCH   4  11
TORSDOF 3
ENDMDL
MODEL 6
REMARK VINA RESULT:    -4.558      1.464      2.727
REMARK INTER + INTRA:          -4.957
REMARK INTER:                  -4.957
REMARK INTRA:                   0.000
REMARK UNBOUND:                 0.000
REMARK SMILES Oc1cccc(O)c1O
REMARK SMILES IDX 4 1 5 2 6 3 8 4 2 5 3 6 7 7 1 9 9 11
REMARK H PARENT 7 8 1 10 9 12
REMARK Flexibility Score: inf
ROOT
ATOM      1  C   UNL     1     -31.536   9.485 -34.410  1.00  0.00     0.008 A 
ATOM      2  C   UNL     1     -31.713   9.306 -33.036  1.00  0.00     0.050 A 
ATOM      3  C   UNL     1     -32.625  10.106 -32.332  1.00  0.00     0.161 A 
ATOM      4  C   UNL     1     -33.364  11.090 -33.015  1.00  0.00     0.200 A 
ATOM      5  C   UNL     1     -33.182  11.264 -34.398  1.00  0.00     0.161 A 
ATOM      6  C   UNL     1     -32.268  10.460 -35.089  1.00  0.00     0.050 A 
ENDROOT
BRANCH   3   7
ATOM      7  O   UNL     1     -32.798   9.926 -30.960  1.00  0.00    -0.504 OA
ATOM      8  H   UNL     1     -32.678  10.689 -30.305  1.00  0.00     0.293 HD
ENDBRANCH   3   7
BRANCH   5   9
ATOM      9  O   UNL     1     -33.899  12.231 -35.105  1.00  0.00    -0.504 OA
ATOM     10  H   UNL     1     -33.513  12.704 -35.913  1.00  0.00     0.293 HD
ENDBRANCH   5   9
BRANCH   4  11
ATOM     11  O   UNL     1     -34.277  11.895 -32.331  1.00  0.00    -0.502 OA
ATOM     12  H   UNL     1     -35.067  12.328 -32.795  1.00  0.00     0.293 HD
ENDBRANCH   4  11
TORSDOF 3
ENDMDL
MODEL 7
REMARK VINA RESULT:    -4.356      2.150      2.951
REMARK INTER + INTRA:          -4.738
REMARK INTER:                  -4.738
REMARK INTRA:                   0.000
REMARK UNBOUND:                 0.000
REMARK SMILES Oc1cccc(O)c1O
REMARK SMILES IDX 4 1 5 2 6 3 8 4 2 5 3 6 7 7 1 9 9 11
REMARK H PARENT 7 8 1 10 9 12
REMARK Flexibility Score: inf
ROOT
ATOM      1  C   UNL     1     -31.742   9.116 -33.627  1.00  0.00     0.008 A 
ATOM      2  C   UNL     1     -32.487   9.959 -32.800  1.00  0.00     0.050 A 
ATOM      3  C   UNL     1     -33.243  11.003 -33.353  1.00  0.00     0.161 A 
ATOM      4  C   UNL     1     -33.250  11.199 -34.746  1.00  0.00     0.200 A 
ATOM      5  C   UNL     1     -32.498  10.346 -35.575  1.00  0.00     0.161 A 
ATOM      6  C   UNL     1     -31.747   9.309 -35.010  1.00  0.00     0.050 A 
ENDROOT
BRANCH   3   7
ATOM      7  O   UNL     1     -33.986  11.843 -32.524  1.00  0.00    -0.504 OA
ATOM      8  H   UNL     1     -34.450  11.495 -31.694  1.00  0.00     0.293 HD
ENDBRANCH   3   7
BRANCH   5   9
ATOM      9  O   UNL     1     -32.484  10.513 -36.960  1.00  0.00    -0.504 OA
ATOM     10  H   UNL     1     -31.807  11.108 -37.423  1.00  0.00     0.293 HD
ENDBRANCH   5   9
BRANCH   4  11
ATOM     11  O   UNL     1     -33.998  12.231 -35.316  1.00  0.00    -0.502 OA
ATOM     12  H   UNL     1     -35.006  12.277 -35.232  1.00  0.00     0.293 HD
ENDBRANCH   4  11
TORSDOF 3
ENDMDL
MODEL 8
REMARK VINA RESULT:    -4.348      2.173      3.805
REMARK INTER + INTRA:          -4.729
REMARK INTER:                  -4.729
REMARK INTRA:                   0.000
REMARK UNBOUND:                 0.000
REMARK SMILES Oc1cccc(O)c1O
REMARK SMILES IDX 4 1 5 2 6 3 8 4 2 5 3 6 7 7 1 9 9 11
REMARK H PARENT 7 8 1 10 9 12
REMARK Flexibility Score: inf
ROOT
ATOM      1  C   UNL     1     -31.738   9.134 -33.635  1.00  0.00     0.008 A 
ATOM      2  C   UNL     1     -31.739   9.295 -35.022  1.00  0.00     0.050 A 
ATOM      3  C   UNL     1     -32.494  10.319 -35.613  1.00  0.00     0.161 A 
ATOM      4  C   UNL     1     -33.250  11.187 -34.803  1.00  0.00     0.200 A 
ATOM      5  C   UNL     1     -33.244  11.020 -33.406  1.00  0.00     0.161 A 
ATOM      6  C   UNL     1     -32.487   9.993 -32.829  1.00  0.00     0.050 A 
ENDROOT
BRANCH   3   7
ATOM      7  O   UNL     1     -32.494  10.477 -36.998  1.00  0.00    -0.504 OA
ATOM      8  H   UNL     1     -33.134  11.111 -37.461  1.00  0.00     0.293 HD
ENDBRANCH   3   7
BRANCH   5   9
ATOM      9  O   UNL     1     -33.983  11.863 -32.575  1.00  0.00    -0.504 OA
ATOM     10  H   UNL     1     -34.712  12.469 -32.934  1.00  0.00     0.293 HD
ENDBRANCH   5   9
BRANCH   4  11
ATOM     11  O   UNL     1     -34.007  12.212 -35.372  1.00  0.00    -0.502 OA
ATOM     12  H   UNL     1     -34.916  12.476 -35.012  1.00  0.00     0.293 HD
ENDBRANCH   4  11
TORSDOF 3
ENDMDL
MODEL 9
REMARK VINA RESULT:    -3.908     17.754     18.067
REMARK INTER + INTRA:          -4.251
REMARK INTER:                  -4.251
REMARK INTRA:                   0.000
REMARK UNBOUND:                 0.000
REMARK SMILES Oc1cccc(O)c1O
REMARK SMILES IDX 4 1 5 2 6 3 8 4 2 5 3 6 7 7 1 9 9 11
REMARK H PARENT 7 8 1 10 9 12
REMARK Flexibility Score: inf
ROOT
ATOM      1  C   UNL     1     -24.873  24.710 -30.875  1.00  0.00     0.008 A 
ATOM      2  C   UNL     1     -24.569  26.062 -31.053  1.00  0.00     0.050 A 
ATOM      3  C   UNL     1     -23.338  26.572 -30.616  1.00  0.00     0.161 A 
ATOM      4  C   UNL     1     -22.407  25.717 -29.998  1.00  0.00     0.200 A 
ATOM      5  C   UNL     1     -22.718  24.356 -29.822  1.00  0.00     0.161 A 
ATOM      6  C   UNL     1     -23.951  23.860 -30.261  1.00  0.00     0.050 A 
ENDROOT
BRANCH   3   7
ATOM      7  O   UNL     1     -23.038  27.922 -30.795  1.00  0.00    -0.504 OA
ATOM      8  H   UNL     1     -22.096  28.276 -30.679  1.00  0.00     0.293 HD
ENDBRANCH   3   7
BRANCH   5   9
ATOM      9  O   UNL     1     -21.817  23.483 -29.213  1.00  0.00    -0.504 OA
ATOM     10  H   UNL     1     -22.122  22.736 -28.599  1.00  0.00     0.293 HD
ENDBRANCH   5   9
BRANCH   4  11
ATOM     11  O   UNL     1     -21.176  26.206 -29.557  1.00  0.00    -0.502 OA
ATOM     12  H   UNL     1     -20.320  26.063 -30.081  1.00  0.00     0.293 HD
ENDBRANCH   4  11
TORSDOF 3
ENDMDL
