MODEL 1
REMARK VINA RESULT:    -5.045      0.000      0.000
REMARK INTER + INTRA:         -10.308
REMARK INTER:                  -8.879
REMARK INTRA:                  -1.430
REMARK UNBOUND:                -1.430
REMARK SMILES CCCCCCCCCCCCCCC(=O)[O-]
REMARK SMILES IDX 9 1 10 2 11 3 12 4 13 5 14 6 15 7 16 8 17 9 8 10 7 11 6 12
REMARK SMILES IDX 5 13 4 14 3 15 2 16 1 17
REMARK H PARENT
REMARK Flexibility Score: inf
ROOT
ATOM      1  C   UNL     1       2.860  43.249   9.112  1.00  0.00     0.000 C 
ENDROOT
BRANCH   1   2
ATOM      2  C   UNL     1       4.108  43.598   9.937  1.00  0.00     0.000 C 
BRANCH   2   3
ATOM      3  C   UNL     1       3.769  44.317  11.254  1.00  0.00     0.000 C 
BRANCH   3   4
ATOM      4  C   UNL     1       3.701  43.356  12.452  1.00  0.00     0.000 C 
BRANCH   4   5
ATOM      5  C   UNL     1       4.166  41.936  12.096  1.00  0.00     0.006 C 
BRANCH   5   6
ATOM      6  C   UNL     1       3.036  40.923  12.300  1.00  0.00     0.053 C 
BRANCH   6   7
ATOM      7  C   UNL     1       3.575  39.639  12.848  1.00  0.00     0.041 C 
ATOM      8  O   UNL     1       4.696  39.616  13.421  1.00  0.00    -0.550 OA
ATOM      9  O   UNL     1       2.863  38.458  12.683  1.00  0.00    -0.550 OA
ENDBRANCH   6   7
ENDBRANCH   5   6
ENDBRANCH   4   5
ENDBRANCH   3   4
ENDBRANCH   2   3
ENDBRANCH   1   2
BRANCH   1  10
ATOM     10  C   UNL     1       1.669  44.171   9.422  1.00  0.00     0.000 C 
BRANCH  10  11
ATOM     11  C   UNL     1       0.729  44.363   8.219  1.00  0.00    -0.000 C 
BRANCH  11  12
ATOM     12  C   UNL     1       0.254  45.809   7.982  1.00  0.00    -0.000 C 
BRANCH  12  13
ATOM     13  C   UNL     1       1.109  46.852   8.724  1.00  0.00    -0.000 C 
BRANCH  13  14
ATOM     14  C   UNL     1       1.760  47.869   7.762  1.00  0.00    -0.000 C 
BRANCH  14  15
ATOM     15  C   UNL     1       3.299  47.812   7.747  1.00  0.00    -0.000 C 
BRANCH  15  16
ATOM     16  C   UNL     1       3.932  47.167   8.991  1.00  0.00    -0.003 C 
ATOM     17  C   UNL     1       5.424  47.469   9.122  1.00  0.00     0.004 C 
ENDBRANCH  15  16
ENDBRANCH  14  15
ENDBRANCH  13  14
ENDBRANCH  12  13
ENDBRANCH  11  12
ENDBRANCH  10  11
ENDBRANCH   1  10
TORSDOF 13
ENDMDL
MODEL 2
REMARK VINA RESULT:    -5.045      3.607      6.931
REMARK INTER + INTRA:         -10.308
REMARK INTER:                  -8.868
REMARK INTRA:                  -1.440
REMARK UNBOUND:                -1.430
REMARK SMILES CCCCCCCCCCCCCCC(=O)[O-]
REMARK SMILES IDX 9 1 10 2 11 3 12 4 13 5 14 6 15 7 16 8 17 9 8 10 7 11 6 12
REMARK SMILES IDX 5 13 4 14 3 15 2 16 1 17
REMARK H PARENT
REMARK Flexibility Score: inf
ROOT
ATOM      1  C   UNL     1       3.754  43.628   9.188  1.00  0.00     0.000 C 
ENDROOT
BRANCH   1   2
ATOM      2  C   UNL     1       2.323  43.288   8.742  1.00  0.00     0.000 C 
BRANCH   2   3
ATOM      3  C   UNL     1       1.285  44.305   9.247  1.00  0.00     0.000 C 
BRANCH   3   4
ATOM      4  C   UNL     1       0.398  44.855   8.118  1.00  0.00     0.000 C 
BRANCH   4   5
ATOM      5  C   UNL     1       0.027  46.331   8.324  1.00  0.00     0.006 C 
BRANCH   5   6
ATOM      6  C   UNL     1       0.841  47.235   7.393  1.00  0.00     0.053 C 
BRANCH   6   7
ATOM      7  C   UNL     1       2.004  47.827   8.124  1.00  0.00     0.041 C 
ATOM      8  O   UNL     1       1.926  48.058   9.359  1.00  0.00    -0.550 OA
ATOM      9  O   UNL     1       3.159  48.169   7.432  1.00  0.00    -0.550 OA
ENDBRANCH   6   7
ENDBRANCH   5   6
ENDBRANCH   4   5
ENDBRANCH   3   4
ENDBRANCH   2   3
ENDBRANCH   1   2
BRANCH   1  10
ATOM     10  C   UNL     1       3.925  45.114   9.541  1.00  0.00     0.000 C 
BRANCH  10  11
ATOM     11  C   UNL     1       4.180  45.350  11.040  1.00  0.00    -0.000 C 
BRANCH  11  12
ATOM     12  C   UNL     1       4.057  44.100  11.931  1.00  0.00    -0.000 C 
BRANCH  12  13
ATOM     13  C   UNL     1       2.639  43.899  12.494  1.00  0.00    -0.000 C 
BRANCH  13  14
ATOM     14  C   UNL     1       2.123  42.459  12.283  1.00  0.00    -0.000 C 
BRANCH  14  15
ATOM     15  C   UNL     1       3.240  41.432  12.019  1.00  0.00    -0.000 C 
BRANCH  15  16
ATOM     16  C   UNL     1       3.074  40.094  12.759  1.00  0.00    -0.003 C 
ATOM     17  C   UNL     1       4.409  39.469  13.161  1.00  0.00     0.004 C 
ENDBRANCH  15  16
ENDBRANCH  14  15
ENDBRANCH  13  14
ENDBRANCH  12  13
ENDBRANCH  11  12
ENDBRANCH  10  11
ENDBRANCH   1  10
TORSDOF 13
ENDMDL
MODEL 3
REMARK VINA RESULT:    -5.042      1.034      2.773
REMARK INTER + INTRA:         -10.303
REMARK INTER:                  -8.609
REMARK INTRA:                  -1.694
REMARK UNBOUND:                -1.430
REMARK SMILES CCCCCCCCCCCCCCC(=O)[O-]
REMARK SMILES IDX 9 1 10 2 11 3 12 4 13 5 14 6 15 7 16 8 17 9 8 10 7 11 6 12
REMARK SMILES IDX 5 13 4 14 3 15 2 16 1 17
REMARK H PARENT
REMARK Flexibility Score: inf
ROOT
ATOM      1  C   UNL     1       4.505  45.308   9.948  1.00  0.00     0.000 C 
ENDROOT
BRANCH   1   2
ATOM      2  C   UNL     1       3.865  45.527  11.327  1.00  0.00     0.000 C 
BRANCH   2   3
ATOM      3  C   UNL     1       3.948  44.282  12.227  1.00  0.00     0.000 C 
BRANCH   3   4
ATOM      4  C   UNL     1       2.621  43.510  12.293  1.00  0.00     0.000 C 
BRANCH   4   5
ATOM      5  C   UNL     1       2.750  42.068  11.779  1.00  0.00     0.006 C 
BRANCH   5   6
ATOM      6  C   UNL     1       4.090  41.456  12.199  1.00  0.00     0.053 C 
BRANCH   6   7
ATOM      7  C   UNL     1       3.874  40.141  12.879  1.00  0.00     0.041 C 
ATOM      8  O   UNL     1       4.805  39.608  13.539  1.00  0.00    -0.550 OA
ATOM      9  O   UNL     1       2.660  39.479  12.744  1.00  0.00    -0.550 OA
ENDBRANCH   6   7
ENDBRANCH   5   6
ENDBRANCH   4   5
ENDBRANCH   3   4
ENDBRANCH   2   3
ENDBRANCH   1   2
BRANCH   1  10
ATOM     10  C   UNL     1       4.533  46.590   9.099  1.00  0.00     0.000 C 
BRANCH  10  11
ATOM     11  C   UNL     1       3.224  47.394   9.183  1.00  0.00    -0.000 C 
BRANCH  11  12
ATOM     12  C   UNL     1       2.694  47.926   7.837  1.00  0.00    -0.000 C 
BRANCH  12  13
ATOM     13  C   UNL     1       1.267  47.442   7.519  1.00  0.00    -0.000 C 
BRANCH  13  14
ATOM     14  C   UNL     1       0.366  47.409   8.773  1.00  0.00    -0.000 C 
BRANCH  14  15
ATOM     15  C   UNL     1      -0.315  46.049   9.013  1.00  0.00    -0.000 C 
BRANCH  15  16
ATOM     16  C   UNL     1       0.547  45.019   9.763  1.00  0.00    -0.003 C 
ATOM     17  C   UNL     1       1.213  44.009   8.829  1.00  0.00     0.004 C 
ENDBRANCH  15  16
ENDBRANCH  14  15
ENDBRANCH  13  14
ENDBRANCH  12  13
ENDBRANCH  11  12
ENDBRANCH  10  11
ENDBRANCH   1  10
TORSDOF 13
ENDMDL
MODEL 4
REMARK VINA RESULT:    -5.026      0.720      1.582
REMARK INTER + INTRA:         -10.275
REMARK INTER:                  -9.004
REMARK INTRA:                  -1.271
REMARK UNBOUND:                -1.430
REMARK SMILES CCCCCCCCCCCCCCC(=O)[O-]
REMARK SMILES IDX 9 1 10 2 11 3 12 4 13 5 14 6 15 7 16 8 17 9 8 10 7 11 6 12
REMARK SMILES IDX 5 13 4 14 3 15 2 16 1 17
REMARK H PARENT
REMARK Flexibility Score: inf
ROOT
ATOM      1  C   UNL     1       1.234  44.374   9.222  1.00  0.00     0.000 C 
ENDROOT
BRANCH   1   2
ATOM      2  C   UNL     1       2.226  43.238   8.925  1.00  0.00     0.000 C 
BRANCH   2   3
ATOM      3  C   UNL     1       3.537  43.369   9.720  1.00  0.00     0.000 C 
BRANCH   3   4
ATOM      4  C   UNL     1       3.310  43.350  11.240  1.00  0.00     0.000 C 
BRANCH   4   5
ATOM      5  C   UNL     1       3.038  41.939  11.780  1.00  0.00     0.006 C 
BRANCH   5   6
ATOM      6  C   UNL     1       4.291  41.353  12.438  1.00  0.00     0.053 C 
BRANCH   6   7
ATOM      7  C   UNL     1       4.016  39.975  12.953  1.00  0.00     0.041 C 
ATOM      8  O   UNL     1       4.855  39.396  13.691  1.00  0.00    -0.550 OA
ATOM      9  O   UNL     1       2.856  39.311  12.577  1.00  0.00    -0.550 OA
ENDBRANCH   6   7
ENDBRANCH   5   6
ENDBRANCH   4   5
ENDBRANCH   3   4
ENDBRANCH   2   3
ENDBRANCH   1   2
BRANCH   1  10
ATOM     10  C   UNL     1       0.369  44.736   8.004  1.00  0.00     0.000 C 
BRANCH  10  11
ATOM     11  C   UNL     1       0.137  46.251   7.861  1.00  0.00    -0.000 C 
BRANCH  11  12
ATOM     12  C   UNL     1       1.178  47.143   8.564  1.00  0.00    -0.000 C 
BRANCH  12  13
ATOM     13  C   UNL     1       2.133  47.843   7.580  1.00  0.00    -0.000 C 
BRANCH  13  14
ATOM     14  C   UNL     1       3.604  47.777   8.045  1.00  0.00    -0.000 C 
BRANCH  14  15
ATOM     15  C   UNL     1       3.804  47.015   9.368  1.00  0.00    -0.000 C 
BRANCH  15  16
ATOM     16  C   UNL     1       5.272  46.795   9.770  1.00  0.00    -0.003 C 
ATOM     17  C   UNL     1       6.229  47.763   9.076  1.00  0.00     0.004 C 
ENDBRANCH  15  16
ENDBRANCH  14  15
ENDBRANCH  13  14
ENDBRANCH  12  13
ENDBRANCH  11  12
ENDBRANCH  10  11
ENDBRANCH   1  10
TORSDOF 13
ENDMDL
MODEL 5
REMARK VINA RESULT:    -4.992      4.150      7.432
REMARK INTER + INTRA:         -10.216
REMARK INTER:                  -9.257
REMARK INTRA:                  -0.959
REMARK UNBOUND:                -1.430
REMARK SMILES CCCCCCCCCCCCCCC(=O)[O-]
REMARK SMILES IDX 9 1 10 2 11 3 12 4 13 5 14 6 15 7 16 8 17 9 8 10 7 11 6 12
REMARK SMILES IDX 5 13 4 14 3 15 2 16 1 17
REMARK H PARENT
REMARK Flexibility Score: inf
ROOT
ATOM      1  C   UNL     1       4.421  44.849  10.850  1.00  0.00     0.000 C 
ENDROOT
BRANCH   1   2
ATOM      2  C   UNL     1       4.199  46.357  10.660  1.00  0.00     0.000 C 
BRANCH   2   3
ATOM      3  C   UNL     1       5.328  47.030   9.860  1.00  0.00     0.000 C 
BRANCH   3   4
ATOM      4  C   UNL     1       4.851  47.567   8.502  1.00  0.00     0.000 C 
BRANCH   4   5
ATOM      5  C   UNL     1       3.325  47.503   8.344  1.00  0.00     0.006 C 
BRANCH   5   6
ATOM      6  C   UNL     1       2.807  48.703   7.546  1.00  0.00     0.053 C 
BRANCH   6   7
ATOM      7  C   UNL     1       1.525  49.207   8.131  1.00  0.00     0.041 C 
ATOM      8  O   UNL     1       0.846  50.072   7.519  1.00  0.00    -0.550 OA
ATOM      9  O   UNL     1       1.104  48.757   9.376  1.00  0.00    -0.550 OA
ENDBRANCH   6   7
ENDBRANCH   5   6
ENDBRANCH   4   5
ENDBRANCH   3   4
ENDBRANCH   2   3
ENDBRANCH   1   2
BRANCH   1  10
ATOM     10  C   UNL     1       4.062  44.036   9.595  1.00  0.00     0.000 C 
BRANCH  10  11
ATOM     11  C   UNL     1       2.831  43.134   9.796  1.00  0.00    -0.000 C 
BRANCH  11  12
ATOM     12  C   UNL     1       1.862  43.584  10.906  1.00  0.00    -0.000 C 
BRANCH  12  13
ATOM     13  C   UNL     1       1.860  42.640  12.122  1.00  0.00    -0.000 C 
BRANCH  13  14
ATOM     14  C   UNL     1       2.995  41.596  12.055  1.00  0.00    -0.000 C 
BRANCH  14  15
ATOM     15  C   UNL     1       2.619  40.230  12.657  1.00  0.00    -0.000 C 
BRANCH  15  16
ATOM     16  C   UNL     1       3.813  39.320  12.991  1.00  0.00    -0.003 C 
ATOM     17  C   UNL     1       5.104  40.102  13.232  1.00  0.00     0.004 C 
ENDBRANCH  15  16
ENDBRANCH  14  15
ENDBRANCH  13  14
ENDBRANCH  12  13
ENDBRANCH  11  12
ENDBRANCH  10  11
ENDBRANCH   1  10
TORSDOF 13
ENDMDL
MODEL 6
REMARK VINA RESULT:    -4.984      1.119      2.140
REMARK INTER + INTRA:         -10.202
REMARK INTER:                  -8.575
REMARK INTRA:                  -1.627
REMARK UNBOUND:                -1.430
REMARK SMILES CCCCCCCCCCCCCCC(=O)[O-]
REMARK SMILES IDX 9 1 10 2 11 3 12 4 13 5 14 6 15 7 16 8 17 9 8 10 7 11 6 12
REMARK SMILES IDX 5 13 4 14 3 15 2 16 1 17
REMARK H PARENT
REMARK Flexibility Score: inf
ROOT
ATOM      1  C   UNL     1       3.902  45.298   9.593  1.00  0.00     0.000 C 
ENDROOT
BRANCH   1   2
ATOM      2  C   UNL     1       3.895  45.547  11.109  1.00  0.00     0.000 C 
BRANCH   2   3
ATOM      3  C   UNL     1       4.075  44.255  11.925  1.00  0.00     0.000 C 
BRANCH   3   4
ATOM      4  C   UNL     1       2.750  43.725  12.495  1.00  0.00     0.000 C 
BRANCH   4   5
ATOM      5  C   UNL     1       2.522  42.240  12.176  1.00  0.00     0.006 C 
BRANCH   5   6
ATOM      6  C   UNL     1       3.850  41.478  12.140  1.00  0.00     0.053 C 
BRANCH   6   7
ATOM      7  C   UNL     1       3.718  40.163  12.841  1.00  0.00     0.041 C 
ATOM      8  O   UNL     1       4.710  39.654  13.425  1.00  0.00    -0.550 OA
ATOM      9  O   UNL     1       2.512  39.475  12.807  1.00  0.00    -0.550 OA
ENDBRANCH   6   7
ENDBRANCH   5   6
ENDBRANCH   4   5
ENDBRANCH   3   4
ENDBRANCH   2   3
ENDBRANCH   1   2
BRANCH   1  10
ATOM     10  C   UNL     1       3.924  43.802   9.239  1.00  0.00     0.000 C 
BRANCH  10  11
ATOM     11  C   UNL     1       2.581  43.295   8.686  1.00  0.00    -0.000 C 
BRANCH  11  12
ATOM     12  C   UNL     1       1.341  44.082   9.152  1.00  0.00    -0.000 C 
BRANCH  12  13
ATOM     13  C   UNL     1       0.452  44.550   7.986  1.00  0.00    -0.000 C 
BRANCH  13  14
ATOM     14  C   UNL     1      -0.123  45.964   8.219  1.00  0.00    -0.000 C 
BRANCH  14  15
ATOM     15  C   UNL     1       0.518  47.048   7.333  1.00  0.00    -0.000 C 
BRANCH  15  16
ATOM     16  C   UNL     1       1.709  47.782   7.973  1.00  0.00    -0.003 C 
ATOM     17  C   UNL     1       1.469  48.136   9.440  1.00  0.00     0.004 C 
ENDBRANCH  15  16
ENDBRANCH  14  15
ENDBRANCH  13  14
ENDBRANCH  12  13
ENDBRANCH  11  12
ENDBRANCH  10  11
ENDBRANCH   1  10
TORSDOF 13
ENDMDL
MODEL 7
REMARK VINA RESULT:    -4.898      3.673      6.400
REMARK INTER + INTRA:         -10.050
REMARK INTER:                  -7.881
REMARK INTRA:                  -2.169
REMARK UNBOUND:                -1.430
REMARK SMILES CCCCCCCCCCCCCCC(=O)[O-]
REMARK SMILES IDX 9 1 10 2 11 3 12 4 13 5 14 6 15 7 16 8 17 9 8 10 7 11 6 12
REMARK SMILES IDX 5 13 4 14 3 15 2 16 1 17
REMARK H PARENT
REMARK Flexibility Score: inf
ROOT
ATOM      1  C   UNL     1       0.496  45.058   9.802  1.00  0.00     0.000 C 
ENDROOT
BRANCH   1   2
ATOM      2  C   UNL     1       0.670  46.585   9.823  1.00  0.00     0.000 C 
BRANCH   2   3
ATOM      3  C   UNL     1       2.126  47.016  10.069  1.00  0.00     0.000 C 
BRANCH   3   4
ATOM      4  C   UNL     1       2.716  47.805   8.890  1.00  0.00     0.000 C 
BRANCH   4   5
ATOM      5  C   UNL     1       4.014  47.183   8.354  1.00  0.00     0.006 C 
BRANCH   5   6
ATOM      6  C   UNL     1       5.066  47.071   9.462  1.00  0.00     0.053 C 
BRANCH   6   7
ATOM      7  C   UNL     1       6.281  47.871   9.113  1.00  0.00     0.041 C 
ATOM      8  O   UNL     1       6.188  48.863   8.344  1.00  0.00    -0.550 OA
ATOM      9  O   UNL     1       7.526  47.491   9.599  1.00  0.00    -0.550 OA
ENDBRANCH   6   7
ENDBRANCH   5   6
ENDBRANCH   4   5
ENDBRANCH   3   4
ENDBRANCH   2   3
ENDBRANCH   1   2
BRANCH   1  10
ATOM     10  C   UNL     1       1.091  44.414   8.539  1.00  0.00     0.000 C 
BRANCH  10  11
ATOM     11  C   UNL     1       2.046  43.249   8.852  1.00  0.00    -0.000 C 
BRANCH  11  12
ATOM     12  C   UNL     1       3.516  43.650   9.080  1.00  0.00    -0.000 C 
BRANCH  12  13
ATOM     13  C   UNL     1       4.067  43.171  10.435  1.00  0.00    -0.000 C 
BRANCH  13  14
ATOM     14  C   UNL     1       3.885  44.227  11.547  1.00  0.00    -0.000 C 
BRANCH  14  15
ATOM     15  C   UNL     1       2.743  43.904  12.528  1.00  0.00    -0.000 C 
BRANCH  15  16
ATOM     16  C   UNL     1       2.024  42.571  12.265  1.00  0.00    -0.003 C 
ATOM     17  C   UNL     1       0.665  42.482  12.958  1.00  0.00     0.004 C 
ENDBRANCH  15  16
ENDBRANCH  14  15
ENDBRANCH  13  14
ENDBRANCH  12  13
ENDBRANCH  11  12
ENDBRANCH  10  11
ENDBRANCH   1  10
TORSDOF 13
ENDMDL
MODEL 8
REMARK VINA RESULT:    -4.890      1.562      3.460
REMARK INTER + INTRA:         -10.036
REMARK INTER:                  -8.095
REMARK INTRA:                  -1.940
REMARK UNBOUND:                -1.430
REMARK SMILES CCCCCCCCCCCCCCC(=O)[O-]
REMARK SMILES IDX 9 1 10 2 11 3 12 4 13 5 14 6 15 7 16 8 17 9 8 10 7 11 6 12
REMARK SMILES IDX 5 13 4 14 3 15 2 16 1 17
REMARK H PARENT
REMARK Flexibility Score: inf
ROOT
ATOM      1  C   UNL     1       5.311  47.130   9.102  1.00  0.00     0.000 C 
ENDROOT
BRANCH   1   2
ATOM      2  C   UNL     1       4.413  45.938   9.470  1.00  0.00     0.000 C 
BRANCH   2   3
ATOM      3  C   UNL     1       4.007  45.935  10.954  1.00  0.00     0.000 C 
BRANCH   3   4
ATOM      4  C   UNL     1       3.950  44.518  11.548  1.00  0.00     0.000 C 
BRANCH   4   5
ATOM      5  C   UNL     1       4.074  43.424  10.478  1.00  0.00     0.006 C 
BRANCH   5   6
ATOM      6  C   UNL     1       2.830  42.531  10.462  1.00  0.00     0.053 C 
BRANCH   6   7
ATOM      7  C   UNL     1       2.616  41.906  11.804  1.00  0.00     0.041 C 
ATOM      8  O   UNL     1       3.411  41.026  12.228  1.00  0.00    -0.550 OA
ATOM      9  O   UNL     1       1.511  42.259  12.568  1.00  0.00    -0.550 OA
ENDBRANCH   6   7
ENDBRANCH   5   6
ENDBRANCH   4   5
ENDBRANCH   3   4
ENDBRANCH   2   3
ENDBRANCH   1   2
BRANCH   1  10
ATOM     10  C   UNL     1       4.554  48.223   8.330  1.00  0.00     0.000 C 
BRANCH  10  11
ATOM     11  C   UNL     1       3.260  47.709   7.674  1.00  0.00    -0.000 C 
BRANCH  11  12
ATOM     12  C   UNL     1       1.978  48.464   8.072  1.00  0.00    -0.000 C 
BRANCH  12  13
ATOM     13  C   UNL     1       1.515  48.149   9.506  1.00  0.00    -0.000 C 
BRANCH  13  14
ATOM     14  C   UNL     1       0.208  47.326   9.532  1.00  0.00    -0.000 C 
BRANCH  14  15
ATOM     15  C   UNL     1       0.417  45.839   9.870  1.00  0.00    -0.000 C 
BRANCH  15  16
ATOM     16  C   UNL     1       0.881  44.968   8.690  1.00  0.00    -0.003 C 
ATOM     17  C   UNL     1      -0.098  44.989   7.516  1.00  0.00     0.004 C 
ENDBRANCH  15  16
ENDBRANCH  14  15
ENDBRANCH  13  14
ENDBRANCH  12  13
ENDBRANCH  11  12
ENDBRANCH  10  11
ENDBRANCH   1  10
TORSDOF 13
ENDMDL
MODEL 9
REMARK VINA RESULT:    -4.888      3.030      6.646
REMARK INTER + INTRA:         -10.032
REMARK INTER:                  -8.720
REMARK INTRA:                  -1.312
REMARK UNBOUND:                -1.430
REMARK SMILES CCCCCCCCCCCCCCC(=O)[O-]
REMARK SMILES IDX 9 1 10 2 11 3 12 4 13 5 14 6 15 7 16 8 17 9 8 10 7 11 6 12
REMARK SMILES IDX 5 13 4 14 3 15 2 16 1 17
REMARK H PARENT
REMARK Flexibility Score: inf
ROOT
ATOM      1  C   UNL     1       0.727  44.266   8.030  1.00  0.00     0.000 C 
ENDROOT
BRANCH   1   2
ATOM      2  C   UNL     1      -0.015  45.587   8.286  1.00  0.00     0.000 C 
BRANCH   2   3
ATOM      3  C   UNL     1       0.337  46.676   7.258  1.00  0.00     0.000 C 
BRANCH   3   4
ATOM      4  C   UNL     1       1.070  47.870   7.889  1.00  0.00     0.000 C 
BRANCH   4   5
ATOM      5  C   UNL     1       2.594  47.679   7.915  1.00  0.00     0.006 C 
BRANCH   5   6
ATOM      6  C   UNL     1       3.078  47.331   9.326  1.00  0.00     0.053 C 
BRANCH   6   7
ATOM      7  C   UNL     1       4.527  46.960   9.306  1.00  0.00     0.041 C 
ATOM      8  O   UNL     1       4.923  45.918   9.892  1.00  0.00    -0.550 OA
ATOM      9  O   UNL     1       5.449  47.790   8.681  1.00  0.00    -0.550 OA
ENDBRANCH   6   7
ENDBRANCH   5   6
ENDBRANCH   4   5
ENDBRANCH   3   4
ENDBRANCH   2   3
ENDBRANCH   1   2
BRANCH   1  10
ATOM     10  C   UNL     1       1.656  43.875   9.192  1.00  0.00     0.000 C 
BRANCH  10  11
ATOM     11  C   UNL     1       1.220  44.481  10.538  1.00  0.00    -0.000 C 
BRANCH  11  12
ATOM     12  C   UNL     1       1.624  43.669  11.784  1.00  0.00    -0.000 C 
BRANCH  12  13
ATOM     13  C   UNL     1       3.143  43.673  12.038  1.00  0.00    -0.000 C 
BRANCH  13  14
ATOM     14  C   UNL     1       3.774  42.278  11.835  1.00  0.00    -0.000 C 
BRANCH  14  15
ATOM     15  C   UNL     1       2.850  41.114  12.241  1.00  0.00    -0.000 C 
BRANCH  15  16
ATOM     16  C   UNL     1       3.579  39.870  12.777  1.00  0.00    -0.003 C 
ATOM     17  C   UNL     1       5.013  40.165  13.214  1.00  0.00     0.004 C 
ENDBRANCH  15  16
ENDBRANCH  14  15
ENDBRANCH  13  14
ENDBRANCH  12  13
ENDBRANCH  11  12
ENDBRANCH  10  11
ENDBRANCH   1  10
TORSDOF 13
ENDMDL
