MODEL 1
REMARK VINA RESULT:    -4.322      0.000      0.000
REMARK INTER + INTRA:          -4.449
REMARK INTER:                  -4.449
REMARK INTRA:                   0.000
REMARK UNBOUND:                 0.000
REMARK SMILES Cc1ccccc1O
REMARK SMILES IDX 1 1 2 2 3 3 4 4 5 5 6 6 7 7 8 8
REMARK H PARENT 8 9
REMARK Flexibility Score: inf
ROOT
ATOM      1  C   UNL     1      23.029   8.953  20.586  1.00  0.00     0.048 C 
ATOM      2  C   UNL     1      23.987   8.159  19.744  1.00  0.00    -0.009 A 
ATOM      3  C   UNL     1      25.063   7.481  20.342  1.00  0.00     0.007 A 
ATOM      4  C   UNL     1      25.954   6.743  19.559  1.00  0.00     0.001 A 
ATOM      5  C   UNL     1      25.780   6.675  18.175  1.00  0.00     0.004 A 
ATOM      6  C   UNL     1      24.713   7.344  17.571  1.00  0.00     0.046 A 
ATOM      7  C   UNL     1      23.813   8.089  18.348  1.00  0.00     0.118 A 
ENDROOT
BRANCH   7   8
ATOM      8  O   UNL     1      22.751   8.756  17.741  1.00  0.00    -0.508 OA
ATOM      9  H   UNL     1      22.864   9.242  16.859  1.00  0.00     0.293 HD
ENDBRANCH   7   8
TORSDOF 1
ENDMDL
MODEL 2
REMARK VINA RESULT:    -4.184      3.704      3.947
REMARK INTER + INTRA:          -4.307
REMARK INTER:                  -4.307
REMARK INTRA:                   0.000
REMARK UNBOUND:                 0.000
REMARK SMILES Cc1ccccc1O
REMARK SMILES IDX 1 1 2 2 3 3 4 4 5 5 6 6 7 7 8 8
REMARK H PARENT 8 9
REMARK Flexibility Score: inf
ROOT
ATOM      1  C   UNL     1      21.793   7.764  22.999  1.00  0.00     0.048 C 
ATOM      2  C   UNL     1      23.118   8.362  22.619  1.00  0.00    -0.009 A 
ATOM      3  C   UNL     1      24.280   7.571  22.618  1.00  0.00     0.007 A 
ATOM      4  C   UNL     1      25.511   8.127  22.264  1.00  0.00     0.001 A 
ATOM      5  C   UNL     1      25.595   9.475  21.909  1.00  0.00     0.004 A 
ATOM      6  C   UNL     1      24.447  10.270  21.906  1.00  0.00     0.046 A 
ATOM      7  C   UNL     1      23.205   9.721  22.260  1.00  0.00     0.118 A 
ENDROOT
BRANCH   7   8
ATOM      8  O   UNL     1      22.061  10.518  22.256  1.00  0.00    -0.508 OA
ATOM      9  H   UNL     1      21.759  11.017  23.085  1.00  0.00     0.293 HD
ENDBRANCH   7   8
TORSDOF 1
ENDMDL
MODEL 3
REMARK VINA RESULT:    -4.175      1.355      2.469
REMARK INTER + INTRA:          -4.297
REMARK INTER:                  -4.297
REMARK INTRA:                   0.000
REMARK UNBOUND:                 0.000
REMARK SMILES Cc1ccccc1O
REMARK SMILES IDX 1 1 2 2 3 3 4 4 5 5 6 6 7 7 8 8
REMARK H PARENT 8 9
REMARK Flexibility Score: inf
ROOT
ATOM      1  C   UNL     1      23.825   7.784  17.422  1.00  0.00     0.048 C 
ATOM      2  C   UNL     1      24.813   7.410  18.491  1.00  0.00    -0.009 A 
ATOM      3  C   UNL     1      25.942   6.635  18.175  1.00  0.00     0.007 A 
ATOM      4  C   UNL     1      26.859   6.287  19.170  1.00  0.00     0.001 A 
ATOM      5  C   UNL     1      26.659   6.709  20.486  1.00  0.00     0.004 A 
ATOM      6  C   UNL     1      25.541   7.481  20.811  1.00  0.00     0.046 A 
ATOM      7  C   UNL     1      24.613   7.835  19.819  1.00  0.00     0.118 A 
ENDROOT
BRANCH   7   8
ATOM      8  O   UNL     1      23.499   8.605  20.148  1.00  0.00    -0.508 OA
ATOM      9  H   UNL     1      23.511   9.615  20.075  1.00  0.00     0.293 HD
ENDBRANCH   7   8
TORSDOF 1
ENDMDL
MODEL 4
REMARK VINA RESULT:    -4.149      5.382      6.272
REMARK INTER + INTRA:          -4.270
REMARK INTER:                  -4.270
REMARK INTRA:                   0.000
REMARK UNBOUND:                 0.000
REMARK SMILES Cc1ccccc1O
REMARK SMILES IDX 1 1 2 2 3 3 4 4 5 5 6 6 7 7 8 8
REMARK H PARENT 8 9
REMARK Flexibility Score: inf
ROOT
ATOM      1  C   UNL     1      22.494   3.529  22.713  1.00  0.00     0.048 C 
ATOM      2  C   UNL     1      23.363   4.555  23.384  1.00  0.00    -0.009 A 
ATOM      3  C   UNL     1      24.569   4.963  22.788  1.00  0.00     0.007 A 
ATOM      4  C   UNL     1      25.376   5.917  23.412  1.00  0.00     0.001 A 
ATOM      5  C   UNL     1      24.989   6.472  24.633  1.00  0.00     0.004 A 
ATOM      6  C   UNL     1      23.792   6.075  25.233  1.00  0.00     0.046 A 
ATOM      7  C   UNL     1      22.974   5.117  24.615  1.00  0.00     0.118 A 
ENDROOT
BRANCH   7   8
ATOM      8  O   UNL     1      21.781   4.724  25.218  1.00  0.00    -0.508 OA
ATOM      9  H   UNL     1      21.310   5.311  25.897  1.00  0.00     0.293 HD
ENDBRANCH   7   8
TORSDOF 1
ENDMDL
MODEL 5
REMARK VINA RESULT:    -4.133      4.388      5.264
REMARK INTER + INTRA:          -4.253
REMARK INTER:                  -4.253
REMARK INTRA:                   0.000
REMARK UNBOUND:                 0.000
REMARK SMILES Cc1ccccc1O
REMARK SMILES IDX 1 1 2 2 3 3 4 4 5 5 6 6 7 7 8 8
REMARK H PARENT 8 9
REMARK Flexibility Score: inf
ROOT
ATOM      1  C   UNL     1      23.621   4.162  18.859  1.00  0.00     0.048 C 
ATOM      2  C   UNL     1      24.518   3.934  20.043  1.00  0.00    -0.009 A 
ATOM      3  C   UNL     1      25.105   5.023  20.710  1.00  0.00     0.007 A 
ATOM      4  C   UNL     1      25.939   4.810  21.810  1.00  0.00     0.001 A 
ATOM      5  C   UNL     1      26.195   3.511  22.254  1.00  0.00     0.004 A 
ATOM      6  C   UNL     1      25.616   2.422  21.600  1.00  0.00     0.046 A 
ATOM      7  C   UNL     1      24.778   2.625  20.493  1.00  0.00     0.118 A 
ENDROOT
BRANCH   7   8
ATOM      8  O   UNL     1      24.203   1.534  19.843  1.00  0.00    -0.508 OA
ATOM      9  H   UNL     1      24.191   0.611  20.262  1.00  0.00     0.293 HD
ENDBRANCH   7   8
TORSDOF 1
ENDMDL
MODEL 6
REMARK VINA RESULT:    -4.100      3.944      4.208
REMARK INTER + INTRA:          -4.220
REMARK INTER:                  -4.220
REMARK INTRA:                   0.000
REMARK UNBOUND:                 0.000
REMARK SMILES Cc1ccccc1O
REMARK SMILES IDX 1 1 2 2 3 3 4 4 5 5 6 6 7 7 8 8
REMARK H PARENT 8 9
REMARK Flexibility Score: inf
ROOT
ATOM      1  C   UNL     1      21.779   9.772  22.305  1.00  0.00     0.048 C 
ATOM      2  C   UNL     1      23.213   9.322  22.328  1.00  0.00    -0.009 A 
ATOM      3  C   UNL     1      24.227  10.156  21.827  1.00  0.00     0.007 A 
ATOM      4  C   UNL     1      25.560   9.737  21.848  1.00  0.00     0.001 A 
ATOM      5  C   UNL     1      25.892   8.485  22.369  1.00  0.00     0.004 A 
ATOM      6  C   UNL     1      24.892   7.649  22.872  1.00  0.00     0.046 A 
ATOM      7  C   UNL     1      23.551   8.060  22.854  1.00  0.00     0.118 A 
ENDROOT
BRANCH   7   8
ATOM      8  O   UNL     1      22.557   7.222  23.356  1.00  0.00    -0.508 OA
ATOM      9  H   UNL     1      22.637   6.213  23.306  1.00  0.00     0.293 HD
ENDBRANCH   7   8
TORSDOF 1
ENDMDL
MODEL 7
REMARK VINA RESULT:    -4.099      5.725      6.748
REMARK INTER + INTRA:          -4.219
REMARK INTER:                  -4.219
REMARK INTRA:                   0.000
REMARK UNBOUND:                 0.000
REMARK SMILES Cc1ccccc1O
REMARK SMILES IDX 1 1 2 2 3 3 4 4 5 5 6 6 7 7 8 8
REMARK H PARENT 8 9
REMARK Flexibility Score: inf
ROOT
ATOM      1  C   UNL     1      23.979   6.359  25.013  1.00  0.00     0.048 C 
ATOM      2  C   UNL     1      25.408   6.749  24.759  1.00  0.00    -0.009 A 
ATOM      3  C   UNL     1      25.862   6.968  23.448  1.00  0.00     0.007 A 
ATOM      4  C   UNL     1      27.191   7.331  23.213  1.00  0.00     0.001 A 
ATOM      5  C   UNL     1      28.077   7.479  24.282  1.00  0.00     0.004 A 
ATOM      6  C   UNL     1      27.635   7.265  25.590  1.00  0.00     0.046 A 
ATOM      7  C   UNL     1      26.303   6.900  25.837  1.00  0.00     0.118 A 
ENDROOT
BRANCH   7   8
ATOM      8  O   UNL     1      25.867   6.687  27.143  1.00  0.00    -0.508 OA
ATOM      9  H   UNL     1      25.066   7.178  27.523  1.00  0.00     0.293 HD
ENDBRANCH   7   8
TORSDOF 1
ENDMDL
MODEL 8
REMARK VINA RESULT:    -4.058      5.062      5.883
REMARK INTER + INTRA:          -4.176
REMARK INTER:                  -4.176
REMARK INTRA:                   0.000
REMARK UNBOUND:                 0.000
REMARK SMILES Cc1ccccc1O
REMARK SMILES IDX 1 1 2 2 3 3 4 4 5 5 6 6 7 7 8 8
REMARK H PARENT 8 9
REMARK Flexibility Score: inf
ROOT
ATOM      1  C   UNL     1      22.048   4.167  24.433  1.00  0.00     0.048 C 
ATOM      2  C   UNL     1      23.311   4.963  24.258  1.00  0.00    -0.009 A 
ATOM      3  C   UNL     1      23.651   5.966  25.181  1.00  0.00     0.007 A 
ATOM      4  C   UNL     1      24.825   6.706  25.017  1.00  0.00     0.001 A 
ATOM      5  C   UNL     1      25.669   6.452  23.934  1.00  0.00     0.004 A 
ATOM      6  C   UNL     1      25.340   5.455  23.011  1.00  0.00     0.046 A 
ATOM      7  C   UNL     1      24.163   4.707  23.166  1.00  0.00     0.118 A 
ENDROOT
BRANCH   7   8
ATOM      8  O   UNL     1      23.840   3.715  22.242  1.00  0.00    -0.508 OA
ATOM      9  H   UNL     1      23.930   3.868  21.245  1.00  0.00     0.293 HD
ENDBRANCH   7   8
TORSDOF 1
ENDMDL
MODEL 9
REMARK VINA RESULT:    -4.054      3.963      4.957
REMARK INTER + INTRA:          -4.173
REMARK INTER:                  -4.173
REMARK INTRA:                   0.000
REMARK UNBOUND:                 0.000
REMARK SMILES Cc1ccccc1O
REMARK SMILES IDX 1 1 2 2 3 3 4 4 5 5 6 6 7 7 8 8
REMARK H PARENT 8 9
REMARK Flexibility Score: inf
ROOT
ATOM      1  C   UNL     1      23.964   1.940  19.589  1.00  0.00     0.048 C 
ATOM      2  C   UNL     1      24.776   2.914  20.395  1.00  0.00    -0.009 A 
ATOM      3  C   UNL     1      25.492   2.479  21.524  1.00  0.00     0.007 A 
ATOM      4  C   UNL     1      26.246   3.386  22.273  1.00  0.00     0.001 A 
ATOM      5  C   UNL     1      26.293   4.732  21.905  1.00  0.00     0.004 A 
ATOM      6  C   UNL     1      25.586   5.175  20.784  1.00  0.00     0.046 A 
ATOM      7  C   UNL     1      24.825   4.273  20.025  1.00  0.00     0.118 A 
ENDROOT
BRANCH   7   8
ATOM      8  O   UNL     1      24.121   4.719  18.908  1.00  0.00    -0.508 OA
ATOM      9  H   UNL     1      24.566   5.278  18.189  1.00  0.00     0.293 HD
ENDBRANCH   7   8
TORSDOF 1
ENDMDL
