MODEL 1
REMARK VINA RESULT:    -6.143      0.000      0.000
REMARK INTER + INTRA:         -13.021
REMARK INTER:                 -10.093
REMARK INTRA:                  -2.928
REMARK UNBOUND:                -2.928
REMARK SMILES C[C@@H]1O[C@H](OC[C@@H]2O[C@H](Oc3c(-c4ccc(O)c(O)c4)oc4cc(O)cc(O)c4c3=O)[C@@H](O)[C@@H](O)[C@H]2O)[C@H](O)[C@@H](O)[C@H]1O
REMARK SMILES IDX 7 1 36 2 34 3 32 4 9 5 8 6 6 7 5 8 4 9 1 10 2 11 42 12 3 13
REMARK SMILES IDX 40 14 38 15 43 16 41 18 39 20 37 22 35 24 10 26 11 27 12 28
REMARK SMILES IDX 30 29 21 30 29 31 31 32 22 33 27 34 23 35 26 36 24 37 13 38
REMARK SMILES IDX 20 39 14 40 18 41 15 42 16 43 19 44 17 46 28 48 25 50 33 52
REMARK H PARENT 43 17 41 19 39 21 37 23 35 25 19 45 17 47 28 49 25 51 33 53
REMARK Flexibility Score: inf
ROOT
ATOM      1  C   UNL     1      27.402  -2.942 -24.705  1.00  0.00     0.180 C 
ATOM      2  C   UNL     1      26.348  -2.626 -25.814  1.00  0.00     0.177 C 
ATOM      3  C   UNL     1      26.114  -3.824 -26.758  1.00  0.00     0.180 C 
ATOM      4  C   UNL     1      26.251  -5.146 -26.001  1.00  0.00     0.214 C 
ATOM      5  C   UNL     1      27.587  -5.218 -25.143  1.00  0.00     0.339 C 
ATOM      6  O   UNL     1      28.267  -3.973 -25.150  1.00  0.00    -0.332 OA
ENDROOT
BRANCH   1   7
ATOM      7  C   UNL     1      28.232  -1.692 -24.339  1.00  0.00     0.198 C 
BRANCH   7   8
ATOM      8  O   UNL     1      29.495  -1.673 -24.997  1.00  0.00    -0.347 OA
BRANCH   8   9
ATOM      9  C   UNL     1      30.011  -0.349 -25.122  1.00  0.00     0.281 C 
ATOM     10  C   UNL     1      32.325  -2.226 -24.200  1.00  0.00     0.041 C 
ATOM     11  C   UNL     1      32.293  -0.711 -24.511  1.00  0.00     0.150 C 
ATOM     12  C   UNL     1      32.794  -0.366 -25.926  1.00  0.00     0.174 C 
ATOM     13  O   UNL     1      31.050  -0.104 -24.181  1.00  0.00    -0.344 OA
ATOM     14  C   UNL     1      31.729  -0.750 -26.958  1.00  0.00     0.179 C 
ATOM     15  C   UNL     1      30.424  -0.049 -26.590  1.00  0.00     0.202 C 
BRANCH  12  16
ATOM     16  O   UNL     1      33.094   1.013 -25.982  1.00  0.00    -0.388 OA
ATOM     17  H   UNL     1      32.880   1.378 -25.091  1.00  0.00     0.211 HD
ENDBRANCH  12  16
BRANCH  14  18
ATOM     18  O   UNL     1      32.152  -0.356 -28.240  1.00  0.00    -0.387 OA
ATOM     19  H   UNL     1      33.107  -0.640 -28.349  1.00  0.00     0.211 HD
ENDBRANCH  14  18
BRANCH  15  20
ATOM     20  O   UNL     1      29.407  -0.474 -27.449  1.00  0.00    -0.385 OA
ATOM     21  H   UNL     1      28.610   0.107 -27.299  1.00  0.00     0.211 HD
ENDBRANCH  15  20
ENDBRANCH   8   9
ENDBRANCH   7   8
ENDBRANCH   1   7
BRANCH   2  22
ATOM     22  O   UNL     1      25.131  -2.186 -25.270  1.00  0.00    -0.387 OA
ATOM     23  H   UNL     1      25.309  -1.383 -24.724  1.00  0.00     0.211 HD
ENDBRANCH   2  22
BRANCH   3  24
ATOM     24  O   UNL     1      24.832  -3.748 -27.370  1.00  0.00    -0.387 OA
ATOM     25  H   UNL     1      24.958  -3.982 -28.319  1.00  0.00     0.211 HD
ENDBRANCH   3  24
BRANCH   5  26
ATOM     26  O   UNL     1      28.437  -6.252 -25.662  1.00  0.00    -0.454 OA
BRANCH  26  27
ATOM     27  C   UNL     1      29.556  -5.981 -26.468  1.00  0.00     0.214 A 
ATOM     28  C   UNL     1      30.805  -5.735 -25.862  1.00  0.00     0.180 A 
ATOM     29  C   UNL     1      29.460  -5.817 -27.867  1.00  0.00     0.239 A 
ATOM     30  O   UNL     1      31.739  -5.068 -26.529  1.00  0.00    -0.452 OA
ATOM     31  C   UNL     1      30.512  -5.179 -28.567  1.00  0.00     0.111 A 
ATOM     32  O   UNL     1      28.467  -6.276 -28.487  1.00  0.00    -0.285 OA
ATOM     33  C   UNL     1      31.637  -4.743 -27.816  1.00  0.00     0.146 A 
ATOM     34  C   UNL     1      30.477  -4.940 -29.975  1.00  0.00     0.134 A 
ATOM     35  C   UNL     1      32.639  -3.994 -28.417  1.00  0.00     0.094 A 
ATOM     36  C   UNL     1      31.502  -4.193 -30.569  1.00  0.00     0.093 A 
ATOM     37  C   UNL     1      32.568  -3.689 -29.792  1.00  0.00     0.123 A 
BRANCH  28  38
ATOM     38  C   UNL     1      31.140  -6.242 -24.515  1.00  0.00     0.025 A 
ATOM     39  C   UNL     1      32.158  -7.208 -24.393  1.00  0.00     0.062 A 
ATOM     40  C   UNL     1      30.853  -5.432 -23.395  1.00  0.00     0.016 A 
ATOM     41  C   UNL     1      33.009  -7.240 -23.268  1.00  0.00     0.158 A 
ATOM     42  C   UNL     1      31.672  -5.482 -22.255  1.00  0.00     0.051 A 
ATOM     43  C   UNL     1      32.789  -6.335 -22.219  1.00  0.00     0.157 A 
BRANCH  41  44
ATOM     44  O   UNL     1      34.098  -8.094 -23.214  1.00  0.00    -0.504 OA
ATOM     45  H   UNL     1      35.018  -7.818 -23.509  1.00  0.00     0.293 HD
ENDBRANCH  41  44
BRANCH  43  46
ATOM     46  O   UNL     1      33.723  -6.229 -21.198  1.00  0.00    -0.504 OA
ATOM     47  H   UNL     1      34.014  -5.328 -20.875  1.00  0.00     0.293 HD
ENDBRANCH  43  46
ENDBRANCH  28  38
BRANCH  34  48
ATOM     48  O   UNL     1      29.458  -5.477 -30.765  1.00  0.00    -0.507 OA
ATOM     49  H   UNL     1      29.059  -6.385 -30.555  1.00  0.00     0.293 HD
ENDBRANCH  34  48
BRANCH  37  50
ATOM     50  O   UNL     1      33.548  -2.894 -30.375  1.00  0.00    -0.508 OA
ATOM     51  H   UNL     1      33.650  -1.909 -30.126  1.00  0.00     0.293 HD
ENDBRANCH  37  50
ENDBRANCH  26  27
ENDBRANCH   5  26
BRANCH   4  52
ATOM     52  O   UNL     1      25.104  -5.374 -25.216  1.00  0.00    -0.384 OA
ATOM     53  H   UNL     1      25.157  -4.932 -24.346  1.00  0.00     0.211 HD
ENDBRANCH   4  52
TORSDOF 16
ENDMDL
MODEL 2
REMARK VINA RESULT:    -6.091      2.066      6.862
REMARK INTER + INTRA:         -12.937
REMARK INTER:                 -10.412
REMARK INTRA:                  -2.524
REMARK UNBOUND:                -2.928
REMARK SMILES C[C@@H]1O[C@H](OC[C@@H]2O[C@H](Oc3c(-c4ccc(O)c(O)c4)oc4cc(O)cc(O)c4c3=O)[C@@H](O)[C@@H](O)[C@H]2O)[C@H](O)[C@@H](O)[C@H]1O
REMARK SMILES IDX 7 1 36 2 34 3 32 4 9 5 8 6 6 7 5 8 4 9 1 10 2 11 42 12 3 13
REMARK SMILES IDX 40 14 38 15 43 16 41 18 39 20 37 22 35 24 10 26 11 27 12 28
REMARK SMILES IDX 30 29 21 30 29 31 31 32 22 33 27 34 23 35 26 36 24 37 13 38
REMARK SMILES IDX 20 39 14 40 18 41 15 42 16 43 19 44 17 46 28 48 25 50 33 52
REMARK H PARENT 43 17 41 19 39 21 37 23 35 25 19 45 17 47 28 49 25 51 33 53
REMARK Flexibility Score: inf
ROOT
ATOM      1  C   UNL     1      31.745  -0.780 -24.812  1.00  0.00     0.180 C 
ATOM      2  C   UNL     1      32.685   0.011 -25.777  1.00  0.00     0.177 C 
ATOM      3  C   UNL     1      32.012   0.315 -27.131  1.00  0.00     0.180 C 
ATOM      4  C   UNL     1      30.511   0.547 -26.950  1.00  0.00     0.214 C 
ATOM      5  C   UNL     1      29.818  -0.603 -26.100  1.00  0.00     0.339 C 
ATOM      6  O   UNL     1      30.782  -1.496 -25.567  1.00  0.00    -0.332 OA
ENDROOT
BRANCH   1   7
ATOM      7  C   UNL     1      32.541  -1.763 -23.925  1.00  0.00     0.198 C 
BRANCH   7   8
ATOM      8  O   UNL     1      32.440  -3.107 -24.385  1.00  0.00    -0.347 OA
BRANCH   8   9
ATOM      9  C   UNL     1      33.346  -3.973 -23.703  1.00  0.00     0.281 C 
ATOM     10  C   UNL     1      30.442  -4.680 -22.810  1.00  0.00     0.041 C 
ATOM     11  C   UNL     1      31.813  -5.284 -22.422  1.00  0.00     0.150 C 
ATOM     12  C   UNL     1      32.158  -6.567 -23.201  1.00  0.00     0.174 C 
ATOM     13  O   UNL     1      32.859  -4.322 -22.412  1.00  0.00    -0.344 OA
ATOM     14  C   UNL     1      32.558  -6.207 -24.635  1.00  0.00     0.179 C 
ATOM     15  C   UNL     1      33.706  -5.204 -24.580  1.00  0.00     0.202 C 
BRANCH  12  16
ATOM     16  O   UNL     1      33.200  -7.244 -22.529  1.00  0.00    -0.388 OA
ATOM     17  H   UNL     1      32.848  -8.138 -22.304  1.00  0.00     0.211 HD
ENDBRANCH  12  16
BRANCH  14  18
ATOM     18  O   UNL     1      32.956  -7.370 -25.319  1.00  0.00    -0.387 OA
ATOM     19  H   UNL     1      33.352  -8.000 -24.648  1.00  0.00     0.211 HD
ENDBRANCH  14  18
BRANCH  15  20
ATOM     20  O   UNL     1      34.012  -4.772 -25.874  1.00  0.00    -0.385 OA
ATOM     21  H   UNL     1      34.601  -5.457 -26.299  1.00  0.00     0.211 HD
ENDBRANCH  15  20
ENDBRANCH   8   9
ENDBRANCH   7   8
ENDBRANCH   1   7
BRANCH   2  22
ATOM     22  O   UNL     1      33.162   1.193 -25.190  1.00  0.00    -0.387 OA
ATOM     23  H   UNL     1      32.394   1.794 -25.035  1.00  0.00     0.211 HD
ENDBRANCH   2  22
BRANCH   3  24
ATOM     24  O   UNL     1      32.605   1.450 -27.752  1.00  0.00    -0.387 OA
ATOM     25  H   UNL     1      32.206   1.521 -28.650  1.00  0.00     0.211 HD
ENDBRANCH   3  24
BRANCH   5  26
ATOM     26  O   UNL     1      28.882  -1.314 -26.924  1.00  0.00    -0.454 OA
BRANCH  26  27
ATOM     27  C   UNL     1      28.502  -2.642 -26.666  1.00  0.00     0.214 A 
ATOM     28  C   UNL     1      27.429  -2.899 -25.788  1.00  0.00     0.180 A 
ATOM     29  C   UNL     1      29.233  -3.748 -27.151  1.00  0.00     0.239 A 
ATOM     30  O   UNL     1      27.331  -4.084 -25.198  1.00  0.00    -0.452 OA
ATOM     31  C   UNL     1      29.044  -5.021 -26.561  1.00  0.00     0.111 A 
ATOM     32  O   UNL     1      30.010  -3.607 -28.130  1.00  0.00    -0.285 OA
ATOM     33  C   UNL     1      28.102  -5.126 -25.503  1.00  0.00     0.146 A 
ATOM     34  C   UNL     1      29.771  -6.182 -26.966  1.00  0.00     0.134 A 
ATOM     35  C   UNL     1      27.967  -6.311 -24.793  1.00  0.00     0.094 A 
ATOM     36  C   UNL     1      29.615  -7.374 -26.248  1.00  0.00     0.093 A 
ATOM     37  C   UNL     1      28.740  -7.438 -25.142  1.00  0.00     0.123 A 
BRANCH  28  38
ATOM     38  C   UNL     1      26.364  -1.906 -25.534  1.00  0.00     0.025 A 
ATOM     39  C   UNL     1      26.474  -1.074 -24.402  1.00  0.00     0.062 A 
ATOM     40  C   UNL     1      25.589  -1.450 -26.622  1.00  0.00     0.016 A 
ATOM     41  C   UNL     1      26.003   0.256 -24.420  1.00  0.00     0.158 A 
ATOM     42  C   UNL     1      25.084  -0.139 -26.634  1.00  0.00     0.051 A 
ATOM     43  C   UNL     1      25.350   0.734 -25.566  1.00  0.00     0.157 A 
BRANCH  41  44
ATOM     44  O   UNL     1      26.240   1.116 -23.360  1.00  0.00    -0.504 OA
ATOM     45  H   UNL     1      25.685   1.938 -23.196  1.00  0.00     0.293 HD
ENDBRANCH  41  44
BRANCH  43  46
ATOM     46  O   UNL     1      25.049   2.085 -25.669  1.00  0.00    -0.504 OA
ATOM     47  H   UNL     1      25.645   2.766 -25.242  1.00  0.00     0.293 HD
ENDBRANCH  43  46
ENDBRANCH  28  38
BRANCH  34  48
ATOM     48  O   UNL     1      30.598  -6.149 -28.092  1.00  0.00    -0.507 OA
ATOM     49  H   UNL     1      30.600  -6.911 -28.760  1.00  0.00     0.293 HD
ENDBRANCH  34  48
BRANCH  37  50
ATOM     50  O   UNL     1      28.638  -8.604 -24.393  1.00  0.00    -0.508 OA
ATOM     51  H   UNL     1      29.436  -9.231 -24.276  1.00  0.00     0.293 HD
ENDBRANCH  37  50
ENDBRANCH  26  27
ENDBRANCH   5  26
BRANCH   4  52
ATOM     52  O   UNL     1      30.282   1.824 -26.403  1.00  0.00    -0.384 OA
ATOM     53  H   UNL     1      31.077   2.391 -26.439  1.00  0.00     0.211 HD
ENDBRANCH   4  52
TORSDOF 16
ENDMDL
MODEL 3
REMARK VINA RESULT:    -5.983      2.190      4.922
REMARK INTER + INTRA:         -12.759
REMARK INTER:                 -10.010
REMARK INTRA:                  -2.749
REMARK UNBOUND:                -2.928
REMARK SMILES C[C@@H]1O[C@H](OC[C@@H]2O[C@H](Oc3c(-c4ccc(O)c(O)c4)oc4cc(O)cc(O)c4c3=O)[C@@H](O)[C@@H](O)[C@H]2O)[C@H](O)[C@@H](O)[C@H]1O
REMARK SMILES IDX 7 1 36 2 34 3 32 4 9 5 8 6 6 7 5 8 4 9 1 10 2 11 42 12 3 13
REMARK SMILES IDX 40 14 38 15 43 16 41 18 39 20 37 22 35 24 10 26 11 27 12 28
REMARK SMILES IDX 30 29 21 30 29 31 31 32 22 33 27 34 23 35 26 36 24 37 13 38
REMARK SMILES IDX 20 39 14 40 18 41 15 42 16 43 19 44 17 46 28 48 25 50 33 52
REMARK H PARENT 43 17 41 19 39 21 37 23 35 25 19 45 17 47 28 49 25 51 33 53
REMARK Flexibility Score: inf
ROOT
ATOM      1  C   UNL     1      27.737  -4.522 -25.702  1.00  0.00     0.180 C 
ATOM      2  C   UNL     1      27.653  -6.082 -25.693  1.00  0.00     0.177 C 
ATOM      3  C   UNL     1      29.040  -6.744 -25.820  1.00  0.00     0.180 C 
ATOM      4  C   UNL     1      30.110  -5.900 -25.125  1.00  0.00     0.214 C 
ATOM      5  C   UNL     1      30.053  -4.373 -25.561  1.00  0.00     0.339 C 
ATOM      6  O   UNL     1      28.918  -4.113 -26.371  1.00  0.00    -0.332 OA
ENDROOT
BRANCH   1   7
ATOM      7  C   UNL     1      26.507  -3.891 -26.391  1.00  0.00     0.198 C 
BRANCH   7   8
ATOM      8  O   UNL     1      26.513  -2.470 -26.309  1.00  0.00    -0.347 OA
BRANCH   8   9
ATOM      9  C   UNL     1      25.732  -1.996 -25.213  1.00  0.00     0.281 C 
ATOM     10  C   UNL     1      28.659  -0.979 -24.852  1.00  0.00     0.041 C 
ATOM     11  C   UNL     1      27.386  -0.772 -23.998  1.00  0.00     0.150 C 
ATOM     12  C   UNL     1      26.682   0.572 -24.266  1.00  0.00     0.174 C 
ATOM     13  O   UNL     1      26.511  -1.891 -24.027  1.00  0.00    -0.344 OA
ATOM     14  C   UNL     1      25.948   0.510 -25.608  1.00  0.00     0.179 C 
ATOM     15  C   UNL     1      24.993  -0.680 -25.584  1.00  0.00     0.202 C 
BRANCH  12  16
ATOM     16  O   UNL     1      25.792   0.842 -23.203  1.00  0.00    -0.388 OA
ATOM     17  H   UNL     1      26.339   1.222 -22.475  1.00  0.00     0.211 HD
ENDBRANCH  12  16
BRANCH  14  18
ATOM     18  O   UNL     1      25.235   1.705 -25.812  1.00  0.00    -0.387 OA
ATOM     19  H   UNL     1      24.283   1.464 -26.011  1.00  0.00     0.211 HD
ENDBRANCH  14  18
BRANCH  15  20
ATOM     20  O   UNL     1      24.397  -0.827 -26.839  1.00  0.00    -0.385 OA
ATOM     21  H   UNL     1      23.542  -1.328 -26.720  1.00  0.00     0.211 HD
ENDBRANCH  15  20
ENDBRANCH   8   9
ENDBRANCH   7   8
ENDBRANCH   1   7
BRANCH   2  22
ATOM     22  O   UNL     1      26.982  -6.563 -24.558  1.00  0.00    -0.387 OA
ATOM     23  H   UNL     1      26.078  -6.850 -24.831  1.00  0.00     0.211 HD
ENDBRANCH   2  22
BRANCH   3  24
ATOM     24  O   UNL     1      29.030  -8.057 -25.272  1.00  0.00    -0.387 OA
ATOM     25  H   UNL     1      28.115  -8.221 -24.947  1.00  0.00     0.211 HD
ENDBRANCH   3  24
BRANCH   5  26
ATOM     26  O   UNL     1      31.256  -4.026 -26.264  1.00  0.00    -0.454 OA
BRANCH  26  27
ATOM     27  C   UNL     1      31.843  -2.752 -26.180  1.00  0.00     0.214 A 
ATOM     28  C   UNL     1      32.641  -2.428 -25.064  1.00  0.00     0.180 A 
ATOM     29  C   UNL     1      31.564  -1.727 -27.110  1.00  0.00     0.239 A 
ATOM     30  O   UNL     1      32.837  -1.155 -24.743  1.00  0.00    -0.452 OA
ATOM     31  C   UNL     1      31.864  -0.384 -26.776  1.00  0.00     0.111 A 
ATOM     32  O   UNL     1      31.097  -2.015 -28.241  1.00  0.00    -0.285 OA
ATOM     33  C   UNL     1      32.454  -0.134 -25.509  1.00  0.00     0.146 A 
ATOM     34  C   UNL     1      31.579   0.715 -27.643  1.00  0.00     0.134 A 
ATOM     35  C   UNL     1      32.648   1.167 -25.065  1.00  0.00     0.094 A 
ATOM     36  C   UNL     1      31.793   2.021 -27.186  1.00  0.00     0.093 A 
ATOM     37  C   UNL     1      32.296   2.256 -25.888  1.00  0.00     0.123 A 
BRANCH  28  38
ATOM     38  C   UNL     1      33.323  -3.461 -24.257  1.00  0.00     0.025 A 
ATOM     39  C   UNL     1      32.892  -3.675 -22.932  1.00  0.00     0.062 A 
ATOM     40  C   UNL     1      33.977  -4.520 -24.923  1.00  0.00     0.016 A 
ATOM     41  C   UNL     1      32.921  -4.959 -22.350  1.00  0.00     0.158 A 
ATOM     42  C   UNL     1      34.044  -5.794 -24.336  1.00  0.00     0.051 A 
ATOM     43  C   UNL     1      33.456  -6.030 -23.081  1.00  0.00     0.157 A 
BRANCH  41  44
ATOM     44  O   UNL     1      32.365  -5.196 -21.103  1.00  0.00    -0.504 OA
ATOM     45  H   UNL     1      32.531  -4.596 -20.315  1.00  0.00     0.293 HD
ENDBRANCH  41  44
BRANCH  43  46
ATOM     46  O   UNL     1      33.322  -7.324 -22.599  1.00  0.00    -0.504 OA
ATOM     47  H   UNL     1      32.515  -7.580 -22.066  1.00  0.00     0.293 HD
ENDBRANCH  43  46
ENDBRANCH  28  38
BRANCH  34  48
ATOM     48  O   UNL     1      31.133   0.497 -28.949  1.00  0.00    -0.507 OA
ATOM     49  H   UNL     1      31.789   0.315 -29.701  1.00  0.00     0.293 HD
ENDBRANCH  34  48
BRANCH  37  50
ATOM     50  O   UNL     1      32.444   3.555 -25.417  1.00  0.00    -0.508 OA
ATOM     51  H   UNL     1      32.616   3.745 -24.428  1.00  0.00     0.293 HD
ENDBRANCH  37  50
ENDBRANCH  26  27
ENDBRANCH   5  26
BRANCH   4  52
ATOM     52  O   UNL     1      30.019  -6.058 -23.729  1.00  0.00    -0.384 OA
ATOM     53  H   UNL     1      29.093  -6.084 -23.419  1.00  0.00     0.211 HD
ENDBRANCH   4  52
TORSDOF 16
ENDMDL
MODEL 4
REMARK VINA RESULT:    -5.931      2.339      6.975
REMARK INTER + INTRA:         -12.674
REMARK INTER:                  -9.697
REMARK INTRA:                  -2.977
REMARK UNBOUND:                -2.928
REMARK SMILES C[C@@H]1O[C@H](OC[C@@H]2O[C@H](Oc3c(-c4ccc(O)c(O)c4)oc4cc(O)cc(O)c4c3=O)[C@@H](O)[C@@H](O)[C@H]2O)[C@H](O)[C@@H](O)[C@H]1O
REMARK SMILES IDX 7 1 36 2 34 3 32 4 9 5 8 6 6 7 5 8 4 9 1 10 2 11 42 12 3 13
REMARK SMILES IDX 40 14 38 15 43 16 41 18 39 20 37 22 35 24 10 26 11 27 12 28
REMARK SMILES IDX 30 29 21 30 29 31 31 32 22 33 27 34 23 35 26 36 24 37 13 38
REMARK SMILES IDX 20 39 14 40 18 41 15 42 16 43 19 44 17 46 28 48 25 50 33 52
REMARK H PARENT 43 17 41 19 39 21 37 23 35 25 19 45 17 47 28 49 25 51 33 53
REMARK Flexibility Score: inf
ROOT
ATOM      1  C   UNL     1      31.846  -2.026 -24.497  1.00  0.00     0.180 C 
ATOM      2  C   UNL     1      31.979  -0.750 -25.388  1.00  0.00     0.177 C 
ATOM      3  C   UNL     1      30.608  -0.220 -25.859  1.00  0.00     0.180 C 
ATOM      4  C   UNL     1      29.538  -0.464 -24.795  1.00  0.00     0.214 C 
ATOM      5  C   UNL     1      29.534  -1.966 -24.273  1.00  0.00     0.339 C 
ATOM      6  O   UNL     1      30.632  -2.693 -24.797  1.00  0.00    -0.332 OA
ENDROOT
BRANCH   1   7
ATOM      7  C   UNL     1      33.033  -2.992 -24.710  1.00  0.00     0.198 C 
BRANCH   7   8
ATOM      8  O   UNL     1      32.603  -4.321 -24.988  1.00  0.00    -0.347 OA
BRANCH   8   9
ATOM      9  C   UNL     1      33.610  -5.283 -24.678  1.00  0.00     0.281 C 
ATOM     10  C   UNL     1      31.424  -5.390 -22.454  1.00  0.00     0.041 C 
ATOM     11  C   UNL     1      32.727  -6.199 -22.655  1.00  0.00     0.150 C 
ATOM     12  C   UNL     1      32.496  -7.578 -23.303  1.00  0.00     0.174 C 
ATOM     13  O   UNL     1      33.760  -5.443 -23.272  1.00  0.00    -0.344 OA
ATOM     14  C   UNL     1      32.203  -7.402 -24.796  1.00  0.00     0.179 C 
ATOM     15  C   UNL     1      33.351  -6.620 -25.427  1.00  0.00     0.202 C 
BRANCH  12  16
ATOM     16  O   UNL     1      33.640  -8.379 -23.093  1.00  0.00    -0.388 OA
ATOM     17  H   UNL     1      34.338  -7.777 -22.742  1.00  0.00     0.211 HD
ENDBRANCH  12  16
BRANCH  14  18
ATOM     18  O   UNL     1      32.078  -8.664 -25.404  1.00  0.00    -0.387 OA
ATOM     19  H   UNL     1      32.851  -8.780 -26.032  1.00  0.00     0.211 HD
ENDBRANCH  14  18
BRANCH  15  20
ATOM     20  O   UNL     1      33.052  -6.346 -26.764  1.00  0.00    -0.385 OA
ATOM     21  H   UNL     1      32.349  -6.990 -27.063  1.00  0.00     0.211 HD
ENDBRANCH  15  20
ENDBRANCH   8   9
ENDBRANCH   7   8
ENDBRANCH   1   7
BRANCH   2  22
ATOM     22  O   UNL     1      32.701   0.266 -24.743  1.00  0.00    -0.387 OA
ATOM     23  H   UNL     1      32.624   0.129 -23.768  1.00  0.00     0.211 HD
ENDBRANCH   2  22
BRANCH   3  24
ATOM     24  O   UNL     1      30.677   1.167 -26.167  1.00  0.00    -0.387 OA
ATOM     25  H   UNL     1      30.240   1.643 -25.423  1.00  0.00     0.211 HD
ENDBRANCH   3  24
BRANCH   5  26
ATOM     26  O   UNL     1      28.298  -2.599 -24.637  1.00  0.00    -0.454 OA
BRANCH  26  27
ATOM     27  C   UNL     1      27.311  -1.954 -25.401  1.00  0.00     0.214 A 
ATOM     28  C   UNL     1      27.296  -2.123 -26.801  1.00  0.00     0.180 A 
ATOM     29  C   UNL     1      26.400  -1.033 -24.840  1.00  0.00     0.239 A 
ATOM     30  O   UNL     1      26.690  -1.223 -27.565  1.00  0.00    -0.452 OA
ATOM     31  C   UNL     1      25.700  -0.142 -25.689  1.00  0.00     0.111 A 
ATOM     32  O   UNL     1      26.181  -1.040 -23.602  1.00  0.00    -0.285 OA
ATOM     33  C   UNL     1      25.942  -0.231 -27.085  1.00  0.00     0.146 A 
ATOM     34  C   UNL     1      24.790   0.845 -25.200  1.00  0.00     0.134 A 
ATOM     35  C   UNL     1      25.394   0.699 -27.958  1.00  0.00     0.094 A 
ATOM     36  C   UNL     1      24.235   1.769 -26.094  1.00  0.00     0.093 A 
ATOM     37  C   UNL     1      24.557   1.722 -27.468  1.00  0.00     0.123 A 
BRANCH  28  38
ATOM     38  C   UNL     1      27.891  -3.306 -27.458  1.00  0.00     0.025 A 
ATOM     39  C   UNL     1      29.267  -3.287 -27.762  1.00  0.00     0.062 A 
ATOM     40  C   UNL     1      27.262  -4.559 -27.296  1.00  0.00     0.016 A 
ATOM     41  C   UNL     1      30.046  -4.462 -27.707  1.00  0.00     0.158 A 
ATOM     42  C   UNL     1      28.024  -5.739 -27.277  1.00  0.00     0.051 A 
ATOM     43  C   UNL     1      29.422  -5.684 -27.413  1.00  0.00     0.157 A 
BRANCH  41  44
ATOM     44  O   UNL     1      31.422  -4.420 -27.864  1.00  0.00    -0.504 OA
ATOM     45  H   UNL     1      31.923  -5.088 -28.422  1.00  0.00     0.293 HD
ENDBRANCH  41  44
BRANCH  43  46
ATOM     46  O   UNL     1      30.197  -6.809 -27.174  1.00  0.00    -0.504 OA
ATOM     47  H   UNL     1      30.966  -7.026 -27.775  1.00  0.00     0.293 HD
ENDBRANCH  43  46
ENDBRANCH  28  38
BRANCH  34  48
ATOM     48  O   UNL     1      24.420   0.870 -23.853  1.00  0.00    -0.507 OA
ATOM     49  H   UNL     1      24.932   1.430 -23.181  1.00  0.00     0.293 HD
ENDBRANCH  34  48
BRANCH  37  50
ATOM     50  O   UNL     1      24.054   2.681 -28.339  1.00  0.00    -0.508 OA
ATOM     51  H   UNL     1      24.458   2.820 -29.267  1.00  0.00     0.293 HD
ENDBRANCH  37  50
ENDBRANCH  26  27
ENDBRANCH   5  26
BRANCH   4  52
ATOM     52  O   UNL     1      29.680   0.462 -23.745  1.00  0.00    -0.384 OA
ATOM     53  H   UNL     1      28.951   1.113 -23.723  1.00  0.00     0.211 HD
ENDBRANCH   4  52
TORSDOF 16
ENDMDL
MODEL 5
REMARK VINA RESULT:    -5.922      1.541      5.949
REMARK INTER + INTRA:         -12.659
REMARK INTER:                  -9.802
REMARK INTRA:                  -2.857
REMARK UNBOUND:                -2.928
REMARK SMILES C[C@@H]1O[C@H](OC[C@@H]2O[C@H](Oc3c(-c4ccc(O)c(O)c4)oc4cc(O)cc(O)c4c3=O)[C@@H](O)[C@@H](O)[C@H]2O)[C@H](O)[C@@H](O)[C@H]1O
REMARK SMILES IDX 7 1 36 2 34 3 32 4 9 5 8 6 6 7 5 8 4 9 1 10 2 11 42 12 3 13
REMARK SMILES IDX 40 14 38 15 43 16 41 18 39 20 37 22 35 24 10 26 11 27 12 28
REMARK SMILES IDX 30 29 21 30 29 31 31 32 22 33 27 34 23 35 26 36 24 37 13 38
REMARK SMILES IDX 20 39 14 40 18 41 15 42 16 43 19 44 17 46 28 48 25 50 33 52
REMARK H PARENT 43 17 41 19 39 21 37 23 35 25 19 45 17 47 28 49 25 51 33 53
REMARK Flexibility Score: inf
ROOT
ATOM      1  C   UNL     1      33.163  -4.232 -23.813  1.00  0.00     0.180 C 
ATOM      2  C   UNL     1      32.746  -5.011 -22.524  1.00  0.00     0.177 C 
ATOM      3  C   UNL     1      32.123  -6.385 -22.847  1.00  0.00     0.180 C 
ATOM      4  C   UNL     1      32.767  -6.993 -24.094  1.00  0.00     0.214 C 
ATOM      5  C   UNL     1      32.809  -5.973 -25.312  1.00  0.00     0.339 C 
ATOM      6  O   UNL     1      32.387  -4.680 -24.912  1.00  0.00    -0.332 OA
ENDROOT
BRANCH   1   7
ATOM      7  C   UNL     1      32.981  -2.708 -23.638  1.00  0.00     0.198 C 
BRANCH   7   8
ATOM      8  O   UNL     1      31.946  -2.191 -24.468  1.00  0.00    -0.347 OA
BRANCH   8   9
ATOM      9  C   UNL     1      31.474  -0.927 -24.005  1.00  0.00     0.281 C 
ATOM     10  C   UNL     1      32.999  -0.488 -26.691  1.00  0.00     0.041 C 
ATOM     11  C   UNL     1      32.270   0.500 -25.750  1.00  0.00     0.150 C 
ATOM     12  C   UNL     1      30.840   0.841 -26.212  1.00  0.00     0.174 C 
ATOM     13  O   UNL     1      32.354   0.126 -24.381  1.00  0.00    -0.344 OA
ATOM     14  C   UNL     1      29.911  -0.343 -25.928  1.00  0.00     0.179 C 
ATOM     15  C   UNL     1      30.003  -0.687 -24.445  1.00  0.00     0.202 C 
BRANCH  12  16
ATOM     16  O   UNL     1      30.409   2.007 -25.541  1.00  0.00    -0.388 OA
ATOM     17  H   UNL     1      30.033   1.706 -24.680  1.00  0.00     0.211 HD
ENDBRANCH  12  16
BRANCH  14  18
ATOM     18  O   UNL     1      28.591   0.001 -26.271  1.00  0.00    -0.387 OA
ATOM     19  H   UNL     1      28.115  -0.839 -26.541  1.00  0.00     0.211 HD
ENDBRANCH  14  18
BRANCH  15  20
ATOM     20  O   UNL     1      29.253  -1.837 -24.184  1.00  0.00    -0.385 OA
ATOM     21  H   UNL     1      29.877  -2.551 -23.872  1.00  0.00     0.211 HD
ENDBRANCH  15  20
ENDBRANCH   8   9
ENDBRANCH   7   8
ENDBRANCH   1   7
BRANCH   2  22
ATOM     22  O   UNL     1      33.820  -5.157 -21.631  1.00  0.00    -0.387 OA
ATOM     23  H   UNL     1      34.650  -4.902 -22.101  1.00  0.00     0.211 HD
ENDBRANCH   2  22
BRANCH   3  24
ATOM     24  O   UNL     1      32.262  -7.278 -21.748  1.00  0.00    -0.387 OA
ATOM     25  H   UNL     1      32.698  -8.090 -22.096  1.00  0.00     0.211 HD
ENDBRANCH   3  24
BRANCH   5  26
ATOM     26  O   UNL     1      31.978  -6.460 -26.377  1.00  0.00    -0.454 OA
BRANCH  26  27
ATOM     27  C   UNL     1      30.762  -5.850 -26.729  1.00  0.00     0.214 A 
ATOM     28  C   UNL     1      30.749  -4.854 -27.728  1.00  0.00     0.180 A 
ATOM     29  C   UNL     1      29.559  -6.101 -26.034  1.00  0.00     0.239 A 
ATOM     30  O   UNL     1      29.749  -3.983 -27.773  1.00  0.00    -0.452 OA
ATOM     31  C   UNL     1      28.476  -5.200 -26.169  1.00  0.00     0.111 A 
ATOM     32  O   UNL     1      29.441  -7.142 -25.339  1.00  0.00    -0.285 OA
ATOM     33  C   UNL     1      28.652  -4.079 -27.023  1.00  0.00     0.146 A 
ATOM     34  C   UNL     1      27.240  -5.359 -25.471  1.00  0.00     0.134 A 
ATOM     35  C   UNL     1      27.682  -3.087 -27.096  1.00  0.00     0.094 A 
ATOM     36  C   UNL     1      26.267  -4.357 -25.564  1.00  0.00     0.093 A 
ATOM     37  C   UNL     1      26.493  -3.204 -26.348  1.00  0.00     0.123 A 
BRANCH  28  38
ATOM     38  C   UNL     1      31.789  -4.773 -28.773  1.00  0.00     0.025 A 
ATOM     39  C   UNL     1      31.631  -5.543 -29.943  1.00  0.00     0.062 A 
ATOM     40  C   UNL     1      32.591  -3.613 -28.843  1.00  0.00     0.016 A 
ATOM     41  C   UNL     1      32.082  -5.075 -31.196  1.00  0.00     0.158 A 
ATOM     42  C   UNL     1      33.076  -3.159 -30.081  1.00  0.00     0.051 A 
ATOM     43  C   UNL     1      32.764  -3.851 -31.263  1.00  0.00     0.157 A 
BRANCH  41  44
ATOM     44  O   UNL     1      31.799  -5.763 -32.364  1.00  0.00    -0.504 OA
ATOM     45  H   UNL     1      31.012  -5.539 -32.947  1.00  0.00     0.293 HD
ENDBRANCH  41  44
BRANCH  43  46
ATOM     46  O   UNL     1      33.047  -3.292 -32.501  1.00  0.00    -0.504 OA
ATOM     47  H   UNL     1      32.537  -2.492 -32.819  1.00  0.00     0.293 HD
ENDBRANCH  43  46
ENDBRANCH  28  38
BRANCH  34  48
ATOM     48  O   UNL     1      26.979  -6.519 -24.737  1.00  0.00    -0.507 OA
ATOM     49  H   UNL     1      27.525  -6.749 -23.914  1.00  0.00     0.293 HD
ENDBRANCH  34  48
BRANCH  37  50
ATOM     50  O   UNL     1      25.550  -2.184 -26.383  1.00  0.00    -0.508 OA
ATOM     51  H   UNL     1      25.647  -1.351 -25.800  1.00  0.00     0.293 HD
ENDBRANCH  37  50
ENDBRANCH  26  27
ENDBRANCH   5  26
BRANCH   4  52
ATOM     52  O   UNL     1      34.042  -7.500 -23.782  1.00  0.00    -0.384 OA
ATOM     53  H   UNL     1      34.270  -8.285 -24.317  1.00  0.00     0.211 HD
ENDBRANCH   4  52
TORSDOF 16
ENDMDL
MODEL 6
REMARK VINA RESULT:    -5.841      2.258      7.303
REMARK INTER + INTRA:         -12.525
REMARK INTER:                 -10.197
REMARK INTRA:                  -2.328
REMARK UNBOUND:                -2.928
REMARK SMILES C[C@@H]1O[C@H](OC[C@@H]2O[C@H](Oc3c(-c4ccc(O)c(O)c4)oc4cc(O)cc(O)c4c3=O)[C@@H](O)[C@@H](O)[C@H]2O)[C@H](O)[C@@H](O)[C@H]1O
REMARK SMILES IDX 7 1 36 2 34 3 32 4 9 5 8 6 6 7 5 8 4 9 1 10 2 11 42 12 3 13
REMARK SMILES IDX 40 14 38 15 43 16 41 18 39 20 37 22 35 24 10 26 11 27 12 28
REMARK SMILES IDX 30 29 21 30 29 31 31 32 22 33 27 34 23 35 26 36 24 37 13 38
REMARK SMILES IDX 20 39 14 40 18 41 15 42 16 43 19 44 17 46 28 48 25 50 33 52
REMARK H PARENT 43 17 41 19 39 21 37 23 35 25 19 45 17 47 28 49 25 51 33 53
REMARK Flexibility Score: inf
ROOT
ATOM      1  C   UNL     1      28.934  -4.421 -26.538  1.00  0.00     0.180 C 
ATOM      2  C   UNL     1      27.801  -5.414 -26.124  1.00  0.00     0.177 C 
ATOM      3  C   UNL     1      26.746  -4.752 -25.213  1.00  0.00     0.180 C 
ATOM      4  C   UNL     1      26.559  -3.279 -25.581  1.00  0.00     0.214 C 
ATOM      5  C   UNL     1      27.940  -2.500 -25.685  1.00  0.00     0.339 C 
ATOM      6  O   UNL     1      29.039  -3.389 -25.571  1.00  0.00    -0.332 OA
ENDROOT
BRANCH   1   7
ATOM      7  C   UNL     1      30.294  -5.139 -26.677  1.00  0.00     0.198 C 
BRANCH   7   8
ATOM      8  O   UNL     1      30.528  -6.060 -25.617  1.00  0.00    -0.347 OA
BRANCH   8   9
ATOM      9  C   UNL     1      31.905  -6.107 -25.246  1.00  0.00     0.281 C 
ATOM     10  C   UNL     1      30.291  -4.863 -22.885  1.00  0.00     0.041 C 
ATOM     11  C   UNL     1      31.798  -5.172 -23.050  1.00  0.00     0.150 C 
ATOM     12  C   UNL     1      32.223  -6.500 -22.393  1.00  0.00     0.174 C 
ATOM     13  O   UNL     1      32.251  -5.026 -24.389  1.00  0.00    -0.344 OA
ATOM     14  C   UNL     1      31.739  -7.675 -23.247  1.00  0.00     0.179 C 
ATOM     15  C   UNL     1      32.277  -7.499 -24.664  1.00  0.00     0.202 C 
BRANCH  12  16
ATOM     16  O   UNL     1      33.629  -6.510 -22.252  1.00  0.00    -0.388 OA
ATOM     17  H   UNL     1      33.851  -5.755 -21.656  1.00  0.00     0.211 HD
ENDBRANCH  12  16
BRANCH  14  18
ATOM     18  O   UNL     1      32.202  -8.882 -22.694  1.00  0.00    -0.387 OA
ATOM     19  H   UNL     1      32.687  -8.664 -21.844  1.00  0.00     0.211 HD
ENDBRANCH  14  18
BRANCH  15  20
ATOM     20  O   UNL     1      31.754  -8.497 -25.490  1.00  0.00    -0.385 OA
ATOM     21  H   UNL     1      32.430  -8.704 -26.195  1.00  0.00     0.211 HD
ENDBRANCH  15  20
ENDBRANCH   8   9
ENDBRANCH   7   8
ENDBRANCH   1   7
BRANCH   2  22
ATOM     22  O   UNL     1      27.185  -5.999 -27.242  1.00  0.00    -0.387 OA
ATOM     23  H   UNL     1      27.704  -5.754 -28.045  1.00  0.00     0.211 HD
ENDBRANCH   2  22
BRANCH   3  24
ATOM     24  O   UNL     1      25.501  -5.433 -25.297  1.00  0.00    -0.387 OA
ATOM     25  H   UNL     1      24.826  -4.839 -24.893  1.00  0.00     0.211 HD
ENDBRANCH   3  24
BRANCH   5  26
ATOM     26  O   UNL     1      28.005  -1.496 -24.661  1.00  0.00    -0.454 OA
BRANCH  26  27
ATOM     27  C   UNL     1      28.707  -0.289 -24.826  1.00  0.00     0.214 A 
ATOM     28  C   UNL     1      28.023   0.854 -25.286  1.00  0.00     0.180 A 
ATOM     29  C   UNL     1      30.108  -0.200 -24.672  1.00  0.00     0.239 A 
ATOM     30  O   UNL     1      28.702   1.843 -25.854  1.00  0.00    -0.452 OA
ATOM     31  C   UNL     1      30.798   0.911 -25.212  1.00  0.00     0.111 A 
ATOM     32  O   UNL     1      30.725  -1.080 -24.019  1.00  0.00    -0.285 OA
ATOM     33  C   UNL     1      30.033   1.904 -25.879  1.00  0.00     0.146 A 
ATOM     34  C   UNL     1      32.217   1.059 -25.133  1.00  0.00     0.134 A 
ATOM     35  C   UNL     1      30.659   2.948 -26.547  1.00  0.00     0.094 A 
ATOM     36  C   UNL     1      32.833   2.124 -25.801  1.00  0.00     0.093 A 
ATOM     37  C   UNL     1      32.065   3.053 -26.536  1.00  0.00     0.123 A 
BRANCH  28  38
ATOM     38  C   UNL     1      26.565   1.023 -25.112  1.00  0.00     0.025 A 
ATOM     39  C   UNL     1      25.699   0.365 -26.008  1.00  0.00     0.062 A 
ATOM     40  C   UNL     1      26.070   1.362 -23.835  1.00  0.00     0.016 A 
ATOM     41  C   UNL     1      24.445  -0.127 -25.587  1.00  0.00     0.158 A 
ATOM     42  C   UNL     1      24.807   0.908 -23.419  1.00  0.00     0.051 A 
ATOM     43  C   UNL     1      24.026   0.106 -24.269  1.00  0.00     0.157 A 
BRANCH  41  44
ATOM     44  O   UNL     1      23.658  -0.899 -26.427  1.00  0.00    -0.504 OA
ATOM     45  H   UNL     1      22.716  -0.646 -26.668  1.00  0.00     0.293 HD
ENDBRANCH  41  44
BRANCH  43  46
ATOM     46  O   UNL     1      22.888  -0.527 -23.790  1.00  0.00    -0.504 OA
ATOM     47  H   UNL     1      22.367  -0.123 -23.038  1.00  0.00     0.293 HD
ENDBRANCH  43  46
ENDBRANCH  28  38
BRANCH  34  48
ATOM     48  O   UNL     1      32.984   0.180 -24.365  1.00  0.00    -0.507 OA
ATOM     49  H   UNL     1      32.970  -0.818 -24.544  1.00  0.00     0.293 HD
ENDBRANCH  34  48
BRANCH  37  50
ATOM     50  O   UNL     1      32.688   4.070 -27.250  1.00  0.00    -0.508 OA
ATOM     51  H   UNL     1      33.266   4.770 -26.783  1.00  0.00     0.293 HD
ENDBRANCH  37  50
ENDBRANCH  26  27
ENDBRANCH   5  26
BRANCH   4  52
ATOM     52  O   UNL     1      25.798  -3.169 -26.760  1.00  0.00    -0.384 OA
ATOM     53  H   UNL     1      26.018  -3.864 -27.410  1.00  0.00     0.211 HD
ENDBRANCH   4  52
TORSDOF 16
ENDMDL
MODEL 7
REMARK VINA RESULT:    -5.831      2.746      7.273
REMARK INTER + INTRA:         -12.509
REMARK INTER:                  -9.717
REMARK INTRA:                  -2.793
REMARK UNBOUND:                -2.928
REMARK SMILES C[C@@H]1O[C@H](OC[C@@H]2O[C@H](Oc3c(-c4ccc(O)c(O)c4)oc4cc(O)cc(O)c4c3=O)[C@@H](O)[C@@H](O)[C@H]2O)[C@H](O)[C@@H](O)[C@H]1O
REMARK SMILES IDX 7 1 36 2 34 3 32 4 9 5 8 6 6 7 5 8 4 9 1 10 2 11 42 12 3 13
REMARK SMILES IDX 40 14 38 15 43 16 41 18 39 20 37 22 35 24 10 26 11 27 12 28
REMARK SMILES IDX 30 29 21 30 29 31 31 32 22 33 27 34 23 35 26 36 24 37 13 38
REMARK SMILES IDX 20 39 14 40 18 41 15 42 16 43 19 44 17 46 28 48 25 50 33 52
REMARK H PARENT 43 17 41 19 39 21 37 23 35 25 19 45 17 47 28 49 25 51 33 53
REMARK Flexibility Score: inf
ROOT
ATOM      1  C   UNL     1      29.679  -4.043 -26.625  1.00  0.00     0.180 C 
ATOM      2  C   UNL     1      28.849  -5.353 -26.433  1.00  0.00     0.177 C 
ATOM      3  C   UNL     1      27.641  -5.148 -25.495  1.00  0.00     0.180 C 
ATOM      4  C   UNL     1      27.070  -3.737 -25.646  1.00  0.00     0.214 C 
ATOM      5  C   UNL     1      28.192  -2.616 -25.550  1.00  0.00     0.339 C 
ATOM      6  O   UNL     1      29.488  -3.190 -25.509  1.00  0.00    -0.332 OA
ENDROOT
BRANCH   1   7
ATOM      7  C   UNL     1      31.184  -4.346 -26.792  1.00  0.00     0.198 C 
BRANCH   7   8
ATOM      8  O   UNL     1      31.636  -5.348 -25.888  1.00  0.00    -0.347 OA
BRANCH   8   9
ATOM      9  C   UNL     1      32.831  -4.958 -25.213  1.00  0.00     0.281 C 
ATOM     10  C   UNL     1      30.526  -5.134 -23.118  1.00  0.00     0.041 C 
ATOM     11  C   UNL     1      32.025  -4.778 -22.970  1.00  0.00     0.150 C 
ATOM     12  C   UNL     1      32.889  -5.961 -22.495  1.00  0.00     0.174 C 
ATOM     13  O   UNL     1      32.549  -4.107 -24.108  1.00  0.00    -0.344 OA
ATOM     14  C   UNL     1      33.087  -6.950 -23.648  1.00  0.00     0.179 C 
ATOM     15  C   UNL     1      33.686  -6.199 -24.833  1.00  0.00     0.202 C 
BRANCH  12  16
ATOM     16  O   UNL     1      34.125  -5.464 -22.024  1.00  0.00    -0.388 OA
ATOM     17  H   UNL     1      34.303  -5.931 -21.173  1.00  0.00     0.211 HD
ENDBRANCH  12  16
BRANCH  14  18
ATOM     18  O   UNL     1      33.947  -7.985 -23.238  1.00  0.00    -0.387 OA
ATOM     19  H   UNL     1      34.217  -8.500 -24.055  1.00  0.00     0.211 HD
ENDBRANCH  14  18
BRANCH  15  20
ATOM     20  O   UNL     1      33.768  -7.055 -25.935  1.00  0.00    -0.385 OA
ATOM     21  H   UNL     1      32.897  -7.535 -26.022  1.00  0.00     0.211 HD
ENDBRANCH  15  20
ENDBRANCH   8   9
ENDBRANCH   7   8
ENDBRANCH   1   7
BRANCH   2  22
ATOM     22  O   UNL     1      28.430  -5.891 -27.661  1.00  0.00    -0.387 OA
ATOM     23  H   UNL     1      27.444  -5.916 -27.667  1.00  0.00     0.211 HD
ENDBRANCH   2  22
BRANCH   3  24
ATOM     24  O   UNL     1      26.626  -6.111 -25.754  1.00  0.00    -0.387 OA
ATOM     25  H   UNL     1      27.017  -6.993 -25.556  1.00  0.00     0.211 HD
ENDBRANCH   3  24
BRANCH   5  26
ATOM     26  O   UNL     1      27.968  -1.809 -24.384  1.00  0.00    -0.454 OA
BRANCH  26  27
ATOM     27  C   UNL     1      27.361  -0.543 -24.444  1.00  0.00     0.214 A 
ATOM     28  C   UNL     1      28.163   0.615 -24.370  1.00  0.00     0.180 A 
ATOM     29  C   UNL     1      25.959  -0.374 -24.446  1.00  0.00     0.239 A 
ATOM     30  O   UNL     1      27.621   1.766 -23.991  1.00  0.00    -0.452 OA
ATOM     31  C   UNL     1      25.410   0.890 -24.123  1.00  0.00     0.111 A 
ATOM     32  O   UNL     1      25.212  -1.328 -24.779  1.00  0.00    -0.285 OA
ATOM     33  C   UNL     1      26.312   1.946 -23.822  1.00  0.00     0.146 A 
ATOM     34  C   UNL     1      24.004   1.136 -24.065  1.00  0.00     0.134 A 
ATOM     35  C   UNL     1      25.840   3.170 -23.367  1.00  0.00     0.094 A 
ATOM     36  C   UNL     1      23.544   2.379 -23.616  1.00  0.00     0.093 A 
ATOM     37  C   UNL     1      24.454   3.389 -23.235  1.00  0.00     0.123 A 
BRANCH  28  38
ATOM     38  C   UNL     1      29.589   0.611 -24.755  1.00  0.00     0.025 A 
ATOM     39  C   UNL     1      30.545   0.222 -23.795  1.00  0.00     0.062 A 
ATOM     40  C   UNL     1      29.923   0.477 -26.120  1.00  0.00     0.016 A 
ATOM     41  C   UNL     1      31.717  -0.471 -24.166  1.00  0.00     0.158 A 
ATOM     42  C   UNL     1      31.106  -0.179 -26.500  1.00  0.00     0.051 A 
ATOM     43  C   UNL     1      31.967  -0.714 -25.525  1.00  0.00     0.157 A 
BRANCH  41  44
ATOM     44  O   UNL     1      32.583  -0.981 -23.212  1.00  0.00    -0.504 OA
ATOM     45  H   UNL     1      32.269  -1.550 -22.446  1.00  0.00     0.293 HD
ENDBRANCH  41  44
BRANCH  43  46
ATOM     46  O   UNL     1      33.011  -1.549 -25.891  1.00  0.00    -0.504 OA
ATOM     47  H   UNL     1      32.828  -2.497 -26.155  1.00  0.00     0.293 HD
ENDBRANCH  43  46
ENDBRANCH  28  38
BRANCH  34  48
ATOM     48  O   UNL     1      23.093   0.167 -24.491  1.00  0.00    -0.507 OA
ATOM     49  H   UNL     1      23.269  -0.820 -24.334  1.00  0.00     0.293 HD
ENDBRANCH  34  48
BRANCH  37  50
ATOM     50  O   UNL     1      23.990   4.598 -22.729  1.00  0.00    -0.508 OA
ATOM     51  H   UNL     1      24.357   5.490 -23.065  1.00  0.00     0.293 HD
ENDBRANCH  37  50
ENDBRANCH  26  27
ENDBRANCH   5  26
BRANCH   4  52
ATOM     52  O   UNL     1      26.325  -3.642 -26.837  1.00  0.00    -0.384 OA
ATOM     53  H   UNL     1      26.869  -3.342 -27.592  1.00  0.00     0.211 HD
ENDBRANCH   4  52
TORSDOF 16
ENDMDL
MODEL 8
REMARK VINA RESULT:    -5.817      1.674      5.860
REMARK INTER + INTRA:         -12.487
REMARK INTER:                  -9.994
REMARK INTRA:                  -2.493
REMARK UNBOUND:                -2.928
REMARK SMILES C[C@@H]1O[C@H](OC[C@@H]2O[C@H](Oc3c(-c4ccc(O)c(O)c4)oc4cc(O)cc(O)c4c3=O)[C@@H](O)[C@@H](O)[C@H]2O)[C@H](O)[C@@H](O)[C@H]1O
REMARK SMILES IDX 7 1 36 2 34 3 32 4 9 5 8 6 6 7 5 8 4 9 1 10 2 11 42 12 3 13
REMARK SMILES IDX 40 14 38 15 43 16 41 18 39 20 37 22 35 24 10 26 11 27 12 28
REMARK SMILES IDX 30 29 21 30 29 31 31 32 22 33 27 34 23 35 26 36 24 37 13 38
REMARK SMILES IDX 20 39 14 40 18 41 15 42 16 43 19 44 17 46 28 48 25 50 33 52
REMARK H PARENT 43 17 41 19 39 21 37 23 35 25 19 45 17 47 28 49 25 51 33 53
REMARK Flexibility Score: inf
ROOT
ATOM      1  C   UNL     1      31.765  -2.263 -24.796  1.00  0.00     0.180 C 
ATOM      2  C   UNL     1      32.198  -0.763 -24.861  1.00  0.00     0.177 C 
ATOM      3  C   UNL     1      31.288   0.068 -25.790  1.00  0.00     0.180 C 
ATOM      4  C   UNL     1      29.850  -0.450 -25.746  1.00  0.00     0.214 C 
ATOM      5  C   UNL     1      29.766  -2.023 -25.957  1.00  0.00     0.339 C 
ATOM      6  O   UNL     1      31.058  -2.607 -25.976  1.00  0.00    -0.332 OA
ENDROOT
BRANCH   1   7
ATOM      7  C   UNL     1      32.985  -3.198 -24.633  1.00  0.00     0.198 C 
BRANCH   7   8
ATOM      8  O   UNL     1      32.712  -4.522 -25.080  1.00  0.00    -0.347 OA
BRANCH   8   9
ATOM      9  C   UNL     1      33.429  -5.497 -24.325  1.00  0.00     0.281 C 
ATOM     10  C   UNL     1      30.502  -5.379 -23.256  1.00  0.00     0.041 C 
ATOM     11  C   UNL     1      31.713  -6.247 -22.841  1.00  0.00     0.150 C 
ATOM     12  C   UNL     1      31.698  -7.655 -23.465  1.00  0.00     0.174 C 
ATOM     13  O   UNL     1      32.955  -5.571 -22.986  1.00  0.00    -0.344 OA
ATOM     14  C   UNL     1      32.082  -7.567 -24.945  1.00  0.00     0.179 C 
ATOM     15  C   UNL     1      33.435  -6.870 -25.054  1.00  0.00     0.202 C 
BRANCH  12  16
ATOM     16  O   UNL     1      32.592  -8.483 -22.748  1.00  0.00    -0.388 OA
ATOM     17  H   UNL     1      32.032  -9.104 -22.225  1.00  0.00     0.211 HD
ENDBRANCH  12  16
BRANCH  14  18
ATOM     18  O   UNL     1      32.153  -8.861 -25.492  1.00  0.00    -0.387 OA
ATOM     19  H   UNL     1      32.348  -9.500 -24.744  1.00  0.00     0.211 HD
ENDBRANCH  14  18
BRANCH  15  20
ATOM     20  O   UNL     1      33.753  -6.674 -26.400  1.00  0.00    -0.385 OA
ATOM     21  H   UNL     1      33.617  -5.709 -26.615  1.00  0.00     0.211 HD
ENDBRANCH  15  20
ENDBRANCH   8   9
ENDBRANCH   7   8
ENDBRANCH   1   7
BRANCH   2  22
ATOM     22  O   UNL     1      32.259  -0.181 -23.586  1.00  0.00    -0.387 OA
ATOM     23  H   UNL     1      31.800   0.692 -23.621  1.00  0.00     0.211 HD
ENDBRANCH   2  22
BRANCH   3  24
ATOM     24  O   UNL     1      31.316   1.445 -25.432  1.00  0.00    -0.387 OA
ATOM     25  H   UNL     1      32.220   1.627 -25.085  1.00  0.00     0.211 HD
ENDBRANCH   3  24
BRANCH   5  26
ATOM     26  O   UNL     1      29.074  -2.310 -27.182  1.00  0.00    -0.454 OA
BRANCH  26  27
ATOM     27  C   UNL     1      29.674  -3.000 -28.249  1.00  0.00     0.214 A 
ATOM     28  C   UNL     1      29.407  -4.373 -28.424  1.00  0.00     0.180 A 
ATOM     29  C   UNL     1      30.641  -2.405 -29.088  1.00  0.00     0.239 A 
ATOM     30  O   UNL     1      30.257  -5.125 -29.112  1.00  0.00    -0.452 OA
ATOM     31  C   UNL     1      31.477  -3.229 -29.879  1.00  0.00     0.111 A 
ATOM     32  O   UNL     1      30.723  -1.153 -29.163  1.00  0.00    -0.285 OA
ATOM     33  C   UNL     1      31.288  -4.634 -29.798  1.00  0.00     0.146 A 
ATOM     34  C   UNL     1      32.505  -2.710 -30.724  1.00  0.00     0.134 A 
ATOM     35  C   UNL     1      32.160  -5.502 -30.442  1.00  0.00     0.094 A 
ATOM     36  C   UNL     1      33.369  -3.598 -31.377  1.00  0.00     0.093 A 
ATOM     37  C   UNL     1      33.223  -4.993 -31.215  1.00  0.00     0.123 A 
BRANCH  28  38
ATOM     38  C   UNL     1      28.176  -5.008 -27.911  1.00  0.00     0.025 A 
ATOM     39  C   UNL     1      28.252  -5.767 -26.725  1.00  0.00     0.062 A 
ATOM     40  C   UNL     1      26.928  -4.453 -28.267  1.00  0.00     0.016 A 
ATOM     41  C   UNL     1      27.179  -5.807 -25.810  1.00  0.00     0.158 A 
ATOM     42  C   UNL     1      25.841  -4.520 -27.378  1.00  0.00     0.051 A 
ATOM     43  C   UNL     1      25.987  -5.136 -26.123  1.00  0.00     0.157 A 
BRANCH  41  44
ATOM     44  O   UNL     1      27.306  -6.433 -24.581  1.00  0.00    -0.504 OA
ATOM     45  H   UNL     1      27.799  -7.300 -24.464  1.00  0.00     0.293 HD
ENDBRANCH  41  44
BRANCH  43  46
ATOM     46  O   UNL     1      24.998  -5.011 -25.159  1.00  0.00    -0.504 OA
ATOM     47  H   UNL     1      24.944  -5.669 -24.407  1.00  0.00     0.293 HD
ENDBRANCH  43  46
ENDBRANCH  28  38
BRANCH  34  48
ATOM     48  O   UNL     1      32.627  -1.335 -30.937  1.00  0.00    -0.507 OA
ATOM     49  H   UNL     1      31.994  -0.680 -30.493  1.00  0.00     0.293 HD
ENDBRANCH  34  48
BRANCH  37  50
ATOM     50  O   UNL     1      34.124  -5.867 -31.813  1.00  0.00    -0.508 OA
ATOM     51  H   UNL     1      34.437  -6.714 -31.337  1.00  0.00     0.293 HD
ENDBRANCH  37  50
ENDBRANCH  26  27
ENDBRANCH   5  26
BRANCH   4  52
ATOM     52  O   UNL     1      29.225  -0.041 -24.553  1.00  0.00    -0.384 OA
ATOM     53  H   UNL     1      29.490  -0.589 -23.788  1.00  0.00     0.211 HD
ENDBRANCH   4  52
TORSDOF 16
ENDMDL
MODEL 9
REMARK VINA RESULT:    -5.793      1.538      6.057
REMARK INTER + INTRA:         -12.446
REMARK INTER:                  -9.862
REMARK INTRA:                  -2.584
REMARK UNBOUND:                -2.928
REMARK SMILES C[C@@H]1O[C@H](OC[C@@H]2O[C@H](Oc3c(-c4ccc(O)c(O)c4)oc4cc(O)cc(O)c4c3=O)[C@@H](O)[C@@H](O)[C@H]2O)[C@H](O)[C@@H](O)[C@H]1O
REMARK SMILES IDX 7 1 36 2 34 3 32 4 9 5 8 6 6 7 5 8 4 9 1 10 2 11 42 12 3 13
REMARK SMILES IDX 40 14 38 15 43 16 41 18 39 20 37 22 35 24 10 26 11 27 12 28
REMARK SMILES IDX 30 29 21 30 29 31 31 32 22 33 27 34 23 35 26 36 24 37 13 38
REMARK SMILES IDX 20 39 14 40 18 41 15 42 16 43 19 44 17 46 28 48 25 50 33 52
REMARK H PARENT 43 17 41 19 39 21 37 23 35 25 19 45 17 47 28 49 25 51 33 53
REMARK Flexibility Score: inf
ROOT
ATOM      1  C   UNL     1      31.506  -0.401 -27.611  1.00  0.00     0.180 C 
ATOM      2  C   UNL     1      31.116   1.092 -27.367  1.00  0.00     0.177 C 
ATOM      3  C   UNL     1      30.983   1.424 -25.866  1.00  0.00     0.180 C 
ATOM      4  C   UNL     1      31.980   0.611 -25.040  1.00  0.00     0.214 C 
ATOM      5  C   UNL     1      31.935  -0.939 -25.391  1.00  0.00     0.339 C 
ATOM      6  O   UNL     1      31.094  -1.188 -26.505  1.00  0.00    -0.332 OA
ENDROOT
BRANCH   1   7
ATOM      7  C   UNL     1      30.863  -0.951 -28.904  1.00  0.00     0.198 C 
BRANCH   7   8
ATOM      8  O   UNL     1      31.524  -2.118 -29.380  1.00  0.00    -0.347 OA
BRANCH   8   9
ATOM      9  C   UNL     1      30.623  -3.013 -30.031  1.00  0.00     0.281 C 
ATOM     10  C   UNL     1      33.540  -3.969 -30.589  1.00  0.00     0.041 C 
ATOM     11  C   UNL     1      32.169  -4.545 -31.019  1.00  0.00     0.150 C 
ATOM     12  C   UNL     1      31.688  -5.706 -30.128  1.00  0.00     0.174 C 
ATOM     13  O   UNL     1      31.187  -3.539 -31.227  1.00  0.00    -0.344 OA
ATOM     14  C   UNL     1      31.201  -5.156 -28.784  1.00  0.00     0.179 C 
ATOM     15  C   UNL     1      30.123  -4.110 -29.051  1.00  0.00     0.202 C 
BRANCH  12  16
ATOM     16  O   UNL     1      30.662  -6.405 -30.802  1.00  0.00    -0.388 OA
ATOM     17  H   UNL     1      30.830  -6.278 -31.766  1.00  0.00     0.211 HD
ENDBRANCH  12  16
BRANCH  14  18
ATOM     18  O   UNL     1      30.682  -6.206 -28.005  1.00  0.00    -0.387 OA
ATOM     19  H   UNL     1      30.064  -6.742 -28.586  1.00  0.00     0.211 HD
ENDBRANCH  14  18
BRANCH  15  20
ATOM     20  O   UNL     1      29.744  -3.511 -27.846  1.00  0.00    -0.385 OA
ATOM     21  H   UNL     1      29.258  -4.190 -27.300  1.00  0.00     0.211 HD
ENDBRANCH  15  20
ENDBRANCH   8   9
ENDBRANCH   7   8
ENDBRANCH   1   7
BRANCH   2  22
ATOM     22  O   UNL     1      32.014   1.975 -27.987  1.00  0.00    -0.387 OA
ATOM     23  H   UNL     1      31.684   2.164 -28.898  1.00  0.00     0.211 HD
ENDBRANCH   2  22
BRANCH   3  24
ATOM     24  O   UNL     1      31.182   2.813 -25.632  1.00  0.00    -0.387 OA
ATOM     25  H   UNL     1      30.927   3.279 -26.463  1.00  0.00     0.211 HD
ENDBRANCH   3  24
BRANCH   5  26
ATOM     26  O   UNL     1      31.478  -1.679 -24.248  1.00  0.00    -0.454 OA
BRANCH  26  27
ATOM     27  C   UNL     1      30.371  -2.543 -24.298  1.00  0.00     0.214 A 
ATOM     28  C   UNL     1      30.578  -3.927 -24.464  1.00  0.00     0.180 A 
ATOM     29  C   UNL     1      29.041  -2.069 -24.316  1.00  0.00     0.239 A 
ATOM     30  O   UNL     1      29.599  -4.686 -24.940  1.00  0.00    -0.452 OA
ATOM     31  C   UNL     1      28.002  -2.929 -24.747  1.00  0.00     0.111 A 
ATOM     32  O   UNL     1      28.781  -0.909 -23.909  1.00  0.00    -0.285 OA
ATOM     33  C   UNL     1      28.354  -4.251 -25.130  1.00  0.00     0.146 A 
ATOM     34  C   UNL     1      26.637  -2.518 -24.832  1.00  0.00     0.134 A 
ATOM     35  C   UNL     1      27.408  -5.100 -25.688  1.00  0.00     0.094 A 
ATOM     36  C   UNL     1      25.691  -3.390 -25.385  1.00  0.00     0.093 A 
ATOM     37  C   UNL     1      26.075  -4.669 -25.845  1.00  0.00     0.123 A 
BRANCH  28  38
ATOM     38  C   UNL     1      31.841  -4.587 -24.073  1.00  0.00     0.025 A 
ATOM     39  C   UNL     1      31.972  -5.066 -22.754  1.00  0.00     0.062 A 
ATOM     40  C   UNL     1      32.635  -5.181 -25.079  1.00  0.00     0.016 A 
ATOM     41  C   UNL     1      32.713  -6.232 -22.467  1.00  0.00     0.158 A 
ATOM     42  C   UNL     1      33.405  -6.321 -24.795  1.00  0.00     0.051 A 
ATOM     43  C   UNL     1      33.389  -6.886 -23.508  1.00  0.00     0.157 A 
BRANCH  41  44
ATOM     44  O   UNL     1      32.722  -6.782 -21.196  1.00  0.00    -0.504 OA
ATOM     45  H   UNL     1      33.338  -7.532 -20.936  1.00  0.00     0.293 HD
ENDBRANCH  41  44
BRANCH  43  46
ATOM     46  O   UNL     1      33.963  -8.128 -23.278  1.00  0.00    -0.504 OA
ATOM     47  H   UNL     1      34.121  -8.757 -24.039  1.00  0.00     0.293 HD
ENDBRANCH  43  46
ENDBRANCH  28  38
BRANCH  34  48
ATOM     48  O   UNL     1      26.233  -1.278 -24.331  1.00  0.00    -0.507 OA
ATOM     49  H   UNL     1      26.691  -0.866 -23.526  1.00  0.00     0.293 HD
ENDBRANCH  34  48
BRANCH  37  50
ATOM     50  O   UNL     1      25.145  -5.504 -26.452  1.00  0.00    -0.508 OA
ATOM     51  H   UNL     1      24.830  -5.341 -27.410  1.00  0.00     0.293 HD
ENDBRANCH  37  50
ENDBRANCH  26  27
ENDBRANCH   5  26
BRANCH   4  52
ATOM     52  O   UNL     1      33.274   1.148 -25.177  1.00  0.00    -0.384 OA
ATOM     53  H   UNL     1      33.703   0.875 -26.011  1.00  0.00     0.211 HD
ENDBRANCH   4  52
TORSDOF 16
ENDMDL
