MODEL 1
REMARK VINA RESULT:    -4.215      0.000      0.000
REMARK INTER + INTRA:         -14.122
REMARK INTER:                  -9.636
REMARK INTRA:                  -4.486
REMARK UNBOUND:                -4.486
REMARK SMILES CCCCCCCCCCCCCCCCCCCCCCCC(=O)[O-]
REMARK SMILES IDX 13 1 14 2 15 3 16 4 17 5 18 6 19 7 20 8 21 9 22 10 23 11
REMARK SMILES IDX 24 12 25 13 26 14 12 15 11 16 10 17 9 18 8 19 7 20 6 21 5 22
REMARK SMILES IDX 4 23 3 24 2 25 1 26
REMARK H PARENT
REMARK Flexibility Score: inf
ROOT
ATOM      1  C   UNL     1      49.796  -3.293  72.047  1.00  0.00     0.000 C 
ENDROOT
BRANCH   1   2
ATOM      2  C   UNL     1      49.955  -1.765  71.883  1.00  0.00     0.000 C 
BRANCH   2   3
ATOM      3  C   UNL     1      48.619  -1.011  71.954  1.00  0.00     0.000 C 
BRANCH   3   4
ATOM      4  C   UNL     1      48.613   0.074  73.043  1.00  0.00     0.000 C 
BRANCH   4   5
ATOM      5  C   UNL     1      49.309  -0.374  74.335  1.00  0.00     0.000 C 
BRANCH   5   6
ATOM      6  C   UNL     1      48.338  -1.166  75.220  1.00  0.00     0.000 C 
BRANCH   6   7
ATOM      7  C   UNL     1      49.044  -2.348  75.902  1.00  0.00     0.000 C 
BRANCH   7   8
ATOM      8  C   UNL     1      50.565  -2.320  75.682  1.00  0.00     0.000 C 
BRANCH   8   9
ATOM      9  C   UNL     1      51.162  -3.730  75.539  1.00  0.00     0.000 C 
BRANCH   9  10
ATOM     10  C   UNL     1      52.231  -3.806  74.435  1.00  0.00     0.006 C 
BRANCH  10  11
ATOM     11  C   UNL     1      52.766  -2.419  74.047  1.00  0.00     0.053 C 
BRANCH  11  12
ATOM     12  C   UNL     1      53.561  -2.490  72.782  1.00  0.00     0.041 C 
ATOM     13  O   UNL     1      54.219  -3.528  72.509  1.00  0.00    -0.550 OA
ATOM     14  O   UNL     1      53.587  -1.406  71.909  1.00  0.00    -0.550 OA
ENDBRANCH  11  12
ENDBRANCH  10  11
ENDBRANCH   9  10
ENDBRANCH   8   9
ENDBRANCH   7   8
ENDBRANCH   6   7
ENDBRANCH   5   6
ENDBRANCH   4   5
ENDBRANCH   3   4
ENDBRANCH   2   3
ENDBRANCH   1   2
BRANCH   1  15
ATOM     15  C   UNL     1      48.428  -3.733  72.623  1.00  0.00     0.000 C 
BRANCH  15  16
ATOM     16  C   UNL     1      48.272  -5.259  72.769  1.00  0.00     0.000 C 
BRANCH  16  17
ATOM     17  C   UNL     1      48.477  -5.732  74.219  1.00  0.00     0.000 C 
BRANCH  17  18
ATOM     18  C   UNL     1      47.211  -5.551  75.080  1.00  0.00    -0.000 C 
BRANCH  18  19
ATOM     19  C   UNL     1      47.465  -5.624  76.602  1.00  0.00    -0.000 C 
BRANCH  19  20
ATOM     20  C   UNL     1      48.688  -6.468  77.020  1.00  0.00    -0.000 C 
BRANCH  20  21
ATOM     21  C   UNL     1      49.127  -6.304  78.489  1.00  0.00    -0.000 C 
BRANCH  21  22
ATOM     22  C   UNL     1      50.051  -5.098  78.765  1.00  0.00    -0.000 C 
BRANCH  22  23
ATOM     23  C   UNL     1      49.331  -3.824  79.257  1.00  0.00    -0.000 C 
BRANCH  23  24
ATOM     24  C   UNL     1      50.304  -2.737  79.748  1.00  0.00    -0.000 C 
BRANCH  24  25
ATOM     25  C   UNL     1      51.746  -2.990  79.277  1.00  0.00    -0.003 C 
ATOM     26  C   UNL     1      52.748  -3.054  80.431  1.00  0.00     0.004 C 
ENDBRANCH  24  25
ENDBRANCH  23  24
ENDBRANCH  22  23
ENDBRANCH  21  22
ENDBRANCH  20  21
ENDBRANCH  19  20
ENDBRANCH  18  19
ENDBRANCH  17  18
ENDBRANCH  16  17
ENDBRANCH  15  16
ENDBRANCH   1  15
TORSDOF 22
ENDMDL
MODEL 2
REMARK VINA RESULT:    -3.893      2.485      6.228
REMARK INTER + INTRA:         -13.386
REMARK INTER:                 -10.197
REMARK INTRA:                  -3.188
REMARK UNBOUND:                -4.486
REMARK SMILES CCCCCCCCCCCCCCCCCCCCCCCC(=O)[O-]
REMARK SMILES IDX 13 1 14 2 15 3 16 4 17 5 18 6 19 7 20 8 21 9 22 10 23 11
REMARK SMILES IDX 24 12 25 13 26 14 12 15 11 16 10 17 9 18 8 19 7 20 6 21 5 22
REMARK SMILES IDX 4 23 3 24 2 25 1 26
REMARK H PARENT
REMARK Flexibility Score: inf
ROOT
ATOM      1  C   UNL     1      48.490  -4.940  72.789  1.00  0.00     0.000 C 
ENDROOT
BRANCH   1   2
ATOM      2  C   UNL     1      47.182  -5.623  72.333  1.00  0.00     0.000 C 
BRANCH   2   3
ATOM      3  C   UNL     1      46.510  -6.441  73.446  1.00  0.00     0.000 C 
BRANCH   3   4
ATOM      4  C   UNL     1      46.188  -5.592  74.687  1.00  0.00     0.000 C 
BRANCH   4   5
ATOM      5  C   UNL     1      46.891  -6.099  75.953  1.00  0.00     0.000 C 
BRANCH   5   6
ATOM      6  C   UNL     1      46.472  -7.543  76.257  1.00  0.00     0.000 C 
BRANCH   6   7
ATOM      7  C   UNL     1      47.145  -8.060  77.538  1.00  0.00     0.000 C 
BRANCH   7   8
ATOM      8  C   UNL     1      47.856  -6.938  78.312  1.00  0.00     0.000 C 
BRANCH   8   9
ATOM      9  C   UNL     1      49.334  -7.264  78.589  1.00  0.00     0.000 C 
BRANCH   9  10
ATOM     10  C   UNL     1      50.224  -6.009  78.580  1.00  0.00     0.006 C 
BRANCH  10  11
ATOM     11  C   UNL     1      49.449  -4.743  78.978  1.00  0.00     0.053 C 
BRANCH  11  12
ATOM     12  C   UNL     1      50.383  -3.598  79.208  1.00  0.00     0.041 C 
ATOM     13  O   UNL     1      49.935  -2.491  79.608  1.00  0.00    -0.550 OA
ATOM     14  O   UNL     1      51.746  -3.747  78.970  1.00  0.00    -0.550 OA
ENDBRANCH  11  12
ENDBRANCH  10  11
ENDBRANCH   9  10
ENDBRANCH   8   9
ENDBRANCH   7   8
ENDBRANCH   6   7
ENDBRANCH   5   6
ENDBRANCH   4   5
ENDBRANCH   3   4
ENDBRANCH   2   3
ENDBRANCH   1   2
BRANCH   1  15
ATOM     15  C   UNL     1      48.521  -3.408  72.563  1.00  0.00     0.000 C 
BRANCH  15  16
ATOM     16  C   UNL     1      49.833  -2.894  71.941  1.00  0.00     0.000 C 
BRANCH  16  17
ATOM     17  C   UNL     1      49.937  -1.359  71.979  1.00  0.00     0.000 C 
BRANCH  17  18
ATOM     18  C   UNL     1      51.168  -0.874  72.770  1.00  0.00    -0.000 C 
BRANCH  18  19
ATOM     19  C   UNL     1      52.407  -0.582  71.894  1.00  0.00    -0.000 C 
BRANCH  19  20
ATOM     20  C   UNL     1      53.548  -1.615  72.011  1.00  0.00    -0.000 C 
BRANCH  20  21
ATOM     21  C   UNL     1      53.577  -2.413  73.330  1.00  0.00    -0.000 C 
BRANCH  21  22
ATOM     22  C   UNL     1      54.266  -3.793  73.245  1.00  0.00    -0.000 C 
BRANCH  22  23
ATOM     23  C   UNL     1      53.559  -4.924  74.023  1.00  0.00    -0.000 C 
BRANCH  23  24
ATOM     24  C   UNL     1      52.026  -4.877  73.888  1.00  0.00    -0.000 C 
BRANCH  24  25
ATOM     25  C   UNL     1      51.324  -4.780  75.253  1.00  0.00    -0.003 C 
ATOM     26  C   UNL     1      50.728  -3.397  75.519  1.00  0.00     0.004 C 
ENDBRANCH  24  25
ENDBRANCH  23  24
ENDBRANCH  22  23
ENDBRANCH  21  22
ENDBRANCH  20  21
ENDBRANCH  19  20
ENDBRANCH  18  19
ENDBRANCH  17  18
ENDBRANCH  16  17
ENDBRANCH  15  16
ENDBRANCH   1  15
TORSDOF 22
ENDMDL
MODEL 3
REMARK VINA RESULT:    -3.881      2.963      5.364
REMARK INTER + INTRA:         -13.359
REMARK INTER:                  -9.315
REMARK INTRA:                  -4.044
REMARK UNBOUND:                -4.486
REMARK SMILES CCCCCCCCCCCCCCCCCCCCCCCC(=O)[O-]
REMARK SMILES IDX 13 1 14 2 15 3 16 4 17 5 18 6 19 7 20 8 21 9 22 10 23 11
REMARK SMILES IDX 24 12 25 13 26 14 12 15 11 16 10 17 9 18 8 19 7 20 6 21 5 22
REMARK SMILES IDX 4 23 3 24 2 25 1 26
REMARK H PARENT
REMARK Flexibility Score: inf
ROOT
ATOM      1  C   UNL     1      52.412  -4.822  73.777  1.00  0.00     0.000 C 
ENDROOT
BRANCH   1   2
ATOM      2  C   UNL     1      53.432  -3.713  73.438  1.00  0.00     0.000 C 
BRANCH   2   3
ATOM      3  C   UNL     1      52.811  -2.308  73.430  1.00  0.00     0.000 C 
BRANCH   3   4
ATOM      4  C   UNL     1      51.931  -2.060  72.193  1.00  0.00     0.000 C 
BRANCH   4   5
ATOM      5  C   UNL     1      50.993  -0.857  72.361  1.00  0.00     0.000 C 
BRANCH   5   6
ATOM      6  C   UNL     1      49.530  -1.295  72.215  1.00  0.00     0.000 C 
BRANCH   6   7
ATOM      7  C   UNL     1      49.104  -2.209  73.374  1.00  0.00     0.000 C 
BRANCH   7   8
ATOM      8  C   UNL     1      48.291  -3.420  72.887  1.00  0.00     0.000 C 
BRANCH   8   9
ATOM      9  C   UNL     1      49.185  -4.611  72.506  1.00  0.00     0.000 C 
BRANCH   9  10
ATOM     10  C   UNL     1      48.428  -5.950  72.540  1.00  0.00     0.006 C 
BRANCH  10  11
ATOM     11  C   UNL     1      48.916  -6.866  73.673  1.00  0.00     0.053 C 
BRANCH  11  12
ATOM     12  C   UNL     1      48.159  -8.154  73.680  1.00  0.00     0.041 C 
ATOM     13  O   UNL     1      48.227  -8.921  74.677  1.00  0.00    -0.550 OA
ATOM     14  O   UNL     1      47.385  -8.518  72.582  1.00  0.00    -0.550 OA
ENDBRANCH  11  12
ENDBRANCH  10  11
ENDBRANCH   9  10
ENDBRANCH   8   9
ENDBRANCH   7   8
ENDBRANCH   6   7
ENDBRANCH   5   6
ENDBRANCH   4   5
ENDBRANCH   3   4
ENDBRANCH   2   3
ENDBRANCH   1   2
BRANCH   1  15
ATOM     15  C   UNL     1      52.177  -5.028  75.294  1.00  0.00     0.000 C 
BRANCH  15  16
ATOM     16  C   UNL     1      50.844  -4.450  75.805  1.00  0.00     0.000 C 
BRANCH  16  17
ATOM     17  C   UNL     1      50.913  -4.040  77.286  1.00  0.00     0.000 C 
BRANCH  17  18
ATOM     18  C   UNL     1      51.436  -5.178  78.186  1.00  0.00    -0.000 C 
BRANCH  18  19
ATOM     19  C   UNL     1      50.358  -6.204  78.598  1.00  0.00    -0.000 C 
BRANCH  19  20
ATOM     20  C   UNL     1      48.938  -5.625  78.776  1.00  0.00    -0.000 C 
BRANCH  20  21
ATOM     21  C   UNL     1      47.787  -6.602  78.461  1.00  0.00    -0.000 C 
BRANCH  21  22
ATOM     22  C   UNL     1      47.185  -6.468  77.045  1.00  0.00    -0.000 C 
BRANCH  22  23
ATOM     23  C   UNL     1      47.361  -5.082  76.390  1.00  0.00    -0.000 C 
BRANCH  23  24
ATOM     24  C   UNL     1      46.148  -4.663  75.540  1.00  0.00    -0.000 C 
BRANCH  24  25
ATOM     25  C   UNL     1      45.141  -5.812  75.355  1.00  0.00    -0.003 C 
ATOM     26  C   UNL     1      44.967  -6.221  73.892  1.00  0.00     0.004 C 
ENDBRANCH  24  25
ENDBRANCH  23  24
ENDBRANCH  22  23
ENDBRANCH  21  22
ENDBRANCH  20  21
ENDBRANCH  19  20
ENDBRANCH  18  19
ENDBRANCH  17  18
ENDBRANCH  16  17
ENDBRANCH  15  16
ENDBRANCH   1  15
TORSDOF 22
ENDMDL
MODEL 4
REMARK VINA RESULT:    -3.879      2.629      4.550
REMARK INTER + INTRA:         -13.353
REMARK INTER:                  -9.856
REMARK INTRA:                  -3.498
REMARK UNBOUND:                -4.486
REMARK SMILES CCCCCCCCCCCCCCCCCCCCCCCC(=O)[O-]
REMARK SMILES IDX 13 1 14 2 15 3 16 4 17 5 18 6 19 7 20 8 21 9 22 10 23 11
REMARK SMILES IDX 24 12 25 13 26 14 12 15 11 16 10 17 9 18 8 19 7 20 6 21 5 22
REMARK SMILES IDX 4 23 3 24 2 25 1 26
REMARK H PARENT
REMARK Flexibility Score: inf
ROOT
ATOM      1  C   UNL     1      48.713  -4.891  74.492  1.00  0.00     0.000 C 
ENDROOT
BRANCH   1   2
ATOM      2  C   UNL     1      48.978  -3.653  75.376  1.00  0.00     0.000 C 
BRANCH   2   3
ATOM      3  C   UNL     1      50.400  -3.622  75.957  1.00  0.00     0.000 C 
BRANCH   3   4
ATOM      4  C   UNL     1      51.356  -2.752  75.126  1.00  0.00     0.000 C 
BRANCH   4   5
ATOM      5  C   UNL     1      52.212  -3.572  74.151  1.00  0.00     0.000 C 
BRANCH   5   6
ATOM      6  C   UNL     1      52.017  -3.070  72.715  1.00  0.00     0.000 C 
BRANCH   6   7
ATOM      7  C   UNL     1      52.447  -1.602  72.574  1.00  0.00     0.000 C 
BRANCH   7   8
ATOM      8  C   UNL     1      51.295  -0.703  72.096  1.00  0.00     0.000 C 
BRANCH   8   9
ATOM      9  C   UNL     1      50.020  -1.504  71.781  1.00  0.00     0.000 C 
BRANCH   9  10
ATOM     10  C   UNL     1      48.748  -0.819  72.312  1.00  0.00     0.006 C 
BRANCH  10  11
ATOM     11  C   UNL     1      48.947  -0.233  73.718  1.00  0.00     0.053 C 
BRANCH  11  12
ATOM     12  C   UNL     1      48.300   1.110  73.831  1.00  0.00     0.041 C 
ATOM     13  O   UNL     1      48.995   2.155  73.728  1.00  0.00    -0.550 OA
ATOM     14  O   UNL     1      46.931   1.211  74.061  1.00  0.00    -0.550 OA
ENDBRANCH  11  12
ENDBRANCH  10  11
ENDBRANCH   9  10
ENDBRANCH   8   9
ENDBRANCH   7   8
ENDBRANCH   6   7
ENDBRANCH   5   6
ENDBRANCH   4   5
ENDBRANCH   3   4
ENDBRANCH   2   3
ENDBRANCH   1   2
BRANCH   1  15
ATOM     15  C   UNL     1      48.372  -4.560  73.018  1.00  0.00     0.000 C 
BRANCH  15  16
ATOM     16  C   UNL     1      47.230  -5.413  72.433  1.00  0.00     0.000 C 
BRANCH  16  17
ATOM     17  C   UNL     1      46.737  -6.486  73.419  1.00  0.00     0.000 C 
BRANCH  17  18
ATOM     18  C   UNL     1      45.261  -6.283  73.817  1.00  0.00    -0.000 C 
BRANCH  18  19
ATOM     19  C   UNL     1      45.017  -6.245  75.342  1.00  0.00    -0.000 C 
BRANCH  19  20
ATOM     20  C   UNL     1      46.201  -6.731  76.205  1.00  0.00    -0.000 C 
BRANCH  20  21
ATOM     21  C   UNL     1      46.275  -8.256  76.418  1.00  0.00    -0.000 C 
BRANCH  21  22
ATOM     22  C   UNL     1      47.268  -8.717  77.508  1.00  0.00    -0.000 C 
BRANCH  22  23
ATOM     23  C   UNL     1      48.741  -8.332  77.252  1.00  0.00    -0.000 C 
BRANCH  23  24
ATOM     24  C   UNL     1      49.463  -7.845  78.522  1.00  0.00    -0.000 C 
BRANCH  24  25
ATOM     25  C   UNL     1      49.742  -6.333  78.489  1.00  0.00    -0.003 C 
ATOM     26  C   UNL     1      48.528  -5.494  78.890  1.00  0.00     0.004 C 
ENDBRANCH  24  25
ENDBRANCH  23  24
ENDBRANCH  22  23
ENDBRANCH  21  22
ENDBRANCH  20  21
ENDBRANCH  19  20
ENDBRANCH  18  19
ENDBRANCH  17  18
ENDBRANCH  16  17
ENDBRANCH  15  16
ENDBRANCH   1  15
TORSDOF 22
ENDMDL
MODEL 5
REMARK VINA RESULT:    -3.873      2.694      4.944
REMARK INTER + INTRA:         -13.341
REMARK INTER:                  -9.426
REMARK INTRA:                  -3.915
REMARK UNBOUND:                -4.486
REMARK SMILES CCCCCCCCCCCCCCCCCCCCCCCC(=O)[O-]
REMARK SMILES IDX 13 1 14 2 15 3 16 4 17 5 18 6 19 7 20 8 21 9 22 10 23 11
REMARK SMILES IDX 24 12 25 13 26 14 12 15 11 16 10 17 9 18 8 19 7 20 6 21 5 22
REMARK SMILES IDX 4 23 3 24 2 25 1 26
REMARK H PARENT
REMARK Flexibility Score: inf
ROOT
ATOM      1  C   UNL     1      51.262  -0.478  72.298  1.00  0.00     0.000 C 
ENDROOT
BRANCH   1   2
ATOM      2  C   UNL     1      52.691  -1.019  72.079  1.00  0.00     0.000 C 
BRANCH   2   3
ATOM      3  C   UNL     1      53.128  -2.020  73.159  1.00  0.00     0.000 C 
BRANCH   3   4
ATOM      4  C   UNL     1      53.169  -3.466  72.640  1.00  0.00     0.000 C 
BRANCH   4   5
ATOM      5  C   UNL     1      52.438  -4.451  73.564  1.00  0.00     0.000 C 
BRANCH   5   6
ATOM      6  C   UNL     1      51.595  -3.692  74.596  1.00  0.00     0.000 C 
BRANCH   6   7
ATOM      7  C   UNL     1      50.107  -4.054  74.475  1.00  0.00     0.000 C 
BRANCH   7   8
ATOM      8  C   UNL     1      49.774  -4.690  73.115  1.00  0.00     0.000 C 
BRANCH   8   9
ATOM      9  C   UNL     1      48.298  -4.504  72.727  1.00  0.00     0.000 C 
BRANCH   9  10
ATOM     10  C   UNL     1      47.354  -4.597  73.939  1.00  0.00     0.006 C 
BRANCH  10  11
ATOM     11  C   UNL     1      46.537  -5.898  73.940  1.00  0.00     0.053 C 
BRANCH  11  12
ATOM     12  C   UNL     1      47.278  -6.991  74.642  1.00  0.00     0.041 C 
ATOM     13  O   UNL     1      47.292  -8.154  74.161  1.00  0.00    -0.550 OA
ATOM     14  O   UNL     1      47.945  -6.730  75.836  1.00  0.00    -0.550 OA
ENDBRANCH  11  12
ENDBRANCH  10  11
ENDBRANCH   9  10
ENDBRANCH   8   9
ENDBRANCH   7   8
ENDBRANCH   6   7
ENDBRANCH   5   6
ENDBRANCH   4   5
ENDBRANCH   3   4
ENDBRANCH   2   3
ENDBRANCH   1   2
BRANCH   1  15
ATOM     15  C   UNL     1      50.144  -1.370  71.704  1.00  0.00     0.000 C 
BRANCH  15  16
ATOM     16  C   UNL     1      48.718  -0.889  72.030  1.00  0.00     0.000 C 
BRANCH  16  17
ATOM     17  C   UNL     1      48.669  -0.028  73.305  1.00  0.00     0.000 C 
BRANCH  17  18
ATOM     18  C   UNL     1      48.400  -0.869  74.570  1.00  0.00    -0.000 C 
BRANCH  18  19
ATOM     19  C   UNL     1      48.889  -0.212  75.881  1.00  0.00    -0.000 C 
BRANCH  19  20
ATOM     20  C   UNL     1      49.355  -1.200  76.972  1.00  0.00    -0.000 C 
BRANCH  20  21
ATOM     21  C   UNL     1      48.270  -2.165  77.490  1.00  0.00    -0.000 C 
BRANCH  21  22
ATOM     22  C   UNL     1      48.747  -3.612  77.741  1.00  0.00    -0.000 C 
BRANCH  22  23
ATOM     23  C   UNL     1      49.358  -3.865  79.135  1.00  0.00    -0.000 C 
BRANCH  23  24
ATOM     24  C   UNL     1      50.849  -4.247  79.077  1.00  0.00    -0.000 C 
BRANCH  24  25
ATOM     25  C   UNL     1      51.111  -5.424  78.121  1.00  0.00    -0.003 C 
ATOM     26  C   UNL     1      52.413  -6.163  78.431  1.00  0.00     0.004 C 
ENDBRANCH  24  25
ENDBRANCH  23  24
ENDBRANCH  22  23
ENDBRANCH  21  22
ENDBRANCH  20  21
ENDBRANCH  19  20
ENDBRANCH  18  19
ENDBRANCH  17  18
ENDBRANCH  16  17
ENDBRANCH  15  16
ENDBRANCH   1  15
TORSDOF 22
ENDMDL
MODEL 6
REMARK VINA RESULT:    -3.866      2.467      4.219
REMARK INTER + INTRA:         -13.325
REMARK INTER:                  -9.446
REMARK INTRA:                  -3.879
REMARK UNBOUND:                -4.486
REMARK SMILES CCCCCCCCCCCCCCCCCCCCCCCC(=O)[O-]
REMARK SMILES IDX 13 1 14 2 15 3 16 4 17 5 18 6 19 7 20 8 21 9 22 10 23 11
REMARK SMILES IDX 24 12 25 13 26 14 12 15 11 16 10 17 9 18 8 19 7 20 6 21 5 22
REMARK SMILES IDX 4 23 3 24 2 25 1 26
REMARK H PARENT
REMARK Flexibility Score: inf
ROOT
ATOM      1  C   UNL     1      52.254  -2.389  73.401  1.00  0.00     0.000 C 
ENDROOT
BRANCH   1   2
ATOM      2  C   UNL     1      52.351  -1.353  72.259  1.00  0.00     0.000 C 
BRANCH   2   3
ATOM      3  C   UNL     1      51.168  -0.374  72.233  1.00  0.00     0.000 C 
BRANCH   3   4
ATOM      4  C   UNL     1      49.919  -0.978  71.571  1.00  0.00     0.000 C 
BRANCH   4   5
ATOM      5  C   UNL     1      48.735  -1.107  72.539  1.00  0.00     0.000 C 
BRANCH   5   6
ATOM      6  C   UNL     1      48.974  -0.257  73.793  1.00  0.00     0.000 C 
BRANCH   6   7
ATOM      7  C   UNL     1      48.317  -0.890  75.029  1.00  0.00     0.000 C 
BRANCH   7   8
ATOM      8  C   UNL     1      49.188  -1.997  75.646  1.00  0.00     0.000 C 
BRANCH   8   9
ATOM      9  C   UNL     1      49.772  -1.592  77.010  1.00  0.00     0.000 C 
BRANCH   9  10
ATOM     10  C   UNL     1      50.762  -2.634  77.559  1.00  0.00     0.006 C 
BRANCH  10  11
ATOM     11  C   UNL     1      50.819  -2.629  79.094  1.00  0.00     0.053 C 
BRANCH  11  12
ATOM     12  C   UNL     1      52.009  -3.390  79.584  1.00  0.00     0.041 C 
ATOM     13  O   UNL     1      52.255  -4.538  79.128  1.00  0.00    -0.550 OA
ATOM     14  O   UNL     1      52.841  -2.840  80.555  1.00  0.00    -0.550 OA
ENDBRANCH  11  12
ENDBRANCH  10  11
ENDBRANCH   9  10
ENDBRANCH   8   9
ENDBRANCH   7   8
ENDBRANCH   6   7
ENDBRANCH   5   6
ENDBRANCH   4   5
ENDBRANCH   3   4
ENDBRANCH   2   3
ENDBRANCH   1   2
BRANCH   1  15
ATOM     15  C   UNL     1      51.912  -3.825  72.931  1.00  0.00     0.000 C 
BRANCH  15  16
ATOM     16  C   UNL     1      50.592  -4.373  73.503  1.00  0.00     0.000 C 
BRANCH  16  17
ATOM     17  C   UNL     1      49.552  -4.659  72.405  1.00  0.00     0.000 C 
BRANCH  17  18
ATOM     18  C   UNL     1      48.109  -4.652  72.948  1.00  0.00    -0.000 C 
BRANCH  18  19
ATOM     19  C   UNL     1      47.183  -5.705  72.297  1.00  0.00    -0.000 C 
BRANCH  19  20
ATOM     20  C   UNL     1      46.473  -6.651  73.289  1.00  0.00    -0.000 C 
BRANCH  20  21
ATOM     21  C   UNL     1      47.410  -7.493  74.178  1.00  0.00    -0.000 C 
BRANCH  21  22
ATOM     22  C   UNL     1      47.112  -7.422  75.692  1.00  0.00    -0.000 C 
BRANCH  22  23
ATOM     23  C   UNL     1      47.453  -6.073  76.361  1.00  0.00    -0.000 C 
BRANCH  23  24
ATOM     24  C   UNL     1      48.961  -5.896  76.619  1.00  0.00    -0.000 C 
BRANCH  24  25
ATOM     25  C   UNL     1      49.319  -6.043  78.108  1.00  0.00    -0.003 C 
ATOM     26  C   UNL     1      48.317  -5.351  79.032  1.00  0.00     0.004 C 
ENDBRANCH  24  25
ENDBRANCH  23  24
ENDBRANCH  22  23
ENDBRANCH  21  22
ENDBRANCH  20  21
ENDBRANCH  19  20
ENDBRANCH  18  19
ENDBRANCH  17  18
ENDBRANCH  16  17
ENDBRANCH  15  16
ENDBRANCH   1  15
TORSDOF 22
ENDMDL
MODEL 7
REMARK VINA RESULT:    -3.831      1.534      2.686
REMARK INTER + INTRA:         -13.244
REMARK INTER:                  -9.753
REMARK INTRA:                  -3.491
REMARK UNBOUND:                -4.486
REMARK SMILES CCCCCCCCCCCCCCCCCCCCCCCC(=O)[O-]
REMARK SMILES IDX 13 1 14 2 15 3 16 4 17 5 18 6 19 7 20 8 21 9 22 10 23 11
REMARK SMILES IDX 24 12 25 13 26 14 12 15 11 16 10 17 9 18 8 19 7 20 6 21 5 22
REMARK SMILES IDX 4 23 3 24 2 25 1 26
REMARK H PARENT
REMARK Flexibility Score: inf
ROOT
ATOM      1  C   UNL     1      49.212  -4.685  73.364  1.00  0.00     0.000 C 
ENDROOT
BRANCH   1   2
ATOM      2  C   UNL     1      49.243  -3.839  74.656  1.00  0.00     0.000 C 
BRANCH   2   3
ATOM      3  C   UNL     1      47.846  -3.406  75.124  1.00  0.00     0.000 C 
BRANCH   3   4
ATOM      4  C   UNL     1      47.897  -2.242  76.128  1.00  0.00     0.000 C 
BRANCH   4   5
ATOM      5  C   UNL     1      47.704  -0.873  75.462  1.00  0.00     0.000 C 
BRANCH   5   6
ATOM      6  C   UNL     1      49.057  -0.178  75.266  1.00  0.00     0.000 C 
BRANCH   6   7
ATOM      7  C   UNL     1      49.161   0.456  73.870  1.00  0.00     0.000 C 
BRANCH   7   8
ATOM      8  C   UNL     1      48.463  -0.393  72.795  1.00  0.00     0.000 C 
BRANCH   8   9
ATOM      9  C   UNL     1      49.457  -1.244  71.986  1.00  0.00     0.000 C 
BRANCH   9  10
ATOM     10  C   UNL     1      50.922  -0.933  72.339  1.00  0.00     0.006 C 
BRANCH  10  11
ATOM     11  C   UNL     1      51.800  -2.193  72.337  1.00  0.00     0.053 C 
BRANCH  11  12
ATOM     12  C   UNL     1      53.243  -1.836  72.496  1.00  0.00     0.041 C 
ATOM     13  O   UNL     1      53.888  -2.251  73.495  1.00  0.00    -0.550 OA
ATOM     14  O   UNL     1      53.876  -1.036  71.550  1.00  0.00    -0.550 OA
ENDBRANCH  11  12
ENDBRANCH  10  11
ENDBRANCH   9  10
ENDBRANCH   8   9
ENDBRANCH   7   8
ENDBRANCH   6   7
ENDBRANCH   5   6
ENDBRANCH   4   5
ENDBRANCH   3   4
ENDBRANCH   2   3
ENDBRANCH   1   2
BRANCH   1  15
ATOM     15  C   UNL     1      47.857  -4.655  72.615  1.00  0.00     0.000 C 
BRANCH  15  16
ATOM     16  C   UNL     1      47.194  -6.037  72.465  1.00  0.00     0.000 C 
BRANCH  16  17
ATOM     17  C   UNL     1      46.369  -6.428  73.704  1.00  0.00     0.000 C 
BRANCH  17  18
ATOM     18  C   UNL     1      47.194  -7.232  74.728  1.00  0.00    -0.000 C 
BRANCH  18  19
ATOM     19  C   UNL     1      46.913  -6.856  76.201  1.00  0.00    -0.000 C 
BRANCH  19  20
ATOM     20  C   UNL     1      46.919  -8.041  77.190  1.00  0.00    -0.000 C 
BRANCH  20  21
ATOM     21  C   UNL     1      48.074  -8.036  78.212  1.00  0.00    -0.000 C 
BRANCH  21  22
ATOM     22  C   UNL     1      49.325  -7.240  77.781  1.00  0.00    -0.000 C 
BRANCH  22  23
ATOM     23  C   UNL     1      49.760  -6.129  78.760  1.00  0.00    -0.000 C 
BRANCH  23  24
ATOM     24  C   UNL     1      48.994  -4.809  78.548  1.00  0.00    -0.000 C 
BRANCH  24  25
ATOM     25  C   UNL     1      49.762  -3.595  79.098  1.00  0.00    -0.003 C 
ATOM     26  C   UNL     1      48.907  -2.712  80.008  1.00  0.00     0.004 C 
ENDBRANCH  24  25
ENDBRANCH  23  24
ENDBRANCH  22  23
ENDBRANCH  21  22
ENDBRANCH  20  21
ENDBRANCH  19  20
ENDBRANCH  18  19
ENDBRANCH  17  18
ENDBRANCH  16  17
ENDBRANCH  15  16
ENDBRANCH   1  15
TORSDOF 22
ENDMDL
MODEL 8
REMARK VINA RESULT:    -3.830      2.717      4.605
REMARK INTER + INTRA:         -13.242
REMARK INTER:                  -9.698
REMARK INTRA:                  -3.544
REMARK UNBOUND:                -4.486
REMARK SMILES CCCCCCCCCCCCCCCCCCCCCCCC(=O)[O-]
REMARK SMILES IDX 13 1 14 2 15 3 16 4 17 5 18 6 19 7 20 8 21 9 22 10 23 11
REMARK SMILES IDX 24 12 25 13 26 14 12 15 11 16 10 17 9 18 8 19 7 20 6 21 5 22
REMARK SMILES IDX 4 23 3 24 2 25 1 26
REMARK H PARENT
REMARK Flexibility Score: inf
ROOT
ATOM      1  C   UNL     1      49.429  -4.377  74.967  1.00  0.00     0.000 C 
ENDROOT
BRANCH   1   2
ATOM      2  C   UNL     1      50.664  -3.450  74.922  1.00  0.00     0.000 C 
BRANCH   2   3
ATOM      3  C   UNL     1      51.788  -3.989  74.024  1.00  0.00     0.000 C 
BRANCH   3   4
ATOM      4  C   UNL     1      51.870  -3.251  72.678  1.00  0.00     0.000 C 
BRANCH   4   5
ATOM      5  C   UNL     1      52.262  -1.775  72.831  1.00  0.00     0.000 C 
BRANCH   5   6
ATOM      6  C   UNL     1      51.247  -0.875  72.114  1.00  0.00     0.000 C 
BRANCH   6   7
ATOM      7  C   UNL     1      49.975  -1.654  71.746  1.00  0.00     0.000 C 
BRANCH   7   8
ATOM      8  C   UNL     1      48.704  -0.809  71.934  1.00  0.00     0.000 C 
BRANCH   8   9
ATOM      9  C   UNL     1      48.827   0.180  73.106  1.00  0.00     0.000 C 
BRANCH   9  10
ATOM     10  C   UNL     1      48.579  -0.489  74.469  1.00  0.00     0.006 C 
BRANCH  10  11
ATOM     11  C   UNL     1      47.471   0.213  75.268  1.00  0.00     0.053 C 
BRANCH  11  12
ATOM     12  C   UNL     1      46.898  -0.703  76.301  1.00  0.00     0.041 C 
ATOM     13  O   UNL     1      45.704  -0.562  76.677  1.00  0.00    -0.550 OA
ATOM     14  O   UNL     1      47.683  -1.707  76.860  1.00  0.00    -0.550 OA
ENDBRANCH  11  12
ENDBRANCH  10  11
ENDBRANCH   9  10
ENDBRANCH   8   9
ENDBRANCH   7   8
ENDBRANCH   6   7
ENDBRANCH   5   6
ENDBRANCH   4   5
ENDBRANCH   3   4
ENDBRANCH   2   3
ENDBRANCH   1   2
BRANCH   1  15
ATOM     15  C   UNL     1      48.380  -4.094  73.864  1.00  0.00     0.000 C 
BRANCH  15  16
ATOM     16  C   UNL     1      48.496  -5.020  72.638  1.00  0.00     0.000 C 
BRANCH  16  17
ATOM     17  C   UNL     1      47.154  -5.680  72.275  1.00  0.00     0.000 C 
BRANCH  17  18
ATOM     18  C   UNL     1      46.813  -6.864  73.202  1.00  0.00    -0.000 C 
BRANCH  18  19
ATOM     19  C   UNL     1      45.479  -6.705  73.966  1.00  0.00    -0.000 C 
BRANCH  19  20
ATOM     20  C   UNL     1      45.547  -7.028  75.474  1.00  0.00    -0.000 C 
BRANCH  20  21
ATOM     21  C   UNL     1      46.550  -6.179  76.281  1.00  0.00    -0.000 C 
BRANCH  21  22
ATOM     22  C   UNL     1      47.589  -6.988  77.088  1.00  0.00    -0.000 C 
BRANCH  22  23
ATOM     23  C   UNL     1      47.688  -6.614  78.582  1.00  0.00    -0.000 C 
BRANCH  23  24
ATOM     24  C   UNL     1      48.910  -5.733  78.900  1.00  0.00    -0.000 C 
BRANCH  24  25
ATOM     25  C   UNL     1      50.197  -6.262  78.243  1.00  0.00    -0.003 C 
ATOM     26  C   UNL     1      51.418  -5.390  78.537  1.00  0.00     0.004 C 
ENDBRANCH  24  25
ENDBRANCH  23  24
ENDBRANCH  22  23
ENDBRANCH  21  22
ENDBRANCH  20  21
ENDBRANCH  19  20
ENDBRANCH  18  19
ENDBRANCH  17  18
ENDBRANCH  16  17
ENDBRANCH  15  16
ENDBRANCH   1  15
TORSDOF 22
ENDMDL
MODEL 9
REMARK VINA RESULT:    -3.770      2.384      6.171
REMARK INTER + INTRA:         -13.104
REMARK INTER:                  -9.133
REMARK INTRA:                  -3.970
REMARK UNBOUND:                -4.486
REMARK SMILES CCCCCCCCCCCCCCCCCCCCCCCC(=O)[O-]
REMARK SMILES IDX 13 1 14 2 15 3 16 4 17 5 18 6 19 7 20 8 21 9 22 10 23 11
REMARK SMILES IDX 24 12 25 13 26 14 12 15 11 16 10 17 9 18 8 19 7 20 6 21 5 22
REMARK SMILES IDX 4 23 3 24 2 25 1 26
REMARK H PARENT
REMARK Flexibility Score: inf
ROOT
ATOM      1  C   UNL     1      48.320  -5.454  72.467  1.00  0.00     0.000 C 
ENDROOT
BRANCH   1   2
ATOM      2  C   UNL     1      47.122  -6.419  72.326  1.00  0.00     0.000 C 
BRANCH   2   3
ATOM      3  C   UNL     1      47.435  -7.842  72.812  1.00  0.00     0.000 C 
BRANCH   3   4
ATOM      4  C   UNL     1      46.495  -8.298  73.941  1.00  0.00     0.000 C 
BRANCH   4   5
ATOM      5  C   UNL     1      45.737  -7.133  74.591  1.00  0.00     0.000 C 
BRANCH   5   6
ATOM      6  C   UNL     1      46.145  -6.984  76.062  1.00  0.00     0.000 C 
BRANCH   6   7
ATOM      7  C   UNL     1      47.025  -8.158  76.518  1.00  0.00     0.000 C 
BRANCH   7   8
ATOM      8  C   UNL     1      47.934  -7.777  77.698  1.00  0.00     0.000 C 
BRANCH   8   9
ATOM      9  C   UNL     1      47.602  -6.387  78.268  1.00  0.00     0.000 C 
BRANCH   9  10
ATOM     10  C   UNL     1      48.860  -5.611  78.696  1.00  0.00     0.006 C 
BRANCH  10  11
ATOM     11  C   UNL     1      50.143  -6.436  78.512  1.00  0.00     0.053 C 
BRANCH  11  12
ATOM     12  C   UNL     1      51.294  -5.554  78.150  1.00  0.00     0.041 C 
ATOM     13  O   UNL     1      51.311  -4.964  77.037  1.00  0.00    -0.550 OA
ATOM     14  O   UNL     1      52.357  -5.391  79.034  1.00  0.00    -0.550 OA
ENDBRANCH  11  12
ENDBRANCH  10  11
ENDBRANCH   9  10
ENDBRANCH   8   9
ENDBRANCH   7   8
ENDBRANCH   6   7
ENDBRANCH   5   6
ENDBRANCH   4   5
ENDBRANCH   3   4
ENDBRANCH   2   3
ENDBRANCH   1   2
BRANCH   1  15
ATOM     15  C   UNL     1      47.988  -4.128  73.194  1.00  0.00     0.000 C 
BRANCH  15  16
ATOM     16  C   UNL     1      48.403  -4.107  74.678  1.00  0.00     0.000 C 
BRANCH  16  17
ATOM     17  C   UNL     1      47.253  -3.669  75.601  1.00  0.00     0.000 C 
BRANCH  17  18
ATOM     18  C   UNL     1      47.697  -2.610  76.630  1.00  0.00    -0.000 C 
BRANCH  18  19
ATOM     19  C   UNL     1      48.806  -1.661  76.122  1.00  0.00    -0.000 C 
BRANCH  19  20
ATOM     20  C   UNL     1      48.315  -0.495  75.239  1.00  0.00    -0.000 C 
BRANCH  20  21
ATOM     21  C   UNL     1      49.222  -0.153  74.040  1.00  0.00    -0.000 C 
BRANCH  21  22
ATOM     22  C   UNL     1      48.642  -0.519  72.656  1.00  0.00    -0.000 C 
BRANCH  22  23
ATOM     23  C   UNL     1      49.631  -1.216  71.698  1.00  0.00    -0.000 C 
BRANCH  23  24
ATOM     24  C   UNL     1      51.069  -1.259  72.248  1.00  0.00    -0.000 C 
BRANCH  24  25
ATOM     25  C   UNL     1      51.495  -2.680  72.654  1.00  0.00    -0.003 C 
ATOM     26  C   UNL     1      51.863  -2.791  74.134  1.00  0.00     0.004 C 
ENDBRANCH  24  25
ENDBRANCH  23  24
ENDBRANCH  22  23
ENDBRANCH  21  22
ENDBRANCH  20  21
ENDBRANCH  19  20
ENDBRANCH  18  19
ENDBRANCH  17  18
ENDBRANCH  16  17
ENDBRANCH  15  16
ENDBRANCH   1  15
TORSDOF 22
ENDMDL
