MODEL 1
REMARK VINA RESULT:    -6.363      0.000      0.000
REMARK INTER + INTRA:          -6.921
REMARK INTER:                  -6.921
REMARK INTRA:                   0.000
REMARK UNBOUND:                 0.000
REMARK SMILES Cc1cc(O)c2c(c1)C(=O)c1cc(O)cc(O)c1C2=O
REMARK SMILES IDX 1 1 2 2 8 3 7 4 6 5 4 6 3 7 19 8 20 9 18 10 11 11 9 12 10 13
REMARK SMILES IDX 12 14 13 15 15 16 16 17 5 18 17 20 14 22
REMARK H PARENT 5 19 17 21 14 23
REMARK Flexibility Score: inf
ROOT
ATOM      1  C   UNL     1     138.676 135.338 142.379  1.00  0.00     0.044 C 
ATOM      2  C   UNL     1     139.877 136.025 141.797  1.00  0.00    -0.047 A 
ATOM      3  C   UNL     1     139.747 137.282 141.197  1.00  0.00     0.016 A 
ATOM      4  C   UNL     1     140.856 137.914 140.611  1.00  0.00     0.038 A 
ATOM      5  C   UNL     1     142.111 137.267 140.601  1.00  0.00     0.076 A 
ATOM      6  C   UNL     1     142.249 136.014 141.251  1.00  0.00     0.127 A 
ATOM      7  C   UNL     1     141.126 135.395 141.811  1.00  0.00     0.050 A 
ATOM      8  C   UNL     1     143.223 137.900 139.844  1.00  0.00     0.201 C 
ATOM      9  O   UNL     1     144.115 137.182 139.321  1.00  0.00    -0.288 OA
ATOM     10  C   UNL     1     143.176 139.355 139.545  1.00  0.00     0.076 A 
ATOM     11  C   UNL     1     141.919 140.000 139.555  1.00  0.00     0.041 A 
ATOM     12  C   UNL     1     140.715 139.261 140.004  1.00  0.00     0.194 C 
ATOM     13  O   UNL     1     139.573 139.786 139.894  1.00  0.00    -0.289 OA
ATOM     14  C   UNL     1     141.816 141.339 139.144  1.00  0.00     0.059 A 
ATOM     15  C   UNL     1     142.951 142.045 138.740  1.00  0.00     0.120 A 
ATOM     16  C   UNL     1     144.200 141.425 138.767  1.00  0.00     0.093 A 
ATOM     17  C   UNL     1     144.332 140.100 139.191  1.00  0.00     0.131 A 
ENDROOT
BRANCH   6  18
ATOM     18  O   UNL     1     143.478 135.366 141.394  1.00  0.00    -0.507 OA
ATOM     19  H   UNL     1     144.366 135.802 141.187  1.00  0.00     0.293 HD
ENDBRANCH   6  18
BRANCH  17  20
ATOM     20  O   UNL     1     145.624 139.576 139.277  1.00  0.00    -0.507 OA
ATOM     21  H   UNL     1     145.934 138.974 140.027  1.00  0.00     0.293 HD
ENDBRANCH  17  20
BRANCH  15  22
ATOM     22  O   UNL     1     142.851 143.370 138.319  1.00  0.00    -0.508 OA
ATOM     23  H   UNL     1     142.277 144.042 138.815  1.00  0.00     0.293 HD
ENDBRANCH  15  22
TORSDOF 3
ENDMDL
MODEL 2
REMARK VINA RESULT:    -6.333      3.373      5.340
REMARK INTER + INTRA:          -6.888
REMARK INTER:                  -6.888
REMARK INTRA:                   0.000
REMARK UNBOUND:                 0.000
REMARK SMILES Cc1cc(O)c2c(c1)C(=O)c1cc(O)cc(O)c1C2=O
REMARK SMILES IDX 1 1 2 2 8 3 7 4 6 5 4 6 3 7 19 8 20 9 18 10 11 11 9 12 10 13
REMARK SMILES IDX 12 14 13 15 15 16 16 17 5 18 17 20 14 22
REMARK H PARENT 5 19 17 21 14 23
REMARK Flexibility Score: inf
ROOT
ATOM      1  C   UNL     1     142.751 135.375 141.244  1.00  0.00     0.044 C 
ATOM      2  C   UNL     1     141.525 136.172 141.585  1.00  0.00    -0.047 A 
ATOM      3  C   UNL     1     141.549 137.569 141.507  1.00  0.00     0.016 A 
ATOM      4  C   UNL     1     140.421 138.326 141.865  1.00  0.00     0.038 A 
ATOM      5  C   UNL     1     139.259 137.677 142.337  1.00  0.00     0.076 A 
ATOM      6  C   UNL     1     139.224 136.258 142.371  1.00  0.00     0.127 A 
ATOM      7  C   UNL     1     140.365 135.527 142.028  1.00  0.00     0.050 A 
ATOM      8  C   UNL     1     138.142 138.516 142.845  1.00  0.00     0.201 C 
ATOM      9  O   UNL     1     137.389 138.075 143.753  1.00  0.00    -0.288 OA
ATOM     10  C   UNL     1     138.035 139.936 142.421  1.00  0.00     0.076 A 
ATOM     11  C   UNL     1     139.200 140.582 141.950  1.00  0.00     0.041 A 
ATOM     12  C   UNL     1     140.445 139.804 141.749  1.00  0.00     0.194 C 
ATOM     13  O   UNL     1     141.519 140.396 141.453  1.00  0.00    -0.289 OA
ATOM     14  C   UNL     1     139.171 141.959 141.670  1.00  0.00     0.059 A 
ATOM     15  C   UNL     1     137.994 142.692 141.840  1.00  0.00     0.120 A 
ATOM     16  C   UNL     1     136.832 142.050 142.265  1.00  0.00     0.093 A 
ATOM     17  C   UNL     1     136.829 140.677 142.530  1.00  0.00     0.131 A 
ENDROOT
BRANCH   6  18
ATOM     18  O   UNL     1     138.075 135.538 142.707  1.00  0.00    -0.507 OA
ATOM     19  H   UNL     1     137.877 134.610 142.360  1.00  0.00     0.293 HD
ENDBRANCH   6  18
BRANCH  17  20
ATOM     20  O   UNL     1     135.608 140.087 142.865  1.00  0.00    -0.507 OA
ATOM     21  H   UNL     1     134.907 139.828 142.184  1.00  0.00     0.293 HD
ENDBRANCH  17  20
BRANCH  15  22
ATOM     22  O   UNL     1     137.965 144.060 141.575  1.00  0.00    -0.508 OA
ATOM     23  H   UNL     1     137.849 144.741 142.316  1.00  0.00     0.293 HD
ENDBRANCH  15  22
TORSDOF 3
ENDMDL
MODEL 3
REMARK VINA RESULT:    -6.327      3.163      4.632
REMARK INTER + INTRA:          -6.882
REMARK INTER:                  -6.882
REMARK INTRA:                   0.000
REMARK UNBOUND:                 0.000
REMARK SMILES Cc1cc(O)c2c(c1)C(=O)c1cc(O)cc(O)c1C2=O
REMARK SMILES IDX 1 1 2 2 8 3 7 4 6 5 4 6 3 7 19 8 20 9 18 10 11 11 9 12 10 13
REMARK SMILES IDX 12 14 13 15 15 16 16 17 5 18 17 20 14 22
REMARK H PARENT 5 19 17 21 14 23
REMARK Flexibility Score: inf
ROOT
ATOM      1  C   UNL     1     139.747 133.878 143.117  1.00  0.00     0.044 C 
ATOM      2  C   UNL     1     139.817 135.294 142.625  1.00  0.00    -0.047 A 
ATOM      3  C   UNL     1     138.938 136.259 143.127  1.00  0.00     0.016 A 
ATOM      4  C   UNL     1     138.966 137.576 142.642  1.00  0.00     0.038 A 
ATOM      5  C   UNL     1     139.870 137.929 141.615  1.00  0.00     0.076 A 
ATOM      6  C   UNL     1     140.791 136.959 141.141  1.00  0.00     0.127 A 
ATOM      7  C   UNL     1     140.731 135.649 141.626  1.00  0.00     0.050 A 
ATOM      8  C   UNL     1     139.769 139.290 141.026  1.00  0.00     0.201 C 
ATOM      9  O   UNL     1     140.089 139.478 139.823  1.00  0.00    -0.288 OA
ATOM     10  C   UNL     1     139.115 140.379 141.796  1.00  0.00     0.076 A 
ATOM     11  C   UNL     1     138.211 140.023 142.822  1.00  0.00     0.041 A 
ATOM     12  C   UNL     1     138.051 138.600 143.204  1.00  0.00     0.194 C 
ATOM     13  O   UNL     1     137.156 138.263 144.025  1.00  0.00    -0.289 OA
ATOM     14  C   UNL     1     137.470 141.021 143.478  1.00  0.00     0.059 A 
ATOM     15  C   UNL     1     137.631 142.365 143.135  1.00  0.00     0.120 A 
ATOM     16  C   UNL     1     138.552 142.724 142.152  1.00  0.00     0.093 A 
ATOM     17  C   UNL     1     139.316 141.753 141.498  1.00  0.00     0.131 A 
ENDROOT
BRANCH   6  18
ATOM     18  O   UNL     1     141.796 137.258 140.219  1.00  0.00    -0.507 OA
ATOM     19  H   UNL     1     141.673 137.194 139.218  1.00  0.00     0.293 HD
ENDBRANCH   6  18
BRANCH  17  20
ATOM     20  O   UNL     1     140.282 142.195 140.591  1.00  0.00    -0.507 OA
ATOM     21  H   UNL     1     140.959 141.585 140.153  1.00  0.00     0.293 HD
ENDBRANCH  17  20
BRANCH  15  22
ATOM     22  O   UNL     1     136.889 143.355 143.775  1.00  0.00    -0.508 OA
ATOM     23  H   UNL     1     135.899 143.240 143.961  1.00  0.00     0.293 HD
ENDBRANCH  15  22
TORSDOF 3
ENDMDL
MODEL 4
REMARK VINA RESULT:    -6.298      2.833      5.954
REMARK INTER + INTRA:          -6.850
REMARK INTER:                  -6.850
REMARK INTRA:                   0.000
REMARK UNBOUND:                 0.000
REMARK SMILES Cc1cc(O)c2c(c1)C(=O)c1cc(O)cc(O)c1C2=O
REMARK SMILES IDX 1 1 2 2 8 3 7 4 6 5 4 6 3 7 19 8 20 9 18 10 11 11 9 12 10 13
REMARK SMILES IDX 12 14 13 15 15 16 16 17 5 18 17 20 14 22
REMARK H PARENT 5 19 17 21 14 23
REMARK Flexibility Score: inf
ROOT
ATOM      1  C   UNL     1     145.002 134.617 141.992  1.00  0.00     0.044 C 
ATOM      2  C   UNL     1     143.772 135.372 141.581  1.00  0.00    -0.047 A 
ATOM      3  C   UNL     1     142.510 134.955 142.018  1.00  0.00     0.016 A 
ATOM      4  C   UNL     1     141.349 135.629 141.603  1.00  0.00     0.038 A 
ATOM      5  C   UNL     1     141.449 136.722 140.714  1.00  0.00     0.076 A 
ATOM      6  C   UNL     1     142.734 137.170 140.310  1.00  0.00     0.127 A 
ATOM      7  C   UNL     1     143.874 136.471 140.721  1.00  0.00     0.050 A 
ATOM      8  C   UNL     1     140.194 137.314 140.184  1.00  0.00     0.201 C 
ATOM      9  O   UNL     1     140.182 137.839 139.039  1.00  0.00    -0.288 OA
ATOM     10  C   UNL     1     138.918 137.116 140.919  1.00  0.00     0.076 A 
ATOM     11  C   UNL     1     138.821 136.022 141.807  1.00  0.00     0.041 A 
ATOM     12  C   UNL     1     140.019 135.199 142.097  1.00  0.00     0.194 C 
ATOM     13  O   UNL     1     139.911 134.147 142.785  1.00  0.00    -0.289 OA
ATOM     14  C   UNL     1     137.590 135.721 142.415  1.00  0.00     0.059 A 
ATOM     15  C   UNL     1     136.463 136.506 142.160  1.00  0.00     0.120 A 
ATOM     16  C   UNL     1     136.564 137.611 141.315  1.00  0.00     0.093 A 
ATOM     17  C   UNL     1     137.782 137.944 140.715  1.00  0.00     0.131 A 
ENDROOT
BRANCH   6  18
ATOM     18  O   UNL     1     142.926 138.315 139.534  1.00  0.00    -0.507 OA
ATOM     19  H   UNL     1     143.092 139.232 139.923  1.00  0.00     0.293 HD
ENDBRANCH   6  18
BRANCH  17  20
ATOM     20  O   UNL     1     137.828 139.115 139.955  1.00  0.00    -0.507 OA
ATOM     21  H   UNL     1     137.780 140.042 140.354  1.00  0.00     0.293 HD
ENDBRANCH  17  20
BRANCH  15  22
ATOM     22  O   UNL     1     135.238 136.204 142.751  1.00  0.00    -0.508 OA
ATOM     23  H   UNL     1     134.364 136.321 142.251  1.00  0.00     0.293 HD
ENDBRANCH  15  22
TORSDOF 3
ENDMDL
MODEL 5
REMARK VINA RESULT:    -6.260      9.292     12.286
REMARK INTER + INTRA:          -6.809
REMARK INTER:                  -6.809
REMARK INTRA:                   0.000
REMARK UNBOUND:                 0.000
REMARK SMILES Cc1cc(O)c2c(c1)C(=O)c1cc(O)cc(O)c1C2=O
REMARK SMILES IDX 1 1 2 2 8 3 7 4 6 5 4 6 3 7 19 8 20 9 18 10 11 11 9 12 10 13
REMARK SMILES IDX 12 14 13 15 15 16 16 17 5 18 17 20 14 22
REMARK H PARENT 5 19 17 21 14 23
REMARK Flexibility Score: inf
ROOT
ATOM      1  C   UNL     1     127.322 139.117 145.194  1.00  0.00     0.044 C 
ATOM      2  C   UNL     1     128.171 138.588 144.075  1.00  0.00    -0.047 A 
ATOM      3  C   UNL     1     129.421 138.023 144.347  1.00  0.00     0.016 A 
ATOM      4  C   UNL     1     130.243 137.564 143.304  1.00  0.00     0.038 A 
ATOM      5  C   UNL     1     129.819 137.699 141.963  1.00  0.00     0.076 A 
ATOM      6  C   UNL     1     128.531 138.230 141.695  1.00  0.00     0.127 A 
ATOM      7  C   UNL     1     127.739 138.698 142.749  1.00  0.00     0.050 A 
ATOM      8  C   UNL     1     130.775 137.339 140.884  1.00  0.00     0.201 C 
ATOM      9  O   UNL     1     130.721 137.931 139.774  1.00  0.00    -0.288 OA
ATOM     10  C   UNL     1     131.908 136.423 141.178  1.00  0.00     0.076 A 
ATOM     11  C   UNL     1     132.330 136.291 142.520  1.00  0.00     0.041 A 
ATOM     12  C   UNL     1     131.553 136.937 143.604  1.00  0.00     0.194 C 
ATOM     13  O   UNL     1     131.994 136.932 144.786  1.00  0.00    -0.289 OA
ATOM     14  C   UNL     1     133.481 135.544 142.821  1.00  0.00     0.059 A 
ATOM     15  C   UNL     1     134.204 134.916 141.804  1.00  0.00     0.120 A 
ATOM     16  C   UNL     1     133.769 135.010 140.483  1.00  0.00     0.093 A 
ATOM     17  C   UNL     1     132.615 135.730 140.160  1.00  0.00     0.131 A 
ENDROOT
BRANCH   6  18
ATOM     18  O   UNL     1     127.987 138.283 140.409  1.00  0.00    -0.507 OA
ATOM     19  H   UNL     1     128.078 137.538 139.734  1.00  0.00     0.293 HD
ENDBRANCH   6  18
BRANCH  17  20
ATOM     20  O   UNL     1     132.190 135.704 138.829  1.00  0.00    -0.507 OA
ATOM     21  H   UNL     1     131.398 135.167 138.506  1.00  0.00     0.293 HD
ENDBRANCH  17  20
BRANCH  15  22
ATOM     22  O   UNL     1     135.354 134.185 142.098  1.00  0.00    -0.508 OA
ATOM     23  H   UNL     1     136.174 134.223 141.503  1.00  0.00     0.293 HD
ENDBRANCH  15  22
TORSDOF 3
ENDMDL
MODEL 6
REMARK VINA RESULT:    -6.253      1.740      3.501
REMARK INTER + INTRA:          -6.801
REMARK INTER:                  -6.801
REMARK INTRA:                   0.000
REMARK UNBOUND:                 0.000
REMARK SMILES Cc1cc(O)c2c(c1)C(=O)c1cc(O)cc(O)c1C2=O
REMARK SMILES IDX 1 1 2 2 8 3 7 4 6 5 4 6 3 7 19 8 20 9 18 10 11 11 9 12 10 13
REMARK SMILES IDX 12 14 13 15 15 16 16 17 5 18 17 20 14 22
REMARK H PARENT 5 19 17 21 14 23
REMARK Flexibility Score: inf
ROOT
ATOM      1  C   UNL     1     144.997 134.388 142.080  1.00  0.00     0.044 C 
ATOM      2  C   UNL     1     144.175 135.542 141.585  1.00  0.00    -0.047 A 
ATOM      3  C   UNL     1     144.798 136.724 141.173  1.00  0.00     0.016 A 
ATOM      4  C   UNL     1     144.036 137.826 140.749  1.00  0.00     0.038 A 
ATOM      5  C   UNL     1     142.626 137.754 140.765  1.00  0.00     0.076 A 
ATOM      6  C   UNL     1     141.999 136.537 141.141  1.00  0.00     0.127 A 
ATOM      7  C   UNL     1     142.779 135.461 141.577  1.00  0.00     0.050 A 
ATOM      8  C   UNL     1     141.855 138.985 140.452  1.00  0.00     0.201 C 
ATOM      9  O   UNL     1     140.724 139.168 140.975  1.00  0.00    -0.288 OA
ATOM     10  C   UNL     1     142.497 140.080 139.680  1.00  0.00     0.076 A 
ATOM     11  C   UNL     1     143.909 140.150 139.666  1.00  0.00     0.041 A 
ATOM     12  C   UNL     1     144.707 139.064 140.284  1.00  0.00     0.194 C 
ATOM     13  O   UNL     1     145.958 139.182 140.389  1.00  0.00    -0.289 OA
ATOM     14  C   UNL     1     144.549 141.246 139.064  1.00  0.00     0.059 A 
ATOM     15  C   UNL     1     143.801 142.262 138.464  1.00  0.00     0.120 A 
ATOM     16  C   UNL     1     142.410 142.177 138.439  1.00  0.00     0.093 A 
ATOM     17  C   UNL     1     141.749 141.086 139.013  1.00  0.00     0.131 A 
ENDROOT
BRANCH   6  18
ATOM     18  O   UNL     1     140.618 136.343 141.066  1.00  0.00    -0.507 OA
ATOM     19  H   UNL     1     140.154 135.505 141.386  1.00  0.00     0.293 HD
ENDBRANCH   6  18
BRANCH  17  20
ATOM     20  O   UNL     1     140.361 141.025 138.870  1.00  0.00    -0.507 OA
ATOM     21  H   UNL     1     139.899 140.694 138.034  1.00  0.00     0.293 HD
ENDBRANCH  17  20
BRANCH  15  22
ATOM     22  O   UNL     1     144.433 143.357 137.877  1.00  0.00    -0.508 OA
ATOM     23  H   UNL     1     145.440 143.462 137.897  1.00  0.00     0.293 HD
ENDBRANCH  15  22
TORSDOF 3
ENDMDL
MODEL 7
REMARK VINA RESULT:    -6.207      8.606     12.227
REMARK INTER + INTRA:          -6.751
REMARK INTER:                  -6.751
REMARK INTRA:                   0.000
REMARK UNBOUND:                 0.000
REMARK SMILES Cc1cc(O)c2c(c1)C(=O)c1cc(O)cc(O)c1C2=O
REMARK SMILES IDX 1 1 2 2 8 3 7 4 6 5 4 6 3 7 19 8 20 9 18 10 11 11 9 12 10 13
REMARK SMILES IDX 12 14 13 15 15 16 16 17 5 18 17 20 14 22
REMARK H PARENT 5 19 17 21 14 23
REMARK Flexibility Score: inf
ROOT
ATOM      1  C   UNL     1     136.164 135.215 142.007  1.00  0.00     0.044 C 
ATOM      2  C   UNL     1     134.755 135.656 141.734  1.00  0.00    -0.047 A 
ATOM      3  C   UNL     1     133.937 136.088 142.783  1.00  0.00     0.016 A 
ATOM      4  C   UNL     1     132.603 136.460 142.545  1.00  0.00     0.038 A 
ATOM      5  C   UNL     1     132.070 136.373 141.241  1.00  0.00     0.076 A 
ATOM      6  C   UNL     1     132.917 135.978 140.172  1.00  0.00     0.127 A 
ATOM      7  C   UNL     1     134.235 135.593 140.437  1.00  0.00     0.050 A 
ATOM      8  C   UNL     1     130.619 136.634 141.055  1.00  0.00     0.201 C 
ATOM      9  O   UNL     1     129.990 136.052 140.133  1.00  0.00    -0.288 OA
ATOM     10  C   UNL     1     129.877 137.427 142.069  1.00  0.00     0.076 A 
ATOM     11  C   UNL     1     130.413 137.512 143.374  1.00  0.00     0.041 A 
ATOM     12  C   UNL     1     131.753 136.947 143.659  1.00  0.00     0.194 C 
ATOM     13  O   UNL     1     132.181 136.905 144.845  1.00  0.00    -0.289 OA
ATOM     14  C   UNL     1     129.674 138.135 144.394  1.00  0.00     0.059 A 
ATOM     15  C   UNL     1     128.419 138.686 144.125  1.00  0.00     0.120 A 
ATOM     16  C   UNL     1     127.905 138.640 142.830  1.00  0.00     0.093 A 
ATOM     17  C   UNL     1     128.628 138.044 141.793  1.00  0.00     0.131 A 
ENDROOT
BRANCH   6  18
ATOM     18  O   UNL     1     132.504 135.984 138.838  1.00  0.00    -0.507 OA
ATOM     19  H   UNL     1     132.341 135.144 138.301  1.00  0.00     0.293 HD
ENDBRANCH   6  18
BRANCH  17  20
ATOM     20  O   UNL     1     128.090 138.116 140.506  1.00  0.00    -0.507 OA
ATOM     21  H   UNL     1     127.519 137.390 140.097  1.00  0.00     0.293 HD
ENDBRANCH  17  20
BRANCH  15  22
ATOM     22  O   UNL     1     127.679 139.293 145.137  1.00  0.00    -0.508 OA
ATOM     23  H   UNL     1     127.467 138.811 146.003  1.00  0.00     0.293 HD
ENDBRANCH  15  22
TORSDOF 3
ENDMDL
MODEL 8
REMARK VINA RESULT:    -6.170      5.993      9.752
REMARK INTER + INTRA:          -6.711
REMARK INTER:                  -6.711
REMARK INTRA:                   0.000
REMARK UNBOUND:                 0.000
REMARK SMILES Cc1cc(O)c2c(c1)C(=O)c1cc(O)cc(O)c1C2=O
REMARK SMILES IDX 1 1 2 2 8 3 7 4 6 5 4 6 3 7 19 8 20 9 18 10 11 11 9 12 10 13
REMARK SMILES IDX 12 14 13 15 15 16 16 17 5 18 17 20 14 22
REMARK H PARENT 5 19 17 21 14 23
REMARK Flexibility Score: inf
ROOT
ATOM      1  C   UNL     1     140.038 135.648 142.002  1.00  0.00     0.044 C 
ATOM      2  C   UNL     1     138.655 136.035 142.437  1.00  0.00    -0.047 A 
ATOM      3  C   UNL     1     137.537 135.458 141.825  1.00  0.00     0.016 A 
ATOM      4  C   UNL     1     136.238 135.845 142.195  1.00  0.00     0.038 A 
ATOM      5  C   UNL     1     136.054 136.848 143.173  1.00  0.00     0.076 A 
ATOM      6  C   UNL     1     137.190 137.397 143.823  1.00  0.00     0.127 A 
ATOM      7  C   UNL     1     138.473 137.009 143.424  1.00  0.00     0.050 A 
ATOM      8  C   UNL     1     134.673 137.334 143.429  1.00  0.00     0.201 C 
ATOM      9  O   UNL     1     134.486 138.522 143.803  1.00  0.00    -0.288 OA
ATOM     10  C   UNL     1     133.512 136.483 143.064  1.00  0.00     0.076 A 
ATOM     11  C   UNL     1     133.699 135.482 142.084  1.00  0.00     0.041 A 
ATOM     12  C   UNL     1     135.059 135.205 141.563  1.00  0.00     0.194 C 
ATOM     13  O   UNL     1     135.215 134.406 140.600  1.00  0.00    -0.289 OA
ATOM     14  C   UNL     1     132.596 134.750 141.613  1.00  0.00     0.059 A 
ATOM     15  C   UNL     1     131.316 134.994 142.116  1.00  0.00     0.120 A 
ATOM     16  C   UNL     1     131.133 135.953 143.111  1.00  0.00     0.093 A 
ATOM     17  C   UNL     1     132.217 136.680 143.612  1.00  0.00     0.131 A 
ENDROOT
BRANCH   6  18
ATOM     18  O   UNL     1     137.091 138.300 144.884  1.00  0.00    -0.507 OA
ATOM     19  H   UNL     1     136.261 138.407 145.450  1.00  0.00     0.293 HD
ENDBRANCH   6  18
BRANCH  17  20
ATOM     20  O   UNL     1     131.971 137.558 144.671  1.00  0.00    -0.507 OA
ATOM     21  H   UNL     1     131.707 138.525 144.545  1.00  0.00     0.293 HD
ENDBRANCH  17  20
BRANCH  15  22
ATOM     22  O   UNL     1     130.219 134.279 141.641  1.00  0.00    -0.508 OA
ATOM     23  H   UNL     1     129.486 133.956 142.262  1.00  0.00     0.293 HD
ENDBRANCH  15  22
TORSDOF 3
ENDMDL
MODEL 9
REMARK VINA RESULT:    -6.076      1.899      3.723
REMARK INTER + INTRA:          -6.609
REMARK INTER:                  -6.609
REMARK INTRA:                   0.000
REMARK UNBOUND:                 0.000
REMARK SMILES Cc1cc(O)c2c(c1)C(=O)c1cc(O)cc(O)c1C2=O
REMARK SMILES IDX 1 1 2 2 8 3 7 4 6 5 4 6 3 7 19 8 20 9 18 10 11 11 9 12 10 13
REMARK SMILES IDX 12 14 13 15 15 16 16 17 5 18 17 20 14 22
REMARK H PARENT 5 19 17 21 14 23
REMARK Flexibility Score: inf
ROOT
ATOM      1  C   UNL     1     139.678 133.907 142.774  1.00  0.00     0.044 C 
ATOM      2  C   UNL     1     139.671 135.383 142.504  1.00  0.00    -0.047 A 
ATOM      3  C   UNL     1     140.833 136.024 142.061  1.00  0.00     0.016 A 
ATOM      4  C   UNL     1     140.849 137.412 141.846  1.00  0.00     0.038 A 
ATOM      5  C   UNL     1     139.691 138.177 142.106  1.00  0.00     0.076 A 
ATOM      6  C   UNL     1     138.501 137.517 142.511  1.00  0.00     0.127 A 
ATOM      7  C   UNL     1     138.516 136.137 142.736  1.00  0.00     0.050 A 
ATOM      8  C   UNL     1     139.790 139.657 142.010  1.00  0.00     0.201 C 
ATOM      9  O   UNL     1     139.059 140.383 142.734  1.00  0.00    -0.288 OA
ATOM     10  C   UNL     1     140.876 140.272 141.205  1.00  0.00     0.076 A 
ATOM     11  C   UNL     1     142.034 139.504 140.947  1.00  0.00     0.041 A 
ATOM     12  C   UNL     1     142.077 138.077 141.347  1.00  0.00     0.194 C 
ATOM     13  O   UNL     1     143.149 137.423 141.237  1.00  0.00    -0.289 OA
ATOM     14  C   UNL     1     143.138 140.095 140.310  1.00  0.00     0.059 A 
ATOM     15  C   UNL     1     143.095 141.434 139.914  1.00  0.00     0.120 A 
ATOM     16  C   UNL     1     141.939 142.184 140.130  1.00  0.00     0.093 A 
ATOM     17  C   UNL     1     140.820 141.614 140.743  1.00  0.00     0.131 A 
ENDROOT
BRANCH   6  18
ATOM     18  O   UNL     1     137.283 138.182 142.669  1.00  0.00    -0.507 OA
ATOM     19  H   UNL     1     136.429 137.723 142.951  1.00  0.00     0.293 HD
ENDBRANCH   6  18
BRANCH  17  20
ATOM     20  O   UNL     1     139.669 142.399 140.843  1.00  0.00    -0.507 OA
ATOM     21  H   UNL     1     139.269 142.907 140.067  1.00  0.00     0.293 HD
ENDBRANCH  17  20
BRANCH  15  22
ATOM     22  O   UNL     1     144.193 142.026 139.293  1.00  0.00    -0.508 OA
ATOM     23  H   UNL     1     144.121 142.928 138.835  1.00  0.00     0.293 HD
ENDBRANCH  15  22
TORSDOF 3
ENDMDL
