MODEL 1
REMARK VINA RESULT:    -3.295      0.000      0.000
REMARK INTER + INTRA:          -8.326
REMARK INTER:                  -5.992
REMARK INTRA:                  -2.334
REMARK UNBOUND:                -2.334
REMARK SMILES CCCCCCCCCCCCCCCC(=O)[O-]
REMARK SMILES IDX 9 1 10 2 11 3 12 4 13 5 14 6 15 7 16 8 17 9 18 10 8 11 7 12
REMARK SMILES IDX 6 13 5 14 4 15 3 16 2 17 1 18
REMARK H PARENT
REMARK Flexibility Score: inf
ROOT
ATOM      1  C   UNL     1     -99.742  69.539  23.156  1.00  0.00     0.000 C 
ENDROOT
BRANCH   1   2
ATOM      2  C   UNL     1     -98.598  70.319  22.490  1.00  0.00     0.000 C 
BRANCH   2   3
ATOM      3  C   UNL     1     -98.563  71.771  22.986  1.00  0.00     0.000 C 
BRANCH   3   4
ATOM      4  C   UNL     1     -97.448  72.024  24.017  1.00  0.00     0.000 C 
BRANCH   4   5
ATOM      5  C   UNL     1     -96.499  73.193  23.681  1.00  0.00     0.000 C 
BRANCH   5   6
ATOM      6  C   UNL     1     -95.337  72.838  22.735  1.00  0.00     0.006 C 
BRANCH   6   7
ATOM      7  C   UNL     1     -95.241  73.780  21.530  1.00  0.00     0.053 C 
BRANCH   7   8
ATOM      8  C   UNL     1     -95.619  73.061  20.274  1.00  0.00     0.041 C 
ATOM      9  O   UNL     1     -96.254  71.975  20.333  1.00  0.00    -0.550 OA
ATOM     10  O   UNL     1     -95.314  73.614  19.037  1.00  0.00    -0.550 OA
ENDBRANCH   7   8
ENDBRANCH   6   7
ENDBRANCH   5   6
ENDBRANCH   4   5
ENDBRANCH   3   4
ENDBRANCH   2   3
ENDBRANCH   1   2
BRANCH   1  11
ATOM     11  C   UNL     1     -99.249  68.530  24.211  1.00  0.00     0.000 C 
BRANCH  11  12
ATOM     12  C   UNL     1     -99.719  68.805  25.651  1.00  0.00    -0.000 C 
BRANCH  12  13
ATOM     13  C   UNL     1     -98.653  69.505  26.509  1.00  0.00    -0.000 C 
BRANCH  13  14
ATOM     14  C   UNL     1     -99.159  70.813  27.139  1.00  0.00    -0.000 C 
BRANCH  14  15
ATOM     15  C   UNL     1    -100.617  71.157  26.768  1.00  0.00    -0.000 C 
BRANCH  15  16
ATOM     16  C   UNL     1    -100.709  72.420  25.894  1.00  0.00    -0.000 C 
BRANCH  16  17
ATOM     17  C   UNL     1    -101.739  72.281  24.761  1.00  0.00    -0.003 C 
ATOM     18  C   UNL     1    -102.614  71.037  24.908  1.00  0.00     0.004 C 
ENDBRANCH  16  17
ENDBRANCH  15  16
ENDBRANCH  14  15
ENDBRANCH  13  14
ENDBRANCH  12  13
ENDBRANCH  11  12
ENDBRANCH   1  11
TORSDOF 14
ENDMDL
MODEL 2
REMARK VINA RESULT:    -3.239      3.776      6.978
REMARK INTER + INTRA:          -8.224
REMARK INTER:                  -6.467
REMARK INTRA:                  -1.757
REMARK UNBOUND:                -2.334
REMARK SMILES CCCCCCCCCCCCCCCC(=O)[O-]
REMARK SMILES IDX 9 1 10 2 11 3 12 4 13 5 14 6 15 7 16 8 17 9 18 10 8 11 7 12
REMARK SMILES IDX 6 13 5 14 4 15 3 16 2 17 1 18
REMARK H PARENT
REMARK Flexibility Score: inf
ROOT
ATOM      1  C   UNL     1     -98.890  71.636  23.278  1.00  0.00     0.000 C 
ENDROOT
BRANCH   1   2
ATOM      2  C   UNL     1     -98.928  70.333  22.466  1.00  0.00     0.000 C 
BRANCH   2   3
ATOM      3  C   UNL     1     -99.817  69.285  23.152  1.00  0.00     0.000 C 
BRANCH   3   4
ATOM      4  C   UNL     1     -99.050  68.431  24.177  1.00  0.00     0.000 C 
BRANCH   4   5
ATOM      5  C   UNL     1     -99.278  68.817  25.653  1.00  0.00     0.000 C 
BRANCH   5   6
ATOM      6  C   UNL     1    -100.587  69.576  25.933  1.00  0.00     0.006 C 
BRANCH   6   7
ATOM      7  C   UNL     1    -101.306  69.078  27.193  1.00  0.00     0.053 C 
BRANCH   7   8
ATOM      8  C   UNL     1    -100.393  69.145  28.376  1.00  0.00     0.041 C 
ATOM      9  O   UNL     1    -100.050  70.261  28.848  1.00  0.00    -0.550 OA
ATOM     10  O   UNL     1     -99.960  67.976  28.987  1.00  0.00    -0.550 OA
ENDBRANCH   7   8
ENDBRANCH   6   7
ENDBRANCH   5   6
ENDBRANCH   4   5
ENDBRANCH   3   4
ENDBRANCH   2   3
ENDBRANCH   1   2
BRANCH   1  11
ATOM     11  C   UNL     1     -97.525  71.890  23.947  1.00  0.00     0.000 C 
BRANCH  11  12
ATOM     12  C   UNL     1     -97.223  73.361  24.284  1.00  0.00    -0.000 C 
BRANCH  12  13
ATOM     13  C   UNL     1     -95.832  73.814  23.810  1.00  0.00    -0.000 C 
BRANCH  13  14
ATOM     14  C   UNL     1     -95.298  72.972  22.638  1.00  0.00    -0.000 C 
BRANCH  14  15
ATOM     15  C   UNL     1     -95.198  73.752  21.311  1.00  0.00    -0.000 C 
BRANCH  15  16
ATOM     16  C   UNL     1     -95.731  72.937  20.119  1.00  0.00    -0.000 C 
BRANCH  16  17
ATOM     17  C   UNL     1     -97.243  72.678  20.209  1.00  0.00    -0.003 C 
ATOM     18  C   UNL     1     -98.051  73.959  20.412  1.00  0.00     0.004 C 
ENDBRANCH  16  17
ENDBRANCH  15  16
ENDBRANCH  14  15
ENDBRANCH  13  14
ENDBRANCH  12  13
ENDBRANCH  11  12
ENDBRANCH   1  11
TORSDOF 14
ENDMDL
MODEL 3
REMARK VINA RESULT:    -3.119      4.105      6.234
REMARK INTER + INTRA:          -8.006
REMARK INTER:                  -5.353
REMARK INTRA:                  -2.653
REMARK UNBOUND:                -2.334
REMARK SMILES CCCCCCCCCCCCCCCC(=O)[O-]
REMARK SMILES IDX 9 1 10 2 11 3 12 4 13 5 14 6 15 7 16 8 17 9 18 10 8 11 7 12
REMARK SMILES IDX 6 13 5 14 4 15 3 16 2 17 1 18
REMARK H PARENT
REMARK Flexibility Score: inf
ROOT
ATOM      1  C   UNL     1     -99.747  69.372  23.224  1.00  0.00     0.000 C 
ENDROOT
BRANCH   1   2
ATOM      2  C   UNL     1     -99.237  68.489  24.372  1.00  0.00     0.000 C 
BRANCH   2   3
ATOM      3  C   UNL     1     -99.669  69.054  25.732  1.00  0.00     0.000 C 
BRANCH   3   4
ATOM      4  C   UNL     1     -98.569  68.944  26.802  1.00  0.00     0.000 C 
BRANCH   4   5
ATOM      5  C   UNL     1     -98.355  70.213  27.654  1.00  0.00     0.000 C 
BRANCH   5   6
ATOM      6  C   UNL     1     -98.833  70.106  29.113  1.00  0.00     0.006 C 
BRANCH   6   7
ATOM      7  C   UNL     1    -100.058  70.981  29.404  1.00  0.00     0.053 C 
BRANCH   7   8
ATOM      8  C   UNL     1    -101.288  70.137  29.515  1.00  0.00     0.041 C 
ATOM      9  O   UNL     1    -101.873  69.730  28.476  1.00  0.00    -0.550 OA
ATOM     10  O   UNL     1    -101.761  69.758  30.764  1.00  0.00    -0.550 OA
ENDBRANCH   7   8
ENDBRANCH   6   7
ENDBRANCH   5   6
ENDBRANCH   4   5
ENDBRANCH   3   4
ENDBRANCH   2   3
ENDBRANCH   1   2
BRANCH   1  11
ATOM     11  C   UNL     1     -98.634  70.215  22.572  1.00  0.00     0.000 C 
BRANCH  11  12
ATOM     12  C   UNL     1     -98.617  71.701  22.972  1.00  0.00    -0.000 C 
BRANCH  12  13
ATOM     13  C   UNL     1     -97.739  71.983  24.202  1.00  0.00    -0.000 C 
BRANCH  13  14
ATOM     14  C   UNL     1     -98.455  72.833  25.265  1.00  0.00    -0.000 C 
BRANCH  14  15
ATOM     15  C   UNL     1     -99.954  73.057  24.972  1.00  0.00    -0.000 C 
BRANCH  15  16
ATOM     16  C   UNL     1    -100.850  72.524  26.104  1.00  0.00    -0.000 C 
BRANCH  16  17
ATOM     17  C   UNL     1    -102.096  71.793  25.578  1.00  0.00    -0.003 C 
ATOM     18  C   UNL     1    -102.275  71.943  24.068  1.00  0.00     0.004 C 
ENDBRANCH  16  17
ENDBRANCH  15  16
ENDBRANCH  14  15
ENDBRANCH  13  14
ENDBRANCH  12  13
ENDBRANCH  11  12
ENDBRANCH   1  11
TORSDOF 14
ENDMDL
MODEL 4
REMARK VINA RESULT:    -3.110      4.822      7.428
REMARK INTER + INTRA:          -7.990
REMARK INTER:                  -5.519
REMARK INTRA:                  -2.471
REMARK UNBOUND:                -2.334
REMARK SMILES CCCCCCCCCCCCCCCC(=O)[O-]
REMARK SMILES IDX 9 1 10 2 11 3 12 4 13 5 14 6 15 7 16 8 17 9 18 10 8 11 7 12
REMARK SMILES IDX 6 13 5 14 4 15 3 16 2 17 1 18
REMARK H PARENT
REMARK Flexibility Score: inf
ROOT
ATOM      1  C   UNL     1     -99.193  69.826  29.614  1.00  0.00     0.000 C 
ENDROOT
BRANCH   1   2
ATOM      2  C   UNL     1     -99.912  68.606  29.022  1.00  0.00     0.000 C 
BRANCH   2   3
ATOM      3  C   UNL     1    -100.059  68.741  27.499  1.00  0.00     0.000 C 
BRANCH   3   4
ATOM      4  C   UNL     1    -101.525  68.869  27.049  1.00  0.00     0.000 C 
BRANCH   4   5
ATOM      5  C   UNL     1    -101.899  70.225  26.415  1.00  0.00     0.000 C 
BRANCH   5   6
ATOM      6  C   UNL     1    -102.241  71.342  27.418  1.00  0.00     0.006 C 
BRANCH   6   7
ATOM      7  C   UNL     1    -103.470  71.016  28.274  1.00  0.00     0.053 C 
BRANCH   7   8
ATOM      8  C   UNL     1    -103.081  70.862  29.710  1.00  0.00     0.041 C 
ATOM      9  O   UNL     1    -103.713  70.068  30.456  1.00  0.00    -0.550 OA
ATOM     10  O   UNL     1    -101.989  71.557  30.213  1.00  0.00    -0.550 OA
ENDBRANCH   7   8
ENDBRANCH   6   7
ENDBRANCH   5   6
ENDBRANCH   4   5
ENDBRANCH   3   4
ENDBRANCH   2   3
ENDBRANCH   1   2
BRANCH   1  11
ATOM     11  C   UNL     1     -98.337  70.582  28.580  1.00  0.00     0.000 C 
BRANCH  11  12
ATOM     12  C   UNL     1     -98.679  72.074  28.410  1.00  0.00    -0.000 C 
BRANCH  12  13
ATOM     13  C   UNL     1     -98.636  72.538  26.945  1.00  0.00    -0.000 C 
BRANCH  13  14
ATOM     14  C   UNL     1     -98.367  71.387  25.962  1.00  0.00    -0.000 C 
BRANCH  14  15
ATOM     15  C   UNL     1     -99.039  71.577  24.586  1.00  0.00    -0.000 C 
BRANCH  15  16
ATOM     16  C   UNL     1     -98.616  70.492  23.580  1.00  0.00    -0.000 C 
BRANCH  16  17
ATOM     17  C   UNL     1     -99.636  69.347  23.481  1.00  0.00    -0.003 C 
ATOM     18  C   UNL     1     -99.086  68.020  24.004  1.00  0.00     0.004 C 
ENDBRANCH  16  17
ENDBRANCH  15  16
ENDBRANCH  14  15
ENDBRANCH  13  14
ENDBRANCH  12  13
ENDBRANCH  11  12
ENDBRANCH   1  11
TORSDOF 14
ENDMDL
MODEL 5
REMARK VINA RESULT:    -3.104      3.977      6.123
REMARK INTER + INTRA:          -7.979
REMARK INTER:                  -5.571
REMARK INTRA:                  -2.408
REMARK UNBOUND:                -2.334
REMARK SMILES CCCCCCCCCCCCCCCC(=O)[O-]
REMARK SMILES IDX 9 1 10 2 11 3 12 4 13 5 14 6 15 7 16 8 17 9 18 10 8 11 7 12
REMARK SMILES IDX 6 13 5 14 4 15 3 16 2 17 1 18
REMARK H PARENT
REMARK Flexibility Score: inf
ROOT
ATOM      1  C   UNL     1     -98.624  70.091  22.499  1.00  0.00     0.000 C 
ENDROOT
BRANCH   1   2
ATOM      2  C   UNL     1     -99.820  69.528  23.281  1.00  0.00     0.000 C 
BRANCH   2   3
ATOM      3  C   UNL     1     -99.383  68.381  24.203  1.00  0.00     0.000 C 
BRANCH   3   4
ATOM      4  C   UNL     1     -98.907  68.871  25.582  1.00  0.00     0.000 C 
BRANCH   4   5
ATOM      5  C   UNL     1     -99.961  69.644  26.402  1.00  0.00     0.000 C 
BRANCH   5   6
ATOM      6  C   UNL     1    -100.911  68.765  27.235  1.00  0.00     0.006 C 
BRANCH   6   7
ATOM      7  C   UNL     1    -100.919  69.141  28.722  1.00  0.00     0.053 C 
BRANCH   7   8
ATOM      8  C   UNL     1     -99.590  68.846  29.341  1.00  0.00     0.041 C 
ATOM      9  O   UNL     1     -99.213  67.654  29.494  1.00  0.00    -0.550 OA
ATOM     10  O   UNL     1     -98.745  69.886  29.705  1.00  0.00    -0.550 OA
ENDBRANCH   7   8
ENDBRANCH   6   7
ENDBRANCH   5   6
ENDBRANCH   4   5
ENDBRANCH   3   4
ENDBRANCH   2   3
ENDBRANCH   1   2
BRANCH   1  11
ATOM     11  C   UNL     1     -98.454  71.612  22.670  1.00  0.00     0.000 C 
BRANCH  11  12
ATOM     12  C   UNL     1     -97.507  72.044  23.804  1.00  0.00    -0.000 C 
BRANCH  12  13
ATOM     13  C   UNL     1     -98.252  72.564  25.045  1.00  0.00    -0.000 C 
BRANCH  13  14
ATOM     14  C   UNL     1     -99.442  73.472  24.689  1.00  0.00    -0.000 C 
BRANCH  14  15
ATOM     15  C   UNL     1    -100.771  73.033  25.338  1.00  0.00    -0.000 C 
BRANCH  15  16
ATOM     16  C   UNL     1    -101.757  72.458  24.305  1.00  0.00    -0.000 C 
BRANCH  16  17
ATOM     17  C   UNL     1    -102.722  71.429  24.915  1.00  0.00    -0.003 C 
ATOM     18  C   UNL     1    -103.085  71.748  26.365  1.00  0.00     0.004 C 
ENDBRANCH  16  17
ENDBRANCH  15  16
ENDBRANCH  14  15
ENDBRANCH  13  14
ENDBRANCH  12  13
ENDBRANCH  11  12
ENDBRANCH   1  11
TORSDOF 14
ENDMDL
MODEL 6
REMARK VINA RESULT:    -3.095      4.657      7.125
REMARK INTER + INTRA:          -7.962
REMARK INTER:                  -5.498
REMARK INTRA:                  -2.464
REMARK UNBOUND:                -2.334
REMARK SMILES CCCCCCCCCCCCCCCC(=O)[O-]
REMARK SMILES IDX 9 1 10 2 11 3 12 4 13 5 14 6 15 7 16 8 17 9 18 10 8 11 7 12
REMARK SMILES IDX 6 13 5 14 4 15 3 16 2 17 1 18
REMARK H PARENT
REMARK Flexibility Score: inf
ROOT
ATOM      1  C   UNL     1    -101.523  72.276  28.846  1.00  0.00     0.000 C 
ENDROOT
BRANCH   1   2
ATOM      2  C   UNL     1    -102.261  70.960  28.558  1.00  0.00     0.000 C 
BRANCH   2   3
ATOM      3  C   UNL     1    -102.386  70.720  27.047  1.00  0.00     0.000 C 
BRANCH   3   4
ATOM      4  C   UNL     1    -101.645  69.455  26.579  1.00  0.00     0.000 C 
BRANCH   4   5
ATOM      5  C   UNL     1    -100.802  68.752  27.663  1.00  0.00     0.000 C 
BRANCH   5   6
ATOM      6  C   UNL     1     -99.294  69.060  27.619  1.00  0.00     0.006 C 
BRANCH   6   7
ATOM      7  C   UNL     1     -98.783  69.714  28.908  1.00  0.00     0.053 C 
BRANCH   7   8
ATOM      8  C   UNL     1     -99.181  68.902  30.099  1.00  0.00     0.041 C 
ATOM      9  O   UNL     1     -99.950  69.389  30.969  1.00  0.00    -0.550 OA
ATOM     10  O   UNL     1     -98.744  67.589  30.224  1.00  0.00    -0.550 OA
ENDBRANCH   7   8
ENDBRANCH   6   7
ENDBRANCH   5   6
ENDBRANCH   4   5
ENDBRANCH   3   4
ENDBRANCH   2   3
ENDBRANCH   1   2
BRANCH   1  11
ATOM     11  C   UNL     1    -100.847  72.874  27.598  1.00  0.00     0.000 C 
BRANCH  11  12
ATOM     12  C   UNL     1     -99.367  73.257  27.773  1.00  0.00    -0.000 C 
BRANCH  12  13
ATOM     13  C   UNL     1     -98.530  73.025  26.504  1.00  0.00    -0.000 C 
BRANCH  13  14
ATOM     14  C   UNL     1     -99.228  72.102  25.491  1.00  0.00    -0.000 C 
BRANCH  14  15
ATOM     15  C   UNL     1     -98.298  71.029  24.887  1.00  0.00    -0.000 C 
BRANCH  15  16
ATOM     16  C   UNL     1     -98.364  71.004  23.350  1.00  0.00    -0.000 C 
BRANCH  16  17
ATOM     17  C   UNL     1     -99.115  69.777  22.810  1.00  0.00    -0.003 C 
ATOM     18  C   UNL     1     -99.213  68.646  23.833  1.00  0.00     0.004 C 
ENDBRANCH  16  17
ENDBRANCH  15  16
ENDBRANCH  14  15
ENDBRANCH  13  14
ENDBRANCH  12  13
ENDBRANCH  11  12
ENDBRANCH   1  11
TORSDOF 14
ENDMDL
MODEL 7
REMARK VINA RESULT:    -3.083      4.030      6.230
REMARK INTER + INTRA:          -7.941
REMARK INTER:                  -5.320
REMARK INTRA:                  -2.621
REMARK UNBOUND:                -2.334
REMARK SMILES CCCCCCCCCCCCCCCC(=O)[O-]
REMARK SMILES IDX 9 1 10 2 11 3 12 4 13 5 14 6 15 7 16 8 17 9 18 10 8 11 7 12
REMARK SMILES IDX 6 13 5 14 4 15 3 16 2 17 1 18
REMARK H PARENT
REMARK Flexibility Score: inf
ROOT
ATOM      1  C   UNL     1     -98.357  73.986  23.880  1.00  0.00     0.000 C 
ENDROOT
BRANCH   1   2
ATOM      2  C   UNL     1     -98.085  73.082  25.091  1.00  0.00     0.000 C 
BRANCH   2   3
ATOM      3  C   UNL     1     -99.288  73.063  26.044  1.00  0.00     0.000 C 
BRANCH   3   4
ATOM      4  C   UNL     1     -99.814  71.643  26.315  1.00  0.00     0.000 C 
BRANCH   4   5
ATOM      5  C   UNL     1     -98.725  70.578  26.567  1.00  0.00     0.000 C 
BRANCH   5   6
ATOM      6  C   UNL     1     -99.169  69.124  26.331  1.00  0.00     0.006 C 
BRANCH   6   7
ATOM      7  C   UNL     1    -100.616  68.865  26.767  1.00  0.00     0.053 C 
BRANCH   7   8
ATOM      8  C   UNL     1    -100.704  68.769  28.257  1.00  0.00     0.041 C 
ATOM      9  O   UNL     1     -99.955  67.975  28.886  1.00  0.00    -0.550 OA
ATOM     10  O   UNL     1    -101.577  69.592  28.957  1.00  0.00    -0.550 OA
ENDBRANCH   7   8
ENDBRANCH   6   7
ENDBRANCH   5   6
ENDBRANCH   4   5
ENDBRANCH   3   4
ENDBRANCH   2   3
ENDBRANCH   1   2
BRANCH   1  11
ATOM     11  C   UNL     1     -97.645  73.510  22.600  1.00  0.00     0.000 C 
BRANCH  11  12
ATOM     12  C   UNL     1     -97.138  72.057  22.633  1.00  0.00    -0.000 C 
BRANCH  12  13
ATOM     13  C   UNL     1     -98.068  71.078  21.898  1.00  0.00    -0.000 C 
BRANCH  13  14
ATOM     14  C   UNL     1     -98.786  70.108  22.851  1.00  0.00    -0.000 C 
BRANCH  14  15
ATOM     15  C   UNL     1    -100.324  70.158  22.744  1.00  0.00    -0.000 C 
BRANCH  15  16
ATOM     16  C   UNL     1    -100.834  71.567  22.393  1.00  0.00    -0.000 C 
BRANCH  16  17
ATOM     17  C   UNL     1    -101.931  72.056  23.352  1.00  0.00    -0.003 C 
ATOM     18  C   UNL     1    -102.628  70.910  24.086  1.00  0.00     0.004 C 
ENDBRANCH  16  17
ENDBRANCH  15  16
ENDBRANCH  14  15
ENDBRANCH  13  14
ENDBRANCH  12  13
ENDBRANCH  11  12
ENDBRANCH   1  11
TORSDOF 14
ENDMDL
MODEL 8
REMARK VINA RESULT:    -3.047      3.865      6.603
REMARK INTER + INTRA:          -7.875
REMARK INTER:                  -5.849
REMARK INTRA:                  -2.026
REMARK UNBOUND:                -2.334
REMARK SMILES CCCCCCCCCCCCCCCC(=O)[O-]
REMARK SMILES IDX 9 1 10 2 11 3 12 4 13 5 14 6 15 7 16 8 17 9 18 10 8 11 7 12
REMARK SMILES IDX 6 13 5 14 4 15 3 16 2 17 1 18
REMARK H PARENT
REMARK Flexibility Score: inf
ROOT
ATOM      1  C   UNL     1    -100.716  70.259  25.486  1.00  0.00     0.000 C 
ENDROOT
BRANCH   1   2
ATOM      2  C   UNL     1    -100.327  71.662  25.976  1.00  0.00     0.000 C 
BRANCH   2   3
ATOM      3  C   UNL     1     -98.820  71.746  26.257  1.00  0.00     0.000 C 
BRANCH   3   4
ATOM      4  C   UNL     1     -98.493  72.532  27.538  1.00  0.00     0.000 C 
BRANCH   4   5
ATOM      5  C   UNL     1     -98.638  71.734  28.851  1.00  0.00     0.000 C 
BRANCH   5   6
ATOM      6  C   UNL     1     -98.251  70.248  28.756  1.00  0.00     0.006 C 
BRANCH   6   7
ATOM      7  C   UNL     1     -99.105  69.351  29.659  1.00  0.00     0.053 C 
BRANCH   7   8
ATOM      8  C   UNL     1    -100.416  69.048  29.005  1.00  0.00     0.041 C 
ATOM      9  O   UNL     1    -100.549  68.010  28.305  1.00  0.00    -0.550 OA
ATOM     10  O   UNL     1    -101.505  69.885  29.208  1.00  0.00    -0.550 OA
ENDBRANCH   7   8
ENDBRANCH   6   7
ENDBRANCH   5   6
ENDBRANCH   4   5
ENDBRANCH   3   4
ENDBRANCH   2   3
ENDBRANCH   1   2
BRANCH   1  11
ATOM     11  C   UNL     1     -99.501  69.339  25.265  1.00  0.00     0.000 C 
BRANCH  11  12
ATOM     12  C   UNL     1     -99.149  69.060  23.792  1.00  0.00    -0.000 C 
BRANCH  12  13
ATOM     13  C   UNL     1    -100.033  69.839  22.804  1.00  0.00    -0.000 C 
BRANCH  13  14
ATOM     14  C   UNL     1     -99.260  70.933  22.047  1.00  0.00    -0.000 C 
BRANCH  14  15
ATOM     15  C   UNL     1     -97.876  71.246  22.652  1.00  0.00    -0.000 C 
BRANCH  15  16
ATOM     16  C   UNL     1     -97.752  72.718  23.083  1.00  0.00    -0.000 C 
BRANCH  16  17
ATOM     17  C   UNL     1     -96.360  73.057  23.639  1.00  0.00    -0.003 C 
ATOM     18  C   UNL     1     -95.247  72.851  22.611  1.00  0.00     0.004 C 
ENDBRANCH  16  17
ENDBRANCH  15  16
ENDBRANCH  14  15
ENDBRANCH  13  14
ENDBRANCH  12  13
ENDBRANCH  11  12
ENDBRANCH   1  11
TORSDOF 14
ENDMDL
MODEL 9
REMARK VINA RESULT:    -3.029      1.114      2.669
REMARK INTER + INTRA:          -7.842
REMARK INTER:                  -5.407
REMARK INTRA:                  -2.435
REMARK UNBOUND:                -2.334
REMARK SMILES CCCCCCCCCCCCCCCC(=O)[O-]
REMARK SMILES IDX 9 1 10 2 11 3 12 4 13 5 14 6 15 7 16 8 17 9 18 10 8 11 7 12
REMARK SMILES IDX 6 13 5 14 4 15 3 16 2 17 1 18
REMARK H PARENT
REMARK Flexibility Score: inf
ROOT
ATOM      1  C   UNL     1     -99.325  72.480  22.661  1.00  0.00     0.000 C 
ENDROOT
BRANCH   1   2
ATOM      2  C   UNL     1     -99.400  73.423  23.871  1.00  0.00     0.000 C 
BRANCH   2   3
ATOM      3  C   UNL     1     -98.109  73.356  24.700  1.00  0.00     0.000 C 
BRANCH   3   4
ATOM      4  C   UNL     1     -97.013  72.508  24.032  1.00  0.00     0.000 C 
BRANCH   4   5
ATOM      5  C   UNL     1     -95.758  73.289  23.590  1.00  0.00     0.000 C 
BRANCH   5   6
ATOM      6  C   UNL     1     -95.939  74.155  22.330  1.00  0.00     0.006 C 
BRANCH   6   7
ATOM      7  C   UNL     1     -95.235  73.571  21.100  1.00  0.00     0.053 C 
BRANCH   7   8
ATOM      8  C   UNL     1     -96.130  72.599  20.398  1.00  0.00     0.041 C 
ATOM      9  O   UNL     1     -96.793  72.963  19.392  1.00  0.00    -0.550 OA
ATOM     10  O   UNL     1     -96.193  71.279  20.824  1.00  0.00    -0.550 OA
ENDBRANCH   7   8
ENDBRANCH   6   7
ENDBRANCH   5   6
ENDBRANCH   4   5
ENDBRANCH   3   4
ENDBRANCH   2   3
ENDBRANCH   1   2
BRANCH   1  11
ATOM     11  C   UNL     1    -100.642  71.723  22.404  1.00  0.00     0.000 C 
BRANCH  11  12
ATOM     12  C   UNL     1    -100.597  70.212  22.693  1.00  0.00    -0.000 C 
BRANCH  12  13
ATOM     13  C   UNL     1     -99.168  69.679  22.888  1.00  0.00    -0.000 C 
BRANCH  13  14
ATOM     14  C   UNL     1     -99.078  68.595  23.976  1.00  0.00    -0.000 C 
BRANCH  14  15
ATOM     15  C   UNL     1     -99.765  68.989  25.301  1.00  0.00    -0.000 C 
BRANCH  15  16
ATOM     16  C   UNL     1     -98.963  70.048  26.077  1.00  0.00    -0.000 C 
BRANCH  16  17
ATOM     17  C   UNL     1     -99.853  70.931  26.965  1.00  0.00    -0.003 C 
ATOM     18  C   UNL     1    -101.172  71.307  26.291  1.00  0.00     0.004 C 
ENDBRANCH  16  17
ENDBRANCH  15  16
ENDBRANCH  14  15
ENDBRANCH  13  14
ENDBRANCH  12  13
ENDBRANCH  11  12
ENDBRANCH   1  11
TORSDOF 14
ENDMDL
