MODEL 1
REMARK VINA RESULT:    -4.390      0.000      0.000
REMARK INTER + INTRA:          -4.740
REMARK INTER:                  -4.646
REMARK INTRA:                  -0.094
REMARK UNBOUND:                -0.094
REMARK SMILES C=C(C)[C@@H]1CC=C(C)C(=O)C1
REMARK SMILES IDX 8 1 7 2 6 3 5 4 4 5 11 6 9 7 10 8 2 9 1 10 3 11
REMARK H PARENT
REMARK Flexibility Score: inf
ROOT
ATOM      1  C   UNL     1      69.665  69.185  44.183  1.00  0.00     0.048 C 
ATOM      2  C   UNL     1      68.778  68.528  43.162  1.00  0.00    -0.012 C 
ATOM      3  C   UNL     1      68.395  69.203  42.065  1.00  0.00    -0.019 C 
ATOM      4  C   UNL     1      67.575  68.562  40.977  1.00  0.00     0.036 C 
ATOM      5  C   UNL     1      66.653  67.466  41.547  1.00  0.00     0.025 C 
ATOM      6  C   UNL     1      67.477  66.435  42.341  1.00  0.00     0.089 C 
ATOM      7  C   UNL     1      68.347  67.122  43.359  1.00  0.00     0.158 C 
ATOM      8  O   UNL     1      68.745  66.473  44.364  1.00  0.00    -0.295 OA
ENDROOT
BRANCH   5   9
ATOM      9  C   UNL     1      65.827  66.801  40.454  1.00  0.00    -0.077 C 
ATOM     10  C   UNL     1      66.274  65.715  39.800  1.00  0.00     0.008 C 
ATOM     11  C   UNL     1      64.477  67.360  40.082  1.00  0.00     0.039 C 
ENDBRANCH   5   9
TORSDOF 1
ENDMDL
MODEL 2
REMARK VINA RESULT:    -4.362     15.072     16.218
REMARK INTER + INTRA:          -4.711
REMARK INTER:                  -4.617
REMARK INTRA:                  -0.094
REMARK UNBOUND:                -0.094
REMARK SMILES C=C(C)[C@@H]1CC=C(C)C(=O)C1
REMARK SMILES IDX 8 1 7 2 6 3 5 4 4 5 11 6 9 7 10 8 2 9 1 10 3 11
REMARK H PARENT
REMARK Flexibility Score: inf
ROOT
ATOM      1  C   UNL     1      54.865  71.004  32.133  1.00  0.00     0.048 C 
ATOM      2  C   UNL     1      54.481  69.863  33.034  1.00  0.00    -0.012 C 
ATOM      3  C   UNL     1      55.260  69.533  34.077  1.00  0.00    -0.019 C 
ATOM      4  C   UNL     1      54.877  68.451  35.052  1.00  0.00     0.036 C 
ATOM      5  C   UNL     1      54.033  67.359  34.367  1.00  0.00     0.025 C 
ATOM      6  C   UNL     1      52.806  67.985  33.678  1.00  0.00     0.089 C 
ATOM      7  C   UNL     1      53.223  69.117  32.779  1.00  0.00     0.158 C 
ATOM      8  O   UNL     1      52.467  69.457  31.829  1.00  0.00    -0.295 OA
ENDROOT
BRANCH   5   9
ATOM      9  C   UNL     1      53.628  66.264  35.346  1.00  0.00    -0.077 C 
ATOM     10  C   UNL     1      52.492  66.348  36.060  1.00  0.00     0.008 C 
ATOM     11  C   UNL     1      54.509  65.055  35.533  1.00  0.00     0.039 C 
ENDBRANCH   5   9
TORSDOF 1
ENDMDL
MODEL 3
REMARK VINA RESULT:    -4.209     11.930     13.143
REMARK INTER + INTRA:          -4.549
REMARK INTER:                  -4.456
REMARK INTRA:                  -0.093
REMARK UNBOUND:                -0.094
REMARK SMILES C=C(C)[C@@H]1CC=C(C)C(=O)C1
REMARK SMILES IDX 8 1 7 2 6 3 5 4 4 5 11 6 9 7 10 8 2 9 1 10 3 11
REMARK H PARENT
REMARK Flexibility Score: inf
ROOT
ATOM      1  C   UNL     1      69.998  72.070  27.076  1.00  0.00     0.048 C 
ATOM      2  C   UNL     1      69.660  71.279  28.309  1.00  0.00    -0.012 C 
ATOM      3  C   UNL     1      69.411  71.910  29.469  1.00  0.00    -0.019 C 
ATOM      4  C   UNL     1      68.991  71.167  30.710  1.00  0.00     0.036 C 
ATOM      5  C   UNL     1      69.590  69.747  30.738  1.00  0.00     0.025 C 
ATOM      6  C   UNL     1      69.223  68.987  29.450  1.00  0.00     0.089 C 
ATOM      7  C   UNL     1      69.580  69.799  28.234  1.00  0.00     0.158 C 
ATOM      8  O   UNL     1      69.766  69.210  27.136  1.00  0.00    -0.295 OA
ENDROOT
BRANCH   5   9
ATOM      9  C   UNL     1      69.161  68.981  31.983  1.00  0.00    -0.077 C 
ATOM     10  C   UNL     1      67.918  68.485  32.107  1.00  0.00     0.008 C 
ATOM     11  C   UNL     1      70.138  68.766  33.111  1.00  0.00     0.039 C 
ENDBRANCH   5   9
TORSDOF 1
ENDMDL
MODEL 4
REMARK VINA RESULT:    -4.150     15.120     16.325
REMARK INTER + INTRA:          -4.486
REMARK INTER:                  -4.398
REMARK INTRA:                  -0.088
REMARK UNBOUND:                -0.094
REMARK SMILES C=C(C)[C@@H]1CC=C(C)C(=O)C1
REMARK SMILES IDX 8 1 7 2 6 3 5 4 4 5 11 6 9 7 10 8 2 9 1 10 3 11
REMARK H PARENT
REMARK Flexibility Score: inf
ROOT
ATOM      1  C   UNL     1      51.875  64.081  37.013  1.00  0.00     0.048 C 
ATOM      2  C   UNL     1      52.413  65.247  36.232  1.00  0.00    -0.012 C 
ATOM      3  C   UNL     1      51.897  66.475  36.409  1.00  0.00    -0.019 C 
ATOM      4  C   UNL     1      52.455  67.686  35.709  1.00  0.00     0.036 C 
ATOM      5  C   UNL     1      53.053  67.311  34.339  1.00  0.00     0.025 C 
ATOM      6  C   UNL     1      54.102  66.195  34.502  1.00  0.00     0.089 C 
ATOM      7  C   UNL     1      53.533  65.040  35.280  1.00  0.00     0.158 C 
ATOM      8  O   UNL     1      54.049  63.898  35.149  1.00  0.00    -0.295 OA
ENDROOT
BRANCH   5   9
ATOM      9  C   UNL     1      53.632  68.526  33.627  1.00  0.00    -0.077 C 
ATOM     10  C   UNL     1      52.965  69.140  32.634  1.00  0.00     0.008 C 
ATOM     11  C   UNL     1      54.981  69.065  34.028  1.00  0.00     0.039 C 
ENDBRANCH   5   9
TORSDOF 1
ENDMDL
MODEL 5
REMARK VINA RESULT:    -4.143      1.443      2.308
REMARK INTER + INTRA:          -4.479
REMARK INTER:                  -4.383
REMARK INTRA:                  -0.096
REMARK UNBOUND:                -0.094
REMARK SMILES C=C(C)[C@@H]1CC=C(C)C(=O)C1
REMARK SMILES IDX 8 1 7 2 6 3 5 4 4 5 11 6 9 7 10 8 2 9 1 10 3 11
REMARK H PARENT
REMARK Flexibility Score: inf
ROOT
ATOM      1  C   UNL     1      70.084  68.517  44.871  1.00  0.00     0.048 C 
ATOM      2  C   UNL     1      69.057  68.067  43.870  1.00  0.00    -0.012 C 
ATOM      3  C   UNL     1      68.728  66.768  43.776  1.00  0.00    -0.019 C 
ATOM      4  C   UNL     1      67.649  66.281  42.845  1.00  0.00     0.036 C 
ATOM      5  C   UNL     1      67.547  67.175  41.595  1.00  0.00     0.025 C 
ATOM      6  C   UNL     1      67.345  68.646  42.005  1.00  0.00     0.089 C 
ATOM      7  C   UNL     1      68.391  69.068  43.000  1.00  0.00     0.158 C 
ATOM      8  O   UNL     1      68.665  70.293  43.120  1.00  0.00    -0.295 OA
ENDROOT
BRANCH   5   9
ATOM      9  C   UNL     1      66.450  66.700  40.651  1.00  0.00    -0.077 C 
ATOM     10  C   UNL     1      65.354  67.444  40.420  1.00  0.00     0.008 C 
ATOM     11  C   UNL     1      66.578  65.369  39.954  1.00  0.00     0.039 C 
ENDBRANCH   5   9
TORSDOF 1
ENDMDL
MODEL 6
REMARK VINA RESULT:    -4.118      2.097      4.779
REMARK INTER + INTRA:          -4.453
REMARK INTER:                  -4.361
REMARK INTRA:                  -0.092
REMARK UNBOUND:                -0.094
REMARK SMILES C=C(C)[C@@H]1CC=C(C)C(=O)C1
REMARK SMILES IDX 8 1 7 2 6 3 5 4 4 5 11 6 9 7 10 8 2 9 1 10 3 11
REMARK H PARENT
REMARK Flexibility Score: inf
ROOT
ATOM      1  C   UNL     1      65.823  64.287  38.818  1.00  0.00     0.048 C 
ATOM      2  C   UNL     1      66.509  65.147  39.842  1.00  0.00    -0.012 C 
ATOM      3  C   UNL     1      67.704  64.785  40.339  1.00  0.00    -0.019 C 
ATOM      4  C   UNL     1      68.465  65.653  41.306  1.00  0.00     0.036 C 
ATOM      5  C   UNL     1      67.507  66.485  42.180  1.00  0.00     0.025 C 
ATOM      6  C   UNL     1      66.548  67.301  41.293  1.00  0.00     0.089 C 
ATOM      7  C   UNL     1      65.872  66.412  40.286  1.00  0.00     0.158 C 
ATOM      8  O   UNL     1      64.774  66.777  39.784  1.00  0.00    -0.295 OA
ENDROOT
BRANCH   5   9
ATOM      9  C   UNL     1      68.267  67.378  43.154  1.00  0.00    -0.077 C 
ATOM     10  C   UNL     1      68.999  66.858  44.154  1.00  0.00     0.008 C 
ATOM     11  C   UNL     1      68.205  68.877  43.010  1.00  0.00     0.039 C 
ENDBRANCH   5   9
TORSDOF 1
ENDMDL
MODEL 7
REMARK VINA RESULT:    -4.067     14.809     17.388
REMARK INTER + INTRA:          -4.399
REMARK INTER:                  -4.306
REMARK INTRA:                  -0.093
REMARK UNBOUND:                -0.094
REMARK SMILES C=C(C)[C@@H]1CC=C(C)C(=O)C1
REMARK SMILES IDX 8 1 7 2 6 3 5 4 4 5 11 6 9 7 10 8 2 9 1 10 3 11
REMARK H PARENT
REMARK Flexibility Score: inf
ROOT
ATOM      1  C   UNL     1      52.910  70.552  29.038  1.00  0.00     0.048 C 
ATOM      2  C   UNL     1      53.330  70.314  30.462  1.00  0.00    -0.012 C 
ATOM      3  C   UNL     1      52.633  69.470  31.240  1.00  0.00    -0.019 C 
ATOM      4  C   UNL     1      53.060  69.139  32.646  1.00  0.00     0.036 C 
ATOM      5  C   UNL     1      53.804  70.322  33.295  1.00  0.00     0.025 C 
ATOM      6  C   UNL     1      54.987  70.759  32.411  1.00  0.00     0.089 C 
ATOM      7  C   UNL     1      54.534  70.997  30.997  1.00  0.00     0.158 C 
ATOM      8  O   UNL     1      55.217  71.751  30.253  1.00  0.00    -0.295 OA
ENDROOT
BRANCH   5   9
ATOM      9  C   UNL     1      54.253  69.995  34.713  1.00  0.00    -0.077 C 
ATOM     10  C   UNL     1      55.282  69.162  34.947  1.00  0.00     0.008 C 
ATOM     11  C   UNL     1      53.539  70.607  35.891  1.00  0.00     0.039 C 
ENDBRANCH   5   9
TORSDOF 1
ENDMDL
MODEL 8
REMARK VINA RESULT:    -4.057     10.170     11.790
REMARK INTER + INTRA:          -4.388
REMARK INTER:                  -4.291
REMARK INTRA:                  -0.097
REMARK UNBOUND:                -0.094
REMARK SMILES C=C(C)[C@@H]1CC=C(C)C(=O)C1
REMARK SMILES IDX 8 1 7 2 6 3 5 4 4 5 11 6 9 7 10 8 2 9 1 10 3 11
REMARK H PARENT
REMARK Flexibility Score: inf
ROOT
ATOM      1  C   UNL     1      67.524  66.545  33.908  1.00  0.00     0.048 C 
ATOM      2  C   UNL     1      67.545  66.871  32.441  1.00  0.00    -0.012 C 
ATOM      3  C   UNL     1      66.790  66.167  31.581  1.00  0.00    -0.019 C 
ATOM      4  C   UNL     1      66.717  66.508  30.116  1.00  0.00     0.036 C 
ATOM      5  C   UNL     1      68.037  67.130  29.623  1.00  0.00     0.025 C 
ATOM      6  C   UNL     1      68.410  68.348  30.488  1.00  0.00     0.089 C 
ATOM      7  C   UNL     1      68.388  67.989  31.948  1.00  0.00     0.158 C 
ATOM      8  O   UNL     1      69.060  68.680  32.761  1.00  0.00    -0.295 OA
ENDROOT
BRANCH   5   9
ATOM      9  C   UNL     1      67.971  67.490  28.144  1.00  0.00    -0.077 C 
ATOM     10  C   UNL     1      68.970  68.159  27.541  1.00  0.00     0.008 C 
ATOM     11  C   UNL     1      66.769  67.098  27.324  1.00  0.00     0.039 C 
ENDBRANCH   5   9
TORSDOF 1
ENDMDL
MODEL 9
REMARK VINA RESULT:    -4.043     11.206     12.877
REMARK INTER + INTRA:          -4.373
REMARK INTER:                  -4.279
REMARK INTRA:                  -0.094
REMARK UNBOUND:                -0.094
REMARK SMILES C=C(C)[C@@H]1CC=C(C)C(=O)C1
REMARK SMILES IDX 8 1 7 2 6 3 5 4 4 5 11 6 9 7 10 8 2 9 1 10 3 11
REMARK H PARENT
REMARK Flexibility Score: inf
ROOT
ATOM      1  C   UNL     1      66.592  66.055  31.853  1.00  0.00     0.048 C 
ATOM      2  C   UNL     1      67.333  66.881  30.838  1.00  0.00    -0.012 C 
ATOM      3  C   UNL     1      67.246  66.585  29.531  1.00  0.00    -0.019 C 
ATOM      4  C   UNL     1      67.904  67.430  28.473  1.00  0.00     0.036 C 
ATOM      5  C   UNL     1      69.187  68.095  29.010  1.00  0.00     0.025 C 
ATOM      6  C   UNL     1      68.878  68.896  30.289  1.00  0.00     0.089 C 
ATOM      7  C   UNL     1      68.144  68.041  31.286  1.00  0.00     0.158 C 
ATOM      8  O   UNL     1      68.188  68.348  32.508  1.00  0.00    -0.295 OA
ENDROOT
BRANCH   5   9
ATOM      9  C   UNL     1      69.856  68.963  27.952  1.00  0.00    -0.077 C 
ATOM     10  C   UNL     1      69.620  70.284  27.879  1.00  0.00     0.008 C 
ATOM     11  C   UNL     1      70.804  68.344  26.957  1.00  0.00     0.039 C 
ENDBRANCH   5   9
TORSDOF 1
ENDMDL
