MODEL 1
REMARK VINA RESULT:    -4.217      0.000      0.000
REMARK INTER + INTRA:          -5.835
REMARK INTER:                  -5.697
REMARK INTRA:                  -0.139
REMARK UNBOUND:                -0.139
REMARK SMILES CCCCCCCC(=O)[O-]
REMARK SMILES IDX 5 1 6 2 7 3 8 4 9 5 10 6 4 7 3 8 2 9 1 10
REMARK H PARENT
REMARK Flexibility Score: inf
ROOT
ATOM      1  C   UNL     1      39.806  56.402  18.340  1.00  0.00     0.000 C 
ENDROOT
BRANCH   1   2
ATOM      2  C   UNL     1      40.706  56.009  17.155  1.00  0.00     0.006 C 
BRANCH   2   3
ATOM      3  C   UNL     1      42.118  55.596  17.591  1.00  0.00     0.053 C 
BRANCH   3   4
ATOM      4  C   UNL     1      42.809  54.855  16.490  1.00  0.00     0.041 C 
ATOM      5  O   UNL     1      44.025  54.547  16.599  1.00  0.00    -0.550 OA
ATOM      6  O   UNL     1      42.122  54.545  15.323  1.00  0.00    -0.550 OA
ENDBRANCH   3   4
ENDBRANCH   2   3
ENDBRANCH   1   2
BRANCH   1   7
ATOM      7  C   UNL     1      38.558  57.227  17.967  1.00  0.00     0.000 C 
BRANCH   7   8
ATOM      8  C   UNL     1      37.747  56.681  16.778  1.00  0.00    -0.000 C 
BRANCH   8   9
ATOM      9  C   UNL     1      36.272  57.107  16.817  1.00  0.00    -0.003 C 
ATOM     10  C   UNL     1      35.941  58.046  15.661  1.00  0.00     0.004 C 
ENDBRANCH   8   9
ENDBRANCH   7   8
ENDBRANCH   1   7
TORSDOF 6
ENDMDL
MODEL 2
REMARK VINA RESULT:    -3.849      4.385      6.643
REMARK INTER + INTRA:          -5.337
REMARK INTER:                  -5.190
REMARK INTRA:                  -0.147
REMARK UNBOUND:                -0.139
REMARK SMILES CCCCCCCC(=O)[O-]
REMARK SMILES IDX 5 1 6 2 7 3 8 4 9 5 10 6 4 7 3 8 2 9 1 10
REMARK H PARENT
REMARK Flexibility Score: inf
ROOT
ATOM      1  C   UNL     1      36.415  57.186  17.082  1.00  0.00     0.000 C 
ENDROOT
BRANCH   1   2
ATOM      2  C   UNL     1      35.707  57.759  15.842  1.00  0.00     0.006 C 
BRANCH   2   3
ATOM      3  C   UNL     1      34.918  56.699  15.064  1.00  0.00     0.053 C 
BRANCH   3   4
ATOM      4  C   UNL     1      33.771  56.197  15.883  1.00  0.00     0.041 C 
ATOM      5  O   UNL     1      33.052  57.005  16.528  1.00  0.00    -0.550 OA
ATOM      6  O   UNL     1      33.525  54.833  15.974  1.00  0.00    -0.550 OA
ENDBRANCH   3   4
ENDBRANCH   2   3
ENDBRANCH   1   2
BRANCH   1   7
ATOM      7  C   UNL     1      37.861  56.704  16.847  1.00  0.00     0.000 C 
BRANCH   7   8
ATOM      8  C   UNL     1      38.881  57.163  17.904  1.00  0.00    -0.000 C 
BRANCH   8   9
ATOM      9  C   UNL     1      39.878  56.060  18.287  1.00  0.00    -0.003 C 
ATOM     10  C   UNL     1      41.012  55.968  17.271  1.00  0.00     0.004 C 
ENDBRANCH   8   9
ENDBRANCH   7   8
ENDBRANCH   1   7
TORSDOF 6
ENDMDL
MODEL 3
REMARK VINA RESULT:    -3.815      2.586      4.168
REMARK INTER + INTRA:          -5.291
REMARK INTER:                  -5.114
REMARK INTRA:                  -0.177
REMARK UNBOUND:                -0.139
REMARK SMILES CCCCCCCC(=O)[O-]
REMARK SMILES IDX 5 1 6 2 7 3 8 4 9 5 10 6 4 7 3 8 2 9 1 10
REMARK H PARENT
REMARK Flexibility Score: inf
ROOT
ATOM      1  C   UNL     1      43.091  53.822  16.807  1.00  0.00     0.000 C 
ENDROOT
BRANCH   1   2
ATOM      2  C   UNL     1      43.560  53.695  15.346  1.00  0.00     0.006 C 
BRANCH   2   3
ATOM      3  C   UNL     1      44.824  54.515  15.054  1.00  0.00     0.053 C 
BRANCH   3   4
ATOM      4  C   UNL     1      45.986  53.608  14.796  1.00  0.00     0.041 C 
ATOM      5  O   UNL     1      47.158  54.067  14.789  1.00  0.00    -0.550 OA
ATOM      6  O   UNL     1      45.770  52.264  14.518  1.00  0.00    -0.550 OA
ENDBRANCH   3   4
ENDBRANCH   2   3
ENDBRANCH   1   2
BRANCH   1   7
ATOM      7  C   UNL     1      42.768  55.258  17.267  1.00  0.00     0.000 C 
BRANCH   7   8
ATOM      8  C   UNL     1      41.327  55.723  16.989  1.00  0.00    -0.000 C 
BRANCH   8   9
ATOM      9  C   UNL     1      40.534  56.009  18.272  1.00  0.00    -0.003 C 
ATOM     10  C   UNL     1      39.257  56.785  17.967  1.00  0.00     0.004 C 
ENDBRANCH   8   9
ENDBRANCH   7   8
ENDBRANCH   1   7
TORSDOF 6
ENDMDL
MODEL 4
REMARK VINA RESULT:    -3.809      0.976      1.338
REMARK INTER + INTRA:          -5.284
REMARK INTER:                  -5.155
REMARK INTRA:                  -0.128
REMARK UNBOUND:                -0.139
REMARK SMILES CCCCCCCC(=O)[O-]
REMARK SMILES IDX 5 1 6 2 7 3 8 4 9 5 10 6 4 7 3 8 2 9 1 10
REMARK H PARENT
REMARK Flexibility Score: inf
ROOT
ATOM      1  C   UNL     1      40.896  55.569  18.094  1.00  0.00     0.000 C 
ENDROOT
BRANCH   1   2
ATOM      2  C   UNL     1      42.212  55.753  17.317  1.00  0.00     0.006 C 
BRANCH   2   3
ATOM      3  C   UNL     1      43.088  54.493  17.323  1.00  0.00     0.053 C 
BRANCH   3   4
ATOM      4  C   UNL     1      43.268  53.977  15.931  1.00  0.00     0.041 C 
ATOM      5  O   UNL     1      44.417  53.925  15.418  1.00  0.00    -0.550 OA
ATOM      6  O   UNL     1      42.161  53.598  15.181  1.00  0.00    -0.550 OA
ENDBRANCH   3   4
ENDBRANCH   2   3
ENDBRANCH   1   2
BRANCH   1   7
ATOM      7  C   UNL     1      39.902  56.743  17.984  1.00  0.00     0.000 C 
BRANCH   7   8
ATOM      8  C   UNL     1      38.593  56.421  17.243  1.00  0.00    -0.000 C 
BRANCH   8   9
ATOM      9  C   UNL     1      37.485  57.449  17.515  1.00  0.00    -0.003 C 
ATOM     10  C   UNL     1      36.218  57.111  16.737  1.00  0.00     0.004 C 
ENDBRANCH   8   9
ENDBRANCH   7   8
ENDBRANCH   1   7
TORSDOF 6
ENDMDL
MODEL 5
REMARK VINA RESULT:    -3.793      5.104      7.263
REMARK INTER + INTRA:          -5.261
REMARK INTER:                  -5.079
REMARK INTRA:                  -0.183
REMARK UNBOUND:                -0.139
REMARK SMILES CCCCCCCC(=O)[O-]
REMARK SMILES IDX 5 1 6 2 7 3 8 4 9 5 10 6 4 7 3 8 2 9 1 10
REMARK H PARENT
REMARK Flexibility Score: inf
ROOT
ATOM      1  C   UNL     1      35.825  57.682  15.474  1.00  0.00     0.000 C 
ENDROOT
BRANCH   1   2
ATOM      2  C   UNL     1      34.478  56.968  15.262  1.00  0.00     0.006 C 
BRANCH   2   3
ATOM      3  C   UNL     1      34.130  56.001  16.402  1.00  0.00     0.053 C 
BRANCH   3   4
ATOM      4  C   UNL     1      32.655  55.756  16.446  1.00  0.00     0.041 C 
ATOM      5  O   UNL     1      32.185  54.849  17.182  1.00  0.00    -0.550 OA
ATOM      6  O   UNL     1      31.802  56.499  15.639  1.00  0.00    -0.550 OA
ENDBRANCH   3   4
ENDBRANCH   2   3
ENDBRANCH   1   2
BRANCH   1   7
ATOM      7  C   UNL     1      36.489  57.432  16.844  1.00  0.00     0.000 C 
BRANCH   7   8
ATOM      8  C   UNL     1      37.826  56.672  16.791  1.00  0.00    -0.000 C 
BRANCH   8   9
ATOM      9  C   UNL     1      38.774  57.054  17.937  1.00  0.00    -0.003 C 
ATOM     10  C   UNL     1      40.093  56.295  17.834  1.00  0.00     0.004 C 
ENDBRANCH   8   9
ENDBRANCH   7   8
ENDBRANCH   1   7
TORSDOF 6
ENDMDL
MODEL 6
REMARK VINA RESULT:    -3.770      4.051      6.407
REMARK INTER + INTRA:          -5.231
REMARK INTER:                  -5.088
REMARK INTRA:                  -0.143
REMARK UNBOUND:                -0.139
REMARK SMILES CCCCCCCC(=O)[O-]
REMARK SMILES IDX 5 1 6 2 7 3 8 4 9 5 10 6 4 7 3 8 2 9 1 10
REMARK H PARENT
REMARK Flexibility Score: inf
ROOT
ATOM      1  C   UNL     1      37.678  57.134  17.433  1.00  0.00     0.000 C 
ENDROOT
BRANCH   1   2
ATOM      2  C   UNL     1      36.717  56.903  16.253  1.00  0.00     0.006 C 
BRANCH   2   3
ATOM      3  C   UNL     1      35.299  57.419  16.532  1.00  0.00     0.053 C 
BRANCH   3   4
ATOM      4  C   UNL     1      34.289  56.582  15.811  1.00  0.00     0.041 C 
ATOM      5  O   UNL     1      34.551  56.113  14.672  1.00  0.00    -0.550 OA
ATOM      6  O   UNL     1      33.040  56.358  16.378  1.00  0.00    -0.550 OA
ENDBRANCH   3   4
ENDBRANCH   2   3
ENDBRANCH   1   2
BRANCH   1   7
ATOM      7  C   UNL     1      39.091  56.545  17.250  1.00  0.00     0.000 C 
BRANCH   7   8
ATOM      8  C   UNL     1      39.879  56.323  18.553  1.00  0.00    -0.000 C 
BRANCH   8   9
ATOM      9  C   UNL     1      41.239  55.649  18.321  1.00  0.00    -0.003 C 
ATOM     10  C   UNL     1      41.568  55.575  16.833  1.00  0.00     0.004 C 
ENDBRANCH   8   9
ENDBRANCH   7   8
ENDBRANCH   1   7
TORSDOF 6
ENDMDL
MODEL 7
REMARK VINA RESULT:    -3.762      3.244      4.989
REMARK INTER + INTRA:          -5.221
REMARK INTER:                  -5.121
REMARK INTRA:                  -0.100
REMARK UNBOUND:                -0.139
REMARK SMILES CCCCCCCC(=O)[O-]
REMARK SMILES IDX 5 1 6 2 7 3 8 4 9 5 10 6 4 7 3 8 2 9 1 10
REMARK H PARENT
REMARK Flexibility Score: inf
ROOT
ATOM      1  C   UNL     1      44.074  56.086  16.792  1.00  0.00     0.000 C 
ENDROOT
BRANCH   1   2
ATOM      2  C   UNL     1      45.487  55.480  16.718  1.00  0.00     0.006 C 
BRANCH   2   3
ATOM      3  C   UNL     1      46.567  56.527  16.417  1.00  0.00     0.053 C 
BRANCH   3   4
ATOM      4  C   UNL     1      47.800  56.249  17.219  1.00  0.00     0.041 C 
ATOM      5  O   UNL     1      48.239  55.074  17.318  1.00  0.00    -0.550 OA
ATOM      6  O   UNL     1      48.436  57.282  17.896  1.00  0.00    -0.550 OA
ENDBRANCH   3   4
ENDBRANCH   2   3
ENDBRANCH   1   2
BRANCH   1   7
ATOM      7  C   UNL     1      42.968  55.112  17.249  1.00  0.00     0.000 C 
BRANCH   7   8
ATOM      8  C   UNL     1      41.530  55.579  16.963  1.00  0.00    -0.000 C 
BRANCH   8   9
ATOM      9  C   UNL     1      40.727  55.853  18.243  1.00  0.00    -0.003 C 
ATOM     10  C   UNL     1      39.420  56.573  17.928  1.00  0.00     0.004 C 
ENDBRANCH   8   9
ENDBRANCH   7   8
ENDBRANCH   1   7
TORSDOF 6
ENDMDL
MODEL 8
REMARK VINA RESULT:    -3.630      3.561      7.326
REMARK INTER + INTRA:          -5.042
REMARK INTER:                  -4.803
REMARK INTRA:                  -0.239
REMARK UNBOUND:                -0.139
REMARK SMILES CCCCCCCC(=O)[O-]
REMARK SMILES IDX 5 1 6 2 7 3 8 4 9 5 10 6 4 7 3 8 2 9 1 10
REMARK H PARENT
REMARK Flexibility Score: inf
ROOT
ATOM      1  C   UNL     1      45.213  55.781  16.318  1.00  0.00     0.000 C 
ENDROOT
BRANCH   1   2
ATOM      2  C   UNL     1      43.963  54.922  16.582  1.00  0.00     0.006 C 
BRANCH   2   3
ATOM      3  C   UNL     1      42.943  55.620  17.490  1.00  0.00     0.053 C 
BRANCH   3   4
ATOM      4  C   UNL     1      41.586  55.602  16.860  1.00  0.00     0.041 C 
ATOM      5  O   UNL     1      41.431  55.132  15.702  1.00  0.00    -0.550 OA
ATOM      6  O   UNL     1      40.499  56.148  17.532  1.00  0.00    -0.550 OA
ENDBRANCH   3   4
ENDBRANCH   2   3
ENDBRANCH   1   2
BRANCH   1   7
ATOM      7  C   UNL     1      46.395  55.034  15.667  1.00  0.00     0.000 C 
BRANCH   7   8
ATOM      8  C   UNL     1      47.786  55.604  15.995  1.00  0.00    -0.000 C 
BRANCH   8   9
ATOM      9  C   UNL     1      47.952  55.956  17.480  1.00  0.00    -0.003 C 
ATOM     10  C   UNL     1      48.327  57.424  17.658  1.00  0.00     0.004 C 
ENDBRANCH   8   9
ENDBRANCH   7   8
ENDBRANCH   1   7
TORSDOF 6
ENDMDL
MODEL 9
REMARK VINA RESULT:    -3.569      4.524      6.711
REMARK INTER + INTRA:          -4.960
REMARK INTER:                  -4.588
REMARK INTRA:                  -0.371
REMARK UNBOUND:                -0.139
REMARK SMILES CCCCCCCC(=O)[O-]
REMARK SMILES IDX 5 1 6 2 7 3 8 4 9 5 10 6 4 7 3 8 2 9 1 10
REMARK H PARENT
REMARK Flexibility Score: inf
ROOT
ATOM      1  C   UNL     1      33.302  55.972  14.948  1.00  0.00     0.000 C 
ENDROOT
BRANCH   1   2
ATOM      2  C   UNL     1      34.504  56.931  14.996  1.00  0.00     0.006 C 
BRANCH   2   3
ATOM      3  C   UNL     1      35.034  57.152  16.419  1.00  0.00     0.053 C 
BRANCH   3   4
ATOM      4  C   UNL     1      36.530  57.130  16.428  1.00  0.00     0.041 C 
ATOM      5  O   UNL     1      37.164  57.587  17.415  1.00  0.00    -0.550 OA
ATOM      6  O   UNL     1      37.225  56.648  15.325  1.00  0.00    -0.550 OA
ENDBRANCH   3   4
ENDBRANCH   2   3
ENDBRANCH   1   2
BRANCH   1   7
ATOM      7  C   UNL     1      31.978  56.605  14.473  1.00  0.00     0.000 C 
BRANCH   7   8
ATOM      8  C   UNL     1      30.805  56.480  15.461  1.00  0.00    -0.000 C 
BRANCH   8   9
ATOM      9  C   UNL     1      31.196  56.843  16.901  1.00  0.00    -0.003 C 
ATOM     10  C   UNL     1      30.791  55.742  17.875  1.00  0.00     0.004 C 
ENDBRANCH   8   9
ENDBRANCH   7   8
ENDBRANCH   1   7
TORSDOF 6
ENDMDL
