MODEL 1
REMARK VINA RESULT:    -3.302      0.000      0.000
REMARK INTER + INTRA:          -3.984
REMARK INTER:                  -3.881
REMARK INTRA:                  -0.103
REMARK UNBOUND:                -0.103
REMARK SMILES O=C([O-])CCC(=O)[O-]
REMARK SMILES IDX 4 1 2 2 1 3 3 4 5 5 6 6 7 7 8 8
REMARK H PARENT
REMARK Flexibility Score: inf
ROOT
ATOM      1  C   UNL     1     -19.398  22.707  12.026  1.00  0.00     0.059 C 
ENDROOT
BRANCH   1   2
ATOM      2  C   UNL     1     -20.247  23.358  10.977  1.00  0.00     0.042 C 
ATOM      3  O   UNL     1     -20.752  22.668  10.052  1.00  0.00    -0.550 OA
ATOM      4  O   UNL     1     -20.515  24.719  11.047  1.00  0.00    -0.550 OA
ENDBRANCH   1   2
BRANCH   1   5
ATOM      5  C   UNL     1     -20.111  22.660  13.381  1.00  0.00     0.059 C 
BRANCH   5   6
ATOM      6  C   UNL     1     -19.664  23.773  14.279  1.00  0.00     0.042 C 
ATOM      7  O   UNL     1     -20.354  24.822  14.380  1.00  0.00    -0.550 OA
ATOM      8  O   UNL     1     -18.507  23.635  15.034  1.00  0.00    -0.550 OA
ENDBRANCH   5   6
ENDBRANCH   1   5
TORSDOF 3
ENDMDL
MODEL 2
REMARK VINA RESULT:    -3.299      0.046      3.824
REMARK INTER + INTRA:          -3.981
REMARK INTER:                  -3.878
REMARK INTRA:                  -0.103
REMARK UNBOUND:                -0.103
REMARK SMILES O=C([O-])CCC(=O)[O-]
REMARK SMILES IDX 4 1 2 2 1 3 3 4 5 5 6 6 7 7 8 8
REMARK H PARENT
REMARK Flexibility Score: inf
ROOT
ATOM      1  C   UNL     1     -20.147  22.639  13.372  1.00  0.00     0.059 C 
ENDROOT
BRANCH   1   2
ATOM      2  C   UNL     1     -19.710  23.750  14.278  1.00  0.00     0.042 C 
ATOM      3  O   UNL     1     -20.398  24.801  14.368  1.00  0.00    -0.550 OA
ATOM      4  O   UNL     1     -18.566  23.605  15.052  1.00  0.00    -0.550 OA
ENDBRANCH   1   2
BRANCH   1   5
ATOM      5  C   UNL     1     -19.422  22.692  12.024  1.00  0.00     0.059 C 
BRANCH   5   6
ATOM      6  C   UNL     1     -20.267  23.337  10.968  1.00  0.00     0.042 C 
ATOM      7  O   UNL     1     -20.747  22.648  10.031  1.00  0.00    -0.550 OA
ATOM      8  O   UNL     1     -20.557  24.694  11.043  1.00  0.00    -0.550 OA
ENDBRANCH   5   6
ENDBRANCH   1   5
TORSDOF 3
ENDMDL
MODEL 3
REMARK VINA RESULT:    -3.121      1.404      1.760
REMARK INTER + INTRA:          -3.771
REMARK INTER:                  -3.661
REMARK INTRA:                  -0.110
REMARK UNBOUND:                -0.103
REMARK SMILES O=C([O-])CCC(=O)[O-]
REMARK SMILES IDX 4 1 2 2 1 3 3 4 5 5 6 6 7 7 8 8
REMARK H PARENT
REMARK Flexibility Score: inf
ROOT
ATOM      1  C   UNL     1     -19.030  22.393  13.125  1.00  0.00     0.059 C 
ENDROOT
BRANCH   1   2
ATOM      2  C   UNL     1     -19.290  22.306  11.652  1.00  0.00     0.042 C 
ATOM      3  O   UNL     1     -20.356  22.770  11.168  1.00  0.00    -0.550 OA
ATOM      4  O   UNL     1     -18.335  21.751  10.809  1.00  0.00    -0.550 OA
ENDBRANCH   1   2
BRANCH   1   5
ATOM      5  C   UNL     1     -20.333  22.496  13.923  1.00  0.00     0.059 C 
BRANCH   5   6
ATOM      6  C   UNL     1     -20.383  23.753  14.737  1.00  0.00     0.042 C 
ATOM      7  O   UNL     1     -20.473  24.873  14.169  1.00  0.00    -0.550 OA
ATOM      8  O   UNL     1     -20.371  23.683  16.124  1.00  0.00    -0.550 OA
ENDBRANCH   5   6
ENDBRANCH   1   5
TORSDOF 3
ENDMDL
MODEL 4
REMARK VINA RESULT:    -3.108      2.731      3.860
REMARK INTER + INTRA:          -3.756
REMARK INTER:                  -3.665
REMARK INTRA:                  -0.091
REMARK UNBOUND:                -0.103
REMARK SMILES O=C([O-])CCC(=O)[O-]
REMARK SMILES IDX 4 1 2 2 1 3 3 4 5 5 6 6 7 7 8 8
REMARK H PARENT
REMARK Flexibility Score: inf
ROOT
ATOM      1  C   UNL     1     -18.740  22.918  14.387  1.00  0.00     0.059 C 
ENDROOT
BRANCH   1   2
ATOM      2  C   UNL     1     -19.853  23.752  14.945  1.00  0.00     0.042 C 
ATOM      3  O   UNL     1     -20.284  23.537  16.108  1.00  0.00    -0.550 OA
ATOM      4  O   UNL     1     -20.384  24.793  14.194  1.00  0.00    -0.550 OA
ENDBRANCH   1   2
BRANCH   1   5
ATOM      5  C   UNL     1     -17.935  22.236  15.496  1.00  0.00     0.059 C 
BRANCH   5   6
ATOM      6  C   UNL     1     -16.712  23.023  15.855  1.00  0.00     0.042 C 
ATOM      7  O   UNL     1     -16.339  23.982  15.129  1.00  0.00    -0.550 OA
ATOM      8  O   UNL     1     -16.008  22.724  17.014  1.00  0.00    -0.550 OA
ENDBRANCH   5   6
ENDBRANCH   1   5
TORSDOF 3
ENDMDL
MODEL 5
REMARK VINA RESULT:    -3.105      1.908      4.046
REMARK INTER + INTRA:          -3.752
REMARK INTER:                  -3.643
REMARK INTRA:                  -0.109
REMARK UNBOUND:                -0.103
REMARK SMILES O=C([O-])CCC(=O)[O-]
REMARK SMILES IDX 4 1 2 2 1 3 3 4 5 5 6 6 7 7 8 8
REMARK H PARENT
REMARK Flexibility Score: inf
ROOT
ATOM      1  C   UNL     1     -19.502  23.840  14.712  1.00  0.00     0.059 C 
ENDROOT
BRANCH   1   2
ATOM      2  C   UNL     1     -20.273  22.956  15.645  1.00  0.00     0.042 C 
ATOM      3  O   UNL     1     -20.174  23.110  16.890  1.00  0.00    -0.550 OA
ATOM      4  O   UNL     1     -21.131  21.990  15.135  1.00  0.00    -0.550 OA
ENDBRANCH   1   2
BRANCH   1   5
ATOM      5  C   UNL     1     -20.430  24.593  13.753  1.00  0.00     0.059 C 
BRANCH   5   6
ATOM      6  C   UNL     1     -20.311  24.076  12.351  1.00  0.00     0.042 C 
ATOM      7  O   UNL     1     -20.462  24.854  11.373  1.00  0.00    -0.550 OA
ATOM      8  O   UNL     1     -19.991  22.743  12.127  1.00  0.00    -0.550 OA
ENDBRANCH   5   6
ENDBRANCH   1   5
TORSDOF 3
ENDMDL
MODEL 6
REMARK VINA RESULT:    -3.102      1.570      3.938
REMARK INTER + INTRA:          -3.750
REMARK INTER:                  -3.627
REMARK INTRA:                  -0.123
REMARK UNBOUND:                -0.103
REMARK SMILES O=C([O-])CCC(=O)[O-]
REMARK SMILES IDX 4 1 2 2 1 3 3 4 5 5 6 6 7 7 8 8
REMARK H PARENT
REMARK Flexibility Score: inf
ROOT
ATOM      1  C   UNL     1     -19.877  22.271  14.334  1.00  0.00     0.059 C 
ENDROOT
BRANCH   1   2
ATOM      2  C   UNL     1     -20.187  23.554  15.044  1.00  0.00     0.042 C 
ATOM      3  O   UNL     1     -20.289  23.575  16.299  1.00  0.00    -0.550 OA
ATOM      4  O   UNL     1     -20.321  24.732  14.321  1.00  0.00    -0.550 OA
ENDBRANCH   1   2
BRANCH   1   5
ATOM      5  C   UNL     1     -18.677  22.422  13.393  1.00  0.00     0.059 C 
BRANCH   5   6
ATOM      6  C   UNL     1     -19.079  22.265  11.958  1.00  0.00     0.042 C 
ATOM      7  O   UNL     1     -18.299  21.715  11.138  1.00  0.00    -0.550 OA
ATOM      8  O   UNL     1     -20.333  22.690  11.537  1.00  0.00    -0.550 OA
ENDBRANCH   5   6
ENDBRANCH   1   5
TORSDOF 3
ENDMDL
MODEL 7
REMARK VINA RESULT:    -3.052      2.801      5.004
REMARK INTER + INTRA:          -3.691
REMARK INTER:                  -3.570
REMARK INTRA:                  -0.121
REMARK UNBOUND:                -0.103
REMARK SMILES O=C([O-])CCC(=O)[O-]
REMARK SMILES IDX 4 1 2 2 1 3 3 4 5 5 6 6 7 7 8 8
REMARK H PARENT
REMARK Flexibility Score: inf
ROOT
ATOM      1  C   UNL     1     -18.599  22.173  15.839  1.00  0.00     0.059 C 
ENDROOT
BRANCH   1   2
ATOM      2  C   UNL     1     -18.614  22.357  17.326  1.00  0.00     0.042 C 
ATOM      3  O   UNL     1     -19.706  22.483  17.938  1.00  0.00    -0.550 OA
ATOM      4  O   UNL     1     -17.421  22.345  18.038  1.00  0.00    -0.550 OA
ENDBRANCH   1   2
BRANCH   1   5
ATOM      5  C   UNL     1     -18.713  23.513  15.104  1.00  0.00     0.059 C 
BRANCH   5   6
ATOM      6  C   UNL     1     -20.115  23.769  14.640  1.00  0.00     0.042 C 
ATOM      7  O   UNL     1     -20.428  24.889  14.158  1.00  0.00    -0.550 OA
ATOM      8  O   UNL     1     -21.064  22.757  14.704  1.00  0.00    -0.550 OA
ENDBRANCH   5   6
ENDBRANCH   1   5
TORSDOF 3
ENDMDL
MODEL 8
REMARK VINA RESULT:    -3.045      2.777      3.621
REMARK INTER + INTRA:          -3.682
REMARK INTER:                  -3.564
REMARK INTRA:                  -0.118
REMARK UNBOUND:                -0.103
REMARK SMILES O=C([O-])CCC(=O)[O-]
REMARK SMILES IDX 4 1 2 2 1 3 3 4 5 5 6 6 7 7 8 8
REMARK H PARENT
REMARK Flexibility Score: inf
ROOT
ATOM      1  C   UNL     1     -18.765  23.495  15.091  1.00  0.00     0.059 C 
ENDROOT
BRANCH   1   2
ATOM      2  C   UNL     1     -20.161  23.709  14.591  1.00  0.00     0.042 C 
ATOM      3  O   UNL     1     -21.013  22.786  14.675  1.00  0.00    -0.550 OA
ATOM      4  O   UNL     1     -20.530  24.943  14.070  1.00  0.00    -0.550 OA
ENDBRANCH   1   2
BRANCH   1   5
ATOM      5  C   UNL     1     -18.635  22.171  15.851  1.00  0.00     0.059 C 
BRANCH   5   6
ATOM      6  C   UNL     1     -18.698  22.378  17.333  1.00  0.00     0.042 C 
ATOM      7  O   UNL     1     -19.810  22.495  17.911  1.00  0.00    -0.550 OA
ATOM      8  O   UNL     1     -17.528  22.400  18.082  1.00  0.00    -0.550 OA
ENDBRANCH   5   6
ENDBRANCH   1   5
TORSDOF 3
ENDMDL
MODEL 9
REMARK VINA RESULT:    -3.034      2.503      3.898
REMARK INTER + INTRA:          -3.669
REMARK INTER:                  -3.566
REMARK INTRA:                  -0.103
REMARK UNBOUND:                -0.103
REMARK SMILES O=C([O-])CCC(=O)[O-]
REMARK SMILES IDX 4 1 2 2 1 3 3 4 5 5 6 6 7 7 8 8
REMARK H PARENT
REMARK Flexibility Score: inf
ROOT
ATOM      1  C   UNL     1     -17.945  22.241  14.724  1.00  0.00     0.059 C 
ENDROOT
BRANCH   1   2
ATOM      2  C   UNL     1     -16.668  22.998  14.516  1.00  0.00     0.042 C 
ATOM      3  O   UNL     1     -16.399  23.997  15.233  1.00  0.00    -0.550 OA
ATOM      4  O   UNL     1     -15.758  22.572  13.557  1.00  0.00    -0.550 OA
ENDBRANCH   1   2
BRANCH   1   5
ATOM      5  C   UNL     1     -19.090  22.827  13.893  1.00  0.00     0.059 C 
BRANCH   5   6
ATOM      6  C   UNL     1     -19.921  23.783  14.695  1.00  0.00     0.042 C 
ATOM      7  O   UNL     1     -20.432  24.793  14.146  1.00  0.00    -0.550 OA
ATOM      8  O   UNL     1     -20.162  23.534  16.040  1.00  0.00    -0.550 OA
ENDBRANCH   5   6
ENDBRANCH   1   5
TORSDOF 3
ENDMDL
