MODEL 1
REMARK VINA RESULT:    -4.451      0.000      0.000
REMARK INTER + INTRA:          -9.704
REMARK INTER:                  -8.095
REMARK INTRA:                  -1.609
REMARK UNBOUND:                -1.609
REMARK SMILES CCCCCCCCCCCCCCCC(=O)[O-]
REMARK SMILES IDX 9 1 10 2 11 3 12 4 13 5 14 6 15 7 16 8 17 9 18 10 8 11 7 12
REMARK SMILES IDX 6 13 5 14 4 15 3 16 2 17 1 18
REMARK H PARENT
REMARK Flexibility Score: inf
ROOT
ATOM      1  C   UNL     1       7.956  -5.444 -32.919  1.00  0.00     0.000 C 
ENDROOT
BRANCH   1   2
ATOM      2  C   UNL     1       7.734  -3.960 -33.264  1.00  0.00     0.000 C 
BRANCH   2   3
ATOM      3  C   UNL     1       7.301  -3.743 -34.725  1.00  0.00     0.000 C 
BRANCH   3   4
ATOM      4  C   UNL     1       7.680  -2.374 -35.321  1.00  0.00     0.000 C 
BRANCH   4   5
ATOM      5  C   UNL     1       8.379  -2.489 -36.686  1.00  0.00     0.000 C 
BRANCH   5   6
ATOM      6  C   UNL     1       9.791  -1.883 -36.679  1.00  0.00     0.006 C 
BRANCH   6   7
ATOM      7  C   UNL     1      10.306  -1.607 -35.260  1.00  0.00     0.053 C 
BRANCH   7   8
ATOM      8  C   UNL     1      11.777  -1.868 -35.179  1.00  0.00     0.041 C 
ATOM      9  O   UNL     1      12.394  -2.336 -36.172  1.00  0.00    -0.550 OA
ATOM     10  O   UNL     1      12.458  -1.641 -33.990  1.00  0.00    -0.550 OA
ENDBRANCH   7   8
ENDBRANCH   6   7
ENDBRANCH   5   6
ENDBRANCH   4   5
ENDBRANCH   3   4
ENDBRANCH   2   3
ENDBRANCH   1   2
BRANCH   1  11
ATOM     11  C   UNL     1       7.405  -5.816 -31.532  1.00  0.00     0.000 C 
BRANCH  11  12
ATOM     12  C   UNL     1       6.493  -7.051 -31.568  1.00  0.00    -0.000 C 
BRANCH  12  13
ATOM     13  C   UNL     1       5.365  -6.871 -32.591  1.00  0.00    -0.000 C 
BRANCH  13  14
ATOM     14  C   UNL     1       5.204  -8.127 -33.460  1.00  0.00    -0.000 C 
BRANCH  14  15
ATOM     15  C   UNL     1       4.659  -7.815 -34.863  1.00  0.00    -0.000 C 
BRANCH  15  16
ATOM     16  C   UNL     1       5.289  -6.551 -35.473  1.00  0.00    -0.000 C 
BRANCH  16  17
ATOM     17  C   UNL     1       6.314  -6.876 -36.571  1.00  0.00    -0.003 C 
ATOM     18  C   UNL     1       7.679  -7.274 -36.009  1.00  0.00     0.004 C 
ENDBRANCH  16  17
ENDBRANCH  15  16
ENDBRANCH  14  15
ENDBRANCH  13  14
ENDBRANCH  12  13
ENDBRANCH  11  12
ENDBRANCH   1  11
TORSDOF 14
ENDMDL
MODEL 2
REMARK VINA RESULT:    -4.441      4.207      6.695
REMARK INTER + INTRA:          -9.685
REMARK INTER:                  -7.644
REMARK INTRA:                  -2.041
REMARK UNBOUND:                -1.609
REMARK SMILES CCCCCCCCCCCCCCCC(=O)[O-]
REMARK SMILES IDX 9 1 10 2 11 3 12 4 13 5 14 6 15 7 16 8 17 9 18 10 8 11 7 12
REMARK SMILES IDX 6 13 5 14 4 15 3 16 2 17 1 18
REMARK H PARENT
REMARK Flexibility Score: inf
ROOT
ATOM      1  C   UNL     1       4.305  -2.777 -36.187  1.00  0.00     0.000 C 
ENDROOT
BRANCH   1   2
ATOM      2  C   UNL     1       3.435  -3.431 -37.275  1.00  0.00     0.000 C 
BRANCH   2   3
ATOM      3  C   UNL     1       3.471  -4.969 -37.228  1.00  0.00     0.000 C 
BRANCH   3   4
ATOM      4  C   UNL     1       4.689  -5.614 -37.915  1.00  0.00     0.000 C 
BRANCH   4   5
ATOM      5  C   UNL     1       5.337  -6.722 -37.067  1.00  0.00     0.000 C 
BRANCH   5   6
ATOM      6  C   UNL     1       5.299  -6.412 -35.562  1.00  0.00     0.006 C 
BRANCH   6   7
ATOM      7  C   UNL     1       5.431  -7.672 -34.698  1.00  0.00     0.053 C 
BRANCH   7   8
ATOM      8  C   UNL     1       4.182  -8.493 -34.778  1.00  0.00     0.041 C 
ATOM      9  O   UNL     1       4.182  -9.588 -35.401  1.00  0.00    -0.550 OA
ATOM     10  O   UNL     1       3.006  -8.026 -34.207  1.00  0.00    -0.550 OA
ENDBRANCH   7   8
ENDBRANCH   6   7
ENDBRANCH   5   6
ENDBRANCH   4   5
ENDBRANCH   3   4
ENDBRANCH   2   3
ENDBRANCH   1   2
BRANCH   1  11
ATOM     11  C   UNL     1       5.726  -2.455 -36.682  1.00  0.00     0.000 C 
BRANCH  11  12
ATOM     12  C   UNL     1       6.806  -2.790 -35.642  1.00  0.00    -0.000 C 
BRANCH  12  13
ATOM     13  C   UNL     1       6.177  -3.107 -34.281  1.00  0.00    -0.000 C 
BRANCH  13  14
ATOM     14  C   UNL     1       7.253  -3.472 -33.248  1.00  0.00    -0.000 C 
BRANCH  14  15
ATOM     15  C   UNL     1       8.193  -4.586 -33.736  1.00  0.00    -0.000 C 
BRANCH  15  16
ATOM     16  C   UNL     1       8.107  -5.854 -32.869  1.00  0.00    -0.000 C 
BRANCH  16  17
ATOM     17  C   UNL     1       7.211  -5.662 -31.635  1.00  0.00    -0.003 C 
ATOM     18  C   UNL     1       6.502  -6.949 -31.210  1.00  0.00     0.004 C 
ENDBRANCH  16  17
ENDBRANCH  15  16
ENDBRANCH  14  15
ENDBRANCH  13  14
ENDBRANCH  12  13
ENDBRANCH  11  12
ENDBRANCH   1  11
TORSDOF 14
ENDMDL
MODEL 3
REMARK VINA RESULT:    -4.403      4.042      6.333
REMARK INTER + INTRA:          -9.616
REMARK INTER:                  -7.569
REMARK INTRA:                  -2.047
REMARK UNBOUND:                -1.609
REMARK SMILES CCCCCCCCCCCCCCCC(=O)[O-]
REMARK SMILES IDX 9 1 10 2 11 3 12 4 13 5 14 6 15 7 16 8 17 9 18 10 8 11 7 12
REMARK SMILES IDX 6 13 5 14 4 15 3 16 2 17 1 18
REMARK H PARENT
REMARK Flexibility Score: inf
ROOT
ATOM      1  C   UNL     1       7.297  -3.606 -33.001  1.00  0.00     0.000 C 
ENDROOT
BRANCH   1   2
ATOM      2  C   UNL     1       8.208  -4.657 -33.661  1.00  0.00     0.000 C 
BRANCH   2   3
ATOM      3  C   UNL     1       8.244  -5.989 -32.888  1.00  0.00     0.000 C 
BRANCH   3   4
ATOM      4  C   UNL     1       7.417  -6.011 -31.590  1.00  0.00     0.000 C 
BRANCH   4   5
ATOM      5  C   UNL     1       6.132  -6.849 -31.713  1.00  0.00     0.000 C 
BRANCH   5   6
ATOM      6  C   UNL     1       5.757  -7.143 -33.174  1.00  0.00     0.006 C 
BRANCH   6   7
ATOM      7  C   UNL     1       4.335  -7.699 -33.317  1.00  0.00     0.053 C 
BRANCH   7   8
ATOM      8  C   UNL     1       4.374  -9.122 -33.778  1.00  0.00     0.041 C 
ATOM      9  O   UNL     1       4.543 -10.053 -32.947  1.00  0.00    -0.550 OA
ATOM     10  O   UNL     1       4.274  -9.416 -35.131  1.00  0.00    -0.550 OA
ENDBRANCH   7   8
ENDBRANCH   6   7
ENDBRANCH   5   6
ENDBRANCH   4   5
ENDBRANCH   3   4
ENDBRANCH   2   3
ENDBRANCH   1   2
BRANCH   1  11
ATOM     11  C   UNL     1       6.861  -2.505 -33.982  1.00  0.00     0.000 C 
BRANCH  11  12
ATOM     12  C   UNL     1       7.476  -2.679 -35.379  1.00  0.00    -0.000 C 
BRANCH  12  13
ATOM     13  C   UNL     1       6.385  -2.754 -36.454  1.00  0.00    -0.000 C 
BRANCH  13  14
ATOM     14  C   UNL     1       5.088  -3.344 -35.881  1.00  0.00    -0.000 C 
BRANCH  14  15
ATOM     15  C   UNL     1       4.839  -4.790 -36.340  1.00  0.00    -0.000 C 
BRANCH  15  16
ATOM     16  C   UNL     1       6.057  -5.403 -37.052  1.00  0.00    -0.000 C 
BRANCH  16  17
ATOM     17  C   UNL     1       6.234  -6.896 -36.734  1.00  0.00    -0.003 C 
ATOM     18  C   UNL     1       7.674  -7.261 -36.372  1.00  0.00     0.004 C 
ENDBRANCH  16  17
ENDBRANCH  15  16
ENDBRANCH  14  15
ENDBRANCH  13  14
ENDBRANCH  12  13
ENDBRANCH  11  12
ENDBRANCH   1  11
TORSDOF 14
ENDMDL
MODEL 4
REMARK VINA RESULT:    -4.381      4.896      7.507
REMARK INTER + INTRA:          -9.576
REMARK INTER:                  -7.527
REMARK INTRA:                  -2.049
REMARK UNBOUND:                -1.609
REMARK SMILES CCCCCCCCCCCCCCCC(=O)[O-]
REMARK SMILES IDX 9 1 10 2 11 3 12 4 13 5 14 6 15 7 16 8 17 9 18 10 8 11 7 12
REMARK SMILES IDX 6 13 5 14 4 15 3 16 2 17 1 18
REMARK H PARENT
REMARK Flexibility Score: inf
ROOT
ATOM      1  C   UNL     1       5.069  -8.158 -33.456  1.00  0.00     0.000 C 
ENDROOT
BRANCH   1   2
ATOM      2  C   UNL     1       5.715  -8.065 -34.850  1.00  0.00     0.000 C 
BRANCH   2   3
ATOM      3  C   UNL     1       4.683  -8.095 -35.991  1.00  0.00     0.000 C 
BRANCH   3   4
ATOM      4  C   UNL     1       3.896  -6.787 -36.192  1.00  0.00     0.000 C 
BRANCH   4   5
ATOM      5  C   UNL     1       2.411  -7.027 -36.516  1.00  0.00     0.000 C 
BRANCH   5   6
ATOM      6  C   UNL     1       1.579  -7.347 -35.264  1.00  0.00     0.006 C 
BRANCH   6   7
ATOM      7  C   UNL     1       0.981  -8.759 -35.300  1.00  0.00     0.053 C 
BRANCH   7   8
ATOM      8  C   UNL     1       1.607  -9.618 -34.247  1.00  0.00     0.041 C 
ATOM      9  O   UNL     1       1.297  -9.464 -33.036  1.00  0.00    -0.550 OA
ATOM     10  O   UNL     1       2.570 -10.556 -34.597  1.00  0.00    -0.550 OA
ENDBRANCH   7   8
ENDBRANCH   6   7
ENDBRANCH   5   6
ENDBRANCH   4   5
ENDBRANCH   3   4
ENDBRANCH   2   3
ENDBRANCH   1   2
BRANCH   1  11
ATOM     11  C   UNL     1       5.273  -6.878 -32.626  1.00  0.00     0.000 C 
BRANCH  11  12
ATOM     12  C   UNL     1       6.349  -7.041 -31.542  1.00  0.00    -0.000 C 
BRANCH  12  13
ATOM     13  C   UNL     1       7.343  -5.873 -31.576  1.00  0.00    -0.000 C 
BRANCH  13  14
ATOM     14  C   UNL     1       8.190  -5.908 -32.857  1.00  0.00    -0.000 C 
BRANCH  14  15
ATOM     15  C   UNL     1       8.151  -4.582 -33.632  1.00  0.00    -0.000 C 
BRANCH  15  16
ATOM     16  C   UNL     1       7.216  -4.637 -34.852  1.00  0.00    -0.000 C 
BRANCH  16  17
ATOM     17  C   UNL     1       5.931  -3.819 -34.645  1.00  0.00    -0.003 C 
ATOM     18  C   UNL     1       5.353  -3.279 -35.953  1.00  0.00     0.004 C 
ENDBRANCH  16  17
ENDBRANCH  15  16
ENDBRANCH  14  15
ENDBRANCH  13  14
ENDBRANCH  12  13
ENDBRANCH  11  12
ENDBRANCH   1  11
TORSDOF 14
ENDMDL
MODEL 5
REMARK VINA RESULT:    -4.377     14.968     17.369
REMARK INTER + INTRA:          -9.569
REMARK INTER:                  -8.194
REMARK INTRA:                  -1.374
REMARK UNBOUND:                -1.609
REMARK SMILES CCCCCCCCCCCCCCCC(=O)[O-]
REMARK SMILES IDX 9 1 10 2 11 3 12 4 13 5 14 6 15 7 16 8 17 9 18 10 8 11 7 12
REMARK SMILES IDX 6 13 5 14 4 15 3 16 2 17 1 18
REMARK H PARENT
REMARK Flexibility Score: inf
ROOT
ATOM      1  C   UNL     1      15.715  -4.283 -18.717  1.00  0.00     0.000 C 
ENDROOT
BRANCH   1   2
ATOM      2  C   UNL     1      15.720  -2.767 -18.981  1.00  0.00     0.000 C 
BRANCH   2   3
ATOM      3  C   UNL     1      14.506  -2.298 -19.804  1.00  0.00     0.000 C 
BRANCH   3   4
ATOM      4  C   UNL     1      14.577  -2.618 -21.309  1.00  0.00     0.000 C 
BRANCH   4   5
ATOM      5  C   UNL     1      13.325  -3.349 -21.825  1.00  0.00     0.000 C 
BRANCH   5   6
ATOM      6  C   UNL     1      13.580  -4.840 -22.093  1.00  0.00     0.006 C 
BRANCH   6   7
ATOM      7  C   UNL     1      14.324  -5.082 -23.412  1.00  0.00     0.053 C 
BRANCH   7   8
ATOM      8  C   UNL     1      15.459  -6.034 -23.205  1.00  0.00     0.041 C 
ATOM      9  O   UNL     1      15.636  -6.993 -24.003  1.00  0.00    -0.550 OA
ATOM     10  O   UNL     1      16.292  -5.893 -22.102  1.00  0.00    -0.550 OA
ENDBRANCH   7   8
ENDBRANCH   6   7
ENDBRANCH   5   6
ENDBRANCH   4   5
ENDBRANCH   3   4
ENDBRANCH   2   3
ENDBRANCH   1   2
BRANCH   1  11
ATOM     11  C   UNL     1      17.134  -4.875 -18.660  1.00  0.00     0.000 C 
BRANCH  11  12
ATOM     12  C   UNL     1      18.196  -3.833 -18.279  1.00  0.00    -0.000 C 
BRANCH  12  13
ATOM     13  C   UNL     1      19.609  -4.379 -18.515  1.00  0.00    -0.000 C 
BRANCH  13  14
ATOM     14  C   UNL     1      19.663  -5.894 -18.269  1.00  0.00    -0.000 C 
BRANCH  14  15
ATOM     15  C   UNL     1      20.676  -6.609 -19.178  1.00  0.00    -0.000 C 
BRANCH  15  16
ATOM     16  C   UNL     1      21.101  -5.749 -20.381  1.00  0.00    -0.000 C 
BRANCH  16  17
ATOM     17  C   UNL     1      20.796  -6.428 -21.726  1.00  0.00    -0.003 C 
ATOM     18  C   UNL     1      19.601  -7.378 -21.655  1.00  0.00     0.004 C 
ENDBRANCH  16  17
ENDBRANCH  15  16
ENDBRANCH  14  15
ENDBRANCH  13  14
ENDBRANCH  12  13
ENDBRANCH  11  12
ENDBRANCH   1  11
TORSDOF 14
ENDMDL
MODEL 6
REMARK VINA RESULT:    -4.347      3.119      4.551
REMARK INTER + INTRA:          -9.514
REMARK INTER:                  -7.475
REMARK INTRA:                  -2.039
REMARK UNBOUND:                -1.609
REMARK SMILES CCCCCCCCCCCCCCCC(=O)[O-]
REMARK SMILES IDX 9 1 10 2 11 3 12 4 13 5 14 6 15 7 16 8 17 9 18 10 8 11 7 12
REMARK SMILES IDX 6 13 5 14 4 15 3 16 2 17 1 18
REMARK H PARENT
REMARK Flexibility Score: inf
ROOT
ATOM      1  C   UNL     1       6.448  -6.890 -31.570  1.00  0.00     0.000 C 
ENDROOT
BRANCH   1   2
ATOM      2  C   UNL     1       7.672  -6.049 -31.976  1.00  0.00     0.000 C 
BRANCH   2   3
ATOM      3  C   UNL     1       7.301  -4.616 -32.399  1.00  0.00     0.000 C 
BRANCH   3   4
ATOM      4  C   UNL     1       7.823  -4.190 -33.784  1.00  0.00     0.000 C 
BRANCH   4   5
ATOM      5  C   UNL     1       7.688  -5.300 -34.841  1.00  0.00     0.000 C 
BRANCH   5   6
ATOM      6  C   UNL     1       6.823  -4.873 -36.038  1.00  0.00     0.006 C 
BRANCH   6   7
ATOM      7  C   UNL     1       5.416  -4.429 -35.619  1.00  0.00     0.053 C 
BRANCH   7   8
ATOM      8  C   UNL     1       5.133  -3.049 -36.122  1.00  0.00     0.041 C 
ATOM      9  O   UNL     1       3.961  -2.589 -36.083  1.00  0.00    -0.550 OA
ATOM     10  O   UNL     1       6.153  -2.289 -36.679  1.00  0.00    -0.550 OA
ENDBRANCH   7   8
ENDBRANCH   6   7
ENDBRANCH   5   6
ENDBRANCH   4   5
ENDBRANCH   3   4
ENDBRANCH   2   3
ENDBRANCH   1   2
BRANCH   1  11
ATOM     11  C   UNL     1       5.312  -6.813 -32.605  1.00  0.00     0.000 C 
BRANCH  11  12
ATOM     12  C   UNL     1       4.964  -8.184 -33.204  1.00  0.00    -0.000 C 
BRANCH  12  13
ATOM     13  C   UNL     1       5.592  -8.352 -34.593  1.00  0.00    -0.000 C 
BRANCH  13  14
ATOM     14  C   UNL     1       4.513  -8.582 -35.661  1.00  0.00    -0.000 C 
BRANCH  14  15
ATOM     15  C   UNL     1       3.419  -7.503 -35.645  1.00  0.00    -0.000 C 
BRANCH  15  16
ATOM     16  C   UNL     1       2.002  -8.095 -35.743  1.00  0.00    -0.000 C 
BRANCH  16  17
ATOM     17  C   UNL     1       1.147  -7.780 -34.505  1.00  0.00    -0.003 C 
ATOM     18  C   UNL     1       1.298  -8.822 -33.397  1.00  0.00     0.004 C 
ENDBRANCH  16  17
ENDBRANCH  15  16
ENDBRANCH  14  15
ENDBRANCH  13  14
ENDBRANCH  12  13
ENDBRANCH  11  12
ENDBRANCH   1  11
TORSDOF 14
ENDMDL
MODEL 7
REMARK VINA RESULT:    -4.341      3.720      6.613
REMARK INTER + INTRA:          -9.503
REMARK INTER:                  -7.095
REMARK INTRA:                  -2.408
REMARK UNBOUND:                -1.609
REMARK SMILES CCCCCCCCCCCCCCCC(=O)[O-]
REMARK SMILES IDX 9 1 10 2 11 3 12 4 13 5 14 6 15 7 16 8 17 9 18 10 8 11 7 12
REMARK SMILES IDX 6 13 5 14 4 15 3 16 2 17 1 18
REMARK H PARENT
REMARK Flexibility Score: inf
ROOT
ATOM      1  C   UNL     1       8.647  -5.868 -34.030  1.00  0.00     0.000 C 
ENDROOT
BRANCH   1   2
ATOM      2  C   UNL     1       8.356  -6.016 -32.526  1.00  0.00     0.000 C 
BRANCH   2   3
ATOM      3  C   UNL     1       6.853  -5.950 -32.197  1.00  0.00     0.000 C 
BRANCH   3   4
ATOM      4  C   UNL     1       6.308  -7.143 -31.391  1.00  0.00     0.000 C 
BRANCH   4   5
ATOM      5  C   UNL     1       5.496  -8.126 -32.252  1.00  0.00     0.000 C 
BRANCH   5   6
ATOM      6  C   UNL     1       4.599  -7.412 -33.275  1.00  0.00     0.006 C 
BRANCH   6   7
ATOM      7  C   UNL     1       3.551  -8.347 -33.892  1.00  0.00     0.053 C 
BRANCH   7   8
ATOM      8  C   UNL     1       3.848  -8.581 -35.340  1.00  0.00     0.041 C 
ATOM      9  O   UNL     1       2.914  -8.601 -36.184  1.00  0.00    -0.550 OA
ATOM     10  O   UNL     1       5.152  -8.827 -35.750  1.00  0.00    -0.550 OA
ENDBRANCH   7   8
ENDBRANCH   6   7
ENDBRANCH   5   6
ENDBRANCH   4   5
ENDBRANCH   3   4
ENDBRANCH   2   3
ENDBRANCH   1   2
BRANCH   1  11
ATOM     11  C   UNL     1       7.577  -6.542 -34.907  1.00  0.00     0.000 C 
BRANCH  11  12
ATOM     12  C   UNL     1       7.483  -5.920 -36.308  1.00  0.00    -0.000 C 
BRANCH  12  13
ATOM     13  C   UNL     1       6.050  -5.464 -36.610  1.00  0.00    -0.000 C 
BRANCH  13  14
ATOM     14  C   UNL     1       5.433  -4.747 -35.399  1.00  0.00    -0.000 C 
BRANCH  14  15
ATOM     15  C   UNL     1       5.763  -3.246 -35.364  1.00  0.00    -0.000 C 
BRANCH  15  16
ATOM     16  C   UNL     1       6.532  -2.839 -34.095  1.00  0.00    -0.000 C 
BRANCH  16  17
ATOM     17  C   UNL     1       7.987  -2.442 -34.392  1.00  0.00    -0.003 C 
ATOM     18  C   UNL     1       8.290  -2.373 -35.889  1.00  0.00     0.004 C 
ENDBRANCH  16  17
ENDBRANCH  15  16
ENDBRANCH  14  15
ENDBRANCH  13  14
ENDBRANCH  12  13
ENDBRANCH  11  12
ENDBRANCH   1  11
TORSDOF 14
ENDMDL
MODEL 8
REMARK VINA RESULT:    -4.324      3.209      5.727
REMARK INTER + INTRA:          -9.472
REMARK INTER:                  -7.301
REMARK INTRA:                  -2.171
REMARK UNBOUND:                -1.609
REMARK SMILES CCCCCCCCCCCCCCCC(=O)[O-]
REMARK SMILES IDX 9 1 10 2 11 3 12 4 13 5 14 6 15 7 16 8 17 9 18 10 8 11 7 12
REMARK SMILES IDX 6 13 5 14 4 15 3 16 2 17 1 18
REMARK H PARENT
REMARK Flexibility Score: inf
ROOT
ATOM      1  C   UNL     1       5.838  -6.836 -36.697  1.00  0.00     0.000 C 
ENDROOT
BRANCH   1   2
ATOM      2  C   UNL     1       6.331  -7.680 -35.508  1.00  0.00     0.000 C 
BRANCH   2   3
ATOM      3  C   UNL     1       5.184  -8.376 -34.753  1.00  0.00     0.000 C 
BRANCH   3   4
ATOM      4  C   UNL     1       5.211  -8.201 -33.223  1.00  0.00     0.000 C 
BRANCH   4   5
ATOM      5  C   UNL     1       5.355  -6.731 -32.792  1.00  0.00     0.000 C 
BRANCH   5   6
ATOM      6  C   UNL     1       6.344  -6.551 -31.629  1.00  0.00     0.006 C 
BRANCH   6   7
ATOM      7  C   UNL     1       7.752  -6.177 -32.106  1.00  0.00     0.053 C 
BRANCH   7   8
ATOM      8  C   UNL     1       7.704  -4.952 -32.964  1.00  0.00     0.041 C 
ATOM      9  O   UNL     1       7.241  -3.874 -32.505  1.00  0.00    -0.550 OA
ATOM     10  O   UNL     1       8.124  -5.013 -34.287  1.00  0.00    -0.550 OA
ENDBRANCH   7   8
ENDBRANCH   6   7
ENDBRANCH   5   6
ENDBRANCH   4   5
ENDBRANCH   3   4
ENDBRANCH   2   3
ENDBRANCH   1   2
BRANCH   1  11
ATOM     11  C   UNL     1       5.092  -5.567 -36.250  1.00  0.00     0.000 C 
BRANCH  11  12
ATOM     12  C   UNL     1       3.620  -5.560 -36.688  1.00  0.00    -0.000 C 
BRANCH  12  13
ATOM     13  C   UNL     1       3.344  -6.676 -37.702  1.00  0.00    -0.000 C 
BRANCH  13  14
ATOM     14  C   UNL     1       2.192  -7.576 -37.232  1.00  0.00    -0.000 C 
BRANCH  14  15
ATOM     15  C   UNL     1       1.741  -7.264 -35.796  1.00  0.00    -0.000 C 
BRANCH  15  16
ATOM     16  C   UNL     1       1.227  -8.509 -35.054  1.00  0.00    -0.000 C 
BRANCH  16  17
ATOM     17  C   UNL     1       1.515  -8.454 -33.545  1.00  0.00    -0.003 C 
ATOM     18  C   UNL     1       1.620  -9.840 -32.909  1.00  0.00     0.004 C 
ENDBRANCH  16  17
ENDBRANCH  15  16
ENDBRANCH  14  15
ENDBRANCH  13  14
ENDBRANCH  12  13
ENDBRANCH  11  12
ENDBRANCH   1  11
TORSDOF 14
ENDMDL
MODEL 9
REMARK VINA RESULT:    -4.316      2.237      3.755
REMARK INTER + INTRA:          -9.457
REMARK INTER:                  -7.498
REMARK INTRA:                  -1.959
REMARK UNBOUND:                -1.609
REMARK SMILES CCCCCCCCCCCCCCCC(=O)[O-]
REMARK SMILES IDX 9 1 10 2 11 3 12 4 13 5 14 6 15 7 16 8 17 9 18 10 8 11 7 12
REMARK SMILES IDX 6 13 5 14 4 15 3 16 2 17 1 18
REMARK H PARENT
REMARK Flexibility Score: inf
ROOT
ATOM      1  C   UNL     1       8.089  -6.147 -34.354  1.00  0.00     0.000 C 
ENDROOT
BRANCH   1   2
ATOM      2  C   UNL     1       6.917  -5.633 -33.500  1.00  0.00     0.000 C 
BRANCH   2   3
ATOM      3  C   UNL     1       7.030  -4.134 -33.168  1.00  0.00     0.000 C 
BRANCH   3   4
ATOM      4  C   UNL     1       6.414  -3.187 -34.213  1.00  0.00     0.000 C 
BRANCH   4   5
ATOM      5  C   UNL     1       7.472  -2.488 -35.085  1.00  0.00     0.000 C 
BRANCH   5   6
ATOM      6  C   UNL     1       8.854  -2.445 -34.415  1.00  0.00     0.006 C 
BRANCH   6   7
ATOM      7  C   UNL     1       9.927  -1.827 -35.319  1.00  0.00     0.053 C 
BRANCH   7   8
ATOM      8  C   UNL     1      11.098  -1.373 -34.504  1.00  0.00     0.041 C 
ATOM      9  O   UNL     1      10.944  -0.515 -33.596  1.00  0.00    -0.550 OA
ATOM     10  O   UNL     1      12.368  -1.863 -34.781  1.00  0.00    -0.550 OA
ENDBRANCH   7   8
ENDBRANCH   6   7
ENDBRANCH   5   6
ENDBRANCH   4   5
ENDBRANCH   3   4
ENDBRANCH   2   3
ENDBRANCH   1   2
BRANCH   1  11
ATOM     11  C   UNL     1       7.618  -6.864 -35.631  1.00  0.00     0.000 C 
BRANCH  11  12
ATOM     12  C   UNL     1       7.567  -5.930 -36.850  1.00  0.00    -0.000 C 
BRANCH  12  13
ATOM     13  C   UNL     1       6.189  -5.978 -37.521  1.00  0.00    -0.000 C 
BRANCH  13  14
ATOM     14  C   UNL     1       5.508  -4.602 -37.479  1.00  0.00    -0.000 C 
BRANCH  14  15
ATOM     15  C   UNL     1       4.166  -4.624 -36.730  1.00  0.00    -0.000 C 
BRANCH  15  16
ATOM     16  C   UNL     1       3.623  -3.213 -36.447  1.00  0.00    -0.000 C 
BRANCH  16  17
ATOM     17  C   UNL     1       4.304  -2.138 -37.309  1.00  0.00    -0.003 C 
ATOM     18  C   UNL     1       3.308  -1.297 -38.107  1.00  0.00     0.004 C 
ENDBRANCH  16  17
ENDBRANCH  15  16
ENDBRANCH  14  15
ENDBRANCH  13  14
ENDBRANCH  12  13
ENDBRANCH  11  12
ENDBRANCH   1  11
TORSDOF 14
ENDMDL
