MODEL 1
REMARK VINA RESULT:    -5.932      0.000      0.000
REMARK INTER + INTRA:         -10.893
REMARK INTER:                  -9.052
REMARK INTRA:                  -1.841
REMARK UNBOUND:                -1.841
REMARK SMILES OC[C@@H]1O[C@@H](O[C@@]2(CO)O[C@@H](CO)[C@H](O)[C@@H]2O)[C@H](O)[C@@H](O)[C@@H]1O
REMARK SMILES IDX 6 1 5 2 3 3 22 4 4 5 20 6 18 7 2 8 1 9 23 11 21 13 19 15
REMARK SMILES IDX 7 17 16 18 10 19 14 20 11 21 8 22 9 23 17 25 15 27 12 29
REMARK SMILES IDX 13 30
REMARK H PARENT 1 10 23 12 21 14 19 16 9 24 17 26 15 28 13 31
REMARK Flexibility Score: inf
ROOT
ATOM      1  O   UNL     1      23.717   6.739  45.132  1.00  0.00    -0.313 OA
ENDROOT
BRANCH   1   2
ATOM      2  C   UNL     1      23.022   7.978  45.136  1.00  0.00     0.285 C 
ATOM      3  C   UNL     1      23.283  10.253  45.771  1.00  0.00     0.178 C 
ATOM      4  C   UNL     1      21.725  10.323  45.751  1.00  0.00     0.177 C 
ATOM      5  O   UNL     1      23.833   8.937  45.789  1.00  0.00    -0.341 OA
ATOM      6  C   UNL     1      21.134   9.102  46.479  1.00  0.00     0.179 C 
ATOM      7  C   UNL     1      21.700   7.770  45.912  1.00  0.00     0.202 C 
BRANCH   3   8
ATOM      8  C   UNL     1      23.965  11.125  44.704  1.00  0.00     0.191 C 
BRANCH   8   9
ATOM      9  O   UNL     1      24.901  10.388  43.969  1.00  0.00    -0.394 OA
ATOM     10  H   UNL     1      25.325  11.026  43.339  1.00  0.00     0.210 HD
ENDBRANCH   8   9
ENDBRANCH   3   8
BRANCH   4  11
ATOM     11  O   UNL     1      21.238  10.363  44.434  1.00  0.00    -0.387 OA
ATOM     12  H   UNL     1      21.054   9.426  44.165  1.00  0.00     0.211 HD
ENDBRANCH   4  11
BRANCH   6  13
ATOM     13  O   UNL     1      21.356   9.206  47.865  1.00  0.00    -0.387 OA
ATOM     14  H   UNL     1      21.972   9.965  48.025  1.00  0.00     0.211 HD
ENDBRANCH   6  13
BRANCH   7  15
ATOM     15  O   UNL     1      20.761   7.172  45.053  1.00  0.00    -0.385 OA
ATOM     16  H   UNL     1      21.183   6.346  44.698  1.00  0.00     0.211 HD
ENDBRANCH   7  15
ENDBRANCH   1   2
BRANCH   1  17
ATOM     17  C   UNL     1      24.197   6.307  43.857  1.00  0.00     0.224 C 
ATOM     18  C   UNL     1      24.735   4.864  43.922  1.00  0.00     0.208 C 
ATOM     19  O   UNL     1      25.307   7.125  43.548  1.00  0.00    -0.337 OA
ATOM     20  C   UNL     1      26.097   5.087  44.525  1.00  0.00     0.180 C 
ATOM     21  C   UNL     1      26.479   6.461  43.980  1.00  0.00     0.179 C 
BRANCH  17  22
ATOM     22  C   UNL     1      23.150   6.515  42.733  1.00  0.00     0.225 C 
BRANCH  22  23
ATOM     23  O   UNL     1      22.157   5.529  42.810  1.00  0.00    -0.391 OA
ATOM     24  H   UNL     1      22.044   5.179  41.888  1.00  0.00     0.210 HD
ENDBRANCH  22  23
ENDBRANCH  17  22
BRANCH  18  25
ATOM     25  O   UNL     1      24.857   4.321  42.628  1.00  0.00    -0.385 OA
ATOM     26  H   UNL     1      25.534   3.599  42.677  1.00  0.00     0.211 HD
ENDBRANCH  18  25
BRANCH  20  27
ATOM     27  O   UNL     1      27.021   4.109  44.129  1.00  0.00    -0.387 OA
ATOM     28  H   UNL     1      27.098   4.174  43.141  1.00  0.00     0.211 HD
ENDBRANCH  20  27
BRANCH  21  29
ATOM     29  C   UNL     1      27.207   7.309  45.032  1.00  0.00     0.191 C 
BRANCH  29  30
ATOM     30  O   UNL     1      26.503   8.494  45.275  1.00  0.00    -0.394 OA
ATOM     31  H   UNL     1      27.118   9.100  45.765  1.00  0.00     0.210 HD
ENDBRANCH  29  30
ENDBRANCH  21  29
ENDBRANCH   1  17
TORSDOF 13
ENDMDL
MODEL 2
REMARK VINA RESULT:    -5.758     15.402     18.048
REMARK INTER + INTRA:         -10.628
REMARK INTER:                  -9.196
REMARK INTRA:                  -1.432
REMARK UNBOUND:                -1.841
REMARK SMILES OC[C@@H]1O[C@@H](O[C@@]2(CO)O[C@@H](CO)[C@H](O)[C@@H]2O)[C@H](O)[C@@H](O)[C@@H]1O
REMARK SMILES IDX 6 1 5 2 3 3 22 4 4 5 20 6 18 7 2 8 1 9 23 11 21 13 19 15
REMARK SMILES IDX 7 17 16 18 10 19 14 20 11 21 8 22 9 23 17 25 15 27 12 29
REMARK SMILES IDX 13 30
REMARK H PARENT 1 10 23 12 21 14 19 16 9 24 17 26 15 28 13 31
REMARK Flexibility Score: inf
ROOT
ATOM      1  O   UNL     1      20.564  -4.274  32.606  1.00  0.00    -0.313 OA
ENDROOT
BRANCH   1   2
ATOM      2  C   UNL     1      19.450  -4.002  33.445  1.00  0.00     0.285 C 
ATOM      3  C   UNL     1      17.126  -4.454  33.653  1.00  0.00     0.178 C 
ATOM      4  C   UNL     1      17.075  -3.195  34.572  1.00  0.00     0.177 C 
ATOM      5  O   UNL     1      18.299  -4.576  32.852  1.00  0.00    -0.341 OA
ATOM      6  C   UNL     1      17.855  -2.037  33.922  1.00  0.00     0.179 C 
ATOM      7  C   UNL     1      19.300  -2.465  33.539  1.00  0.00     0.202 C 
BRANCH   3   8
ATOM      8  C   UNL     1      16.808  -5.773  34.376  1.00  0.00     0.191 C 
BRANCH   8   9
ATOM      9  O   UNL     1      15.635  -5.667  35.133  1.00  0.00    -0.394 OA
ATOM     10  H   UNL     1      15.825  -6.100  36.004  1.00  0.00     0.210 HD
ENDBRANCH   8   9
ENDBRANCH   3   8
BRANCH   4  11
ATOM     11  O   UNL     1      17.618  -3.470  35.838  1.00  0.00    -0.387 OA
ATOM     12  H   UNL     1      17.330  -4.387  36.083  1.00  0.00     0.211 HD
ENDBRANCH   4  11
BRANCH   6  13
ATOM     13  O   UNL     1      17.154  -1.542  32.806  1.00  0.00    -0.387 OA
ATOM     14  H   UNL     1      16.281  -1.190  33.119  1.00  0.00     0.211 HD
ENDBRANCH   6  13
BRANCH   7  15
ATOM     15  O   UNL     1      20.216  -1.980  34.488  1.00  0.00    -0.385 OA
ATOM     16  H   UNL     1      20.072  -2.504  35.320  1.00  0.00     0.211 HD
ENDBRANCH   7  15
ENDBRANCH   1   2
BRANCH   1  17
ATOM     17  C   UNL     1      21.179  -5.550  32.795  1.00  0.00     0.224 C 
ATOM     18  C   UNL     1      22.510  -5.647  32.023  1.00  0.00     0.208 C 
ATOM     19  O   UNL     1      20.316  -6.503  32.208  1.00  0.00    -0.337 OA
ATOM     20  C   UNL     1      22.019  -5.926  30.627  1.00  0.00     0.180 C 
ATOM     21  C   UNL     1      20.744  -6.727  30.879  1.00  0.00     0.179 C 
BRANCH  17  22
ATOM     22  C   UNL     1      21.317  -5.920  34.294  1.00  0.00     0.225 C 
BRANCH  22  23
ATOM     23  O   UNL     1      21.487  -7.303  34.436  1.00  0.00    -0.391 OA
ATOM     24  H   UNL     1      22.435  -7.440  34.696  1.00  0.00     0.210 HD
ENDBRANCH  22  23
ENDBRANCH  17  22
BRANCH  18  25
ATOM     25  O   UNL     1      23.279  -6.730  32.495  1.00  0.00    -0.385 OA
ATOM     26  H   UNL     1      23.896  -6.990  31.765  1.00  0.00     0.211 HD
ENDBRANCH  18  25
BRANCH  20  27
ATOM     27  O   UNL     1      22.943  -6.666  29.875  1.00  0.00    -0.387 OA
ATOM     28  H   UNL     1      22.810  -6.408  28.926  1.00  0.00     0.211 HD
ENDBRANCH  20  27
BRANCH  21  29
ATOM     29  C   UNL     1      19.628  -6.347  29.896  1.00  0.00     0.191 C 
BRANCH  29  30
ATOM     30  O   UNL     1      19.277  -5.001  30.055  1.00  0.00    -0.394 OA
ATOM     31  H   UNL     1      20.100  -4.468  29.899  1.00  0.00     0.210 HD
ENDBRANCH  29  30
ENDBRANCH  21  29
ENDBRANCH   1  17
TORSDOF 13
ENDMDL
MODEL 3
REMARK VINA RESULT:    -5.661      1.073      2.773
REMARK INTER + INTRA:         -10.481
REMARK INTER:                  -8.574
REMARK INTRA:                  -1.906
REMARK UNBOUND:                -1.841
REMARK SMILES OC[C@@H]1O[C@@H](O[C@@]2(CO)O[C@@H](CO)[C@H](O)[C@@H]2O)[C@H](O)[C@@H](O)[C@@H]1O
REMARK SMILES IDX 6 1 5 2 3 3 22 4 4 5 20 6 18 7 2 8 1 9 23 11 21 13 19 15
REMARK SMILES IDX 7 17 16 18 10 19 14 20 11 21 8 22 9 23 17 25 15 27 12 29
REMARK SMILES IDX 13 30
REMARK H PARENT 1 10 23 12 21 14 19 16 9 24 17 26 15 28 13 31
REMARK Flexibility Score: inf
ROOT
ATOM      1  O   UNL     1      23.954   6.521  45.592  1.00  0.00    -0.313 OA
ENDROOT
BRANCH   1   2
ATOM      2  C   UNL     1      23.285   7.756  45.375  1.00  0.00     0.285 C 
ATOM      3  C   UNL     1      23.264  10.014  46.114  1.00  0.00     0.178 C 
ATOM      4  C   UNL     1      21.817  10.075  45.535  1.00  0.00     0.177 C 
ATOM      5  O   UNL     1      23.791   8.702  46.298  1.00  0.00    -0.341 OA
ATOM      6  C   UNL     1      21.022   8.831  45.973  1.00  0.00     0.179 C 
ATOM      7  C   UNL     1      21.775   7.518  45.617  1.00  0.00     0.202 C 
BRANCH   3   8
ATOM      8  C   UNL     1      24.271  10.919  45.385  1.00  0.00     0.191 C 
BRANCH   8   9
ATOM      9  O   UNL     1      24.884  10.243  44.322  1.00  0.00    -0.394 OA
ATOM     10  H   UNL     1      25.643  10.812  44.032  1.00  0.00     0.210 HD
ENDBRANCH   8   9
ENDBRANCH   3   8
BRANCH   4  11
ATOM     11  O   UNL     1      21.836  10.148  44.132  1.00  0.00    -0.387 OA
ATOM     12  H   UNL     1      21.960   9.223  43.796  1.00  0.00     0.211 HD
ENDBRANCH   4  11
BRANCH   6  13
ATOM     13  O   UNL     1      20.729   8.898  47.348  1.00  0.00    -0.387 OA
ATOM     14  H   UNL     1      20.128   8.143  47.574  1.00  0.00     0.211 HD
ENDBRANCH   6  13
BRANCH   7  15
ATOM     15  O   UNL     1      21.219   6.939  44.464  1.00  0.00    -0.385 OA
ATOM     16  H   UNL     1      21.540   7.473  43.691  1.00  0.00     0.211 HD
ENDBRANCH   7  15
ENDBRANCH   1   2
BRANCH   1  17
ATOM     17  C   UNL     1      25.102   6.291  44.774  1.00  0.00     0.224 C 
ATOM     18  C   UNL     1      24.907   6.879  43.361  1.00  0.00     0.208 C 
ATOM     19  O   UNL     1      25.202   4.892  44.605  1.00  0.00    -0.337 OA
ATOM     20  C   UNL     1      24.053   5.818  42.719  1.00  0.00     0.180 C 
ATOM     21  C   UNL     1      24.537   4.543  43.406  1.00  0.00     0.179 C 
BRANCH  17  22
ATOM     22  C   UNL     1      26.413   6.764  45.453  1.00  0.00     0.225 C 
BRANCH  22  23
ATOM     23  O   UNL     1      26.580   8.143  45.272  1.00  0.00    -0.391 OA
ATOM     24  H   UNL     1      25.726   8.477  44.891  1.00  0.00     0.210 HD
ENDBRANCH  22  23
ENDBRANCH  17  22
BRANCH  18  25
ATOM     25  O   UNL     1      26.143   6.982  42.693  1.00  0.00    -0.385 OA
ATOM     26  H   UNL     1      25.973   6.795  41.734  1.00  0.00     0.211 HD
ENDBRANCH  18  25
BRANCH  20  27
ATOM     27  O   UNL     1      24.244   5.749  41.331  1.00  0.00    -0.387 OA
ATOM     28  H   UNL     1      23.424   6.121  40.912  1.00  0.00     0.211 HD
ENDBRANCH  20  27
BRANCH  21  29
ATOM     29  C   UNL     1      23.378   3.583  43.707  1.00  0.00     0.191 C 
BRANCH  29  30
ATOM     30  O   UNL     1      22.262   4.295  44.164  1.00  0.00    -0.394 OA
ATOM     31  H   UNL     1      22.416   5.249  43.937  1.00  0.00     0.210 HD
ENDBRANCH  29  30
ENDBRANCH  21  29
ENDBRANCH   1  17
TORSDOF 13
ENDMDL
MODEL 4
REMARK VINA RESULT:    -5.651      2.801      5.667
REMARK INTER + INTRA:         -10.465
REMARK INTER:                  -8.793
REMARK INTRA:                  -1.672
REMARK UNBOUND:                -1.841
REMARK SMILES OC[C@@H]1O[C@@H](O[C@@]2(CO)O[C@@H](CO)[C@H](O)[C@@H]2O)[C@H](O)[C@@H](O)[C@@H]1O
REMARK SMILES IDX 6 1 5 2 3 3 22 4 4 5 20 6 18 7 2 8 1 9 23 11 21 13 19 15
REMARK SMILES IDX 7 17 16 18 10 19 14 20 11 21 8 22 9 23 17 25 15 27 12 29
REMARK SMILES IDX 13 30
REMARK H PARENT 1 10 23 12 21 14 19 16 9 24 17 26 15 28 13 31
REMARK Flexibility Score: inf
ROOT
ATOM      1  O   UNL     1      25.021   5.651  44.000  1.00  0.00    -0.313 OA
ENDROOT
BRANCH   1   2
ATOM      2  C   UNL     1      24.311   4.570  44.589  1.00  0.00     0.285 C 
ATOM      3  C   UNL     1      24.541   2.266  45.121  1.00  0.00     0.178 C 
ATOM      4  C   UNL     1      22.983   2.235  45.172  1.00  0.00     0.177 C 
ATOM      5  O   UNL     1      25.106   3.405  44.475  1.00  0.00    -0.341 OA
ATOM      6  C   UNL     1      22.401   2.966  43.948  1.00  0.00     0.179 C 
ATOM      7  C   UNL     1      22.986   4.399  43.807  1.00  0.00     0.202 C 
BRANCH   3   8
ATOM      8  C   UNL     1      25.220   2.003  46.475  1.00  0.00     0.191 C 
BRANCH   8   9
ATOM      9  O   UNL     1      24.621   0.927  47.142  1.00  0.00    -0.394 OA
ATOM     10  H   UNL     1      25.146   0.786  47.971  1.00  0.00     0.210 HD
ENDBRANCH   8   9
ENDBRANCH   3   8
BRANCH   4  11
ATOM     11  O   UNL     1      22.503   2.837  46.347  1.00  0.00    -0.387 OA
ATOM     12  H   UNL     1      22.930   3.730  46.410  1.00  0.00     0.211 HD
ENDBRANCH   4  11
BRANCH   6  13
ATOM     13  O   UNL     1      22.614   2.208  42.780  1.00  0.00    -0.387 OA
ATOM     14  H   UNL     1      22.065   1.385  42.840  1.00  0.00     0.211 HD
ENDBRANCH   6  13
BRANCH   7  15
ATOM     15  O   UNL     1      22.061   5.348  44.275  1.00  0.00    -0.385 OA
ATOM     16  H   UNL     1      21.559   4.917  45.016  1.00  0.00     0.211 HD
ENDBRANCH   7  15
ENDBRANCH   1   2
BRANCH   1  17
ATOM     17  C   UNL     1      25.625   6.564  44.918  1.00  0.00     0.224 C 
ATOM     18  C   UNL     1      26.067   7.859  44.208  1.00  0.00     0.208 C 
ATOM     19  O   UNL     1      26.810   5.946  45.377  1.00  0.00    -0.337 OA
ATOM     20  C   UNL     1      27.357   7.417  43.569  1.00  0.00     0.180 C 
ATOM     21  C   UNL     1      27.881   6.382  44.563  1.00  0.00     0.179 C 
BRANCH  17  22
ATOM     22  C   UNL     1      24.734   6.825  46.160  1.00  0.00     0.225 C 
BRANCH  22  23
ATOM     23  O   UNL     1      25.534   7.033  47.291  1.00  0.00    -0.391 OA
ATOM     24  H   UNL     1      24.973   7.537  47.937  1.00  0.00     0.210 HD
ENDBRANCH  22  23
ENDBRANCH  17  22
BRANCH  18  25
ATOM     25  O   UNL     1      26.313   8.880  45.147  1.00  0.00    -0.385 OA
ATOM     26  H   UNL     1      25.481   9.415  45.221  1.00  0.00     0.211 HD
ENDBRANCH  18  25
BRANCH  20  27
ATOM     27  O   UNL     1      28.265   8.475  43.413  1.00  0.00    -0.387 OA
ATOM     28  H   UNL     1      28.946   8.373  44.128  1.00  0.00     0.211 HD
ENDBRANCH  20  27
BRANCH  21  29
ATOM     29  C   UNL     1      28.525   5.184  43.852  1.00  0.00     0.191 C 
BRANCH  29  30
ATOM     30  O   UNL     1      27.589   4.547  43.027  1.00  0.00    -0.394 OA
ATOM     31  H   UNL     1      28.098   4.130  42.284  1.00  0.00     0.210 HD
ENDBRANCH  29  30
ENDBRANCH  21  29
ENDBRANCH   1  17
TORSDOF 13
ENDMDL
MODEL 5
REMARK VINA RESULT:    -5.555      1.880      5.686
REMARK INTER + INTRA:         -10.318
REMARK INTER:                  -8.407
REMARK INTRA:                  -1.911
REMARK UNBOUND:                -1.841
REMARK SMILES OC[C@@H]1O[C@@H](O[C@@]2(CO)O[C@@H](CO)[C@H](O)[C@@H]2O)[C@H](O)[C@@H](O)[C@@H]1O
REMARK SMILES IDX 6 1 5 2 3 3 22 4 4 5 20 6 18 7 2 8 1 9 23 11 21 13 19 15
REMARK SMILES IDX 7 17 16 18 10 19 14 20 11 21 8 22 9 23 17 25 15 27 12 29
REMARK SMILES IDX 13 30
REMARK H PARENT 1 10 23 12 21 14 19 16 9 24 17 26 15 28 13 31
REMARK Flexibility Score: inf
ROOT
ATOM      1  O   UNL     1      24.411   7.207  43.061  1.00  0.00    -0.313 OA
ENDROOT
BRANCH   1   2
ATOM      2  C   UNL     1      25.629   6.520  43.308  1.00  0.00     0.285 C 
ATOM      3  C   UNL     1      27.794   6.185  42.388  1.00  0.00     0.178 C 
ATOM      4  C   UNL     1      27.849   4.898  43.268  1.00  0.00     0.177 C 
ATOM      5  O   UNL     1      26.496   6.747  42.212  1.00  0.00    -0.341 OA
ATOM      6  C   UNL     1      26.531   4.113  43.136  1.00  0.00     0.179 C 
ATOM      7  C   UNL     1      25.298   5.013  43.433  1.00  0.00     0.202 C 
BRANCH   3   8
ATOM      8  C   UNL     1      28.816   7.263  42.787  1.00  0.00     0.191 C 
BRANCH   8   9
ATOM      9  O   UNL     1      28.296   8.117  43.767  1.00  0.00    -0.394 OA
ATOM     10  H   UNL     1      27.615   8.677  43.315  1.00  0.00     0.210 HD
ENDBRANCH   8   9
ENDBRANCH   3   8
BRANCH   4  11
ATOM     11  O   UNL     1      28.069   5.218  44.619  1.00  0.00    -0.387 OA
ATOM     12  H   UNL     1      27.253   4.952  45.115  1.00  0.00     0.211 HD
ENDBRANCH   4  11
BRANCH   6  13
ATOM     13  O   UNL     1      26.440   3.523  41.861  1.00  0.00    -0.387 OA
ATOM     14  H   UNL     1      26.149   4.218  41.217  1.00  0.00     0.211 HD
ENDBRANCH   6  13
BRANCH   7  15
ATOM     15  O   UNL     1      24.818   4.762  44.730  1.00  0.00    -0.385 OA
ATOM     16  H   UNL     1      25.519   4.237  45.199  1.00  0.00     0.211 HD
ENDBRANCH   7  15
ENDBRANCH   1   2
BRANCH   1  17
ATOM     17  C   UNL     1      24.320   8.519  43.620  1.00  0.00     0.224 C 
ATOM     18  C   UNL     1      25.044   8.597  44.979  1.00  0.00     0.208 C 
ATOM     19  O   UNL     1      22.953   8.747  43.891  1.00  0.00    -0.337 OA
ATOM     20  C   UNL     1      24.019   7.977  45.892  1.00  0.00     0.180 C 
ATOM     21  C   UNL     1      22.702   8.384  45.235  1.00  0.00     0.179 C 
BRANCH  17  22
ATOM     22  C   UNL     1      24.778   9.616  42.624  1.00  0.00     0.225 C 
BRANCH  22  23
ATOM     23  O   UNL     1      26.168   9.774  42.687  1.00  0.00    -0.391 OA
ATOM     24  H   UNL     1      26.557   8.982  42.232  1.00  0.00     0.210 HD
ENDBRANCH  22  23
ENDBRANCH  17  22
BRANCH  18  25
ATOM     25  O   UNL     1      25.272   9.939  45.343  1.00  0.00    -0.385 OA
ATOM     26  H   UNL     1      25.166  10.486  44.523  1.00  0.00     0.211 HD
ENDBRANCH  18  25
BRANCH  20  27
ATOM     27  O   UNL     1      24.105   8.470  47.203  1.00  0.00    -0.387 OA
ATOM     28  H   UNL     1      23.183   8.463  47.570  1.00  0.00     0.211 HD
ENDBRANCH  20  27
BRANCH  21  29
ATOM     29  C   UNL     1      21.664   7.254  45.291  1.00  0.00     0.191 C 
BRANCH  29  30
ATOM     30  O   UNL     1      22.273   6.021  45.027  1.00  0.00    -0.394 OA
ATOM     31  H   UNL     1      22.260   5.506  45.876  1.00  0.00     0.210 HD
ENDBRANCH  29  30
ENDBRANCH  21  29
ENDBRANCH   1  17
TORSDOF 13
ENDMDL
MODEL 6
REMARK VINA RESULT:    -5.541      3.162      5.007
REMARK INTER + INTRA:         -10.297
REMARK INTER:                  -8.492
REMARK INTRA:                  -1.805
REMARK UNBOUND:                -1.841
REMARK SMILES OC[C@@H]1O[C@@H](O[C@@]2(CO)O[C@@H](CO)[C@H](O)[C@@H]2O)[C@H](O)[C@@H](O)[C@@H]1O
REMARK SMILES IDX 6 1 5 2 3 3 22 4 4 5 20 6 18 7 2 8 1 9 23 11 21 13 19 15
REMARK SMILES IDX 7 17 16 18 10 19 14 20 11 21 8 22 9 23 17 25 15 27 12 29
REMARK SMILES IDX 13 30
REMARK H PARENT 1 10 23 12 21 14 19 16 9 24 17 26 15 28 13 31
REMARK Flexibility Score: inf
ROOT
ATOM      1  O   UNL     1      26.940   5.578  44.239  1.00  0.00    -0.313 OA
ENDROOT
BRANCH   1   2
ATOM      2  C   UNL     1      25.901   5.648  43.272  1.00  0.00     0.285 C 
ATOM      3  C   UNL     1      24.077   7.013  42.601  1.00  0.00     0.178 C 
ATOM      4  C   UNL     1      23.527   5.740  41.888  1.00  0.00     0.177 C 
ATOM      5  O   UNL     1      25.101   6.778  43.564  1.00  0.00    -0.341 OA
ATOM      6  C   UNL     1      23.625   4.526  42.831  1.00  0.00     0.179 C 
ATOM      7  C   UNL     1      25.067   4.350  43.388  1.00  0.00     0.202 C 
BRANCH   3   8
ATOM      8  C   UNL     1      24.467   8.150  41.642  1.00  0.00     0.191 C 
BRANCH   8   9
ATOM      9  O   UNL     1      25.104   9.194  42.324  1.00  0.00    -0.394 OA
ATOM     10  H   UNL     1      26.053   8.922  42.423  1.00  0.00     0.210 HD
ENDBRANCH   8   9
ENDBRANCH   3   8
BRANCH   4  11
ATOM     11  O   UNL     1      24.241   5.473  40.708  1.00  0.00    -0.387 OA
ATOM     12  H   UNL     1      24.493   4.514  40.732  1.00  0.00     0.211 HD
ENDBRANCH   4  11
BRANCH   6  13
ATOM     13  O   UNL     1      22.683   4.638  43.871  1.00  0.00    -0.387 OA
ATOM     14  H   UNL     1      22.072   5.388  43.656  1.00  0.00     0.211 HD
ENDBRANCH   6  13
BRANCH   7  15
ATOM     15  O   UNL     1      25.731   3.323  42.695  1.00  0.00    -0.385 OA
ATOM     16  H   UNL     1      25.037   2.820  42.193  1.00  0.00     0.211 HD
ENDBRANCH   7  15
ENDBRANCH   1   2
BRANCH   1  17
ATOM     17  C   UNL     1      28.169   6.203  43.868  1.00  0.00     0.224 C 
ATOM     18  C   UNL     1      28.428   6.070  42.354  1.00  0.00     0.208 C 
ATOM     19  O   UNL     1      29.199   5.476  44.506  1.00  0.00    -0.337 OA
ATOM     20  C   UNL     1      28.949   4.659  42.269  1.00  0.00     0.180 C 
ATOM     21  C   UNL     1      29.669   4.492  43.605  1.00  0.00     0.179 C 
BRANCH  17  22
ATOM     22  C   UNL     1      28.262   7.666  44.375  1.00  0.00     0.225 C 
BRANCH  22  23
ATOM     23  O   UNL     1      27.615   8.528  43.479  1.00  0.00    -0.391 OA
ATOM     24  H   UNL     1      26.690   8.636  43.820  1.00  0.00     0.210 HD
ENDBRANCH  22  23
ENDBRANCH  17  22
BRANCH  18  25
ATOM     25  O   UNL     1      29.419   6.982  41.939  1.00  0.00    -0.385 OA
ATOM     26  H   UNL     1      30.084   7.044  42.671  1.00  0.00     0.211 HD
ENDBRANCH  18  25
BRANCH  20  27
ATOM     27  O   UNL     1      29.829   4.481  41.192  1.00  0.00    -0.387 OA
ATOM     28  H   UNL     1      30.730   4.330  41.582  1.00  0.00     0.211 HD
ENDBRANCH  20  27
BRANCH  21  29
ATOM     29  C   UNL     1      29.457   3.092  44.196  1.00  0.00     0.191 C 
BRANCH  29  30
ATOM     30  O   UNL     1      28.099   2.878  44.465  1.00  0.00    -0.394 OA
ATOM     31  H   UNL     1      27.707   2.458  43.655  1.00  0.00     0.210 HD
ENDBRANCH  29  30
ENDBRANCH  21  29
ENDBRANCH   1  17
TORSDOF 13
ENDMDL
MODEL 7
REMARK VINA RESULT:    -5.496      2.259      6.322
REMARK INTER + INTRA:         -10.228
REMARK INTER:                  -8.708
REMARK INTRA:                  -1.520
REMARK UNBOUND:                -1.841
REMARK SMILES OC[C@@H]1O[C@@H](O[C@@]2(CO)O[C@@H](CO)[C@H](O)[C@@H]2O)[C@H](O)[C@@H](O)[C@@H]1O
REMARK SMILES IDX 6 1 5 2 3 3 22 4 4 5 20 6 18 7 2 8 1 9 23 11 21 13 19 15
REMARK SMILES IDX 7 17 16 18 10 19 14 20 11 21 8 22 9 23 17 25 15 27 12 29
REMARK SMILES IDX 13 30
REMARK H PARENT 1 10 23 12 21 14 19 16 9 24 17 26 15 28 13 31
REMARK Flexibility Score: inf
ROOT
ATOM      1  O   UNL     1      26.555   7.660  44.693  1.00  0.00    -0.313 OA
ENDROOT
BRANCH   1   2
ATOM      2  C   UNL     1      27.401   6.920  43.823  1.00  0.00     0.285 C 
ATOM      3  C   UNL     1      27.773   4.714  43.024  1.00  0.00     0.178 C 
ATOM      4  C   UNL     1      29.205   5.206  42.654  1.00  0.00     0.177 C 
ATOM      5  O   UNL     1      27.055   5.552  43.927  1.00  0.00    -0.341 OA
ATOM      6  C   UNL     1      29.808   6.002  43.826  1.00  0.00     0.179 C 
ATOM      7  C   UNL     1      28.860   7.146  44.286  1.00  0.00     0.202 C 
BRANCH   3   8
ATOM      8  C   UNL     1      26.906   4.334  41.812  1.00  0.00     0.191 C 
BRANCH   8   9
ATOM      9  O   UNL     1      26.072   5.393  41.432  1.00  0.00    -0.394 OA
ATOM     10  H   UNL     1      26.670   6.160  41.237  1.00  0.00     0.210 HD
ENDBRANCH   8   9
ENDBRANCH   3   8
BRANCH   4  11
ATOM     11  O   UNL     1      29.181   6.014  41.504  1.00  0.00    -0.387 OA
ATOM     12  H   UNL     1      29.976   6.605  41.549  1.00  0.00     0.211 HD
ENDBRANCH   4  11
BRANCH   6  13
ATOM     13  O   UNL     1      30.124   5.138  44.891  1.00  0.00    -0.387 OA
ATOM     14  H   UNL     1      29.765   4.240  44.679  1.00  0.00     0.211 HD
ENDBRANCH   6  13
BRANCH   7  15
ATOM     15  O   UNL     1      29.309   8.379  43.781  1.00  0.00    -0.385 OA
ATOM     16  H   UNL     1      30.180   8.207  43.336  1.00  0.00     0.211 HD
ENDBRANCH   7  15
ENDBRANCH   1   2
BRANCH   1  17
ATOM     17  C   UNL     1      25.355   8.163  44.103  1.00  0.00     0.224 C 
ATOM     18  C   UNL     1      24.573   9.046  45.096  1.00  0.00     0.208 C 
ATOM     19  O   UNL     1      24.534   7.043  43.844  1.00  0.00    -0.337 OA
ATOM     20  C   UNL     1      23.894   8.001  45.943  1.00  0.00     0.180 C 
ATOM     21  C   UNL     1      23.668   6.865  44.948  1.00  0.00     0.179 C 
BRANCH  17  22
ATOM     22  C   UNL     1      25.617   8.863  42.744  1.00  0.00     0.225 C 
BRANCH  22  23
ATOM     23  O   UNL     1      25.992  10.196  42.953  1.00  0.00    -0.391 OA
ATOM     24  H   UNL     1      26.910  10.169  43.328  1.00  0.00     0.210 HD
ENDBRANCH  22  23
ENDBRANCH  17  22
BRANCH  18  25
ATOM     25  O   UNL     1      23.614   9.824  44.418  1.00  0.00    -0.385 OA
ATOM     26  H   UNL     1      24.043  10.160  43.591  1.00  0.00     0.211 HD
ENDBRANCH  18  25
BRANCH  20  27
ATOM     27  O   UNL     1      22.679   8.456  46.477  1.00  0.00    -0.387 OA
ATOM     28  H   UNL     1      22.047   8.539  45.716  1.00  0.00     0.211 HD
ENDBRANCH  20  27
BRANCH  21  29
ATOM     29  C   UNL     1      23.907   5.491  45.588  1.00  0.00     0.191 C 
BRANCH  29  30
ATOM     30  O   UNL     1      25.165   5.452  46.203  1.00  0.00    -0.394 OA
ATOM     31  H   UNL     1      25.114   4.769  46.922  1.00  0.00     0.210 HD
ENDBRANCH  29  30
ENDBRANCH  21  29
ENDBRANCH   1  17
TORSDOF 13
ENDMDL
MODEL 8
REMARK VINA RESULT:    -5.417      2.082      5.770
REMARK INTER + INTRA:         -10.108
REMARK INTER:                  -8.290
REMARK INTRA:                  -1.818
REMARK UNBOUND:                -1.841
REMARK SMILES OC[C@@H]1O[C@@H](O[C@@]2(CO)O[C@@H](CO)[C@H](O)[C@@H]2O)[C@H](O)[C@@H](O)[C@@H]1O
REMARK SMILES IDX 6 1 5 2 3 3 22 4 4 5 20 6 18 7 2 8 1 9 23 11 21 13 19 15
REMARK SMILES IDX 7 17 16 18 10 19 14 20 11 21 8 22 9 23 17 25 15 27 12 29
REMARK SMILES IDX 13 30
REMARK H PARENT 1 10 23 12 21 14 19 16 9 24 17 26 15 28 13 31
REMARK Flexibility Score: inf
ROOT
ATOM      1  O   UNL     1      25.134   6.649  42.335  1.00  0.00    -0.313 OA
ENDROOT
BRANCH   1   2
ATOM      2  C   UNL     1      26.267   6.073  42.969  1.00  0.00     0.285 C 
ATOM      3  C   UNL     1      28.202   6.665  44.214  1.00  0.00     0.178 C 
ATOM      4  C   UNL     1      28.771   5.280  43.781  1.00  0.00     0.177 C 
ATOM      5  O   UNL     1      27.077   7.122  43.467  1.00  0.00    -0.341 OA
ATOM      6  C   UNL     1      28.531   5.059  42.276  1.00  0.00     0.179 C 
ATOM      7  C   UNL     1      27.035   5.257  41.901  1.00  0.00     0.202 C 
BRANCH   3   8
ATOM      8  C   UNL     1      27.956   6.799  45.726  1.00  0.00     0.191 C 
BRANCH   8   9
ATOM      9  O   UNL     1      26.612   6.567  46.043  1.00  0.00    -0.394 OA
ATOM     10  H   UNL     1      26.104   7.336  45.678  1.00  0.00     0.210 HD
ENDBRANCH   8   9
ENDBRANCH   3   8
BRANCH   4  11
ATOM     11  O   UNL     1      28.172   4.237  44.508  1.00  0.00    -0.387 OA
ATOM     12  H   UNL     1      28.342   4.418  45.468  1.00  0.00     0.211 HD
ENDBRANCH   4  11
BRANCH   6  13
ATOM     13  O   UNL     1      29.366   5.902  41.520  1.00  0.00    -0.387 OA
ATOM     14  H   UNL     1      29.332   5.606  40.574  1.00  0.00     0.211 HD
ENDBRANCH   6  13
BRANCH   7  15
ATOM     15  O   UNL     1      26.405   4.010  41.747  1.00  0.00    -0.385 OA
ATOM     16  H   UNL     1      26.181   3.919  40.784  1.00  0.00     0.211 HD
ENDBRANCH   7  15
ENDBRANCH   1   2
BRANCH   1  17
ATOM     17  C   UNL     1      23.903   6.535  43.052  1.00  0.00     0.224 C 
ATOM     18  C   UNL     1      22.747   7.211  42.289  1.00  0.00     0.208 C 
ATOM     19  O   UNL     1      24.065   7.271  44.248  1.00  0.00    -0.337 OA
ATOM     20  C   UNL     1      22.981   8.660  42.627  1.00  0.00     0.180 C 
ATOM     21  C   UNL     1      23.575   8.580  44.031  1.00  0.00     0.179 C 
BRANCH  17  22
ATOM     22  C   UNL     1      23.592   5.071  43.456  1.00  0.00     0.225 C 
BRANCH  22  23
ATOM     23  O   UNL     1      23.333   4.301  42.314  1.00  0.00    -0.391 OA
ATOM     24  H   UNL     1      22.663   4.808  41.785  1.00  0.00     0.210 HD
ENDBRANCH  22  23
ENDBRANCH  17  22
BRANCH  18  25
ATOM     25  O   UNL     1      21.503   6.786  42.795  1.00  0.00    -0.385 OA
ATOM     26  H   UNL     1      20.849   7.505  42.604  1.00  0.00     0.211 HD
ENDBRANCH  18  25
BRANCH  20  27
ATOM     27  O   UNL     1      21.793   9.407  42.620  1.00  0.00    -0.387 OA
ATOM     28  H   UNL     1      21.857  10.035  41.854  1.00  0.00     0.211 HD
ENDBRANCH  20  27
BRANCH  21  29
ATOM     29  C   UNL     1      24.700   9.604  44.233  1.00  0.00     0.191 C 
BRANCH  29  30
ATOM     30  O   UNL     1      25.596   9.157  45.213  1.00  0.00    -0.394 OA
ATOM     31  H   UNL     1      25.399   8.196  45.366  1.00  0.00     0.210 HD
ENDBRANCH  29  30
ENDBRANCH  21  29
ENDBRANCH   1  17
TORSDOF 13
ENDMDL
MODEL 9
REMARK VINA RESULT:    -5.360      3.882      6.427
REMARK INTER + INTRA:         -10.020
REMARK INTER:                  -8.186
REMARK INTRA:                  -1.834
REMARK UNBOUND:                -1.841
REMARK SMILES OC[C@@H]1O[C@@H](O[C@@]2(CO)O[C@@H](CO)[C@H](O)[C@@H]2O)[C@H](O)[C@@H](O)[C@@H]1O
REMARK SMILES IDX 6 1 5 2 3 3 22 4 4 5 20 6 18 7 2 8 1 9 23 11 21 13 19 15
REMARK SMILES IDX 7 17 16 18 10 19 14 20 11 21 8 22 9 23 17 25 15 27 12 29
REMARK SMILES IDX 13 30
REMARK H PARENT 1 10 23 12 21 14 19 16 9 24 17 26 15 28 13 31
REMARK Flexibility Score: inf
ROOT
ATOM      1  O   UNL     1      27.203   3.949  44.815  1.00  0.00    -0.313 OA
ENDROOT
BRANCH   1   2
ATOM      2  C   UNL     1      27.797   5.144  44.326  1.00  0.00     0.285 C 
ATOM      3  C   UNL     1      27.475   6.852  42.706  1.00  0.00     0.178 C 
ATOM      4  C   UNL     1      29.001   7.137  42.863  1.00  0.00     0.177 C 
ATOM      5  O   UNL     1      27.033   5.600  43.225  1.00  0.00    -0.341 OA
ATOM      6  C   UNL     1      29.789   5.814  42.836  1.00  0.00     0.179 C 
ATOM      7  C   UNL     1      29.239   4.800  43.879  1.00  0.00     0.202 C 
BRANCH   3   8
ATOM      8  C   UNL     1      26.570   8.001  43.181  1.00  0.00     0.191 C 
BRANCH   8   9
ATOM      9  O   UNL     1      27.078   9.244  42.786  1.00  0.00    -0.394 OA
ATOM     10  H   UNL     1      27.732   9.511  43.482  1.00  0.00     0.210 HD
ENDBRANCH   8   9
ENDBRANCH   3   8
BRANCH   4  11
ATOM     11  O   UNL     1      29.268   7.815  44.064  1.00  0.00    -0.387 OA
ATOM     12  H   UNL     1      30.213   8.113  44.024  1.00  0.00     0.211 HD
ENDBRANCH   4  11
BRANCH   6  13
ATOM     13  O   UNL     1      29.783   5.269  41.538  1.00  0.00    -0.387 OA
ATOM     14  H   UNL     1      28.841   5.136  41.261  1.00  0.00     0.211 HD
ENDBRANCH   6  13
BRANCH   7  15
ATOM     15  O   UNL     1      30.069   4.774  45.012  1.00  0.00    -0.385 OA
ATOM     16  H   UNL     1      30.255   3.818  45.210  1.00  0.00     0.211 HD
ENDBRANCH   7  15
ENDBRANCH   1   2
BRANCH   1  17
ATOM     17  C   UNL     1      26.496   4.075  46.050  1.00  0.00     0.224 C 
ATOM     18  C   UNL     1      26.109   2.693  46.614  1.00  0.00     0.208 C 
ATOM     19  O   UNL     1      25.280   4.730  45.751  1.00  0.00    -0.337 OA
ATOM     20  C   UNL     1      24.897   2.367  45.782  1.00  0.00     0.180 C 
ATOM     21  C   UNL     1      24.291   3.745  45.526  1.00  0.00     0.179 C 
BRANCH  17  22
ATOM     22  C   UNL     1      27.253   4.960  47.074  1.00  0.00     0.225 C 
BRANCH  22  23
ATOM     23  O   UNL     1      28.356   4.266  47.587  1.00  0.00    -0.391 OA
ATOM     24  H   UNL     1      28.504   3.494  46.981  1.00  0.00     0.210 HD
ENDBRANCH  22  23
ENDBRANCH  17  22
BRANCH  18  25
ATOM     25  O   UNL     1      25.755   2.795  47.974  1.00  0.00    -0.385 OA
ATOM     26  H   UNL     1      24.861   2.380  48.075  1.00  0.00     0.211 HD
ENDBRANCH  18  25
BRANCH  20  27
ATOM     27  O   UNL     1      23.994   1.533  46.460  1.00  0.00    -0.387 OA
ATOM     28  H   UNL     1      23.283   2.122  46.825  1.00  0.00     0.211 HD
ENDBRANCH  20  27
BRANCH  21  29
ATOM     29  C   UNL     1      23.740   3.868  44.099  1.00  0.00     0.191 C 
BRANCH  29  30
ATOM     30  O   UNL     1      24.721   3.513  43.165  1.00  0.00    -0.394 OA
ATOM     31  H   UNL     1      25.310   2.847  43.607  1.00  0.00     0.210 HD
ENDBRANCH  29  30
ENDBRANCH  21  29
ENDBRANCH   1  17
TORSDOF 13
ENDMDL
