MODEL 1
REMARK VINA RESULT:    -6.606      0.000      0.000
REMARK INTER + INTRA:          -9.704
REMARK INTER:                  -9.309
REMARK INTRA:                  -0.395
REMARK UNBOUND:                -0.395
REMARK SMILES COc1ccc(-c2cc(=O)c3c(OC)c(OC)c(OC)c(OC)c3o2)cc1OC
REMARK SMILES IDX 7 1 8 2 9 3 10 4 11 5 24 6 25 7 21 8 18 9 15 10 12 11 6 12
REMARK SMILES IDX 3 13 27 14 4 15 26 16 5 17 2 18 1 19 28 20 29 21 22 22 23 23
REMARK SMILES IDX 13 24 14 25 19 26 20 27 16 28 17 29
REMARK H PARENT
REMARK Flexibility Score: inf
ROOT
ATOM      1  C   UNL     1     169.971 144.862 152.029  1.00  0.00     0.138 A 
ATOM      2  C   UNL     1     168.712 144.463 152.489  1.00  0.00     0.100 A 
ATOM      3  C   UNL     1     168.483 144.380 153.860  1.00  0.00     0.197 A 
ATOM      4  O   UNL     1     167.349 144.004 154.262  1.00  0.00    -0.289 OA
ATOM      5  C   UNL     1     169.519 144.707 154.765  1.00  0.00     0.115 A 
ATOM      6  C   UNL     1     170.759 145.124 154.224  1.00  0.00     0.188 A 
ATOM      7  O   UNL     1     170.924 145.167 152.904  1.00  0.00    -0.452 OA
ATOM      8  C   UNL     1     171.818 145.500 155.083  1.00  0.00     0.209 A 
ATOM      9  C   UNL     1     171.663 145.393 156.472  1.00  0.00     0.211 A 
ATOM     10  C   UNL     1     170.453 144.903 157.013  1.00  0.00     0.208 A 
ATOM     11  C   UNL     1     169.354 144.640 156.168  1.00  0.00     0.179 A 
ENDROOT
BRANCH   1  12
ATOM     12  C   UNL     1     170.276 144.938 150.581  1.00  0.00     0.021 A 
ATOM     13  C   UNL     1     170.859 145.144 147.830  1.00  0.00     0.160 A 
ATOM     14  C   UNL     1     169.939 144.186 148.279  1.00  0.00     0.161 A 
ATOM     15  C   UNL     1     171.481 145.998 148.758  1.00  0.00     0.051 A 
ATOM     16  C   UNL     1     169.653 144.086 149.656  1.00  0.00     0.062 A 
ATOM     17  C   UNL     1     171.188 145.897 150.118  1.00  0.00     0.016 A 
BRANCH  13  18
ATOM     18  O   UNL     1     171.124 145.221 146.453  1.00  0.00    -0.493 OA
ATOM     19  C   UNL     1     172.426 145.332 145.887  1.00  0.00     0.278 C 
ENDBRANCH  13  18
BRANCH  14  20
ATOM     20  O   UNL     1     169.325 143.358 147.327  1.00  0.00    -0.493 OA
ATOM     21  C   UNL     1     168.132 143.686 146.620  1.00  0.00     0.278 C 
ENDBRANCH  14  20
ENDBRANCH   1  12
BRANCH   8  22
ATOM     22  O   UNL     1     173.055 145.997 154.623  1.00  0.00    -0.490 OA
ATOM     23  C   UNL     1     174.130 145.234 154.087  1.00  0.00     0.278 C 
ENDBRANCH   8  22
BRANCH  11  24
ATOM     24  O   UNL     1     168.094 144.310 156.697  1.00  0.00    -0.492 OA
ATOM     25  C   UNL     1     167.795 143.063 157.317  1.00  0.00     0.278 C 
ENDBRANCH  11  24
BRANCH   9  26
ATOM     26  O   UNL     1     172.762 145.784 157.260  1.00  0.00    -0.490 OA
ATOM     27  C   UNL     1     173.831 144.952 157.700  1.00  0.00     0.279 C 
ENDBRANCH   9  26
BRANCH  10  28
ATOM     28  O   UNL     1     170.358 144.635 158.379  1.00  0.00    -0.490 OA
ATOM     29  C   UNL     1     170.899 143.443 158.940  1.00  0.00     0.278 C 
ENDBRANCH  10  28
TORSDOF 7
ENDMDL
MODEL 2
REMARK VINA RESULT:    -6.482      1.014      1.835
REMARK INTER + INTRA:          -9.530
REMARK INTER:                  -8.917
REMARK INTRA:                  -0.614
REMARK UNBOUND:                -0.395
REMARK SMILES COc1ccc(-c2cc(=O)c3c(OC)c(OC)c(OC)c(OC)c3o2)cc1OC
REMARK SMILES IDX 7 1 8 2 9 3 10 4 11 5 24 6 25 7 21 8 18 9 15 10 12 11 6 12
REMARK SMILES IDX 3 13 27 14 4 15 26 16 5 17 2 18 1 19 28 20 29 21 22 22 23 23
REMARK SMILES IDX 13 24 14 25 19 26 20 27 16 28 17 29
REMARK H PARENT
REMARK Flexibility Score: inf
ROOT
ATOM      1  C   UNL     1     170.078 144.671 152.456  1.00  0.00     0.138 A 
ATOM      2  C   UNL     1     168.840 144.309 152.999  1.00  0.00     0.100 A 
ATOM      3  C   UNL     1     168.697 144.238 154.381  1.00  0.00     0.197 A 
ATOM      4  O   UNL     1     167.581 143.895 154.857  1.00  0.00    -0.289 OA
ATOM      5  C   UNL     1     169.797 144.538 155.217  1.00  0.00     0.115 A 
ATOM      6  C   UNL     1     171.012 144.919 154.595  1.00  0.00     0.188 A 
ATOM      7  O   UNL     1     171.093 144.953 153.267  1.00  0.00    -0.452 OA
ATOM      8  C   UNL     1     172.134 145.268 155.382  1.00  0.00     0.209 A 
ATOM      9  C   UNL     1     172.066 145.171 156.779  1.00  0.00     0.211 A 
ATOM     10  C   UNL     1     170.879 144.716 157.399  1.00  0.00     0.208 A 
ATOM     11  C   UNL     1     169.721 144.481 156.628  1.00  0.00     0.179 A 
ENDROOT
BRANCH   1  12
ATOM     12  C   UNL     1     170.291 144.734 150.992  1.00  0.00     0.021 A 
ATOM     13  C   UNL     1     170.703 144.793 148.203  1.00  0.00     0.160 A 
ATOM     14  C   UNL     1     171.278 145.781 149.015  1.00  0.00     0.161 A 
ATOM     15  C   UNL     1     169.928 143.777 148.790  1.00  0.00     0.051 A 
ATOM     16  C   UNL     1     171.067 145.748 150.408  1.00  0.00     0.062 A 
ATOM     17  C   UNL     1     169.729 143.748 150.170  1.00  0.00     0.016 A 
BRANCH  13  18
ATOM     18  O   UNL     1     170.931 144.851 146.818  1.00  0.00    -0.493 OA
ATOM     19  C   UNL     1     170.026 145.415 145.875  1.00  0.00     0.278 C 
ENDBRANCH  13  18
BRANCH  14  20
ATOM     20  O   UNL     1     172.058 146.773 148.402  1.00  0.00    -0.493 OA
ATOM     21  C   UNL     1     171.700 148.150 148.325  1.00  0.00     0.278 C 
ENDBRANCH  14  20
ENDBRANCH   1  12
BRANCH   8  22
ATOM     22  O   UNL     1     173.352 145.728 154.842  1.00  0.00    -0.490 OA
ATOM     23  C   UNL     1     174.414 144.927 154.339  1.00  0.00     0.278 C 
ENDBRANCH   8  22
BRANCH  11  24
ATOM     24  O   UNL     1     168.489 144.189 157.238  1.00  0.00    -0.492 OA
ATOM     25  C   UNL     1     168.228 142.993 157.967  1.00  0.00     0.278 C 
ENDBRANCH  11  24
BRANCH   9  26
ATOM     26  O   UNL     1     173.223 145.533 157.494  1.00  0.00    -0.490 OA
ATOM     27  C   UNL     1     174.183 144.648 158.062  1.00  0.00     0.279 C 
ENDBRANCH   9  26
BRANCH  10  28
ATOM     28  O   UNL     1     170.865 144.455 158.770  1.00  0.00    -0.490 OA
ATOM     29  C   UNL     1     170.818 145.510 159.725  1.00  0.00     0.278 C 
ENDBRANCH  10  28
TORSDOF 7
ENDMDL
MODEL 3
REMARK VINA RESULT:    -6.408      1.513      1.863
REMARK INTER + INTRA:          -9.425
REMARK INTER:                  -8.904
REMARK INTRA:                  -0.521
REMARK UNBOUND:                -0.395
REMARK SMILES COc1ccc(-c2cc(=O)c3c(OC)c(OC)c(OC)c(OC)c3o2)cc1OC
REMARK SMILES IDX 7 1 8 2 9 3 10 4 11 5 24 6 25 7 21 8 18 9 15 10 12 11 6 12
REMARK SMILES IDX 3 13 27 14 4 15 26 16 5 17 2 18 1 19 28 20 29 21 22 22 23 23
REMARK SMILES IDX 13 24 14 25 19 26 20 27 16 28 17 29
REMARK H PARENT
REMARK Flexibility Score: inf
ROOT
ATOM      1  C   UNL     1     169.944 143.947 153.046  1.00  0.00     0.138 A 
ATOM      2  C   UNL     1     168.858 143.380 153.722  1.00  0.00     0.100 A 
ATOM      3  C   UNL     1     168.818 143.433 155.112  1.00  0.00     0.197 A 
ATOM      4  O   UNL     1     167.842 142.905 155.710  1.00  0.00    -0.289 OA
ATOM      5  C   UNL     1     169.866 144.065 155.821  1.00  0.00     0.115 A 
ATOM      6  C   UNL     1     170.920 144.636 155.067  1.00  0.00     0.188 A 
ATOM      7  O   UNL     1     170.912 144.538 153.739  1.00  0.00    -0.452 OA
ATOM      8  C   UNL     1     171.975 145.314 155.721  1.00  0.00     0.209 A 
ATOM      9  C   UNL     1     172.014 145.361 157.121  1.00  0.00     0.211 A 
ATOM     10  C   UNL     1     171.004 144.724 157.879  1.00  0.00     0.208 A 
ATOM     11  C   UNL     1     169.889 144.150 157.232  1.00  0.00     0.179 A 
ENDROOT
BRANCH   1  12
ATOM     12  C   UNL     1     170.050 143.891 151.570  1.00  0.00     0.021 A 
ATOM     13  C   UNL     1     170.202 143.820 148.755  1.00  0.00     0.160 A 
ATOM     14  C   UNL     1     170.502 142.671 149.500  1.00  0.00     0.161 A 
ATOM     15  C   UNL     1     169.824 145.000 149.421  1.00  0.00     0.051 A 
ATOM     16  C   UNL     1     170.427 142.712 150.907  1.00  0.00     0.062 A 
ATOM     17  C   UNL     1     169.745 145.031 150.814  1.00  0.00     0.016 A 
BRANCH  13  18
ATOM     18  O   UNL     1     170.286 143.750 147.355  1.00  0.00    -0.493 OA
ATOM     19  C   UNL     1     170.110 144.859 146.479  1.00  0.00     0.278 C 
ENDBRANCH  13  18
BRANCH  14  20
ATOM     20  O   UNL     1     170.863 141.506 148.806  1.00  0.00    -0.493 OA
ATOM     21  C   UNL     1     172.158 140.912 148.842  1.00  0.00     0.278 C 
ENDBRANCH  14  20
ENDBRANCH   1  12
BRANCH   8  22
ATOM     22  O   UNL     1     173.019 145.972 155.039  1.00  0.00    -0.490 OA
ATOM     23  C   UNL     1     174.155 145.364 154.435  1.00  0.00     0.278 C 
ENDBRANCH   8  22
BRANCH  11  24
ATOM     24  O   UNL     1     168.796 143.659 157.968  1.00  0.00    -0.492 OA
ATOM     25  C   UNL     1     168.794 142.405 158.644  1.00  0.00     0.278 C 
ENDBRANCH  11  24
BRANCH   9  26
ATOM     26  O   UNL     1     173.096 146.051 157.699  1.00  0.00    -0.490 OA
ATOM     27  C   UNL     1     174.287 145.476 158.225  1.00  0.00     0.279 C 
ENDBRANCH   9  26
BRANCH  10  28
ATOM     28  O   UNL     1     171.131 144.622 159.264  1.00  0.00    -0.490 OA
ATOM     29  C   UNL     1     170.876 145.733 160.116  1.00  0.00     0.278 C 
ENDBRANCH  10  28
TORSDOF 7
ENDMDL
MODEL 4
REMARK VINA RESULT:    -6.231      1.335      3.820
REMARK INTER + INTRA:          -9.176
REMARK INTER:                  -8.529
REMARK INTRA:                  -0.647
REMARK UNBOUND:                -0.395
REMARK SMILES COc1ccc(-c2cc(=O)c3c(OC)c(OC)c(OC)c(OC)c3o2)cc1OC
REMARK SMILES IDX 7 1 8 2 9 3 10 4 11 5 24 6 25 7 21 8 18 9 15 10 12 11 6 12
REMARK SMILES IDX 3 13 27 14 4 15 26 16 5 17 2 18 1 19 28 20 29 21 22 22 23 23
REMARK SMILES IDX 13 24 14 25 19 26 20 27 16 28 17 29
REMARK H PARENT
REMARK Flexibility Score: inf
ROOT
ATOM      1  C   UNL     1     171.462 144.366 152.443  1.00  0.00     0.138 A 
ATOM      2  C   UNL     1     172.755 144.793 152.759  1.00  0.00     0.100 A 
ATOM      3  C   UNL     1     173.089 145.029 154.090  1.00  0.00     0.197 A 
ATOM      4  O   UNL     1     174.254 145.429 154.359  1.00  0.00    -0.289 OA
ATOM      5  C   UNL     1     172.123 144.827 155.102  1.00  0.00     0.115 A 
ATOM      6  C   UNL     1     170.841 144.372 154.707  1.00  0.00     0.188 A 
ATOM      7  O   UNL     1     170.576 144.180 153.416  1.00  0.00    -0.452 OA
ATOM      8  C   UNL     1     169.847 144.116 155.680  1.00  0.00     0.209 A 
ATOM      9  C   UNL     1     170.108 144.380 157.032  1.00  0.00     0.211 A 
ATOM     10  C   UNL     1     171.360 144.908 157.421  1.00  0.00     0.208 A 
ATOM     11  C   UNL     1     172.394 145.053 156.471  1.00  0.00     0.179 A 
ENDROOT
BRANCH   1  12
ATOM     12  C   UNL     1     171.046 144.128 151.042  1.00  0.00     0.021 A 
ATOM     13  C   UNL     1     170.282 143.622 148.375  1.00  0.00     0.160 A 
ATOM     14  C   UNL     1     170.724 144.900 148.744  1.00  0.00     0.161 A 
ATOM     15  C   UNL     1     170.228 142.601 149.340  1.00  0.00     0.051 A 
ATOM     16  C   UNL     1     171.103 145.149 150.078  1.00  0.00     0.062 A 
ATOM     17  C   UNL     1     170.610 142.853 150.658  1.00  0.00     0.016 A 
BRANCH  13  18
ATOM     18  O   UNL     1     169.911 143.403 147.038  1.00  0.00    -0.493 OA
ATOM     19  C   UNL     1     168.569 143.251 146.587  1.00  0.00     0.278 C 
ENDBRANCH  13  18
BRANCH  14  20
ATOM     20  O   UNL     1     170.780 145.894 147.754  1.00  0.00    -0.493 OA
ATOM     21  C   UNL     1     171.851 146.820 147.598  1.00  0.00     0.278 C 
ENDBRANCH  14  20
ENDBRANCH   1  12
BRANCH   8  22
ATOM     22  O   UNL     1     168.575 143.592 155.375  1.00  0.00    -0.490 OA
ATOM     23  C   UNL     1     167.517 144.265 154.701  1.00  0.00     0.278 C 
ENDBRANCH   8  22
BRANCH  11  24
ATOM     24  O   UNL     1     173.694 145.419 156.863  1.00  0.00    -0.492 OA
ATOM     25  C   UNL     1     174.570 144.570 157.600  1.00  0.00     0.278 C 
ENDBRANCH  11  24
BRANCH   9  26
ATOM     26  O   UNL     1     169.069 144.102 157.940  1.00  0.00    -0.490 OA
ATOM     27  C   UNL     1     168.828 142.865 158.602  1.00  0.00     0.279 C 
ENDBRANCH   9  26
BRANCH  10  28
ATOM     28  O   UNL     1     171.562 145.331 158.735  1.00  0.00    -0.490 OA
ATOM     29  C   UNL     1     171.493 146.707 159.090  1.00  0.00     0.278 C 
ENDBRANCH  10  28
TORSDOF 7
ENDMDL
MODEL 5
REMARK VINA RESULT:    -6.195      1.722      3.856
REMARK INTER + INTRA:          -9.125
REMARK INTER:                  -8.584
REMARK INTRA:                  -0.541
REMARK UNBOUND:                -0.395
REMARK SMILES COc1ccc(-c2cc(=O)c3c(OC)c(OC)c(OC)c(OC)c3o2)cc1OC
REMARK SMILES IDX 7 1 8 2 9 3 10 4 11 5 24 6 25 7 21 8 18 9 15 10 12 11 6 12
REMARK SMILES IDX 3 13 27 14 4 15 26 16 5 17 2 18 1 19 28 20 29 21 22 22 23 23
REMARK SMILES IDX 13 24 14 25 19 26 20 27 16 28 17 29
REMARK H PARENT
REMARK Flexibility Score: inf
ROOT
ATOM      1  C   UNL     1     171.612 144.357 152.743  1.00  0.00     0.138 A 
ATOM      2  C   UNL     1     172.897 144.771 153.107  1.00  0.00     0.100 A 
ATOM      3  C   UNL     1     173.194 144.971 154.452  1.00  0.00     0.197 A 
ATOM      4  O   UNL     1     174.352 145.359 154.764  1.00  0.00    -0.289 OA
ATOM      5  C   UNL     1     172.199 144.747 155.431  1.00  0.00     0.115 A 
ATOM      6  C   UNL     1     170.927 144.307 154.988  1.00  0.00     0.188 A 
ATOM      7  O   UNL     1     170.698 144.149 153.686  1.00  0.00    -0.452 OA
ATOM      8  C   UNL     1     169.906 144.029 155.926  1.00  0.00     0.209 A 
ATOM      9  C   UNL     1     170.129 144.256 157.291  1.00  0.00     0.211 A 
ATOM     10  C   UNL     1     171.372 144.769 157.728  1.00  0.00     0.208 A 
ATOM     11  C   UNL     1     172.432 144.935 156.813  1.00  0.00     0.179 A 
ENDROOT
BRANCH   1  12
ATOM     12  C   UNL     1     171.236 144.158 151.325  1.00  0.00     0.021 A 
ATOM     13  C   UNL     1     170.461 143.775 148.640  1.00  0.00     0.160 A 
ATOM     14  C   UNL     1     171.621 143.156 149.128  1.00  0.00     0.161 A 
ATOM     15  C   UNL     1     169.691 144.580 149.499  1.00  0.00     0.051 A 
ATOM     16  C   UNL     1     172.005 143.353 150.469  1.00  0.00     0.062 A 
ATOM     17  C   UNL     1     170.074 144.764 150.828  1.00  0.00     0.016 A 
BRANCH  13  18
ATOM     18  O   UNL     1     170.103 143.562 147.299  1.00  0.00    -0.493 OA
ATOM     19  C   UNL     1     169.457 144.525 146.473  1.00  0.00     0.278 C 
ENDBRANCH  13  18
BRANCH  14  20
ATOM     20  O   UNL     1     172.361 142.349 148.250  1.00  0.00    -0.493 OA
ATOM     21  C   UNL     1     173.705 141.933 148.473  1.00  0.00     0.278 C 
ENDBRANCH  14  20
ENDBRANCH   1  12
BRANCH   8  22
ATOM     22  O   UNL     1     168.641 143.517 155.572  1.00  0.00    -0.490 OA
ATOM     23  C   UNL     1     167.587 144.226 154.929  1.00  0.00     0.278 C 
ENDBRANCH   8  22
BRANCH  11  24
ATOM     24  O   UNL     1     173.721 145.286 157.250  1.00  0.00    -0.492 OA
ATOM     25  C   UNL     1     174.588 144.403 157.957  1.00  0.00     0.278 C 
ENDBRANCH  11  24
BRANCH   9  26
ATOM     26  O   UNL     1     169.064 143.959 158.162  1.00  0.00    -0.490 OA
ATOM     27  C   UNL     1     168.689 142.669 158.636  1.00  0.00     0.279 C 
ENDBRANCH   9  26
BRANCH  10  28
ATOM     28  O   UNL     1     171.537 145.157 159.059  1.00  0.00    -0.490 OA
ATOM     29  C   UNL     1     171.522 146.528 159.439  1.00  0.00     0.278 C 
ENDBRANCH  10  28
TORSDOF 7
ENDMDL
MODEL 6
REMARK VINA RESULT:    -5.918      2.488      8.118
REMARK INTER + INTRA:          -8.734
REMARK INTER:                  -8.119
REMARK INTRA:                  -0.615
REMARK UNBOUND:                -0.395
REMARK SMILES COc1ccc(-c2cc(=O)c3c(OC)c(OC)c(OC)c(OC)c3o2)cc1OC
REMARK SMILES IDX 7 1 8 2 9 3 10 4 11 5 24 6 25 7 21 8 18 9 15 10 12 11 6 12
REMARK SMILES IDX 3 13 27 14 4 15 26 16 5 17 2 18 1 19 28 20 29 21 22 22 23 23
REMARK SMILES IDX 13 24 14 25 19 26 20 27 16 28 17 29
REMARK H PARENT
REMARK Flexibility Score: inf
ROOT
ATOM      1  C   UNL     1     171.088 144.312 154.028  1.00  0.00     0.138 A 
ATOM      2  C   UNL     1     170.235 145.187 153.348  1.00  0.00     0.100 A 
ATOM      3  C   UNL     1     170.219 145.178 151.956  1.00  0.00     0.197 A 
ATOM      4  O   UNL     1     169.458 145.983 151.355  1.00  0.00    -0.289 OA
ATOM      5  C   UNL     1     171.056 144.283 151.251  1.00  0.00     0.115 A 
ATOM      6  C   UNL     1     171.875 143.411 152.009  1.00  0.00     0.188 A 
ATOM      7  O   UNL     1     171.859 143.478 153.339  1.00  0.00    -0.452 OA
ATOM      8  C   UNL     1     172.703 142.467 151.357  1.00  0.00     0.209 A 
ATOM      9  C   UNL     1     172.766 142.442 149.957  1.00  0.00     0.211 A 
ATOM     10  C   UNL     1     172.008 143.364 149.198  1.00  0.00     0.208 A 
ATOM     11  C   UNL     1     171.092 144.225 149.838  1.00  0.00     0.179 A 
ENDROOT
BRANCH   1  12
ATOM     12  C   UNL     1     171.164 144.301 155.507  1.00  0.00     0.021 A 
ATOM     13  C   UNL     1     171.364 144.254 158.320  1.00  0.00     0.160 A 
ATOM     14  C   UNL     1     170.136 143.980 157.702  1.00  0.00     0.161 A 
ATOM     15  C   UNL     1     172.489 144.546 157.528  1.00  0.00     0.051 A 
ATOM     16  C   UNL     1     170.040 144.007 156.296  1.00  0.00     0.062 A 
ATOM     17  C   UNL     1     172.389 144.565 156.137  1.00  0.00     0.016 A 
BRANCH  13  18
ATOM     18  O   UNL     1     171.430 144.220 159.723  1.00  0.00    -0.493 OA
ATOM     19  C   UNL     1     171.340 145.366 160.562  1.00  0.00     0.278 C 
ENDBRANCH  13  18
BRANCH  14  20
ATOM     20  O   UNL     1     169.035 143.678 158.519  1.00  0.00    -0.493 OA
ATOM     21  C   UNL     1     168.101 142.634 158.264  1.00  0.00     0.278 C 
ENDBRANCH  14  20
ENDBRANCH   1  12
BRANCH   8  22
ATOM     22  O   UNL     1     173.489 141.517 152.040  1.00  0.00    -0.490 OA
ATOM     23  C   UNL     1     174.755 141.743 152.651  1.00  0.00     0.278 C 
ENDBRANCH   8  22
BRANCH  11  24
ATOM     24  O   UNL     1     170.213 145.031 149.095  1.00  0.00    -0.492 OA
ATOM     25  C   UNL     1     169.182 144.518 148.256  1.00  0.00     0.278 C 
ENDBRANCH  11  24
BRANCH   9  26
ATOM     26  O   UNL     1     173.614 141.477 149.381  1.00  0.00    -0.490 OA
ATOM     27  C   UNL     1     174.939 141.687 148.904  1.00  0.00     0.279 C 
ENDBRANCH   9  26
BRANCH  10  28
ATOM     28  O   UNL     1     172.199 143.455 147.819  1.00  0.00    -0.490 OA
ATOM     29  C   UNL     1     172.773 144.614 147.224  1.00  0.00     0.278 C 
ENDBRANCH  10  28
TORSDOF 7
ENDMDL
MODEL 7
REMARK VINA RESULT:    -5.839      2.191      3.101
REMARK INTER + INTRA:          -8.624
REMARK INTER:                  -7.937
REMARK INTRA:                  -0.687
REMARK UNBOUND:                -0.395
REMARK SMILES COc1ccc(-c2cc(=O)c3c(OC)c(OC)c(OC)c(OC)c3o2)cc1OC
REMARK SMILES IDX 7 1 8 2 9 3 10 4 11 5 24 6 25 7 21 8 18 9 15 10 12 11 6 12
REMARK SMILES IDX 3 13 27 14 4 15 26 16 5 17 2 18 1 19 28 20 29 21 22 22 23 23
REMARK SMILES IDX 13 24 14 25 19 26 20 27 16 28 17 29
REMARK H PARENT
REMARK Flexibility Score: inf
ROOT
ATOM      1  C   UNL     1     171.288 144.755 153.221  1.00  0.00     0.138 A 
ATOM      2  C   UNL     1     170.508 145.677 153.926  1.00  0.00     0.100 A 
ATOM      3  C   UNL     1     170.754 145.883 155.281  1.00  0.00     0.197 A 
ATOM      4  O   UNL     1     170.033 146.705 155.908  1.00  0.00    -0.289 OA
ATOM      5  C   UNL     1     171.790 145.165 155.923  1.00  0.00     0.115 A 
ATOM      6  C   UNL     1     172.551 144.265 155.138  1.00  0.00     0.188 A 
ATOM      7  O   UNL     1     172.258 144.099 153.850  1.00  0.00    -0.452 OA
ATOM      8  C   UNL     1     173.625 143.551 155.718  1.00  0.00     0.209 A 
ATOM      9  C   UNL     1     173.892 143.679 157.088  1.00  0.00     0.211 A 
ATOM     10  C   UNL     1     173.084 144.517 157.890  1.00  0.00     0.208 A 
ATOM     11  C   UNL     1     172.089 145.323 157.296  1.00  0.00     0.179 A 
ENDROOT
BRANCH   1  12
ATOM     12  C   UNL     1     171.049 144.478 151.786  1.00  0.00     0.021 A 
ATOM     13  C   UNL     1     170.534 143.960 149.062  1.00  0.00     0.160 A 
ATOM     14  C   UNL     1     171.479 143.188 149.753  1.00  0.00     0.161 A 
ATOM     15  C   UNL     1     169.847 144.984 149.737  1.00  0.00     0.051 A 
ATOM     16  C   UNL     1     171.735 143.453 151.114  1.00  0.00     0.062 A 
ATOM     17  C   UNL     1     170.100 145.236 151.086  1.00  0.00     0.016 A 
BRANCH  13  18
ATOM     18  O   UNL     1     170.301 143.674 147.707  1.00  0.00    -0.493 OA
ATOM     19  C   UNL     1     170.191 144.656 146.682  1.00  0.00     0.278 C 
ENDBRANCH  13  18
BRANCH  14  20
ATOM     20  O   UNL     1     172.138 142.165 149.056  1.00  0.00    -0.493 OA
ATOM     21  C   UNL     1     173.435 142.285 148.478  1.00  0.00     0.278 C 
ENDBRANCH  14  20
ENDBRANCH   1  12
BRANCH   8  22
ATOM     22  O   UNL     1     174.475 142.695 154.988  1.00  0.00    -0.490 OA
ATOM     23  C   UNL     1     175.568 143.084 154.163  1.00  0.00     0.278 C 
ENDBRANCH   8  22
BRANCH  11  24
ATOM     24  O   UNL     1     171.387 146.282 158.046  1.00  0.00    -0.492 OA
ATOM     25  C   UNL     1     172.015 147.266 158.863  1.00  0.00     0.278 C 
ENDBRANCH  11  24
BRANCH   9  26
ATOM     26  O   UNL     1     174.974 142.934 157.592  1.00  0.00    -0.490 OA
ATOM     27  C   UNL     1     174.914 141.636 158.175  1.00  0.00     0.279 C 
ENDBRANCH   9  26
BRANCH  10  28
ATOM     28  O   UNL     1     173.237 144.515 159.277  1.00  0.00    -0.490 OA
ATOM     29  C   UNL     1     172.468 143.652 160.106  1.00  0.00     0.278 C 
ENDBRANCH  10  28
TORSDOF 7
ENDMDL
MODEL 8
REMARK VINA RESULT:    -5.837      1.989      4.308
REMARK INTER + INTRA:          -8.621
REMARK INTER:                  -7.903
REMARK INTRA:                  -0.718
REMARK UNBOUND:                -0.395
REMARK SMILES COc1ccc(-c2cc(=O)c3c(OC)c(OC)c(OC)c(OC)c3o2)cc1OC
REMARK SMILES IDX 7 1 8 2 9 3 10 4 11 5 24 6 25 7 21 8 18 9 15 10 12 11 6 12
REMARK SMILES IDX 3 13 27 14 4 15 26 16 5 17 2 18 1 19 28 20 29 21 22 22 23 23
REMARK SMILES IDX 13 24 14 25 19 26 20 27 16 28 17 29
REMARK H PARENT
REMARK Flexibility Score: inf
ROOT
ATOM      1  C   UNL     1     172.387 144.224 153.155  1.00  0.00     0.138 A 
ATOM      2  C   UNL     1     173.775 144.090 153.259  1.00  0.00     0.100 A 
ATOM      3  C   UNL     1     174.395 144.345 154.480  1.00  0.00     0.197 A 
ATOM      4  O   UNL     1     175.648 144.236 154.556  1.00  0.00    -0.289 OA
ATOM      5  C   UNL     1     173.615 144.726 155.596  1.00  0.00     0.115 A 
ATOM      6  C   UNL     1     172.213 144.818 155.419  1.00  0.00     0.188 A 
ATOM      7  O   UNL     1     171.680 144.579 154.223  1.00  0.00    -0.452 OA
ATOM      8  C   UNL     1     171.380 145.157 156.511  1.00  0.00     0.209 A 
ATOM      9  C   UNL     1     171.949 145.470 157.753  1.00  0.00     0.211 A 
ATOM     10  C   UNL     1     173.353 145.455 157.912  1.00  0.00     0.208 A 
ATOM     11  C   UNL     1     174.181 145.003 156.862  1.00  0.00     0.179 A 
ENDROOT
BRANCH   1  12
ATOM     12  C   UNL     1     171.682 143.993 151.873  1.00  0.00     0.021 A 
ATOM     13  C   UNL     1     170.288 143.551 149.462  1.00  0.00     0.160 A 
ATOM     14  C   UNL     1     171.536 142.946 149.669  1.00  0.00     0.161 A 
ATOM     15  C   UNL     1     169.741 144.372 150.464  1.00  0.00     0.051 A 
ATOM     16  C   UNL     1     172.230 143.172 150.874  1.00  0.00     0.062 A 
ATOM     17  C   UNL     1     170.430 144.586 151.658  1.00  0.00     0.016 A 
BRANCH  13  18
ATOM     18  O   UNL     1     169.619 143.308 148.251  1.00  0.00    -0.493 OA
ATOM     19  C   UNL     1     169.431 144.276 147.225  1.00  0.00     0.278 C 
ENDBRANCH  13  18
BRANCH  14  20
ATOM     20  O   UNL     1     172.049 142.122 148.655  1.00  0.00    -0.493 OA
ATOM     21  C   UNL     1     173.396 141.663 148.591  1.00  0.00     0.278 C 
ENDBRANCH  14  20
ENDBRANCH   1  12
BRANCH   8  22
ATOM     22  O   UNL     1     169.973 145.196 156.435  1.00  0.00    -0.490 OA
ATOM     23  C   UNL     1     169.090 144.080 156.450  1.00  0.00     0.278 C 
ENDBRANCH   8  22
BRANCH  11  24
ATOM     24  O   UNL     1     175.562 144.824 157.052  1.00  0.00    -0.492 OA
ATOM     25  C   UNL     1     176.125 143.802 157.870  1.00  0.00     0.278 C 
ENDBRANCH  11  24
BRANCH   9  26
ATOM     26  O   UNL     1     171.056 145.800 158.790  1.00  0.00    -0.490 OA
ATOM     27  C   UNL     1     170.914 145.125 160.036  1.00  0.00     0.279 C 
ENDBRANCH   9  26
BRANCH  10  28
ATOM     28  O   UNL     1     173.927 145.931 159.092  1.00  0.00    -0.490 OA
ATOM     29  C   UNL     1     174.329 147.290 159.225  1.00  0.00     0.278 C 
ENDBRANCH  10  28
TORSDOF 7
ENDMDL
MODEL 9
REMARK VINA RESULT:    -5.674      3.145      8.736
REMARK INTER + INTRA:          -8.391
REMARK INTER:                  -7.685
REMARK INTRA:                  -0.706
REMARK UNBOUND:                -0.395
REMARK SMILES COc1ccc(-c2cc(=O)c3c(OC)c(OC)c(OC)c(OC)c3o2)cc1OC
REMARK SMILES IDX 7 1 8 2 9 3 10 4 11 5 24 6 25 7 21 8 18 9 15 10 12 11 6 12
REMARK SMILES IDX 3 13 27 14 4 15 26 16 5 17 2 18 1 19 28 20 29 21 22 22 23 23
REMARK SMILES IDX 13 24 14 25 19 26 20 27 16 28 17 29
REMARK H PARENT
REMARK Flexibility Score: inf
ROOT
ATOM      1  C   UNL     1     174.474 144.550 154.920  1.00  0.00     0.138 A 
ATOM      2  C   UNL     1     175.455 143.615 154.572  1.00  0.00     0.100 A 
ATOM      3  C   UNL     1     175.240 142.775 153.482  1.00  0.00     0.197 A 
ATOM      4  O   UNL     1     176.124 141.927 153.189  1.00  0.00    -0.289 OA
ATOM      5  C   UNL     1     174.041 142.883 152.739  1.00  0.00     0.115 A 
ATOM      6  C   UNL     1     173.106 143.869 153.138  1.00  0.00     0.188 A 
ATOM      7  O   UNL     1     173.360 144.631 154.200  1.00  0.00    -0.452 OA
ATOM      8  C   UNL     1     171.908 144.048 152.408  1.00  0.00     0.209 A 
ATOM      9  C   UNL     1     171.613 143.202 151.330  1.00  0.00     0.211 A 
ATOM     10  C   UNL     1     172.509 142.167 150.978  1.00  0.00     0.208 A 
ATOM     11  C   UNL     1     173.758 142.060 151.625  1.00  0.00     0.179 A 
ENDROOT
BRANCH   1  12
ATOM     12  C   UNL     1     174.641 145.446 156.087  1.00  0.00     0.021 A 
ATOM     13  C   UNL     1     175.015 147.135 158.314  1.00  0.00     0.160 A 
ATOM     14  C   UNL     1     173.815 146.426 158.169  1.00  0.00     0.161 A 
ATOM     15  C   UNL     1     176.025 146.994 157.346  1.00  0.00     0.051 A 
ATOM     16  C   UNL     1     173.631 145.585 157.053  1.00  0.00     0.062 A 
ATOM     17  C   UNL     1     175.840 146.154 156.247  1.00  0.00     0.016 A 
BRANCH  13  18
ATOM     18  O   UNL     1     175.170 147.966 159.436  1.00  0.00    -0.493 OA
ATOM     19  C   UNL     1     174.997 149.379 159.423  1.00  0.00     0.278 C 
ENDBRANCH  13  18
BRANCH  14  20
ATOM     20  O   UNL     1     172.831 146.578 159.159  1.00  0.00    -0.493 OA
ATOM     21  C   UNL     1     171.592 147.255 158.970  1.00  0.00     0.278 C 
ENDBRANCH  14  20
ENDBRANCH   1  12
BRANCH   8  22
ATOM     22  O   UNL     1     170.964 145.054 152.696  1.00  0.00    -0.490 OA
ATOM     23  C   UNL     1     169.955 145.011 153.699  1.00  0.00     0.278 C 
ENDBRANCH   8  22
BRANCH  11  24
ATOM     24  O   UNL     1     174.729 141.145 151.183  1.00  0.00    -0.492 OA
ATOM     25  C   UNL     1     175.551 141.352 150.037  1.00  0.00     0.278 C 
ENDBRANCH  11  24
BRANCH   9  26
ATOM     26  O   UNL     1     170.402 143.441 150.654  1.00  0.00    -0.490 OA
ATOM     27  C   UNL     1     170.211 144.288 149.526  1.00  0.00     0.279 C 
ENDBRANCH   9  26
BRANCH  10  28
ATOM     28  O   UNL     1     172.140 141.221 150.021  1.00  0.00    -0.490 OA
ATOM     29  C   UNL     1     172.333 141.459 148.631  1.00  0.00     0.278 C 
ENDBRANCH  10  28
TORSDOF 7
ENDMDL
