MODEL 1
REMARK VINA RESULT:     4.803      0.000      0.000
REMARK INTER + INTRA:           4.803
REMARK INTER:                   4.803
REMARK INTRA:                   0.000
REMARK UNBOUND:                 0.000
REMARK SMILES CC1=CC[C@@]2(C)CCCC(C)(C)[C@]23C[C@H]13
REMARK SMILES IDX 1 1 2 2 3 3 4 4 5 5 7 6 8 7 9 8 10 9 13 10 15 11 14 12 11 13
REMARK SMILES IDX 12 14 6 15
REMARK H PARENT
REMARK Flexibility Score: inf
ROOT
ATOM      1  C   UNL     1       2.304   7.922  13.875  1.00  0.00     0.039 C 
ATOM      2  C   UNL     1       3.494   7.173  13.347  1.00  0.00    -0.074 C 
ATOM      3  C   UNL     1       3.438   5.845  13.214  1.00  0.00    -0.027 C 
ATOM      4  C   UNL     1       4.565   5.101  12.574  1.00  0.00     0.034 C 
ATOM      5  C   UNL     1       5.987   5.525  13.068  1.00  0.00    -0.022 C 
ATOM      6  C   UNL     1       6.969   4.876  12.036  1.00  0.00     0.008 C 
ATOM      7  C   UNL     1       8.346   5.511  12.003  1.00  0.00     0.001 C 
ATOM      8  C   UNL     1       8.205   6.965  11.578  1.00  0.00     0.007 C 
ATOM      9  C   UNL     1       7.494   7.820  12.656  1.00  0.00    -0.029 C 
ATOM     10  C   UNL     1       6.141   7.119  13.141  1.00  0.00    -0.012 C 
ATOM     11  C   UNL     1       4.794   7.905  13.124  1.00  0.00     0.022 C 
ATOM     12  C   UNL     1       5.593   7.831  14.406  1.00  0.00     0.017 C 
ATOM     13  C   UNL     1       7.248   9.210  12.019  1.00  0.00     0.012 C 
ATOM     14  C   UNL     1       8.482   8.015  13.844  1.00  0.00     0.012 C 
ATOM     15  C   UNL     1       6.253   4.876  14.451  1.00  0.00     0.012 C 
ENDROOT
TORSDOF 0
ENDMDL
MODEL 2
REMARK VINA RESULT:     5.820      1.240      3.911
REMARK INTER + INTRA:           5.820
REMARK INTER:                   5.820
REMARK INTRA:                   0.000
REMARK UNBOUND:                 0.000
REMARK SMILES CC1=CC[C@@]2(C)CCCC(C)(C)[C@]23C[C@H]13
REMARK SMILES IDX 1 1 2 2 3 3 4 4 5 5 7 6 8 7 9 8 10 9 13 10 15 11 14 12 11 13
REMARK SMILES IDX 12 14 6 15
REMARK H PARENT
REMARK Flexibility Score: inf
ROOT
ATOM      1  C   UNL     1       8.823   9.760  14.206  1.00  0.00     0.039 C 
ATOM      2  C   UNL     1       8.007   8.522  13.965  1.00  0.00    -0.074 C 
ATOM      3  C   UNL     1       8.584   7.319  14.043  1.00  0.00    -0.027 C 
ATOM      4  C   UNL     1       7.761   6.078  13.930  1.00  0.00     0.034 C 
ATOM      5  C   UNL     1       6.720   6.092  12.763  1.00  0.00    -0.022 C 
ATOM      6  C   UNL     1       5.780   4.875  13.062  1.00  0.00     0.008 C 
ATOM      7  C   UNL     1       4.432   4.945  12.371  1.00  0.00     0.001 C 
ATOM      8  C   UNL     1       3.688   6.173  12.874  1.00  0.00     0.007 C 
ATOM      9  C   UNL     1       4.350   7.490  12.398  1.00  0.00    -0.029 C 
ATOM     10  C   UNL     1       5.921   7.480  12.695  1.00  0.00    -0.012 C 
ATOM     11  C   UNL     1       6.585   8.653  13.479  1.00  0.00     0.022 C 
ATOM     12  C   UNL     1       6.610   8.664  11.967  1.00  0.00     0.017 C 
ATOM     13  C   UNL     1       3.614   8.639  13.132  1.00  0.00     0.012 C 
ATOM     14  C   UNL     1       4.066   7.649  10.875  1.00  0.00     0.012 C 
ATOM     15  C   UNL     1       7.457   5.807  11.429  1.00  0.00     0.012 C 
ENDROOT
TORSDOF 0
ENDMDL
MODEL 3
REMARK VINA RESULT:     6.327      1.150      3.107
REMARK INTER + INTRA:           6.327
REMARK INTER:                   6.327
REMARK INTRA:                   0.000
REMARK UNBOUND:                 0.000
REMARK SMILES CC1=CC[C@@]2(C)CCCC(C)(C)[C@]23C[C@H]13
REMARK SMILES IDX 1 1 2 2 3 3 4 4 5 5 7 6 8 7 9 8 10 9 13 10 15 11 14 12 11 13
REMARK SMILES IDX 12 14 6 15
REMARK H PARENT
REMARK Flexibility Score: inf
ROOT
ATOM      1  C   UNL     1       2.430   4.876  12.886  1.00  0.00     0.039 C 
ATOM      2  C   UNL     1       3.502   5.905  13.104  1.00  0.00    -0.074 C 
ATOM      3  C   UNL     1       3.167   7.183  13.302  1.00  0.00    -0.027 C 
ATOM      4  C   UNL     1       4.212   8.194  13.645  1.00  0.00     0.034 C 
ATOM      5  C   UNL     1       5.504   8.116  12.768  1.00  0.00    -0.022 C 
ATOM      6  C   UNL     1       6.544   9.010  13.522  1.00  0.00     0.008 C 
ATOM      7  C   UNL     1       7.989   8.730  13.156  1.00  0.00     0.001 C 
ATOM      8  C   UNL     1       8.322   7.297  13.541  1.00  0.00     0.007 C 
ATOM      9  C   UNL     1       7.572   6.267  12.661  1.00  0.00    -0.029 C 
ATOM     10  C   UNL     1       6.011   6.605  12.589  1.00  0.00    -0.012 C 
ATOM     11  C   UNL     1       4.950   5.517  12.936  1.00  0.00     0.022 C 
ATOM     12  C   UNL     1       5.328   5.749  11.491  1.00  0.00     0.017 C 
ATOM     13  C   UNL     1       7.851   4.876  13.281  1.00  0.00     0.012 C 
ATOM     14  C   UNL     1       8.217   6.287  11.243  1.00  0.00     0.012 C 
ATOM     15  C   UNL     1       5.219   8.774  11.393  1.00  0.00     0.012 C 
ENDROOT
TORSDOF 0
ENDMDL
