MODEL 1
REMARK VINA RESULT:    -4.122      0.000      0.000
REMARK INTER + INTRA:          -9.370
REMARK INTER:                  -7.736
REMARK INTRA:                  -1.634
REMARK UNBOUND:                -1.634
REMARK SMILES O=C([O-])CCCCCCCCCCCCCCC(=O)[O-]
REMARK SMILES IDX 10 1 9 2 8 3 7 4 6 5 5 6 4 7 2 8 1 9 3 10 11 11 12 12 13 13
REMARK SMILES IDX 14 14 15 15 16 16 17 17 18 18 19 19 20 20
REMARK H PARENT
REMARK Flexibility Score: inf
ROOT
ATOM      1  C   UNL     1      -2.681 -13.055   5.058  1.00  0.00     0.000 C 
ENDROOT
BRANCH   1   2
ATOM      2  C   UNL     1      -1.223 -13.312   4.659  1.00  0.00     0.000 C 
BRANCH   2   3
ATOM      3  C   UNL     1      -0.309 -12.180   5.143  1.00  0.00     0.000 C 
BRANCH   3   4
ATOM      4  C   UNL     1       0.776 -12.714   6.091  1.00  0.00     0.000 C 
BRANCH   4   5
ATOM      5  C   UNL     1       1.402 -14.027   5.596  1.00  0.00     0.000 C 
BRANCH   5   6
ATOM      6  C   UNL     1       2.926 -14.070   5.803  1.00  0.00     0.006 C 
BRANCH   6   7
ATOM      7  C   UNL     1       3.439 -12.852   6.582  1.00  0.00     0.053 C 
BRANCH   7   8
ATOM      8  C   UNL     1       4.929 -12.721   6.493  1.00  0.00     0.041 C 
ATOM      9  O   UNL     1       5.496 -11.660   6.863  1.00  0.00    -0.550 OA
ATOM     10  O   UNL     1       5.687 -13.763   5.975  1.00  0.00    -0.550 OA
ENDBRANCH   7   8
ENDBRANCH   6   7
ENDBRANCH   5   6
ENDBRANCH   4   5
ENDBRANCH   3   4
ENDBRANCH   2   3
ENDBRANCH   1   2
BRANCH   1  11
ATOM     11  C   UNL     1      -2.978 -13.625   6.453  1.00  0.00     0.000 C 
BRANCH  11  12
ATOM     12  C   UNL     1      -3.113 -12.532   7.525  1.00  0.00     0.000 C 
BRANCH  12  13
ATOM     13  C   UNL     1      -3.891 -11.304   7.022  1.00  0.00     0.000 C 
BRANCH  13  14
ATOM     14  C   UNL     1      -3.198  -9.978   7.379  1.00  0.00     0.000 C 
BRANCH  14  15
ATOM     15  C   UNL     1      -2.191  -9.528   6.309  1.00  0.00     0.000 C 
BRANCH  15  16
ATOM     16  C   UNL     1      -1.308  -8.386   6.834  1.00  0.00     0.006 C 
BRANCH  16  17
ATOM     17  C   UNL     1       0.182  -8.751   6.822  1.00  0.00     0.053 C 
BRANCH  17  18
ATOM     18  C   UNL     1       0.682  -9.098   8.191  1.00  0.00     0.041 C 
ATOM     19  O   UNL     1       1.297 -10.181   8.384  1.00  0.00    -0.550 OA
ATOM     20  O   UNL     1       0.502  -8.211   9.244  1.00  0.00    -0.550 OA
ENDBRANCH  17  18
ENDBRANCH  16  17
ENDBRANCH  15  16
ENDBRANCH  14  15
ENDBRANCH  13  14
ENDBRANCH  12  13
ENDBRANCH  11  12
ENDBRANCH   1  11
TORSDOF 15
ENDMDL
MODEL 2
REMARK VINA RESULT:    -4.086     14.090     16.194
REMARK INTER + INTRA:          -9.304
REMARK INTER:                  -6.842
REMARK INTRA:                  -2.462
REMARK UNBOUND:                -1.634
REMARK SMILES O=C([O-])CCCCCCCCCCCCCCC(=O)[O-]
REMARK SMILES IDX 10 1 9 2 8 3 7 4 6 5 5 6 4 7 2 8 1 9 3 10 11 11 12 12 13 13
REMARK SMILES IDX 14 14 15 15 16 16 17 17 18 18 19 19 20 20
REMARK H PARENT
REMARK Flexibility Score: inf
ROOT
ATOM      1  C   UNL     1     -12.002   0.788   7.287  1.00  0.00     0.000 C 
ENDROOT
BRANCH   1   2
ATOM      2  C   UNL     1     -12.507   2.235   7.266  1.00  0.00     0.000 C 
BRANCH   2   3
ATOM      3  C   UNL     1     -11.375   3.211   6.924  1.00  0.00     0.000 C 
BRANCH   3   4
ATOM      4  C   UNL     1     -10.811   2.932   5.523  1.00  0.00     0.000 C 
BRANCH   4   5
ATOM      5  C   UNL     1      -9.275   2.917   5.493  1.00  0.00     0.000 C 
BRANCH   5   6
ATOM      6  C   UNL     1      -8.703   1.536   5.130  1.00  0.00     0.006 C 
BRANCH   6   7
ATOM      7  C   UNL     1      -9.751   0.632   4.467  1.00  0.00     0.053 C 
BRANCH   7   8
ATOM      8  C   UNL     1      -9.233  -0.758   4.254  1.00  0.00     0.041 C 
ATOM      9  O   UNL     1      -9.820  -1.741   4.777  1.00  0.00    -0.550 OA
ATOM     10  O   UNL     1      -8.084  -0.963   3.502  1.00  0.00    -0.550 OA
ENDBRANCH   7   8
ENDBRANCH   6   7
ENDBRANCH   5   6
ENDBRANCH   4   5
ENDBRANCH   3   4
ENDBRANCH   2   3
ENDBRANCH   1   2
BRANCH   1  11
ATOM     11  C   UNL     1     -11.056   0.553   8.474  1.00  0.00     0.000 C 
BRANCH  11  12
ATOM     12  C   UNL     1      -9.859  -0.341   8.111  1.00  0.00     0.000 C 
BRANCH  12  13
ATOM     13  C   UNL     1      -8.525   0.217   8.636  1.00  0.00     0.000 C 
BRANCH  13  14
ATOM     14  C   UNL     1      -8.640   1.676   9.110  1.00  0.00     0.000 C 
BRANCH  14  15
ATOM     15  C   UNL     1      -7.486   2.556   8.605  1.00  0.00     0.000 C 
BRANCH  15  16
ATOM     16  C   UNL     1      -6.223   1.717   8.363  1.00  0.00     0.006 C 
BRANCH  16  17
ATOM     17  C   UNL     1      -5.052   2.564   7.849  1.00  0.00     0.053 C 
BRANCH  17  18
ATOM     18  C   UNL     1      -3.788   1.766   7.747  1.00  0.00     0.041 C 
ATOM     19  O   UNL     1      -3.714   0.798   6.944  1.00  0.00    -0.550 OA
ATOM     20  O   UNL     1      -2.682   2.111   8.513  1.00  0.00    -0.550 OA
ENDBRANCH  17  18
ENDBRANCH  16  17
ENDBRANCH  15  16
ENDBRANCH  14  15
ENDBRANCH  13  14
ENDBRANCH  12  13
ENDBRANCH  11  12
ENDBRANCH   1  11
TORSDOF 15
ENDMDL
MODEL 3
REMARK VINA RESULT:    -3.969      6.056      9.069
REMARK INTER + INTRA:          -9.084
REMARK INTER:                  -8.258
REMARK INTRA:                  -0.825
REMARK UNBOUND:                -1.634
REMARK SMILES O=C([O-])CCCCCCCCCCCCCCC(=O)[O-]
REMARK SMILES IDX 10 1 9 2 8 3 7 4 6 5 5 6 4 7 2 8 1 9 3 10 11 11 12 12 13 13
REMARK SMILES IDX 14 14 15 15 16 16 17 17 18 18 19 19 20 20
REMARK H PARENT
REMARK Flexibility Score: inf
ROOT
ATOM      1  C   UNL     1      -6.905 -12.024   6.295  1.00  0.00     0.000 C 
ENDROOT
BRANCH   1   2
ATOM      2  C   UNL     1      -8.313 -12.057   6.903  1.00  0.00     0.000 C 
BRANCH   2   3
ATOM      3  C   UNL     1      -9.252 -11.086   6.176  1.00  0.00     0.000 C 
BRANCH   3   4
ATOM      4  C   UNL     1      -8.468 -10.170   5.225  1.00  0.00     0.000 C 
BRANCH   4   5
ATOM      5  C   UNL     1      -9.318  -9.673   4.044  1.00  0.00     0.000 C 
BRANCH   5   6
ATOM      6  C   UNL     1     -10.066 -10.814   3.333  1.00  0.00     0.006 C 
BRANCH   6   7
ATOM      7  C   UNL     1      -9.443 -11.156   1.974  1.00  0.00     0.053 C 
BRANCH   7   8
ATOM      8  C   UNL     1     -10.302 -12.099   1.189  1.00  0.00     0.041 C 
ATOM      9  O   UNL     1     -11.476 -11.774   0.871  1.00  0.00    -0.550 OA
ATOM     10  O   UNL     1      -9.814 -13.350   0.834  1.00  0.00    -0.550 OA
ENDBRANCH   7   8
ENDBRANCH   6   7
ENDBRANCH   5   6
ENDBRANCH   4   5
ENDBRANCH   3   4
ENDBRANCH   2   3
ENDBRANCH   1   2
BRANCH   1  11
ATOM     11  C   UNL     1      -5.872 -12.608   7.269  1.00  0.00     0.000 C 
BRANCH  11  12
ATOM     12  C   UNL     1      -4.705 -11.647   7.545  1.00  0.00     0.000 C 
BRANCH  12  13
ATOM     13  C   UNL     1      -3.610 -11.723   6.467  1.00  0.00     0.000 C 
BRANCH  13  14
ATOM     14  C   UNL     1      -2.451 -10.747   6.733  1.00  0.00     0.000 C 
BRANCH  14  15
ATOM     15  C   UNL     1      -2.936  -9.360   7.182  1.00  0.00     0.000 C 
BRANCH  15  16
ATOM     16  C   UNL     1      -1.791  -8.337   7.130  1.00  0.00     0.006 C 
BRANCH  16  17
ATOM     17  C   UNL     1      -0.490  -8.948   6.592  1.00  0.00     0.053 C 
BRANCH  17  18
ATOM     18  C   UNL     1       0.602  -8.924   7.617  1.00  0.00     0.041 C 
ATOM     19  O   UNL     1       0.461  -8.257   8.677  1.00  0.00    -0.550 OA
ATOM     20  O   UNL     1       1.759  -9.666   7.419  1.00  0.00    -0.550 OA
ENDBRANCH  17  18
ENDBRANCH  16  17
ENDBRANCH  15  16
ENDBRANCH  14  15
ENDBRANCH  13  14
ENDBRANCH  12  13
ENDBRANCH  11  12
ENDBRANCH   1  11
TORSDOF 15
ENDMDL
MODEL 4
REMARK VINA RESULT:    -3.953     13.971     15.908
REMARK INTER + INTRA:          -9.053
REMARK INTER:                  -6.742
REMARK INTRA:                  -2.312
REMARK UNBOUND:                -1.634
REMARK SMILES O=C([O-])CCCCCCCCCCCCCCC(=O)[O-]
REMARK SMILES IDX 10 1 9 2 8 3 7 4 6 5 5 6 4 7 2 8 1 9 3 10 11 11 12 12 13 13
REMARK SMILES IDX 14 14 15 15 16 16 17 17 18 18 19 19 20 20
REMARK H PARENT
REMARK Flexibility Score: inf
ROOT
ATOM      1  C   UNL     1      -8.526   0.646   8.491  1.00  0.00     0.000 C 
ENDROOT
BRANCH   1   2
ATOM      2  C   UNL     1      -8.659   2.068   9.050  1.00  0.00     0.000 C 
BRANCH   2   3
ATOM      3  C   UNL     1      -8.258   3.114   8.002  1.00  0.00     0.000 C 
BRANCH   3   4
ATOM      4  C   UNL     1      -7.335   2.502   6.938  1.00  0.00     0.000 C 
BRANCH   4   5
ATOM      5  C   UNL     1      -6.089   3.361   6.669  1.00  0.00     0.000 C 
BRANCH   5   6
ATOM      6  C   UNL     1      -5.138   3.419   7.877  1.00  0.00     0.006 C 
BRANCH   6   7
ATOM      7  C   UNL     1      -4.921   2.038   8.510  1.00  0.00     0.053 C 
BRANCH   7   8
ATOM      8  C   UNL     1      -3.692   1.368   7.976  1.00  0.00     0.041 C 
ATOM      9  O   UNL     1      -3.739   0.725   6.895  1.00  0.00    -0.550 OA
ATOM     10  O   UNL     1      -2.502   1.431   8.689  1.00  0.00    -0.550 OA
ENDBRANCH   7   8
ENDBRANCH   6   7
ENDBRANCH   5   6
ENDBRANCH   4   5
ENDBRANCH   3   4
ENDBRANCH   2   3
ENDBRANCH   1   2
BRANCH   1  11
ATOM     11  C   UNL     1      -9.892  -0.055   8.442  1.00  0.00     0.000 C 
BRANCH  11  12
ATOM     12  C   UNL     1     -10.968   0.682   9.256  1.00  0.00     0.000 C 
BRANCH  12  13
ATOM     13  C   UNL     1     -12.079   1.271   8.370  1.00  0.00     0.000 C 
BRANCH  13  14
ATOM     14  C   UNL     1     -11.849   0.996   6.875  1.00  0.00     0.000 C 
BRANCH  14  15
ATOM     15  C   UNL     1     -11.375   2.241   6.109  1.00  0.00     0.000 C 
BRANCH  15  16
ATOM     16  C   UNL     1     -10.385   1.858   4.999  1.00  0.00     0.006 C 
BRANCH  16  17
ATOM     17  C   UNL     1     -10.451   0.365   4.652  1.00  0.00     0.053 C 
BRANCH  17  18
ATOM     18  C   UNL     1      -9.096  -0.273   4.666  1.00  0.00     0.041 C 
ATOM     19  O   UNL     1      -8.102   0.343   4.195  1.00  0.00    -0.550 OA
ATOM     20  O   UNL     1      -8.923  -1.531   5.228  1.00  0.00    -0.550 OA
ENDBRANCH  17  18
ENDBRANCH  16  17
ENDBRANCH  15  16
ENDBRANCH  14  15
ENDBRANCH  13  14
ENDBRANCH  12  13
ENDBRANCH  11  12
ENDBRANCH   1  11
TORSDOF 15
ENDMDL
MODEL 5
REMARK VINA RESULT:    -3.949      5.948      7.894
REMARK INTER + INTRA:          -9.046
REMARK INTER:                  -8.089
REMARK INTRA:                  -0.957
REMARK UNBOUND:                -1.634
REMARK SMILES O=C([O-])CCCCCCCCCCCCCCC(=O)[O-]
REMARK SMILES IDX 10 1 9 2 8 3 7 4 6 5 5 6 4 7 2 8 1 9 3 10 11 11 12 12 13 13
REMARK SMILES IDX 14 14 15 15 16 16 17 17 18 18 19 19 20 20
REMARK H PARENT
REMARK Flexibility Score: inf
ROOT
ATOM      1  C   UNL     1      -5.312 -12.822   6.373  1.00  0.00     0.000 C 
ENDROOT
BRANCH   1   2
ATOM      2  C   UNL     1      -3.886 -12.360   6.697  1.00  0.00     0.000 C 
BRANCH   2   3
ATOM      3  C   UNL     1      -3.897 -11.142   7.629  1.00  0.00     0.000 C 
BRANCH   3   4
ATOM      4  C   UNL     1      -2.584 -10.353   7.520  1.00  0.00     0.000 C 
BRANCH   4   5
ATOM      5  C   UNL     1      -2.748  -9.032   6.752  1.00  0.00     0.000 C 
BRANCH   5   6
ATOM      6  C   UNL     1      -1.399  -8.408   6.353  1.00  0.00     0.006 C 
BRANCH   6   7
ATOM      7  C   UNL     1      -0.224  -9.365   6.599  1.00  0.00     0.053 C 
BRANCH   7   8
ATOM      8  C   UNL     1       0.857  -8.720   7.412  1.00  0.00     0.041 C 
ATOM      9  O   UNL     1       2.012  -8.578   6.932  1.00  0.00    -0.550 OA
ATOM     10  O   UNL     1       0.595  -8.304   8.711  1.00  0.00    -0.550 OA
ENDBRANCH   7   8
ENDBRANCH   6   7
ENDBRANCH   5   6
ENDBRANCH   4   5
ENDBRANCH   3   4
ENDBRANCH   2   3
ENDBRANCH   1   2
BRANCH   1  11
ATOM     11  C   UNL     1      -6.326 -11.698   6.634  1.00  0.00     0.000 C 
BRANCH  11  12
ATOM     12  C   UNL     1      -7.742 -12.051   6.150  1.00  0.00     0.000 C 
BRANCH  12  13
ATOM     13  C   UNL     1      -8.812 -11.099   6.710  1.00  0.00     0.000 C 
BRANCH  13  14
ATOM     14  C   UNL     1      -9.720 -10.519   5.613  1.00  0.00     0.000 C 
BRANCH  14  15
ATOM     15  C   UNL     1      -8.929  -9.800   4.508  1.00  0.00     0.000 C 
BRANCH  15  16
ATOM     16  C   UNL     1      -9.457 -10.186   3.118  1.00  0.00     0.006 C 
BRANCH  16  17
ATOM     17  C   UNL     1     -10.115 -11.572   3.110  1.00  0.00     0.053 C 
BRANCH  17  18
ATOM     18  C   UNL     1     -10.453 -12.022   1.722  1.00  0.00     0.041 C 
ATOM     19  O   UNL     1      -9.747 -12.894   1.149  1.00  0.00    -0.550 OA
ATOM     20  O   UNL     1     -11.568 -11.504   1.074  1.00  0.00    -0.550 OA
ENDBRANCH  17  18
ENDBRANCH  16  17
ENDBRANCH  15  16
ENDBRANCH  14  15
ENDBRANCH  13  14
ENDBRANCH  12  13
ENDBRANCH  11  12
ENDBRANCH   1  11
TORSDOF 15
ENDMDL
MODEL 6
REMARK VINA RESULT:    -3.925     14.624     17.150
REMARK INTER + INTRA:          -9.001
REMARK INTER:                  -6.753
REMARK INTRA:                  -2.248
REMARK UNBOUND:                -1.634
REMARK SMILES O=C([O-])CCCCCCCCCCCCCCC(=O)[O-]
REMARK SMILES IDX 10 1 9 2 8 3 7 4 6 5 5 6 4 7 2 8 1 9 3 10 11 11 12 12 13 13
REMARK SMILES IDX 14 14 15 15 16 16 17 17 18 18 19 19 20 20
REMARK H PARENT
REMARK Flexibility Score: inf
ROOT
ATOM      1  C   UNL     1      -9.737   4.068   7.958  1.00  0.00     0.000 C 
ENDROOT
BRANCH   1   2
ATOM      2  C   UNL     1     -10.407   4.796   6.787  1.00  0.00     0.000 C 
BRANCH   2   3
ATOM      3  C   UNL     1      -9.583   4.653   5.501  1.00  0.00     0.000 C 
BRANCH   3   4
ATOM      4  C   UNL     1      -8.079   4.746   5.798  1.00  0.00     0.000 C 
BRANCH   4   5
ATOM      5  C   UNL     1      -7.224   3.980   4.777  1.00  0.00     0.000 C 
BRANCH   5   6
ATOM      6  C   UNL     1      -6.947   2.529   5.208  1.00  0.00     0.006 C 
BRANCH   6   7
ATOM      7  C   UNL     1      -6.604   2.424   6.700  1.00  0.00     0.053 C 
BRANCH   7   8
ATOM      8  C   UNL     1      -5.125   2.459   6.935  1.00  0.00     0.041 C 
ATOM      9  O   UNL     1      -4.445   1.402   6.862  1.00  0.00    -0.550 OA
ATOM     10  O   UNL     1      -4.502   3.656   7.265  1.00  0.00    -0.550 OA
ENDBRANCH   7   8
ENDBRANCH   6   7
ENDBRANCH   5   6
ENDBRANCH   4   5
ENDBRANCH   3   4
ENDBRANCH   2   3
ENDBRANCH   1   2
BRANCH   1  11
ATOM     11  C   UNL     1     -10.705   3.073   8.613  1.00  0.00     0.000 C 
BRANCH  11  12
ATOM     12  C   UNL     1     -12.178   3.390   8.310  1.00  0.00     0.000 C 
BRANCH  12  13
ATOM     13  C   UNL     1     -12.945   2.172   7.768  1.00  0.00     0.000 C 
BRANCH  13  14
ATOM     14  C   UNL     1     -12.018   0.991   7.433  1.00  0.00     0.000 C 
BRANCH  14  15
ATOM     15  C   UNL     1     -11.799   0.819   5.922  1.00  0.00     0.000 C 
BRANCH  15  16
ATOM     16  C   UNL     1     -10.334   1.091   5.547  1.00  0.00     0.006 C 
BRANCH  16  17
ATOM     17  C   UNL     1      -9.971   0.517   4.171  1.00  0.00     0.053 C 
BRANCH  17  18
ATOM     18  C   UNL     1      -8.985  -0.606   4.278  1.00  0.00     0.041 C 
ATOM     19  O   UNL     1      -8.027  -0.686   3.464  1.00  0.00    -0.550 OA
ATOM     20  O   UNL     1      -9.104  -1.543   5.295  1.00  0.00    -0.550 OA
ENDBRANCH  17  18
ENDBRANCH  16  17
ENDBRANCH  15  16
ENDBRANCH  14  15
ENDBRANCH  13  14
ENDBRANCH  12  13
ENDBRANCH  11  12
ENDBRANCH   1  11
TORSDOF 15
ENDMDL
MODEL 7
REMARK VINA RESULT:    -3.902      1.991      6.440
REMARK INTER + INTRA:          -8.958
REMARK INTER:                  -6.952
REMARK INTRA:                  -2.006
REMARK UNBOUND:                -1.634
REMARK SMILES O=C([O-])CCCCCCCCCCCCCCC(=O)[O-]
REMARK SMILES IDX 10 1 9 2 8 3 7 4 6 5 5 6 4 7 2 8 1 9 3 10 11 11 12 12 13 13
REMARK SMILES IDX 14 14 15 15 16 16 17 17 18 18 19 19 20 20
REMARK H PARENT
REMARK Flexibility Score: inf
ROOT
ATOM      1  C   UNL     1       0.841 -10.890   8.350  1.00  0.00     0.000 C 
ENDROOT
BRANCH   1   2
ATOM      2  C   UNL     1       0.497  -9.687   9.236  1.00  0.00     0.000 C 
BRANCH   2   3
ATOM      3  C   UNL     1       0.228  -8.436   8.391  1.00  0.00     0.000 C 
BRANCH   3   4
ATOM      4  C   UNL     1       0.145  -8.787   6.898  1.00  0.00     0.000 C 
BRANCH   4   5
ATOM      5  C   UNL     1      -1.189  -8.365   6.262  1.00  0.00     0.000 C 
BRANCH   5   6
ATOM      6  C   UNL     1      -2.364  -8.435   7.252  1.00  0.00     0.006 C 
BRANCH   6   7
ATOM      7  C   UNL     1      -3.002  -9.830   7.295  1.00  0.00     0.053 C 
BRANCH   7   8
ATOM      8  C   UNL     1      -3.284 -10.270   8.700  1.00  0.00     0.041 C 
ATOM      9  O   UNL     1      -3.052  -9.496   9.666  1.00  0.00    -0.550 OA
ATOM     10  O   UNL     1      -3.776 -11.546   8.943  1.00  0.00    -0.550 OA
ENDBRANCH   7   8
ENDBRANCH   6   7
ENDBRANCH   5   6
ENDBRANCH   4   5
ENDBRANCH   3   4
ENDBRANCH   2   3
ENDBRANCH   1   2
BRANCH   1  11
ATOM     11  C   UNL     1      -0.130 -12.053   8.600  1.00  0.00     0.000 C 
BRANCH  11  12
ATOM     12  C   UNL     1      -0.585 -12.737   7.301  1.00  0.00     0.000 C 
BRANCH  12  13
ATOM     13  C   UNL     1       0.440 -12.587   6.164  1.00  0.00     0.000 C 
BRANCH  13  14
ATOM     14  C   UNL     1       0.580 -13.867   5.323  1.00  0.00     0.000 C 
BRANCH  14  15
ATOM     15  C   UNL     1       2.021 -14.400   5.289  1.00  0.00     0.000 C 
BRANCH  15  16
ATOM     16  C   UNL     1       2.826 -13.877   6.488  1.00  0.00     0.006 C 
BRANCH  16  17
ATOM     17  C   UNL     1       4.316 -13.714   6.160  1.00  0.00     0.053 C 
BRANCH  17  18
ATOM     18  C   UNL     1       4.946 -12.613   6.957  1.00  0.00     0.041 C 
ATOM     19  O   UNL     1       5.275 -12.808   8.158  1.00  0.00    -0.550 OA
ATOM     20  O   UNL     1       5.201 -11.383   6.365  1.00  0.00    -0.550 OA
ENDBRANCH  17  18
ENDBRANCH  16  17
ENDBRANCH  15  16
ENDBRANCH  14  15
ENDBRANCH  13  14
ENDBRANCH  12  13
ENDBRANCH  11  12
ENDBRANCH   1  11
TORSDOF 15
ENDMDL
MODEL 8
REMARK VINA RESULT:    -3.896     14.014     15.805
REMARK INTER + INTRA:          -8.948
REMARK INTER:                  -6.705
REMARK INTRA:                  -2.243
REMARK UNBOUND:                -1.634
REMARK SMILES O=C([O-])CCCCCCCCCCCCCCC(=O)[O-]
REMARK SMILES IDX 10 1 9 2 8 3 7 4 6 5 5 6 4 7 2 8 1 9 3 10 11 11 12 12 13 13
REMARK SMILES IDX 14 14 15 15 16 16 17 17 18 18 19 19 20 20
REMARK H PARENT
REMARK Flexibility Score: inf
ROOT
ATOM      1  C   UNL     1      -9.989   0.219   4.334  1.00  0.00     0.000 C 
ENDROOT
BRANCH   1   2
ATOM      2  C   UNL     1      -8.540   0.719   4.388  1.00  0.00     0.000 C 
BRANCH   2   3
ATOM      3  C   UNL     1      -8.451   2.082   5.086  1.00  0.00     0.000 C 
BRANCH   3   4
ATOM      4  C   UNL     1      -7.002   2.409   5.474  1.00  0.00     0.000 C 
BRANCH   4   5
ATOM      5  C   UNL     1      -6.909   3.339   6.694  1.00  0.00     0.000 C 
BRANCH   5   6
ATOM      6  C   UNL     1      -5.917   2.829   7.753  1.00  0.00     0.006 C 
BRANCH   6   7
ATOM      7  C   UNL     1      -4.460   2.957   7.290  1.00  0.00     0.053 C 
BRANCH   7   8
ATOM      8  C   UNL     1      -3.645   1.761   7.681  1.00  0.00     0.041 C 
ATOM      9  O   UNL     1      -3.672   0.718   6.977  1.00  0.00    -0.550 OA
ATOM     10  O   UNL     1      -2.878   1.792   8.838  1.00  0.00    -0.550 OA
ENDBRANCH   7   8
ENDBRANCH   6   7
ENDBRANCH   5   6
ENDBRANCH   4   5
ENDBRANCH   3   4
ENDBRANCH   2   3
ENDBRANCH   1   2
BRANCH   1  11
ATOM     11  C   UNL     1     -10.939   1.212   5.019  1.00  0.00     0.000 C 
BRANCH  11  12
ATOM     12  C   UNL     1     -11.884   0.533   6.024  1.00  0.00     0.000 C 
BRANCH  12  13
ATOM     13  C   UNL     1     -12.117   1.385   7.283  1.00  0.00     0.000 C 
BRANCH  13  14
ATOM     14  C   UNL     1     -11.361   2.723   7.239  1.00  0.00     0.000 C 
BRANCH  14  15
ATOM     15  C   UNL     1     -10.211   2.788   8.258  1.00  0.00     0.000 C 
BRANCH  15  16
ATOM     16  C   UNL     1     -10.041   1.442   8.977  1.00  0.00     0.006 C 
BRANCH  16  17
ATOM     17  C   UNL     1      -8.849   0.641   8.438  1.00  0.00     0.053 C 
BRANCH  17  18
ATOM     18  C   UNL     1      -9.165  -0.819   8.321  1.00  0.00     0.041 C 
ATOM     19  O   UNL     1      -9.115  -1.389   7.198  1.00  0.00    -0.550 OA
ATOM     20  O   UNL     1      -9.480  -1.557   9.455  1.00  0.00    -0.550 OA
ENDBRANCH  17  18
ENDBRANCH  16  17
ENDBRANCH  15  16
ENDBRANCH  14  15
ENDBRANCH  13  14
ENDBRANCH  12  13
ENDBRANCH  11  12
ENDBRANCH   1  11
TORSDOF 15
ENDMDL
MODEL 9
REMARK VINA RESULT:    -3.890     13.195     16.557
REMARK INTER + INTRA:          -8.936
REMARK INTER:                  -7.340
REMARK INTRA:                  -1.596
REMARK UNBOUND:                -1.634
REMARK SMILES O=C([O-])CCCCCCCCCCCCCCC(=O)[O-]
REMARK SMILES IDX 10 1 9 2 8 3 7 4 6 5 5 6 4 7 2 8 1 9 3 10 11 11 12 12 13 13
REMARK SMILES IDX 14 14 15 15 16 16 17 17 18 18 19 19 20 20
REMARK H PARENT
REMARK Flexibility Score: inf
ROOT
ATOM      1  C   UNL     1      -7.778   3.448   4.808  1.00  0.00     0.000 C 
ENDROOT
BRANCH   1   2
ATOM      2  C   UNL     1      -8.782   4.553   5.159  1.00  0.00     0.000 C 
BRANCH   2   3
ATOM      3  C   UNL     1     -10.222   4.096   4.895  1.00  0.00     0.000 C 
BRANCH   3   4
ATOM      4  C   UNL     1     -10.802   3.369   6.118  1.00  0.00     0.000 C 
BRANCH   4   5
ATOM      5  C   UNL     1     -11.478   2.039   5.753  1.00  0.00     0.000 C 
BRANCH   5   6
ATOM      6  C   UNL     1     -10.497   0.854   5.759  1.00  0.00     0.006 C 
BRANCH   6   7
ATOM      7  C   UNL     1     -10.124   0.403   4.341  1.00  0.00     0.053 C 
BRANCH   7   8
ATOM      8  C   UNL     1      -9.075  -0.667   4.354  1.00  0.00     0.041 C 
ATOM      9  O   UNL     1      -9.109  -1.577   5.223  1.00  0.00    -0.550 OA
ATOM     10  O   UNL     1      -8.044  -0.640   3.424  1.00  0.00    -0.550 OA
ENDBRANCH   7   8
ENDBRANCH   6   7
ENDBRANCH   5   6
ENDBRANCH   4   5
ENDBRANCH   3   4
ENDBRANCH   2   3
ENDBRANCH   1   2
BRANCH   1  11
ATOM     11  C   UNL     1      -7.166   2.839   6.078  1.00  0.00     0.000 C 
BRANCH  11  12
ATOM     12  C   UNL     1      -7.239   3.787   7.286  1.00  0.00     0.000 C 
BRANCH  12  13
ATOM     13  C   UNL     1      -5.851   4.268   7.744  1.00  0.00     0.000 C 
BRANCH  13  14
ATOM     14  C   UNL     1      -5.618   4.053   9.248  1.00  0.00     0.000 C 
BRANCH  14  15
ATOM     15  C   UNL     1      -4.143   3.786   9.588  1.00  0.00     0.000 C 
BRANCH  15  16
ATOM     16  C   UNL     1      -3.402   3.193   8.380  1.00  0.00     0.006 C 
BRANCH  16  17
ATOM     17  C   UNL     1      -2.858   1.787   8.666  1.00  0.00     0.053 C 
BRANCH  17  18
ATOM     18  C   UNL     1      -3.329   0.790   7.652  1.00  0.00     0.041 C 
ATOM     19  O   UNL     1      -4.216   1.108   6.816  1.00  0.00    -0.550 OA
ATOM     20  O   UNL     1      -2.765  -0.479   7.608  1.00  0.00    -0.550 OA
ENDBRANCH  17  18
ENDBRANCH  16  17
ENDBRANCH  15  16
ENDBRANCH  14  15
ENDBRANCH  13  14
ENDBRANCH  12  13
ENDBRANCH  11  12
ENDBRANCH   1  11
TORSDOF 15
ENDMDL
