MODEL 1
REMARK VINA RESULT:    -3.106      0.000      0.000
REMARK INTER + INTRA:          -5.028
REMARK INTER:                  -4.740
REMARK INTRA:                  -0.288
REMARK UNBOUND:                -0.288
REMARK SMILES CC1=CCC[C@@H](C)C(=O)C[C@@H](C(C)C)C(=O)C1
REMARK SMILES IDX 8 1 9 2 6 3 7 4 5 5 4 6 3 7 2 8 1 9 10 11 11 12 15 13 16 14
REMARK SMILES IDX 17 15 12 17 13 18 14 19
REMARK H PARENT
REMARK Flexibility Score: 70.00
ROOT
ATOM      1  C   UNL     1      -8.287  30.939  45.047  1.00  0.00     0.136 C 
ATOM      2  O   UNL     1      -8.979  31.933  44.878  1.00  0.00    -0.299 OA
ENDROOT
BRANCH   1   3
ATOM      3  C   UNL     1      -8.298  29.853  43.985  1.00  0.00     0.053 C 
ATOM      4  C   UNL     1      -8.835  30.409  42.662  1.00  0.00     0.016 C 
BRANCH   3   5
ATOM      5  C   UNL     1      -9.096  28.607  44.421  1.00  0.00     0.015 C 
BRANCH   5   6
ATOM      6  C   UNL     1      -8.199  27.555  45.099  1.00  0.00     0.028 C 
BRANCH   6   7
ATOM      7  C   UNL     1      -6.827  27.468  44.481  1.00  0.00    -0.028 C 
ATOM      8  C   UNL     1      -5.676  27.935  45.029  1.00  0.00    -0.070 CG0
ATOM      9  C   UNL     1      -4.426  27.846  44.187  1.00  0.00     0.039 C 
ATOM     10  G   UNL     1      -5.558  28.476  46.451  1.00  0.00     0.000 G0
ENDBRANCH   6   7
ENDBRANCH   5   6
ENDBRANCH   3   5
ENDBRANCH   1   3
BRANCH   1  11
ATOM     11  C   UNL     1      -7.504  30.805  46.335  1.00  0.00     0.087 C 
BRANCH  11  12
ATOM     12  C   UNL     1      -5.991  31.114  46.157  1.00  0.00     0.066 C 
BRANCH  12  13
ATOM     13  C   UNL     1      -5.077  29.948  46.521  1.00  0.00     0.140 C 
ATOM     14  O   UNL     1      -3.978  30.195  46.997  1.00  0.00    -0.299 OA
BRANCH  13  15
ATOM     15  C   UNL     1      -5.529  28.507  46.461  1.00  0.00     0.106 CG0
ATOM     16  G   UNL     1      -5.674  27.952  45.047  1.00  0.00     0.000 G0
ENDBRANCH  13  15
ENDBRANCH  12  13
BRANCH  12  17
ATOM     17  C   UNL     1      -5.533  32.430  46.866  1.00  0.00    -0.006 C 
ATOM     18  C   UNL     1      -6.606  33.071  47.764  1.00  0.00     0.008 C 
ATOM     19  C   UNL     1      -5.022  33.469  45.852  1.00  0.00     0.008 C 
ENDBRANCH  12  17
ENDBRANCH  11  12
ENDBRANCH   1  11
TORSDOF 1
ENDMDL
MODEL 2
REMARK VINA RESULT:    -2.966      1.840      2.434
REMARK INTER + INTRA:          -4.814
REMARK INTER:                  -4.647
REMARK INTRA:                  -0.167
REMARK UNBOUND:                -0.288
REMARK SMILES CC1=CCC[C@@H](C)C(=O)C[C@@H](C(C)C)C(=O)C1
REMARK SMILES IDX 8 1 9 2 6 3 7 4 5 5 4 6 3 7 2 8 1 9 10 11 11 12 15 13 16 14
REMARK SMILES IDX 17 15 12 17 13 18 14 19
REMARK H PARENT
REMARK Flexibility Score: 70.00
ROOT
ATOM      1  C   UNL     1      -8.010  29.410  45.828  1.00  0.00     0.136 C 
ATOM      2  O   UNL     1      -8.910  30.211  45.619  1.00  0.00    -0.299 OA
ENDROOT
BRANCH   1   3
ATOM      3  C   UNL     1      -8.003  28.102  45.055  1.00  0.00     0.053 C 
ATOM      4  C   UNL     1      -6.937  27.157  45.619  1.00  0.00     0.016 C 
BRANCH   3   5
ATOM      5  C   UNL     1      -7.806  28.311  43.539  1.00  0.00     0.015 C 
BRANCH   5   6
ATOM      6  C   UNL     1      -6.318  28.430  43.162  1.00  0.00     0.028 C 
BRANCH   6   7
ATOM      7  C   UNL     1      -5.901  29.846  42.860  1.00  0.00    -0.028 C 
ATOM      8  C   UNL     1      -4.966  30.562  43.535  1.00  0.00    -0.070 CG0
ATOM      9  C   UNL     1      -4.783  32.007  43.136  1.00  0.00     0.039 C 
ATOM     10  G   UNL     1      -4.053  29.984  44.613  1.00  0.00     0.000 G0
ENDBRANCH   6   7
ENDBRANCH   5   6
ENDBRANCH   3   5
ENDBRANCH   1   3
BRANCH   1  11
ATOM     11  C   UNL     1      -6.982  29.727  46.892  1.00  0.00     0.087 C 
BRANCH  11  12
ATOM     12  C   UNL     1      -5.874  30.696  46.391  1.00  0.00     0.066 C 
BRANCH  12  13
ATOM     13  C   UNL     1      -4.571  29.997  46.015  1.00  0.00     0.140 C 
ATOM     14  O   UNL     1      -4.010  29.315  46.860  1.00  0.00    -0.299 OA
BRANCH  13  15
ATOM     15  C   UNL     1      -4.026  29.989  44.605  1.00  0.00     0.106 CG0
ATOM     16  G   UNL     1      -4.970  30.582  43.563  1.00  0.00     0.000 G0
ENDBRANCH  13  15
ENDBRANCH  12  13
BRANCH  12  17
ATOM     17  C   UNL     1      -5.609  31.898  47.355  1.00  0.00    -0.006 C 
ATOM     18  C   UNL     1      -6.877  32.666  47.771  1.00  0.00     0.008 C 
ATOM     19  C   UNL     1      -4.583  32.881  46.763  1.00  0.00     0.008 C 
ENDBRANCH  12  17
ENDBRANCH  11  12
ENDBRANCH   1  11
TORSDOF 1
ENDMDL
MODEL 3
REMARK VINA RESULT:    -2.957     14.398     16.606
REMARK INTER + INTRA:          -4.800
REMARK INTER:                  -4.358
REMARK INTRA:                  -0.443
REMARK UNBOUND:                -0.288
REMARK SMILES CC1=CCC[C@@H](C)C(=O)C[C@@H](C(C)C)C(=O)C1
REMARK SMILES IDX 8 1 9 2 6 3 7 4 5 5 4 6 3 7 2 8 1 9 10 11 11 12 15 13 16 14
REMARK SMILES IDX 17 15 12 17 13 18 14 19
REMARK H PARENT
REMARK Flexibility Score: 70.00
ROOT
ATOM      1  C   UNL     1     -20.123  22.973  39.868  1.00  0.00     0.136 C 
ATOM      2  O   UNL     1     -19.008  22.858  40.356  1.00  0.00    -0.299 OA
ENDROOT
BRANCH   1   3
ATOM      3  C   UNL     1     -21.198  21.973  40.261  1.00  0.00     0.053 C 
ATOM      4  C   UNL     1     -22.253  21.865  39.154  1.00  0.00     0.016 C 
BRANCH   3   5
ATOM      5  C   UNL     1     -21.855  22.313  41.614  1.00  0.00     0.015 C 
BRANCH   5   6
ATOM      6  C   UNL     1     -22.923  23.414  41.478  1.00  0.00     0.028 C 
BRANCH   6   7
ATOM      7  C   UNL     1     -22.580  24.662  42.248  1.00  0.00    -0.028 C 
ATOM      8  C   UNL     1     -22.134  25.829  41.717  1.00  0.00    -0.070 CG0
ATOM      9  C   UNL     1     -21.740  26.921  42.682  1.00  0.00     0.039 C 
ATOM     10  G   UNL     1     -22.071  26.123  40.220  1.00  0.00     0.000 G0
ENDBRANCH   6   7
ENDBRANCH   5   6
ENDBRANCH   3   5
ENDBRANCH   1   3
BRANCH   1  11
ATOM     11  C   UNL     1     -20.365  24.062  38.846  1.00  0.00     0.087 C 
BRANCH  11  12
ATOM     12  C   UNL     1     -19.699  25.413  39.235  1.00  0.00     0.066 C 
BRANCH  12  13
ATOM     13  C   UNL     1     -20.691  26.480  39.687  1.00  0.00     0.140 C 
ATOM     14  O   UNL     1     -20.405  27.655  39.508  1.00  0.00    -0.299 OA
BRANCH  13  15
ATOM     15  C   UNL     1     -22.071  26.146  40.204  1.00  0.00     0.106 CG0
ATOM     16  G   UNL     1     -22.125  25.840  41.699  1.00  0.00     0.000 G0
ENDBRANCH  13  15
ENDBRANCH  12  13
BRANCH  12  17
ATOM     17  C   UNL     1     -18.731  25.972  38.141  1.00  0.00    -0.006 C 
ATOM     18  C   UNL     1     -19.187  25.701  36.696  1.00  0.00     0.008 C 
ATOM     19  C   UNL     1     -17.298  25.448  38.335  1.00  0.00     0.008 C 
ENDBRANCH  12  17
ENDBRANCH  11  12
ENDBRANCH   1  11
TORSDOF 1
ENDMDL
MODEL 4
REMARK VINA RESULT:    -2.940      1.863      5.009
REMARK INTER + INTRA:          -4.775
REMARK INTER:                  -4.647
REMARK INTRA:                  -0.128
REMARK UNBOUND:                -0.288
REMARK SMILES CC1=CCC[C@@H](C)C(=O)C[C@@H](C(C)C)C(=O)C1
REMARK SMILES IDX 8 1 9 2 6 3 7 4 5 5 4 6 3 7 2 8 1 9 10 11 11 12 15 13 16 14
REMARK SMILES IDX 17 15 12 17 13 18 14 19
REMARK H PARENT
REMARK Flexibility Score: 70.00
ROOT
ATOM      1  C   UNL     1      -6.502  27.106  45.326  1.00  0.00     0.136 C 
ATOM      2  O   UNL     1      -6.308  26.122  46.026  1.00  0.00    -0.299 OA
ENDROOT
BRANCH   1   3
ATOM      3  C   UNL     1      -5.308  27.785  44.675  1.00  0.00     0.053 C 
ATOM      4  C   UNL     1      -4.426  26.749  43.971  1.00  0.00     0.016 C 
BRANCH   3   5
ATOM      5  C   UNL     1      -4.483  28.618  45.677  1.00  0.00     0.015 C 
BRANCH   5   6
ATOM      6  C   UNL     1      -5.325  29.071  46.883  1.00  0.00     0.028 C 
BRANCH   6   7
ATOM      7  C   UNL     1      -5.549  30.561  46.916  1.00  0.00    -0.028 C 
ATOM      8  C   UNL     1      -6.655  31.211  46.471  1.00  0.00    -0.070 CG0
ATOM      9  C   UNL     1      -6.625  32.720  46.494  1.00  0.00     0.039 C 
ATOM     10  G   UNL     1      -7.936  30.515  46.017  1.00  0.00     0.000 G0
ENDBRANCH   6   7
ENDBRANCH   5   6
ENDBRANCH   3   5
ENDBRANCH   1   3
BRANCH   1  11
ATOM     11  C   UNL     1      -7.910  27.643  45.195  1.00  0.00     0.087 C 
BRANCH  11  12
ATOM     12  C   UNL     1      -8.050  28.697  44.061  1.00  0.00     0.066 C 
BRANCH  12  13
ATOM     13  C   UNL     1      -7.985  30.140  44.550  1.00  0.00     0.140 C 
ATOM     14  O   UNL     1      -8.093  31.040  43.729  1.00  0.00    -0.299 OA
BRANCH  13  15
ATOM     15  C   UNL     1      -7.947  30.505  46.016  1.00  0.00     0.106 CG0
ATOM     16  G   UNL     1      -6.661  31.198  46.458  1.00  0.00     0.000 G0
ENDBRANCH  13  15
ENDBRANCH  12  13
BRANCH  12  17
ATOM     17  C   UNL     1      -9.298  28.470  43.145  1.00  0.00    -0.006 C 
ATOM     18  C   UNL     1     -10.371  27.551  43.756  1.00  0.00     0.008 C 
ATOM     19  C   UNL     1      -8.891  27.935  41.760  1.00  0.00     0.008 C 
ENDBRANCH  12  17
ENDBRANCH  11  12
ENDBRANCH   1  11
TORSDOF 1
ENDMDL
MODEL 5
REMARK VINA RESULT:    -2.799      1.961      4.736
REMARK INTER + INTRA:          -4.560
REMARK INTER:                  -4.219
REMARK INTRA:                  -0.341
REMARK UNBOUND:                -0.288
REMARK SMILES CC1=CCC[C@@H](C)C(=O)C[C@@H](C(C)C)C(=O)C1
REMARK SMILES IDX 8 1 9 2 6 3 7 4 5 5 4 6 3 7 2 8 1 9 10 11 11 12 15 13 16 14
REMARK SMILES IDX 17 15 12 17 13 18 14 19
REMARK H PARENT
REMARK Flexibility Score: 70.00
ROOT
ATOM      1  C   UNL     1      -5.210  30.659  46.826  1.00  0.00     0.136 C 
ATOM      2  O   UNL     1      -4.056  30.325  47.054  1.00  0.00    -0.299 OA
ENDROOT
BRANCH   1   3
ATOM      3  C   UNL     1      -5.530  32.140  46.702  1.00  0.00     0.053 C 
ATOM      4  C   UNL     1      -6.918  32.433  47.280  1.00  0.00     0.016 C 
BRANCH   3   5
ATOM      5  C   UNL     1      -5.422  32.647  45.249  1.00  0.00     0.015 C 
BRANCH   5   6
ATOM      6  C   UNL     1      -6.803  32.931  44.632  1.00  0.00     0.028 C 
BRANCH   6   7
ATOM      7  C   UNL     1      -7.021  32.211  43.326  1.00  0.00    -0.028 C 
ATOM      8  C   UNL     1      -7.710  31.053  43.160  1.00  0.00    -0.070 CG0
ATOM      9  C   UNL     1      -7.710  30.442  41.779  1.00  0.00     0.039 C 
ATOM     10  G   UNL     1      -8.531  30.376  44.255  1.00  0.00     0.000 G0
ENDBRANCH   6   7
ENDBRANCH   5   6
ENDBRANCH   3   5
ENDBRANCH   1   3
BRANCH   1  11
ATOM     11  C   UNL     1      -6.278  29.590  46.748  1.00  0.00     0.087 C 
BRANCH  11  12
ATOM     12  C   UNL     1      -6.475  29.040  45.306  1.00  0.00     0.066 C 
BRANCH  12  13
ATOM     13  C   UNL     1      -7.918  29.100  44.817  1.00  0.00     0.140 C 
ATOM     14  O   UNL     1      -8.637  28.128  45.001  1.00  0.00    -0.299 OA
BRANCH  13  15
ATOM     15  C   UNL     1      -8.538  30.358  44.253  1.00  0.00     0.106 CG0
ATOM     16  G   UNL     1      -7.705  31.037  43.169  1.00  0.00     0.000 G0
ENDBRANCH  13  15
ENDBRANCH  12  13
BRANCH  12  17
ATOM     17  C   UNL     1      -5.867  27.615  45.092  1.00  0.00    -0.006 C 
ATOM     18  C   UNL     1      -5.837  26.743  46.360  1.00  0.00     0.008 C 
ATOM     19  C   UNL     1      -4.454  27.690  44.485  1.00  0.00     0.008 C 
ENDBRANCH  12  17
ENDBRANCH  11  12
ENDBRANCH   1  11
TORSDOF 1
ENDMDL
MODEL 6
REMARK VINA RESULT:    -2.653      2.131      3.307
REMARK INTER + INTRA:          -4.337
REMARK INTER:                  -3.845
REMARK INTRA:                  -0.491
REMARK UNBOUND:                -0.288
REMARK SMILES CC1=CCC[C@@H](C)C(=O)C[C@@H](C(C)C)C(=O)C1
REMARK SMILES IDX 8 1 9 2 6 3 7 4 5 5 4 6 3 7 2 8 1 9 10 11 11 12 15 13 16 14
REMARK SMILES IDX 17 15 12 17 13 18 14 19
REMARK H PARENT
REMARK Flexibility Score: 70.00
ROOT
ATOM      1  C   UNL     1      -8.278  31.788  44.794  1.00  0.00     0.136 C 
ATOM      2  O   UNL     1      -9.133  32.654  44.906  1.00  0.00    -0.299 OA
ENDROOT
BRANCH   1   3
ATOM      3  C   UNL     1      -7.235  31.929  43.698  1.00  0.00     0.053 C 
ATOM      4  C   UNL     1      -6.439  33.224  43.886  1.00  0.00     0.016 C 
BRANCH   3   5
ATOM      5  C   UNL     1      -7.850  31.863  42.285  1.00  0.00     0.015 C 
BRANCH   5   6
ATOM      6  C   UNL     1      -8.744  30.623  42.101  1.00  0.00     0.028 C 
BRANCH   6   7
ATOM      7  C   UNL     1      -7.969  29.398  41.689  1.00  0.00    -0.028 C 
ATOM      8  C   UNL     1      -7.777  28.285  42.443  1.00  0.00    -0.070 CG0
ATOM      9  C   UNL     1      -6.871  27.217  41.879  1.00  0.00     0.039 C 
ATOM     10  G   UNL     1      -8.467  28.023  43.779  1.00  0.00     0.000 G0
ENDBRANCH   6   7
ENDBRANCH   5   6
ENDBRANCH   3   5
ENDBRANCH   1   3
BRANCH   1  11
ATOM     11  C   UNL     1      -8.337  30.582  45.706  1.00  0.00     0.087 C 
BRANCH  11  12
ATOM     12  C   UNL     1      -7.156  29.595  45.478  1.00  0.00     0.066 C 
BRANCH  12  13
ATOM     13  C   UNL     1      -7.592  28.213  45.004  1.00  0.00     0.140 C 
ATOM     14  O   UNL     1      -7.320  27.245  45.700  1.00  0.00    -0.299 OA
BRANCH  13  15
ATOM     15  C   UNL     1      -8.474  28.005  43.794  1.00  0.00     0.106 CG0
ATOM     16  G   UNL     1      -7.785  28.279  42.460  1.00  0.00     0.000 G0
ENDBRANCH  13  15
ENDBRANCH  12  13
BRANCH  12  17
ATOM     17  C   UNL     1      -6.183  29.490  46.698  1.00  0.00    -0.006 C 
ATOM     18  C   UNL     1      -6.217  30.707  47.640  1.00  0.00     0.008 C 
ATOM     19  C   UNL     1      -4.735  29.231  46.244  1.00  0.00     0.008 C 
ENDBRANCH  12  17
ENDBRANCH  11  12
ENDBRANCH   1  11
TORSDOF 1
ENDMDL
MODEL 7
REMARK VINA RESULT:    -2.628     15.094     17.147
REMARK INTER + INTRA:          -4.299
REMARK INTER:                  -3.760
REMARK INTRA:                  -0.539
REMARK UNBOUND:                -0.288
REMARK SMILES CC1=CCC[C@@H](C)C(=O)C[C@@H](C(C)C)C(=O)C1
REMARK SMILES IDX 8 1 9 2 6 3 7 4 5 5 4 6 3 7 2 8 1 9 10 11 11 12 15 13 16 14
REMARK SMILES IDX 17 15 12 17 13 18 14 19
REMARK H PARENT
REMARK Flexibility Score: 70.00
ROOT
ATOM      1  C   UNL     1     -17.072  25.697  35.894  1.00  0.00     0.136 C 
ATOM      2  O   UNL     1     -16.958  25.972  37.079  1.00  0.00    -0.299 OA
ENDROOT
BRANCH   1   3
ATOM      3  C   UNL     1     -17.608  26.759  34.947  1.00  0.00     0.053 C 
ATOM      4  C   UNL     1     -16.877  28.086  35.169  1.00  0.00     0.016 C 
BRANCH   3   5
ATOM      5  C   UNL     1     -19.134  26.945  35.072  1.00  0.00     0.015 C 
BRANCH   5   6
ATOM      6  C   UNL     1     -19.900  26.203  33.961  1.00  0.00     0.028 C 
BRANCH   6   7
ATOM      7  C   UNL     1     -20.272  24.794  34.346  1.00  0.00    -0.028 C 
ATOM      8  C   UNL     1     -19.831  23.661  33.743  1.00  0.00    -0.070 CG0
ATOM      9  C   UNL     1     -20.420  22.354  34.216  1.00  0.00     0.039 C 
ATOM     10  G   UNL     1     -18.740  23.623  32.675  1.00  0.00     0.000 G0
ENDBRANCH   6   7
ENDBRANCH   5   6
ENDBRANCH   3   5
ENDBRANCH   1   3
BRANCH   1  11
ATOM     11  C   UNL     1     -16.740  24.295  35.433  1.00  0.00     0.087 C 
BRANCH  11  12
ATOM     12  C   UNL     1     -16.471  24.210  33.904  1.00  0.00     0.066 C 
BRANCH  12  13
ATOM     13  C   UNL     1     -17.372  23.218  33.175  1.00  0.00     0.140 C 
ATOM     14  O   UNL     1     -17.018  22.050  33.109  1.00  0.00    -0.299 OA
BRANCH  13  15
ATOM     15  C   UNL     1     -18.746  23.585  32.666  1.00  0.00     0.106 CG0
ATOM     16  G   UNL     1     -19.817  23.666  33.750  1.00  0.00     0.000 G0
ENDBRANCH  13  15
ENDBRANCH  12  13
BRANCH  12  17
ATOM     17  C   UNL     1     -14.967  23.974  33.544  1.00  0.00    -0.006 C 
ATOM     18  C   UNL     1     -14.110  23.464  34.716  1.00  0.00     0.008 C 
ATOM     19  C   UNL     1     -14.324  25.239  32.949  1.00  0.00     0.008 C 
ENDBRANCH  12  17
ENDBRANCH  11  12
ENDBRANCH   1  11
TORSDOF 1
ENDMDL
MODEL 8
REMARK VINA RESULT:    -2.622      1.698      3.956
REMARK INTER + INTRA:          -4.290
REMARK INTER:                  -3.919
REMARK INTRA:                  -0.371
REMARK UNBOUND:                -0.288
REMARK SMILES CC1=CCC[C@@H](C)C(=O)C[C@@H](C(C)C)C(=O)C1
REMARK SMILES IDX 8 1 9 2 6 3 7 4 5 5 4 6 3 7 2 8 1 9 10 11 11 12 15 13 16 14
REMARK SMILES IDX 17 15 12 17 13 18 14 19
REMARK H PARENT
REMARK Flexibility Score: 70.00
ROOT
ATOM      1  C   UNL     1      -8.107  31.809  44.786  1.00  0.00     0.136 C 
ATOM      2  O   UNL     1      -9.299  32.077  44.829  1.00  0.00    -0.299 OA
ENDROOT
BRANCH   1   3
ATOM      3  C   UNL     1      -7.227  32.210  45.958  1.00  0.00     0.053 C 
ATOM      4  C   UNL     1      -5.831  32.603  45.463  1.00  0.00     0.016 C 
BRANCH   3   5
ATOM      5  C   UNL     1      -7.138  31.109  47.034  1.00  0.00     0.015 C 
BRANCH   5   6
ATOM      6  C   UNL     1      -5.729  30.494  47.116  1.00  0.00     0.028 C 
BRANCH   6   7
ATOM      7  C   UNL     1      -5.733  28.996  46.953  1.00  0.00    -0.028 C 
ATOM      8  C   UNL     1      -5.499  28.319  45.799  1.00  0.00    -0.070 CG0
ATOM      9  C   UNL     1      -5.665  26.819  45.834  1.00  0.00     0.039 C 
ATOM     10  G   UNL     1      -5.021  28.969  44.504  1.00  0.00     0.000 G0
ENDBRANCH   6   7
ENDBRANCH   5   6
ENDBRANCH   3   5
ENDBRANCH   1   3
BRANCH   1  11
ATOM     11  C   UNL     1      -7.550  31.154  43.542  1.00  0.00     0.087 C 
BRANCH  11  12
ATOM     12  C   UNL     1      -7.455  29.606  43.666  1.00  0.00     0.066 C 
BRANCH  12  13
ATOM     13  C   UNL     1      -6.057  29.053  43.410  1.00  0.00     0.140 C 
ATOM     14  O   UNL     1      -5.733  28.798  42.258  1.00  0.00    -0.299 OA
BRANCH  13  15
ATOM     15  C   UNL     1      -5.008  28.950  44.492  1.00  0.00     0.106 CG0
ATOM     16  G   UNL     1      -5.507  28.329  45.795  1.00  0.00     0.000 G0
ENDBRANCH  13  15
ENDBRANCH  12  13
BRANCH  12  17
ATOM     17  C   UNL     1      -8.526  28.843  42.820  1.00  0.00    -0.006 C 
ATOM     18  C   UNL     1      -9.235  29.712  41.765  1.00  0.00     0.008 C 
ATOM     19  C   UNL     1      -9.576  28.165  43.718  1.00  0.00     0.008 C 
ENDBRANCH  12  17
ENDBRANCH  11  12
ENDBRANCH   1  11
TORSDOF 1
ENDMDL
MODEL 9
REMARK VINA RESULT:    -2.575      2.500      5.202
REMARK INTER + INTRA:          -4.218
REMARK INTER:                  -4.212
REMARK INTRA:                  -0.006
REMARK UNBOUND:                -0.288
REMARK SMILES CC1=CCC[C@@H](C)C(=O)C[C@@H](C(C)C)C(=O)C1
REMARK SMILES IDX 8 1 9 2 6 3 7 4 5 5 4 6 3 7 2 8 1 9 10 11 11 12 15 13 16 14
REMARK SMILES IDX 17 15 12 17 13 18 14 19
REMARK H PARENT
REMARK Flexibility Score: 70.00
ROOT
ATOM      1  C   UNL     1      -7.353  28.187  45.481  1.00  0.00     0.136 C 
ATOM      2  O   UNL     1      -7.412  26.996  45.750  1.00  0.00    -0.299 OA
ENDROOT
BRANCH   1   3
ATOM      3  C   UNL     1      -6.222  29.013  46.071  1.00  0.00     0.053 C 
ATOM      4  C   UNL     1      -5.065  28.103  46.495  1.00  0.00     0.016 C 
BRANCH   3   5
ATOM      5  C   UNL     1      -6.687  29.895  47.249  1.00  0.00     0.015 C 
BRANCH   5   6
ATOM      6  C   UNL     1      -7.583  31.056  46.783  1.00  0.00     0.028 C 
BRANCH   6   7
ATOM      7  C   UNL     1      -6.828  32.104  46.005  1.00  0.00    -0.028 C 
ATOM      8  C   UNL     1      -6.938  32.340  44.673  1.00  0.00    -0.070 CG0
ATOM      9  C   UNL     1      -6.003  33.364  44.075  1.00  0.00     0.039 C 
ATOM     10  G   UNL     1      -7.982  31.690  43.768  1.00  0.00     0.000 G0
ENDBRANCH   6   7
ENDBRANCH   5   6
ENDBRANCH   3   5
ENDBRANCH   1   3
BRANCH   1  11
ATOM     11  C   UNL     1      -8.445  28.799  44.630  1.00  0.00     0.087 C 
BRANCH  11  12
ATOM     12  C   UNL     1      -7.985  29.082  43.172  1.00  0.00     0.066 C 
BRANCH  12  13
ATOM     13  C   UNL     1      -7.477  30.504  42.952  1.00  0.00     0.140 C 
ATOM     14  O   UNL     1      -6.724  30.715  42.012  1.00  0.00    -0.299 OA
BRANCH  13  15
ATOM     15  C   UNL     1      -7.983  31.684  43.748  1.00  0.00     0.106 CG0
ATOM     16  G   UNL     1      -6.935  32.328  44.652  1.00  0.00     0.000 G0
ENDBRANCH  13  15
ENDBRANCH  12  13
BRANCH  12  17
ATOM     17  C   UNL     1      -9.047  28.690  42.093  1.00  0.00    -0.006 C 
ATOM     18  C   UNL     1     -10.397  28.232  42.673  1.00  0.00     0.008 C 
ATOM     19  C   UNL     1      -8.507  27.615  41.134  1.00  0.00     0.008 C 
ENDBRANCH  12  17
ENDBRANCH  11  12
ENDBRANCH   1  11
TORSDOF 1
ENDMDL
