MODEL 1
REMARK VINA RESULT:    -4.209      0.000      0.000
REMARK INTER + INTRA:         -14.888
REMARK INTER:                 -10.608
REMARK INTRA:                  -4.281
REMARK UNBOUND:                -4.281
REMARK SMILES CCCCCCCCCCCCCCCCCCCCCCCCCCCC(=O)[O-]
REMARK SMILES IDX 15 1 16 2 17 3 18 4 19 5 20 6 21 7 22 8 23 9 24 10 25 11
REMARK SMILES IDX 26 12 27 13 28 14 29 15 30 16 14 17 13 18 12 19 11 20 10 21
REMARK SMILES IDX 9 22 8 23 7 24 6 25 5 26 4 27 3 28 2 29 1 30
REMARK H PARENT
REMARK Flexibility Score: inf
ROOT
ATOM      1  C   UNL     1      60.287  27.967  12.772  1.00  0.00     0.000 C 
ENDROOT
BRANCH   1   2
ATOM      2  C   UNL     1      61.628  28.610  13.144  1.00  0.00     0.000 C 
BRANCH   2   3
ATOM      3  C   UNL     1      61.462  29.881  13.996  1.00  0.00     0.000 C 
BRANCH   3   4
ATOM      4  C   UNL     1      61.477  31.181  13.166  1.00  0.00     0.000 C 
BRANCH   4   5
ATOM      5  C   UNL     1      60.292  32.105  13.498  1.00  0.00     0.000 C 
BRANCH   5   6
ATOM      6  C   UNL     1      60.752  33.505  13.936  1.00  0.00     0.000 C 
BRANCH   6   7
ATOM      7  C   UNL     1      61.701  33.457  15.144  1.00  0.00     0.000 C 
BRANCH   7   8
ATOM      8  C   UNL     1      61.104  34.146  16.383  1.00  0.00     0.000 C 
BRANCH   8   9
ATOM      9  C   UNL     1      62.150  34.971  17.147  1.00  0.00     0.000 C 
BRANCH   9  10
ATOM     10  C   UNL     1      63.570  34.644  16.666  1.00  0.00     0.000 C 
BRANCH  10  11
ATOM     11  C   UNL     1      64.561  35.727  17.107  1.00  0.00     0.000 C 
BRANCH  11  12
ATOM     12  C   UNL     1      65.893  35.106  17.556  1.00  0.00     0.006 C 
BRANCH  12  13
ATOM     13  C   UNL     1      65.702  34.055  18.657  1.00  0.00     0.053 C 
BRANCH  13  14
ATOM     14  C   UNL     1      65.497  34.689  19.999  1.00  0.00     0.041 C 
ATOM     15  O   UNL     1      66.483  34.946  20.737  1.00  0.00    -0.550 OA
ATOM     16  O   UNL     1      64.211  34.971  20.445  1.00  0.00    -0.550 OA
ENDBRANCH  13  14
ENDBRANCH  12  13
ENDBRANCH  11  12
ENDBRANCH  10  11
ENDBRANCH   9  10
ENDBRANCH   8   9
ENDBRANCH   7   8
ENDBRANCH   6   7
ENDBRANCH   5   6
ENDBRANCH   4   5
ENDBRANCH   3   4
ENDBRANCH   2   3
ENDBRANCH   1   2
BRANCH   1  17
ATOM     17  C   UNL     1      59.571  28.780  11.684  1.00  0.00     0.000 C 
BRANCH  17  18
ATOM     18  C   UNL     1      60.127  28.455  10.290  1.00  0.00     0.000 C 
BRANCH  18  19
ATOM     19  C   UNL     1      60.412  29.710   9.447  1.00  0.00     0.000 C 
BRANCH  19  20
ATOM     20  C   UNL     1      61.893  29.861   9.037  1.00  0.00     0.000 C 
BRANCH  20  21
ATOM     21  C   UNL     1      62.814  28.937   9.855  1.00  0.00     0.000 C 
BRANCH  21  22
ATOM     22  C   UNL     1      64.101  29.636  10.317  1.00  0.00    -0.000 C 
BRANCH  22  23
ATOM     23  C   UNL     1      64.712  30.538   9.234  1.00  0.00    -0.000 C 
BRANCH  23  24
ATOM     24  C   UNL     1      64.927  31.962   9.769  1.00  0.00    -0.000 C 
BRANCH  24  25
ATOM     25  C   UNL     1      64.502  32.115  11.237  1.00  0.00    -0.000 C 
BRANCH  25  26
ATOM     26  C   UNL     1      65.347  33.156  11.992  1.00  0.00    -0.000 C 
BRANCH  26  27
ATOM     27  C   UNL     1      64.885  33.343  13.447  1.00  0.00    -0.000 C 
BRANCH  27  28
ATOM     28  C   UNL     1      65.616  32.410  14.423  1.00  0.00    -0.000 C 
BRANCH  28  29
ATOM     29  C   UNL     1      64.708  31.253  14.855  1.00  0.00    -0.003 C 
ATOM     30  C   UNL     1      65.326  29.903  14.505  1.00  0.00     0.004 C 
ENDBRANCH  28  29
ENDBRANCH  27  28
ENDBRANCH  26  27
ENDBRANCH  25  26
ENDBRANCH  24  25
ENDBRANCH  23  24
ENDBRANCH  22  23
ENDBRANCH  21  22
ENDBRANCH  20  21
ENDBRANCH  19  20
ENDBRANCH  18  19
ENDBRANCH  17  18
ENDBRANCH   1  17
TORSDOF 26
ENDMDL
MODEL 2
REMARK VINA RESULT:    -3.887      2.487      6.231
REMARK INTER + INTRA:         -14.076
REMARK INTER:                  -9.487
REMARK INTRA:                  -4.589
REMARK UNBOUND:                -4.281
REMARK SMILES CCCCCCCCCCCCCCCCCCCCCCCCCCCC(=O)[O-]
REMARK SMILES IDX 15 1 16 2 17 3 18 4 19 5 20 6 21 7 22 8 23 9 24 10 25 11
REMARK SMILES IDX 26 12 27 13 28 14 29 15 30 16 14 17 13 18 12 19 11 20 10 21
REMARK SMILES IDX 9 22 8 23 7 24 6 25 5 26 4 27 3 28 2 29 1 30
REMARK H PARENT
REMARK Flexibility Score: inf
ROOT
ATOM      1  C   UNL     1      60.612  31.044  14.135  1.00  0.00     0.000 C 
ENDROOT
BRANCH   1   2
ATOM      2  C   UNL     1      60.410  31.719  12.773  1.00  0.00     0.000 C 
BRANCH   2   3
ATOM      3  C   UNL     1      60.008  30.724  11.670  1.00  0.00     0.000 C 
BRANCH   3   4
ATOM      4  C   UNL     1      59.828  29.280  12.185  1.00  0.00     0.000 C 
BRANCH   4   5
ATOM      5  C   UNL     1      60.452  28.238  11.241  1.00  0.00     0.000 C 
BRANCH   5   6
ATOM      6  C   UNL     1      60.497  28.728   9.784  1.00  0.00     0.000 C 
BRANCH   6   7
ATOM      7  C   UNL     1      61.851  28.443   9.113  1.00  0.00     0.000 C 
BRANCH   7   8
ATOM      8  C   UNL     1      62.677  29.723   8.900  1.00  0.00     0.000 C 
BRANCH   8   9
ATOM      9  C   UNL     1      64.161  29.516   9.240  1.00  0.00     0.000 C 
BRANCH   9  10
ATOM     10  C   UNL     1      64.601  30.444  10.379  1.00  0.00     0.000 C 
BRANCH  10  11
ATOM     11  C   UNL     1      63.594  30.411  11.534  1.00  0.00     0.000 C 
BRANCH  11  12
ATOM     12  C   UNL     1      63.961  29.324  12.556  1.00  0.00     0.006 C 
BRANCH  12  13
ATOM     13  C   UNL     1      63.987  29.864  13.992  1.00  0.00     0.053 C 
BRANCH  13  14
ATOM     14  C   UNL     1      65.368  29.827  14.573  1.00  0.00     0.041 C 
ATOM     15  O   UNL     1      66.050  28.771  14.522  1.00  0.00    -0.550 OA
ATOM     16  O   UNL     1      65.890  30.955  15.195  1.00  0.00    -0.550 OA
ENDBRANCH  13  14
ENDBRANCH  12  13
ENDBRANCH  11  12
ENDBRANCH  10  11
ENDBRANCH   9  10
ENDBRANCH   8   9
ENDBRANCH   7   8
ENDBRANCH   6   7
ENDBRANCH   5   6
ENDBRANCH   4   5
ENDBRANCH   3   4
ENDBRANCH   2   3
ENDBRANCH   1   2
BRANCH   1  17
ATOM     17  C   UNL     1      60.706  32.087  15.257  1.00  0.00     0.000 C 
BRANCH  17  18
ATOM     18  C   UNL     1      61.071  33.472  14.701  1.00  0.00     0.000 C 
BRANCH  18  19
ATOM     19  C   UNL     1      62.340  34.063  15.338  1.00  0.00     0.000 C 
BRANCH  19  20
ATOM     20  C   UNL     1      63.646  33.391  14.864  1.00  0.00     0.000 C 
BRANCH  20  21
ATOM     21  C   UNL     1      63.793  33.435  13.332  1.00  0.00     0.000 C 
BRANCH  21  22
ATOM     22  C   UNL     1      65.256  33.339  12.871  1.00  0.00    -0.000 C 
BRANCH  22  23
ATOM     23  C   UNL     1      65.659  34.480  11.925  1.00  0.00    -0.000 C 
BRANCH  23  24
ATOM     24  C   UNL     1      66.836  35.279  12.506  1.00  0.00    -0.000 C 
BRANCH  24  25
ATOM     25  C   UNL     1      67.023  35.048  14.013  1.00  0.00    -0.000 C 
BRANCH  25  26
ATOM     26  C   UNL     1      66.280  36.088  14.868  1.00  0.00    -0.000 C 
BRANCH  26  27
ATOM     27  C   UNL     1      66.425  35.821  16.376  1.00  0.00    -0.000 C 
BRANCH  27  28
ATOM     28  C   UNL     1      65.081  35.870  17.117  1.00  0.00    -0.000 C 
BRANCH  28  29
ATOM     29  C   UNL     1      65.250  35.448  18.581  1.00  0.00    -0.003 C 
ATOM     30  C   UNL     1      66.607  34.791  18.816  1.00  0.00     0.004 C 
ENDBRANCH  28  29
ENDBRANCH  27  28
ENDBRANCH  26  27
ENDBRANCH  25  26
ENDBRANCH  24  25
ENDBRANCH  23  24
ENDBRANCH  22  23
ENDBRANCH  21  22
ENDBRANCH  20  21
ENDBRANCH  19  20
ENDBRANCH  18  19
ENDBRANCH  17  18
ENDBRANCH   1  17
TORSDOF 26
ENDMDL
MODEL 3
REMARK VINA RESULT:    -3.871      6.605     12.100
REMARK INTER + INTRA:         -14.035
REMARK INTER:                 -11.836
REMARK INTRA:                  -2.199
REMARK UNBOUND:                -4.281
REMARK SMILES CCCCCCCCCCCCCCCCCCCCCCCCCCCC(=O)[O-]
REMARK SMILES IDX 15 1 16 2 17 3 18 4 19 5 20 6 21 7 22 8 23 9 24 10 25 11
REMARK SMILES IDX 26 12 27 13 28 14 29 15 30 16 14 17 13 18 12 19 11 20 10 21
REMARK SMILES IDX 9 22 8 23 7 24 6 25 5 26 4 27 3 28 2 29 1 30
REMARK H PARENT
REMARK Flexibility Score: inf
ROOT
ATOM      1  C   UNL     1      66.352  33.102  21.995  1.00  0.00     0.000 C 
ENDROOT
BRANCH   1   2
ATOM      2  C   UNL     1      66.655  33.892  20.716  1.00  0.00     0.000 C 
BRANCH   2   3
ATOM      3  C   UNL     1      65.391  34.493  20.075  1.00  0.00     0.000 C 
BRANCH   3   4
ATOM      4  C   UNL     1      65.691  35.650  19.099  1.00  0.00     0.000 C 
BRANCH   4   5
ATOM      5  C   UNL     1      64.929  35.509  17.769  1.00  0.00     0.000 C 
BRANCH   5   6
ATOM      6  C   UNL     1      65.604  34.509  16.816  1.00  0.00     0.000 C 
BRANCH   6   7
ATOM      7  C   UNL     1      65.058  34.608  15.383  1.00  0.00     0.000 C 
BRANCH   7   8
ATOM      8  C   UNL     1      64.680  33.233  14.806  1.00  0.00     0.000 C 
BRANCH   8   9
ATOM      9  C   UNL     1      63.373  33.284  14.001  1.00  0.00     0.000 C 
BRANCH   9  10
ATOM     10  C   UNL     1      62.172  33.566  14.913  1.00  0.00     0.000 C 
BRANCH  10  11
ATOM     11  C   UNL     1      60.854  33.235  14.204  1.00  0.00     0.000 C 
BRANCH  11  12
ATOM     12  C   UNL     1      61.088  32.285  13.019  1.00  0.00     0.006 C 
BRANCH  12  13
ATOM     13  C   UNL     1      59.879  31.378  12.755  1.00  0.00     0.053 C 
BRANCH  13  14
ATOM     14  C   UNL     1      60.238  30.220  11.874  1.00  0.00     0.041 C 
ATOM     15  O   UNL     1      59.459  29.236  11.770  1.00  0.00    -0.550 OA
ATOM     16  O   UNL     1      61.447  30.217  11.188  1.00  0.00    -0.550 OA
ENDBRANCH  13  14
ENDBRANCH  12  13
ENDBRANCH  11  12
ENDBRANCH  10  11
ENDBRANCH   9  10
ENDBRANCH   8   9
ENDBRANCH   7   8
ENDBRANCH   6   7
ENDBRANCH   5   6
ENDBRANCH   4   5
ENDBRANCH   3   4
ENDBRANCH   2   3
ENDBRANCH   1   2
BRANCH   1  17
ATOM     17  C   UNL     1      67.011  31.717  21.954  1.00  0.00     0.000 C 
BRANCH  17  18
ATOM     18  C   UNL     1      67.116  31.108  23.360  1.00  0.00     0.000 C 
BRANCH  18  19
ATOM     19  C   UNL     1      65.864  30.313  23.769  1.00  0.00     0.000 C 
BRANCH  19  20
ATOM     20  C   UNL     1      66.178  28.985  24.491  1.00  0.00     0.000 C 
BRANCH  20  21
ATOM     21  C   UNL     1      65.317  28.799  25.754  1.00  0.00     0.000 C 
BRANCH  21  22
ATOM     22  C   UNL     1      65.078  30.115  26.511  1.00  0.00    -0.000 C 
BRANCH  22  23
ATOM     23  C   UNL     1      63.597  30.524  26.544  1.00  0.00    -0.000 C 
BRANCH  23  24
ATOM     24  C   UNL     1      63.037  30.422  27.971  1.00  0.00    -0.000 C 
BRANCH  24  25
ATOM     25  C   UNL     1      61.836  29.469  28.070  1.00  0.00    -0.000 C 
BRANCH  25  26
ATOM     26  C   UNL     1      62.247  28.038  28.460  1.00  0.00    -0.000 C 
BRANCH  26  27
ATOM     27  C   UNL     1      61.766  26.992  27.441  1.00  0.00    -0.000 C 
BRANCH  27  28
ATOM     28  C   UNL     1      61.215  27.627  26.157  1.00  0.00    -0.000 C 
BRANCH  28  29
ATOM     29  C   UNL     1      62.095  27.275  24.952  1.00  0.00    -0.003 C 
ATOM     30  C   UNL     1      62.090  28.394  23.915  1.00  0.00     0.004 C 
ENDBRANCH  28  29
ENDBRANCH  27  28
ENDBRANCH  26  27
ENDBRANCH  25  26
ENDBRANCH  24  25
ENDBRANCH  23  24
ENDBRANCH  22  23
ENDBRANCH  21  22
ENDBRANCH  20  21
ENDBRANCH  19  20
ENDBRANCH  18  19
ENDBRANCH  17  18
ENDBRANCH   1  17
TORSDOF 26
ENDMDL
MODEL 4
REMARK VINA RESULT:    -3.853      1.526      4.453
REMARK INTER + INTRA:         -13.991
REMARK INTER:                 -10.295
REMARK INTRA:                  -3.696
REMARK UNBOUND:                -4.281
REMARK SMILES CCCCCCCCCCCCCCCCCCCCCCCCCCCC(=O)[O-]
REMARK SMILES IDX 15 1 16 2 17 3 18 4 19 5 20 6 21 7 22 8 23 9 24 10 25 11
REMARK SMILES IDX 26 12 27 13 28 14 29 15 30 16 14 17 13 18 12 19 11 20 10 21
REMARK SMILES IDX 9 22 8 23 7 24 6 25 5 26 4 27 3 28 2 29 1 30
REMARK H PARENT
REMARK Flexibility Score: inf
ROOT
ATOM      1  C   UNL     1      60.340  29.611   9.762  1.00  0.00     0.000 C 
ENDROOT
BRANCH   1   2
ATOM      2  C   UNL     1      61.587  29.463   8.882  1.00  0.00     0.000 C 
BRANCH   2   3
ATOM      3  C   UNL     1      62.838  30.101   9.513  1.00  0.00     0.000 C 
BRANCH   3   4
ATOM      4  C   UNL     1      64.159  29.605   8.889  1.00  0.00     0.000 C 
BRANCH   4   5
ATOM      5  C   UNL     1      65.333  30.562   9.159  1.00  0.00     0.000 C 
BRANCH   5   6
ATOM      6  C   UNL     1      64.896  31.807   9.949  1.00  0.00     0.000 C 
BRANCH   6   7
ATOM      7  C   UNL     1      66.080  32.723  10.299  1.00  0.00     0.000 C 
BRANCH   7   8
ATOM      8  C   UNL     1      65.779  33.631  11.503  1.00  0.00     0.000 C 
BRANCH   8   9
ATOM      9  C   UNL     1      66.613  34.921  11.476  1.00  0.00     0.000 C 
BRANCH   9  10
ATOM     10  C   UNL     1      66.344  35.779  12.719  1.00  0.00     0.000 C 
BRANCH  10  11
ATOM     11  C   UNL     1      66.567  34.970  14.002  1.00  0.00     0.000 C 
BRANCH  11  12
ATOM     12  C   UNL     1      65.510  35.315  15.064  1.00  0.00     0.006 C 
BRANCH  12  13
ATOM     13  C   UNL     1      66.140  35.842  16.359  1.00  0.00     0.053 C 
BRANCH  13  14
ATOM     14  C   UNL     1      66.339  34.748  17.364  1.00  0.00     0.041 C 
ATOM     15  O   UNL     1      66.332  33.543  17.000  1.00  0.00    -0.550 OA
ATOM     16  O   UNL     1      66.504  35.060  18.708  1.00  0.00    -0.550 OA
ENDBRANCH  13  14
ENDBRANCH  12  13
ENDBRANCH  11  12
ENDBRANCH  10  11
ENDBRANCH   9  10
ENDBRANCH   8   9
ENDBRANCH   7   8
ENDBRANCH   6   7
ENDBRANCH   5   6
ENDBRANCH   4   5
ENDBRANCH   3   4
ENDBRANCH   2   3
ENDBRANCH   1   2
BRANCH   1  17
ATOM     17  C   UNL     1      59.875  28.247  10.290  1.00  0.00     0.000 C 
BRANCH  17  18
ATOM     18  C   UNL     1      58.948  28.407  11.504  1.00  0.00     0.000 C 
BRANCH  18  19
ATOM     19  C   UNL     1      59.648  29.040  12.718  1.00  0.00     0.000 C 
BRANCH  19  20
ATOM     20  C   UNL     1      60.829  28.208  13.261  1.00  0.00     0.000 C 
BRANCH  20  21
ATOM     21  C   UNL     1      62.013  29.098  13.684  1.00  0.00     0.000 C 
BRANCH  21  22
ATOM     22  C   UNL     1      63.078  29.232  12.585  1.00  0.00    -0.000 C 
BRANCH  22  23
ATOM     23  C   UNL     1      64.430  29.727  13.122  1.00  0.00    -0.000 C 
BRANCH  23  24
ATOM     24  C   UNL     1      64.266  30.350  14.517  1.00  0.00    -0.000 C 
BRANCH  24  25
ATOM     25  C   UNL     1      64.450  31.875  14.511  1.00  0.00    -0.000 C 
BRANCH  25  26
ATOM     26  C   UNL     1      63.376  32.597  13.679  1.00  0.00    -0.000 C 
BRANCH  26  27
ATOM     27  C   UNL     1      62.354  33.338  14.556  1.00  0.00    -0.000 C 
BRANCH  27  28
ATOM     28  C   UNL     1      61.206  32.430  15.022  1.00  0.00    -0.000 C 
BRANCH  28  29
ATOM     29  C   UNL     1      60.019  32.514  14.056  1.00  0.00    -0.003 C 
ATOM     30  C   UNL     1      60.474  32.391  12.605  1.00  0.00     0.004 C 
ENDBRANCH  28  29
ENDBRANCH  27  28
ENDBRANCH  26  27
ENDBRANCH  25  26
ENDBRANCH  24  25
ENDBRANCH  23  24
ENDBRANCH  22  23
ENDBRANCH  21  22
ENDBRANCH  20  21
ENDBRANCH  19  20
ENDBRANCH  18  19
ENDBRANCH  17  18
ENDBRANCH   1  17
TORSDOF 26
ENDMDL
MODEL 5
REMARK VINA RESULT:    -3.832      1.079      2.024
REMARK INTER + INTRA:         -13.938
REMARK INTER:                 -10.203
REMARK INTRA:                  -3.735
REMARK UNBOUND:                -4.281
REMARK SMILES CCCCCCCCCCCCCCCCCCCCCCCCCCCC(=O)[O-]
REMARK SMILES IDX 15 1 16 2 17 3 18 4 19 5 20 6 21 7 22 8 23 9 24 10 25 11
REMARK SMILES IDX 26 12 27 13 28 14 29 15 30 16 14 17 13 18 12 19 11 20 10 21
REMARK SMILES IDX 9 22 8 23 7 24 6 25 5 26 4 27 3 28 2 29 1 30
REMARK H PARENT
REMARK Flexibility Score: inf
ROOT
ATOM      1  C   UNL     1      62.425  28.586  12.874  1.00  0.00     0.000 C 
ENDROOT
BRANCH   1   2
ATOM      2  C   UNL     1      63.311  29.806  13.153  1.00  0.00     0.000 C 
BRANCH   2   3
ATOM      3  C   UNL     1      62.577  30.906  13.940  1.00  0.00     0.000 C 
BRANCH   3   4
ATOM      4  C   UNL     1      61.952  31.991  13.038  1.00  0.00     0.000 C 
BRANCH   4   5
ATOM      5  C   UNL     1      60.488  32.289  13.406  1.00  0.00     0.000 C 
BRANCH   5   6
ATOM      6  C   UNL     1      60.362  33.491  14.358  1.00  0.00     0.000 C 
BRANCH   6   7
ATOM      7  C   UNL     1      61.677  33.792  15.095  1.00  0.00     0.000 C 
BRANCH   7   8
ATOM      8  C   UNL     1      61.440  34.283  16.533  1.00  0.00     0.000 C 
BRANCH   8   9
ATOM      9  C   UNL     1      62.680  34.977  17.119  1.00  0.00     0.000 C 
BRANCH   9  10
ATOM     10  C   UNL     1      63.902  34.779  16.214  1.00  0.00     0.000 C 
BRANCH  10  11
ATOM     11  C   UNL     1      65.195  34.749  17.037  1.00  0.00     0.000 C 
BRANCH  11  12
ATOM     12  C   UNL     1      65.210  35.874  18.084  1.00  0.00     0.006 C 
BRANCH  12  13
ATOM     13  C   UNL     1      66.087  35.528  19.295  1.00  0.00     0.053 C 
BRANCH  13  14
ATOM     14  C   UNL     1      65.404  34.562  20.215  1.00  0.00     0.041 C 
ATOM     15  O   UNL     1      66.029  33.568  20.670  1.00  0.00    -0.550 OA
ATOM     16  O   UNL     1      64.066  34.746  20.547  1.00  0.00    -0.550 OA
ENDBRANCH  13  14
ENDBRANCH  12  13
ENDBRANCH  11  12
ENDBRANCH  10  11
ENDBRANCH   9  10
ENDBRANCH   8   9
ENDBRANCH   7   8
ENDBRANCH   6   7
ENDBRANCH   5   6
ENDBRANCH   4   5
ENDBRANCH   3   4
ENDBRANCH   2   3
ENDBRANCH   1   2
BRANCH   1  17
ATOM     17  C   UNL     1      61.135  28.642  13.704  1.00  0.00     0.000 C 
BRANCH  17  18
ATOM     18  C   UNL     1      59.891  28.577  12.805  1.00  0.00     0.000 C 
BRANCH  18  19
ATOM     19  C   UNL     1      60.220  28.231  11.343  1.00  0.00     0.000 C 
BRANCH  19  20
ATOM     20  C   UNL     1      59.732  29.287  10.328  1.00  0.00     0.000 C 
BRANCH  20  21
ATOM     21  C   UNL     1      60.716  29.457   9.156  1.00  0.00     0.000 C 
BRANCH  21  22
ATOM     22  C   UNL     1      62.098  29.954   9.606  1.00  0.00    -0.000 C 
BRANCH  22  23
ATOM     23  C   UNL     1      63.234  28.996   9.216  1.00  0.00    -0.000 C 
BRANCH  23  24
ATOM     24  C   UNL     1      64.590  29.716   9.253  1.00  0.00    -0.000 C 
BRANCH  24  25
ATOM     25  C   UNL     1      64.467  31.196   9.646  1.00  0.00    -0.000 C 
BRANCH  25  26
ATOM     26  C   UNL     1      65.792  31.961   9.495  1.00  0.00    -0.000 C 
BRANCH  26  27
ATOM     27  C   UNL     1      66.040  32.940  10.655  1.00  0.00    -0.000 C 
BRANCH  27  28
ATOM     28  C   UNL     1      65.003  32.800  11.778  1.00  0.00    -0.000 C 
BRANCH  28  29
ATOM     29  C   UNL     1      65.220  33.867  12.857  1.00  0.00    -0.003 C 
ATOM     30  C   UNL     1      66.590  33.720  13.514  1.00  0.00     0.004 C 
ENDBRANCH  28  29
ENDBRANCH  27  28
ENDBRANCH  26  27
ENDBRANCH  25  26
ENDBRANCH  24  25
ENDBRANCH  23  24
ENDBRANCH  22  23
ENDBRANCH  21  22
ENDBRANCH  20  21
ENDBRANCH  19  20
ENDBRANCH  18  19
ENDBRANCH  17  18
ENDBRANCH   1  17
TORSDOF 26
ENDMDL
MODEL 6
REMARK VINA RESULT:    -3.825      6.124      9.881
REMARK INTER + INTRA:         -13.918
REMARK INTER:                 -12.117
REMARK INTRA:                  -1.801
REMARK UNBOUND:                -4.281
REMARK SMILES CCCCCCCCCCCCCCCCCCCCCCCCCCCC(=O)[O-]
REMARK SMILES IDX 15 1 16 2 17 3 18 4 19 5 20 6 21 7 22 8 23 9 24 10 25 11
REMARK SMILES IDX 26 12 27 13 28 14 29 15 30 16 14 17 13 18 12 19 11 20 10 21
REMARK SMILES IDX 9 22 8 23 7 24 6 25 5 26 4 27 3 28 2 29 1 30
REMARK H PARENT
REMARK Flexibility Score: inf
ROOT
ATOM      1  C   UNL     1      65.408  33.319  22.001  1.00  0.00     0.000 C 
ENDROOT
BRANCH   1   2
ATOM      2  C   UNL     1      66.788  32.735  21.678  1.00  0.00     0.000 C 
BRANCH   2   3
ATOM      3  C   UNL     1      66.969  31.305  22.217  1.00  0.00     0.000 C 
BRANCH   3   4
ATOM      4  C   UNL     1      65.958  30.935  23.324  1.00  0.00     0.000 C 
BRANCH   4   5
ATOM      5  C   UNL     1      65.344  29.540  23.117  1.00  0.00     0.000 C 
BRANCH   5   6
ATOM      6  C   UNL     1      66.336  28.413  23.451  1.00  0.00     0.000 C 
BRANCH   6   7
ATOM      7  C   UNL     1      65.995  27.100  22.728  1.00  0.00     0.000 C 
BRANCH   7   8
ATOM      8  C   UNL     1      64.806  26.370  23.375  1.00  0.00     0.000 C 
BRANCH   8   9
ATOM      9  C   UNL     1      64.987  26.201  24.892  1.00  0.00     0.000 C 
BRANCH   9  10
ATOM     10  C   UNL     1      63.924  26.991  25.665  1.00  0.00     0.000 C 
BRANCH  10  11
ATOM     11  C   UNL     1      62.668  27.203  24.812  1.00  0.00     0.000 C 
BRANCH  11  12
ATOM     12  C   UNL     1      61.425  27.394  25.694  1.00  0.00     0.006 C 
BRANCH  12  13
ATOM     13  C   UNL     1      61.763  27.345  27.190  1.00  0.00     0.053 C 
BRANCH  13  14
ATOM     14  C   UNL     1      61.506  28.661  27.859  1.00  0.00     0.041 C 
ATOM     15  O   UNL     1      60.610  28.763  28.737  1.00  0.00    -0.550 OA
ATOM     16  O   UNL     1      62.240  29.783  27.491  1.00  0.00    -0.550 OA
ENDBRANCH  13  14
ENDBRANCH  12  13
ENDBRANCH  11  12
ENDBRANCH  10  11
ENDBRANCH   9  10
ENDBRANCH   8   9
ENDBRANCH   7   8
ENDBRANCH   6   7
ENDBRANCH   5   6
ENDBRANCH   4   5
ENDBRANCH   3   4
ENDBRANCH   2   3
ENDBRANCH   1   2
BRANCH   1  17
ATOM     17  C   UNL     1      64.919  34.233  20.869  1.00  0.00     0.000 C 
BRANCH  17  18
ATOM     18  C   UNL     1      65.861  34.171  19.658  1.00  0.00     0.000 C 
BRANCH  18  19
ATOM     19  C   UNL     1      65.425  35.094  18.506  1.00  0.00     0.000 C 
BRANCH  19  20
ATOM     20  C   UNL     1      65.692  34.508  17.103  1.00  0.00     0.000 C 
BRANCH  20  21
ATOM     21  C   UNL     1      64.620  34.939  16.086  1.00  0.00     0.000 C 
BRANCH  21  22
ATOM     22  C   UNL     1      64.749  34.210  14.740  1.00  0.00    -0.000 C 
BRANCH  22  23
ATOM     23  C   UNL     1      63.526  33.341  14.412  1.00  0.00    -0.000 C 
BRANCH  23  24
ATOM     24  C   UNL     1      62.304  33.793  15.226  1.00  0.00    -0.000 C 
BRANCH  24  25
ATOM     25  C   UNL     1      60.982  33.245  14.667  1.00  0.00    -0.000 C 
BRANCH  25  26
ATOM     26  C   UNL     1      61.170  31.936  13.880  1.00  0.00    -0.000 C 
BRANCH  26  27
ATOM     27  C   UNL     1      59.957  31.605  12.994  1.00  0.00    -0.000 C 
BRANCH  27  28
ATOM     28  C   UNL     1      60.300  30.621  11.866  1.00  0.00    -0.000 C 
BRANCH  28  29
ATOM     29  C   UNL     1      60.721  29.262  12.437  1.00  0.00    -0.003 C 
ATOM     30  C   UNL     1      59.517  28.345  12.629  1.00  0.00     0.004 C 
ENDBRANCH  28  29
ENDBRANCH  27  28
ENDBRANCH  26  27
ENDBRANCH  25  26
ENDBRANCH  24  25
ENDBRANCH  23  24
ENDBRANCH  22  23
ENDBRANCH  21  22
ENDBRANCH  20  21
ENDBRANCH  19  20
ENDBRANCH  18  19
ENDBRANCH  17  18
ENDBRANCH   1  17
TORSDOF 26
ENDMDL
MODEL 7
REMARK VINA RESULT:    -3.807      3.001      5.643
REMARK INTER + INTRA:         -13.874
REMARK INTER:                 -10.938
REMARK INTRA:                  -2.936
REMARK UNBOUND:                -4.281
REMARK SMILES CCCCCCCCCCCCCCCCCCCCCCCCCCCC(=O)[O-]
REMARK SMILES IDX 15 1 16 2 17 3 18 4 19 5 20 6 21 7 22 8 23 9 24 10 25 11
REMARK SMILES IDX 26 12 27 13 28 14 29 15 30 16 14 17 13 18 12 19 11 20 10 21
REMARK SMILES IDX 9 22 8 23 7 24 6 25 5 26 4 27 3 28 2 29 1 30
REMARK H PARENT
REMARK Flexibility Score: inf
ROOT
ATOM      1  C   UNL     1      64.386  32.524  12.696  1.00  0.00     0.000 C 
ENDROOT
BRANCH   1   2
ATOM      2  C   UNL     1      64.758  33.773  13.503  1.00  0.00     0.000 C 
BRANCH   2   3
ATOM      3  C   UNL     1      66.069  33.604  14.290  1.00  0.00     0.000 C 
BRANCH   3   4
ATOM      4  C   UNL     1      65.916  33.876  15.802  1.00  0.00     0.000 C 
BRANCH   4   5
ATOM      5  C   UNL     1      64.857  34.951  16.101  1.00  0.00     0.000 C 
BRANCH   5   6
ATOM      6  C   UNL     1      64.918  35.437  17.558  1.00  0.00     0.000 C 
BRANCH   6   7
ATOM      7  C   UNL     1      65.827  34.556  18.430  1.00  0.00     0.000 C 
BRANCH   7   8
ATOM      8  C   UNL     1      65.321  34.450  19.879  1.00  0.00     0.000 C 
BRANCH   8   9
ATOM      9  C   UNL     1      66.448  34.093  20.860  1.00  0.00     0.000 C 
BRANCH   9  10
ATOM     10  C   UNL     1      65.927  33.211  22.002  1.00  0.00     0.000 C 
BRANCH  10  11
ATOM     11  C   UNL     1      66.748  31.921  22.116  1.00  0.00     0.000 C 
BRANCH  11  12
ATOM     12  C   UNL     1      66.135  30.966  23.152  1.00  0.00     0.006 C 
BRANCH  12  13
ATOM     13  C   UNL     1      66.358  29.493  22.787  1.00  0.00     0.053 C 
BRANCH  13  14
ATOM     14  C   UNL     1      65.395  28.593  23.501  1.00  0.00     0.041 C 
ATOM     15  O   UNL     1      65.816  27.606  24.158  1.00  0.00    -0.550 OA
ATOM     16  O   UNL     1      64.028  28.831  23.415  1.00  0.00    -0.550 OA
ENDBRANCH  13  14
ENDBRANCH  12  13
ENDBRANCH  11  12
ENDBRANCH  10  11
ENDBRANCH   9  10
ENDBRANCH   8   9
ENDBRANCH   7   8
ENDBRANCH   6   7
ENDBRANCH   5   6
ENDBRANCH   4   5
ENDBRANCH   3   4
ENDBRANCH   2   3
ENDBRANCH   1   2
BRANCH   1  17
ATOM     17  C   UNL     1      64.379  31.275  13.589  1.00  0.00     0.000 C 
BRANCH  17  18
ATOM     18  C   UNL     1      64.042  30.014  12.780  1.00  0.00     0.000 C 
BRANCH  18  19
ATOM     19  C   UNL     1      63.602  30.321  11.338  1.00  0.00     0.000 C 
BRANCH  19  20
ATOM     20  C   UNL     1      63.431  29.065  10.457  1.00  0.00     0.000 C 
BRANCH  20  21
ATOM     21  C   UNL     1      62.311  29.240   9.416  1.00  0.00     0.000 C 
BRANCH  21  22
ATOM     22  C   UNL     1      61.073  28.384   9.723  1.00  0.00    -0.000 C 
BRANCH  22  23
ATOM     23  C   UNL     1      59.924  29.196  10.340  1.00  0.00    -0.000 C 
BRANCH  23  24
ATOM     24  C   UNL     1      59.585  28.676  11.746  1.00  0.00    -0.000 C 
BRANCH  24  25
ATOM     25  C   UNL     1      60.252  29.497  12.860  1.00  0.00    -0.000 C 
BRANCH  25  26
ATOM     26  C   UNL     1      60.386  30.986  12.498  1.00  0.00    -0.000 C 
BRANCH  26  27
ATOM     27  C   UNL     1      59.699  31.903  13.522  1.00  0.00    -0.000 C 
BRANCH  27  28
ATOM     28  C   UNL     1      60.496  33.186  13.796  1.00  0.00    -0.000 C 
BRANCH  28  29
ATOM     29  C   UNL     1      61.429  33.003  14.999  1.00  0.00    -0.003 C 
ATOM     30  C   UNL     1      61.302  34.164  15.981  1.00  0.00     0.004 C 
ENDBRANCH  28  29
ENDBRANCH  27  28
ENDBRANCH  26  27
ENDBRANCH  25  26
ENDBRANCH  24  25
ENDBRANCH  23  24
ENDBRANCH  22  23
ENDBRANCH  21  22
ENDBRANCH  20  21
ENDBRANCH  19  20
ENDBRANCH  18  19
ENDBRANCH  17  18
ENDBRANCH   1  17
TORSDOF 26
ENDMDL
MODEL 8
REMARK VINA RESULT:    -3.805      6.977     11.069
REMARK INTER + INTRA:         -13.869
REMARK INTER:                 -10.867
REMARK INTRA:                  -3.002
REMARK UNBOUND:                -4.281
REMARK SMILES CCCCCCCCCCCCCCCCCCCCCCCCCCCC(=O)[O-]
REMARK SMILES IDX 15 1 16 2 17 3 18 4 19 5 20 6 21 7 22 8 23 9 24 10 25 11
REMARK SMILES IDX 26 12 27 13 28 14 29 15 30 16 14 17 13 18 12 19 11 20 10 21
REMARK SMILES IDX 9 22 8 23 7 24 6 25 5 26 4 27 3 28 2 29 1 30
REMARK H PARENT
REMARK Flexibility Score: inf
ROOT
ATOM      1  C   UNL     1      64.207  30.863  23.919  1.00  0.00     0.000 C 
ENDROOT
BRANCH   1   2
ATOM      2  C   UNL     1      63.695  30.845  25.364  1.00  0.00     0.000 C 
BRANCH   2   3
ATOM      3  C   UNL     1      64.798  30.502  26.380  1.00  0.00     0.000 C 
BRANCH   3   4
ATOM      4  C   UNL     1      64.252  30.154  27.782  1.00  0.00     0.000 C 
BRANCH   4   5
ATOM      5  C   UNL     1      62.715  30.121  27.822  1.00  0.00     0.000 C 
BRANCH   5   6
ATOM      6  C   UNL     1      62.182  28.993  28.722  1.00  0.00     0.000 C 
BRANCH   6   7
ATOM      7  C   UNL     1      60.890  28.367  28.172  1.00  0.00     0.000 C 
BRANCH   7   8
ATOM      8  C   UNL     1      61.172  27.220  27.186  1.00  0.00     0.000 C 
BRANCH   8   9
ATOM      9  C   UNL     1      60.881  27.624  25.732  1.00  0.00     0.000 C 
BRANCH   9  10
ATOM     10  C   UNL     1      62.162  27.609  24.889  1.00  0.00     0.000 C 
BRANCH  10  11
ATOM     11  C   UNL     1      63.279  26.837  25.600  1.00  0.00     0.000 C 
BRANCH  11  12
ATOM     12  C   UNL     1      64.653  27.175  25.001  1.00  0.00     0.006 C 
BRANCH  12  13
ATOM     13  C   UNL     1      65.305  25.962  24.325  1.00  0.00     0.053 C 
BRANCH  13  14
ATOM     14  C   UNL     1      65.821  26.300  22.960  1.00  0.00     0.041 C 
ATOM     15  O   UNL     1      65.996  27.502  22.626  1.00  0.00    -0.550 OA
ATOM     16  O   UNL     1      66.084  25.287  22.045  1.00  0.00    -0.550 OA
ENDBRANCH  13  14
ENDBRANCH  12  13
ENDBRANCH  11  12
ENDBRANCH  10  11
ENDBRANCH   9  10
ENDBRANCH   8   9
ENDBRANCH   7   8
ENDBRANCH   6   7
ENDBRANCH   5   6
ENDBRANCH   4   5
ENDBRANCH   3   4
ENDBRANCH   2   3
ENDBRANCH   1   2
BRANCH   1  17
ATOM     17  C   UNL     1      65.718  30.600  23.867  1.00  0.00     0.000 C 
BRANCH  17  18
ATOM     18  C   UNL     1      66.385  31.399  22.738  1.00  0.00     0.000 C 
BRANCH  18  19
ATOM     19  C   UNL     1      65.626  32.689  22.382  1.00  0.00     0.000 C 
BRANCH  19  20
ATOM     20  C   UNL     1      66.418  33.646  21.466  1.00  0.00     0.000 C 
BRANCH  20  21
ATOM     21  C   UNL     1      65.515  34.726  20.842  1.00  0.00     0.000 C 
BRANCH  21  22
ATOM     22  C   UNL     1      65.660  34.813  19.315  1.00  0.00    -0.000 C 
BRANCH  22  23
ATOM     23  C   UNL     1      66.291  33.554  18.703  1.00  0.00    -0.000 C 
BRANCH  23  24
ATOM     24  C   UNL     1      66.534  33.744  17.198  1.00  0.00    -0.000 C 
BRANCH  24  25
ATOM     25  C   UNL     1      65.857  35.006  16.642  1.00  0.00    -0.000 C 
BRANCH  25  26
ATOM     26  C   UNL     1      64.607  34.686  15.804  1.00  0.00    -0.000 C 
BRANCH  26  27
ATOM     27  C   UNL     1      64.951  33.983  14.481  1.00  0.00    -0.000 C 
BRANCH  27  28
ATOM     28  C   UNL     1      64.195  32.659  14.300  1.00  0.00    -0.000 C 
BRANCH  28  29
ATOM     29  C   UNL     1      63.178  32.763  13.159  1.00  0.00    -0.003 C 
ATOM     30  C   UNL     1      61.748  32.648  13.678  1.00  0.00     0.004 C 
ENDBRANCH  28  29
ENDBRANCH  27  28
ENDBRANCH  26  27
ENDBRANCH  25  26
ENDBRANCH  24  25
ENDBRANCH  23  24
ENDBRANCH  22  23
ENDBRANCH  21  22
ENDBRANCH  20  21
ENDBRANCH  19  20
ENDBRANCH  18  19
ENDBRANCH  17  18
ENDBRANCH   1  17
TORSDOF 26
ENDMDL
MODEL 9
REMARK VINA RESULT:    -3.801      6.824     12.236
REMARK INTER + INTRA:         -13.859
REMARK INTER:                 -11.057
REMARK INTRA:                  -2.803
REMARK UNBOUND:                -4.281
REMARK SMILES CCCCCCCCCCCCCCCCCCCCCCCCCCCC(=O)[O-]
REMARK SMILES IDX 15 1 16 2 17 3 18 4 19 5 20 6 21 7 22 8 23 9 24 10 25 11
REMARK SMILES IDX 26 12 27 13 28 14 29 15 30 16 14 17 13 18 12 19 11 20 10 21
REMARK SMILES IDX 9 22 8 23 7 24 6 25 5 26 4 27 3 28 2 29 1 30
REMARK H PARENT
REMARK Flexibility Score: inf
ROOT
ATOM      1  C   UNL     1      65.667  32.186  22.741  1.00  0.00     0.000 C 
ENDROOT
BRANCH   1   2
ATOM      2  C   UNL     1      66.447  33.032  21.728  1.00  0.00     0.000 C 
BRANCH   2   3
ATOM      3  C   UNL     1      65.544  33.996  20.938  1.00  0.00     0.000 C 
BRANCH   3   4
ATOM      4  C   UNL     1      66.208  34.548  19.659  1.00  0.00     0.000 C 
BRANCH   4   5
ATOM      5  C   UNL     1      66.931  33.454  18.853  1.00  0.00     0.000 C 
BRANCH   5   6
ATOM      6  C   UNL     1      66.375  33.321  17.426  1.00  0.00     0.000 C 
BRANCH   6   7
ATOM      7  C   UNL     1      66.295  34.675  16.701  1.00  0.00     0.000 C 
BRANCH   7   8
ATOM      8  C   UNL     1      65.277  34.660  15.548  1.00  0.00     0.000 C 
BRANCH   8   9
ATOM      9  C   UNL     1      65.110  33.258  14.942  1.00  0.00     0.000 C 
BRANCH   9  10
ATOM     10  C   UNL     1      63.796  33.148  14.159  1.00  0.00     0.000 C 
BRANCH  10  11
ATOM     11  C   UNL     1      62.620  33.687  14.982  1.00  0.00     0.000 C 
BRANCH  11  12
ATOM     12  C   UNL     1      61.276  33.306  14.341  1.00  0.00     0.006 C 
BRANCH  12  13
ATOM     13  C   UNL     1      61.441  32.272  13.220  1.00  0.00     0.053 C 
BRANCH  13  14
ATOM     14  C   UNL     1      60.164  31.534  12.955  1.00  0.00     0.041 C 
ATOM     15  O   UNL     1      59.196  31.632  13.754  1.00  0.00    -0.550 OA
ATOM     16  O   UNL     1      60.054  30.715  11.837  1.00  0.00    -0.550 OA
ENDBRANCH  13  14
ENDBRANCH  12  13
ENDBRANCH  11  12
ENDBRANCH  10  11
ENDBRANCH   9  10
ENDBRANCH   8   9
ENDBRANCH   7   8
ENDBRANCH   6   7
ENDBRANCH   5   6
ENDBRANCH   4   5
ENDBRANCH   3   4
ENDBRANCH   2   3
ENDBRANCH   1   2
BRANCH   1  17
ATOM     17  C   UNL     1      66.451  30.924  23.123  1.00  0.00     0.000 C 
BRANCH  17  18
ATOM     18  C   UNL     1      65.562  29.922  23.874  1.00  0.00     0.000 C 
BRANCH  18  19
ATOM     19  C   UNL     1      66.182  29.436  25.195  1.00  0.00     0.000 C 
BRANCH  19  20
ATOM     20  C   UNL     1      65.379  29.845  26.448  1.00  0.00     0.000 C 
BRANCH  20  21
ATOM     21  C   UNL     1      64.060  30.549  26.081  1.00  0.00     0.000 C 
BRANCH  21  22
ATOM     22  C   UNL     1      63.051  30.564  27.240  1.00  0.00    -0.000 C 
BRANCH  22  23
ATOM     23  C   UNL     1      63.334  29.480  28.291  1.00  0.00    -0.000 C 
BRANCH  23  24
ATOM     24  C   UNL     1      62.026  28.990  28.932  1.00  0.00    -0.000 C 
BRANCH  24  25
ATOM     25  C   UNL     1      61.103  28.281  27.930  1.00  0.00    -0.000 C 
BRANCH  25  26
ATOM     26  C   UNL     1      61.810  27.142  27.177  1.00  0.00    -0.000 C 
BRANCH  26  27
ATOM     27  C   UNL     1      61.556  27.194  25.661  1.00  0.00    -0.000 C 
BRANCH  27  28
ATOM     28  C   UNL     1      62.853  27.325  24.849  1.00  0.00    -0.000 C 
BRANCH  28  29
ATOM     29  C   UNL     1      63.969  26.473  25.463  1.00  0.00    -0.003 C 
ATOM     30  C   UNL     1      64.948  25.990  24.397  1.00  0.00     0.004 C 
ENDBRANCH  28  29
ENDBRANCH  27  28
ENDBRANCH  26  27
ENDBRANCH  25  26
ENDBRANCH  24  25
ENDBRANCH  23  24
ENDBRANCH  22  23
ENDBRANCH  21  22
ENDBRANCH  20  21
ENDBRANCH  19  20
ENDBRANCH  18  19
ENDBRANCH  17  18
ENDBRANCH   1  17
TORSDOF 26
ENDMDL
