MODEL 1
REMARK VINA RESULT:   109.592      0.000      0.000
REMARK INTER + INTRA:         120.822
REMARK INTER:                 119.202
REMARK INTRA:                   1.620
REMARK UNBOUND:                 1.620
REMARK SMILES C[C@@H]1[C@H](C)CC[C@@]2(C(=O)[O-])CC[C@]3(C)C(=CC[C@H]4[C@]5(C)CC[C@H](O)C(C)(C)[C@@H]5CC[C@@]43C)[C@@H]12
REMARK SMILES IDX 7 1 6 2 11 3 33 4 5 5 12 6 15 7 2 8 3 9 13 10 16 11 1 12
REMARK SMILES IDX 4 13 14 14 31 15 17 16 18 17 30 18 32 19 19 20 29 21 28 22
REMARK SMILES IDX 21 23 20 24 25 25 22 26 23 27 26 28 27 29 8 30 9 31 10 32
REMARK SMILES IDX 24 33
REMARK H PARENT 24 34
REMARK Flexibility Score: inf
ROOT
ATOM      1  C   UNL     1      16.471  47.005  58.229  1.00  0.00     0.017 C 
ATOM      2  C   UNL     1      17.923  46.538  58.310  1.00  0.00     0.014 C 
ATOM      3  C   UNL     1      16.028  47.486  59.606  1.00  0.00     0.014 C 
ATOM      4  C   UNL     1      16.477  48.100  57.021  1.00  0.00     0.030 C 
ATOM      5  C   UNL     1      18.522  45.508  57.203  1.00  0.00     0.004 C 
ATOM      6  C   UNL     1      15.076  48.777  59.744  1.00  0.00     0.013 C 
ATOM      7  C   UNL     1      16.580  49.563  58.024  1.00  0.00    -0.063 C 
ATOM      8  C   UNL     1      17.117  47.021  55.631  1.00  0.00    -0.003 C 
ATOM      9  C   UNL     1      17.732  45.535  55.964  1.00  0.00    -0.011 C 
ATOM     10  C   UNL     1      15.361  50.115  58.870  1.00  0.00    -0.006 C 
ATOM     11  C   UNL     1      17.704  49.785  58.796  1.00  0.00    -0.027 C 
ATOM     12  C   UNL     1      16.371  46.729  54.270  1.00  0.00     0.008 C 
ATOM     13  C   UNL     1      17.041  44.174  55.676  1.00  0.00     0.008 C 
ATOM     14  C   UNL     1      14.122  50.486  57.982  1.00  0.00     0.017 C 
ATOM     15  C   UNL     1      15.671  51.456  59.795  1.00  0.00    -0.020 C 
ATOM     16  C   UNL     1      17.689  50.384  60.326  1.00  0.00     0.032 C 
ATOM     17  C   UNL     1      16.830  51.648  60.908  1.00  0.00     0.006 C 
ATOM     18  C   UNL     1      14.307  51.871  60.582  1.00  0.00     0.008 C 
ATOM     19  C   UNL     1      16.257  52.465  58.630  1.00  0.00     0.012 C 
ATOM     20  C   UNL     1      16.576  53.215  61.610  1.00  0.00    -0.025 C 
ATOM     21  C   UNL     1      13.918  53.313  60.921  1.00  0.00     0.005 C 
ATOM     22  C   UNL     1      15.055  53.637  61.999  1.00  0.00     0.003 C 
ATOM     23  C   UNL     1      17.300  53.234  63.029  1.00  0.00     0.010 C 
ATOM     24  C   UNL     1      17.036  54.492  60.643  1.00  0.00     0.012 C 
ATOM     25  C   UNL     1      14.684  54.212  63.479  1.00  0.00    -0.006 C 
ATOM     26  C   UNL     1      17.208  54.569  63.716  1.00  0.00     0.033 C 
ATOM     27  C   UNL     1      15.851  55.113  64.096  1.00  0.00     0.120 C 
ATOM     28  C   UNL     1      13.461  55.093  63.398  1.00  0.00     0.014 C 
ATOM     29  C   UNL     1      14.256  53.034  64.396  1.00  0.00     0.014 C 
ENDROOT
BRANCH   1  30
ATOM     30  C   UNL     1      15.442  45.832  57.836  1.00  0.00     0.048 C 
ATOM     31  O   UNL     1      15.829  44.647  57.859  1.00  0.00    -0.550 OA
ATOM     32  O   UNL     1      14.108  46.104  57.720  1.00  0.00    -0.550 OA
ENDBRANCH   1  30
BRANCH  27  33
ATOM     33  O   UNL     1      15.829  55.125  65.571  1.00  0.00    -0.393 OA
ATOM     34  H   UNL     1      15.486  54.299  65.811  1.00  0.00     0.210 HD
ENDBRANCH  27  33
TORSDOF 2
ENDMDL
