MODEL 1
REMARK VINA RESULT:    62.641      0.000      0.000
REMARK INTER + INTRA:          94.961
REMARK INTER:                  91.938
REMARK INTRA:                   3.024
REMARK UNBOUND:                 3.024
REMARK SMILES Cc1cc2c(C(C)C)c(O)c(O)c(C=O)c2c(O)c1-c1c(C)cc2c(C(C)C)c(O)c(O)c(C=O)c2c1O
REMARK SMILES IDX 1 1 2 2 3 3 4 4 16 5 13 6 11 7 9 8 5 9 17 10 19 11 20 12
REMARK SMILES IDX 37 13 21 14 36 15 23 16 22 17 24 18 33 19 25 20 31 21 29 22
REMARK SMILES IDX 38 23 34 25 35 26 26 27 27 28 28 29 32 30 30 32 18 34 6 36
REMARK SMILES IDX 7 37 8 38 14 39 15 40 10 41 12 43
REMARK H PARENT 38 24 32 31 30 33 18 35 10 42 12 44
REMARK Flexibility Score: inf
ROOT
ATOM      1  C   UNL     1       1.088 -38.589  21.197  1.00  0.00     0.045 C 
ATOM      2  C   UNL     1       1.938 -37.774  20.253  1.00  0.00    -0.039 A 
ATOM      3  C   UNL     1       1.680 -37.829  18.882  1.00  0.00     0.013 A 
ATOM      4  C   UNL     1       2.419 -37.063  17.951  1.00  0.00    -0.006 A 
ATOM      5  C   UNL     1       3.489 -36.251  18.433  1.00  0.00     0.039 A 
ATOM      6  C   UNL     1       4.231 -35.471  17.501  1.00  0.00     0.072 A 
ATOM      7  C   UNL     1       4.073 -35.687  16.125  1.00  0.00     0.169 A 
ATOM      8  C   UNL     1       3.087 -36.572  15.654  1.00  0.00     0.162 A 
ATOM      9  C   UNL     1       2.146 -37.129  16.549  1.00  0.00     0.008 A 
ATOM     10  C   UNL     1       3.822 -36.290  19.818  1.00  0.00     0.132 A 
ATOM     11  C   UNL     1       3.023 -37.019  20.723  1.00  0.00     0.031 A 
ENDROOT
BRANCH  11  12
ATOM     12  C   UNL     1       3.357 -37.034  22.172  1.00  0.00     0.031 A 
ATOM     13  C   UNL     1       3.867 -38.206  22.770  1.00  0.00     0.132 A 
ATOM     14  C   UNL     1       3.147 -35.882  22.949  1.00  0.00    -0.039 A 
ATOM     15  C   UNL     1       4.170 -38.233  24.166  1.00  0.00     0.039 A 
ATOM     16  C   UNL     1       3.505 -35.885  24.296  1.00  0.00     0.013 A 
ATOM     17  C   UNL     1       2.515 -34.645  22.355  1.00  0.00     0.045 C 
ATOM     18  C   UNL     1       4.087 -37.017  24.909  1.00  0.00    -0.006 A 
ATOM     19  C   UNL     1       4.564 -39.427  24.843  1.00  0.00     0.072 A 
ATOM     20  C   UNL     1       4.560 -36.964  26.256  1.00  0.00     0.008 A 
ATOM     21  C   UNL     1       4.849 -39.390  26.223  1.00  0.00     0.169 A 
ATOM     22  C   UNL     1       4.850 -38.176  26.917  1.00  0.00     0.162 A 
BRANCH  13  23
ATOM     23  O   UNL     1       4.095 -39.335  21.974  1.00  0.00    -0.507 OA
ATOM     24  H   UNL     1       4.232 -40.268  22.343  1.00  0.00     0.293 HD
ENDBRANCH  13  23
BRANCH  19  25
ATOM     25  C   UNL     1       4.601 -40.736  24.159  1.00  0.00     0.264 C 
ATOM     26  O   UNL     1       4.878 -40.809  22.932  1.00  0.00    -0.298 OA
ENDBRANCH  19  25
BRANCH  20  27
ATOM     27  C   UNL     1       4.748 -35.626  26.993  1.00  0.00     0.017 C 
ATOM     28  C   UNL     1       5.119 -34.508  26.013  1.00  0.00     0.012 C 
ATOM     29  C   UNL     1       3.545 -35.227  27.870  1.00  0.00     0.012 C 
ENDBRANCH  20  27
BRANCH  21  30
ATOM     30  O   UNL     1       5.118 -40.558  26.946  1.00  0.00    -0.504 OA
ATOM     31  H   UNL     1       5.151 -41.483  26.538  1.00  0.00     0.293 HD
ENDBRANCH  21  30
BRANCH  22  32
ATOM     32  O   UNL     1       5.119 -38.173  28.288  1.00  0.00    -0.504 OA
ATOM     33  H   UNL     1       4.574 -37.642  28.957  1.00  0.00     0.293 HD
ENDBRANCH  22  32
ENDBRANCH  11  12
BRANCH  10  34
ATOM     34  O   UNL     1       4.976 -35.650  20.282  1.00  0.00    -0.507 OA
ATOM     35  H   UNL     1       5.917 -35.950  20.060  1.00  0.00     0.293 HD
ENDBRANCH  10  34
BRANCH   9  36
ATOM     36  C   UNL     1       0.897 -37.840  15.998  1.00  0.00     0.017 C 
ATOM     37  C   UNL     1       0.119 -36.923  15.050  1.00  0.00     0.012 C 
ATOM     38  C   UNL     1      -0.021 -38.423  17.089  1.00  0.00     0.012 C 
ENDBRANCH   9  36
BRANCH   6  39
ATOM     39  C   UNL     1       5.124 -34.362  17.905  1.00  0.00     0.264 C 
ATOM     40  O   UNL     1       4.656 -33.318  18.433  1.00  0.00    -0.298 OA
ENDBRANCH   6  39
BRANCH   8  41
ATOM     41  O   UNL     1       3.031 -36.920  14.302  1.00  0.00    -0.504 OA
ATOM     42  H   UNL     1       2.992 -36.252  13.545  1.00  0.00     0.293 HD
ENDBRANCH   8  41
BRANCH   7  43
ATOM     43  O   UNL     1       4.882 -34.965  15.238  1.00  0.00    -0.504 OA
ATOM     44  H   UNL     1       5.037 -33.968  15.297  1.00  0.00     0.293 HD
ENDBRANCH   7  43
TORSDOF 11
ENDMDL
MODEL 2
REMARK VINA RESULT:    64.171      1.195      9.254
REMARK INTER + INTRA:          97.205
REMARK INTER:                  88.117
REMARK INTRA:                   9.089
REMARK UNBOUND:                 3.024
REMARK SMILES Cc1cc2c(C(C)C)c(O)c(O)c(C=O)c2c(O)c1-c1c(C)cc2c(C(C)C)c(O)c(O)c(C=O)c2c1O
REMARK SMILES IDX 1 1 2 2 3 3 4 4 16 5 13 6 11 7 9 8 5 9 17 10 19 11 20 12
REMARK SMILES IDX 37 13 21 14 36 15 23 16 22 17 24 18 33 19 25 20 31 21 29 22
REMARK SMILES IDX 38 23 34 25 35 26 26 27 27 28 28 29 32 30 30 32 18 34 6 36
REMARK SMILES IDX 7 37 8 38 14 39 15 40 10 41 12 43
REMARK H PARENT 38 24 32 31 30 33 18 35 10 42 12 44
REMARK Flexibility Score: inf
ROOT
ATOM      1  C   UNL     1       3.064 -34.603  22.345  1.00  0.00     0.045 C 
ATOM      2  C   UNL     1       3.432 -35.969  22.872  1.00  0.00    -0.039 A 
ATOM      3  C   UNL     1       3.589 -36.152  24.247  1.00  0.00     0.013 A 
ATOM      4  C   UNL     1       3.900 -37.415  24.801  1.00  0.00    -0.006 A 
ATOM      5  C   UNL     1       4.106 -38.516  23.919  1.00  0.00     0.039 A 
ATOM      6  C   UNL     1       4.410 -39.792  24.473  1.00  0.00     0.072 A 
ATOM      7  C   UNL     1       4.742 -39.904  25.831  1.00  0.00     0.169 A 
ATOM      8  C   UNL     1       4.642 -38.788  26.680  1.00  0.00     0.162 A 
ATOM      9  C   UNL     1       4.058 -37.589  26.212  1.00  0.00     0.008 A 
ATOM     10  C   UNL     1       4.060 -38.297  22.511  1.00  0.00     0.132 A 
ATOM     11  C   UNL     1       3.687 -37.037  21.997  1.00  0.00     0.031 A 
ENDROOT
BRANCH  11  12
ATOM     12  C   UNL     1       3.613 -36.820  20.528  1.00  0.00     0.031 A 
ATOM     13  C   UNL     1       4.036 -35.595  19.970  1.00  0.00     0.132 A 
ATOM     14  C   UNL     1       3.104 -37.833  19.698  1.00  0.00    -0.039 A 
ATOM     15  C   UNL     1       3.947 -35.372  18.562  1.00  0.00     0.039 A 
ATOM     16  C   UNL     1       3.079 -37.643  18.317  1.00  0.00     0.013 A 
ATOM     17  C   UNL     1       2.558 -39.116  20.278  1.00  0.00     0.045 C 
ATOM     18  C   UNL     1       3.563 -36.458  17.719  1.00  0.00    -0.006 A 
ATOM     19  C   UNL     1       4.238 -34.108  17.965  1.00  0.00     0.072 A 
ATOM     20  C   UNL     1       3.644 -36.329  16.299  1.00  0.00     0.008 A 
ATOM     21  C   UNL     1       4.131 -33.950  16.569  1.00  0.00     0.169 A 
ATOM     22  C   UNL     1       3.842 -35.046  15.748  1.00  0.00     0.162 A 
BRANCH  13  23
ATOM     23  O   UNL     1       4.564 -34.608  20.811  1.00  0.00    -0.507 OA
ATOM     24  H   UNL     1       4.483 -34.622  21.820  1.00  0.00     0.293 HD
ENDBRANCH  13  23
BRANCH  19  25
ATOM     25  C   UNL     1       4.569 -32.918  18.777  1.00  0.00     0.264 C 
ATOM     26  O   UNL     1       5.122 -33.045  19.902  1.00  0.00    -0.298 OA
ENDBRANCH  19  25
BRANCH  20  27
ATOM     27  C   UNL     1       3.512 -37.549  15.369  1.00  0.00     0.017 C 
ATOM     28  C   UNL     1       2.198 -38.294  15.626  1.00  0.00     0.012 C 
ATOM     29  C   UNL     1       3.682 -37.210  13.875  1.00  0.00     0.012 C 
ENDBRANCH  20  27
BRANCH  21  30
ATOM     30  O   UNL     1       4.288 -32.700  15.959  1.00  0.00    -0.504 OA
ATOM     31  H   UNL     1       3.634 -31.935  16.057  1.00  0.00     0.293 HD
ENDBRANCH  21  30
BRANCH  22  32
ATOM     32  O   UNL     1       3.724 -34.854  14.369  1.00  0.00    -0.504 OA
ATOM     33  H   UNL     1       2.852 -34.610  13.918  1.00  0.00     0.293 HD
ENDBRANCH  22  32
ENDBRANCH  11  12
BRANCH  10  34
ATOM     34  O   UNL     1       4.439 -39.314  21.628  1.00  0.00    -0.507 OA
ATOM     35  H   UNL     1       5.129 -40.022  21.844  1.00  0.00     0.293 HD
ENDBRANCH  10  34
BRANCH   9  36
ATOM     36  C   UNL     1       3.671 -36.487  27.215  1.00  0.00     0.017 C 
ATOM     37  C   UNL     1       4.771 -35.426  27.313  1.00  0.00     0.012 C 
ATOM     38  C   UNL     1       3.282 -37.019  28.607  1.00  0.00     0.012 C 
ENDBRANCH   9  36
BRANCH   6  39
ATOM     39  C   UNL     1       4.320 -41.052  23.700  1.00  0.00     0.264 C 
ATOM     40  O   UNL     1       4.944 -42.081  24.072  1.00  0.00    -0.298 OA
ENDBRANCH   6  39
BRANCH   8  41
ATOM     41  O   UNL     1       5.125 -38.846  27.990  1.00  0.00    -0.504 OA
ATOM     42  H   UNL     1       5.971 -38.391  28.303  1.00  0.00     0.293 HD
ENDBRANCH   8  41
BRANCH   7  43
ATOM     43  O   UNL     1       5.123 -41.158  26.323  1.00  0.00    -0.504 OA
ATOM     44  H   UNL     1       5.634 -41.846  25.786  1.00  0.00     0.293 HD
ENDBRANCH   7  43
TORSDOF 11
ENDMDL
MODEL 3
REMARK VINA RESULT:    65.040      1.916      4.179
REMARK INTER + INTRA:          98.481
REMARK INTER:                  93.810
REMARK INTRA:                   4.671
REMARK UNBOUND:                 3.024
REMARK SMILES Cc1cc2c(C(C)C)c(O)c(O)c(C=O)c2c(O)c1-c1c(C)cc2c(C(C)C)c(O)c(O)c(C=O)c2c1O
REMARK SMILES IDX 1 1 2 2 3 3 4 4 16 5 13 6 11 7 9 8 5 9 17 10 19 11 20 12
REMARK SMILES IDX 37 13 21 14 36 15 23 16 22 17 24 18 33 19 25 20 31 21 29 22
REMARK SMILES IDX 38 23 34 25 35 26 26 27 27 28 28 29 32 30 30 32 18 34 6 36
REMARK SMILES IDX 7 37 8 38 14 39 15 40 10 41 12 43
REMARK H PARENT 38 24 32 31 30 33 18 35 10 42 12 44
REMARK Flexibility Score: inf
ROOT
ATOM      1  C   UNL     1       5.093 -35.051  20.428  1.00  0.00     0.045 C 
ATOM      2  C   UNL     1       4.058 -35.877  19.705  1.00  0.00    -0.039 A 
ATOM      3  C   UNL     1       3.671 -35.511  18.414  1.00  0.00     0.013 A 
ATOM      4  C   UNL     1       2.730 -36.265  17.675  1.00  0.00    -0.006 A 
ATOM      5  C   UNL     1       2.130 -37.403  18.292  1.00  0.00     0.039 A 
ATOM      6  C   UNL     1       1.190 -38.171  17.548  1.00  0.00     0.072 A 
ATOM      7  C   UNL     1       0.687 -37.677  16.336  1.00  0.00     0.169 A 
ATOM      8  C   UNL     1       1.206 -36.494  15.781  1.00  0.00     0.162 A 
ATOM      9  C   UNL     1       2.342 -35.880  16.353  1.00  0.00     0.008 A 
ATOM     10  C   UNL     1       2.442 -37.702  19.650  1.00  0.00     0.132 A 
ATOM     11  C   UNL     1       3.430 -36.963  20.335  1.00  0.00     0.031 A 
ENDROOT
BRANCH  11  12
ATOM     12  C   UNL     1       3.772 -37.297  21.742  1.00  0.00     0.031 A 
ATOM     13  C   UNL     1       3.813 -36.282  22.722  1.00  0.00     0.132 A 
ATOM     14  C   UNL     1       4.073 -38.624  22.092  1.00  0.00    -0.039 A 
ATOM     15  C   UNL     1       4.162 -36.592  24.072  1.00  0.00     0.039 A 
ATOM     16  C   UNL     1       4.349 -38.940  23.421  1.00  0.00     0.013 A 
ATOM     17  C   UNL     1       4.129 -39.712  21.046  1.00  0.00     0.045 C 
ATOM     18  C   UNL     1       4.325 -37.962  24.440  1.00  0.00    -0.006 A 
ATOM     19  C   UNL     1       4.344 -35.586  25.068  1.00  0.00     0.072 A 
ATOM     20  C   UNL     1       4.488 -38.323  25.812  1.00  0.00     0.008 A 
ATOM     21  C   UNL     1       4.690 -35.956  26.384  1.00  0.00     0.169 A 
ATOM     22  C   UNL     1       4.758 -37.304  26.750  1.00  0.00     0.162 A 
BRANCH  13  23
ATOM     23  O   UNL     1       3.484 -34.970  22.360  1.00  0.00    -0.507 OA
ATOM     24  H   UNL     1       3.876 -34.146  22.800  1.00  0.00     0.293 HD
ENDBRANCH  13  23
BRANCH  19  25
ATOM     25  C   UNL     1       4.266 -34.146  24.748  1.00  0.00     0.264 C 
ATOM     26  O   UNL     1       4.937 -33.665  23.796  1.00  0.00    -0.298 OA
ENDBRANCH  19  25
BRANCH  20  27
ATOM     27  C   UNL     1       4.386 -39.786  26.280  1.00  0.00     0.017 C 
ATOM     28  C   UNL     1       3.084 -40.024  27.051  1.00  0.00     0.012 C 
ATOM     29  C   UNL     1       4.562 -40.813  25.144  1.00  0.00     0.012 C 
ENDBRANCH  20  27
BRANCH  21  30
ATOM     30  O   UNL     1       4.996 -34.997  27.357  1.00  0.00    -0.504 OA
ATOM     31  H   UNL     1       4.634 -35.011  28.301  1.00  0.00     0.293 HD
ENDBRANCH  21  30
BRANCH  22  32
ATOM     32  O   UNL     1       5.121 -37.640  28.057  1.00  0.00    -0.504 OA
ATOM     33  H   UNL     1       6.013 -37.387  28.464  1.00  0.00     0.293 HD
ENDBRANCH  22  32
ENDBRANCH  11  12
BRANCH  10  34
ATOM     34  O   UNL     1       1.732 -38.696  20.333  1.00  0.00    -0.507 OA
ATOM     35  H   UNL     1       1.196 -39.422  19.875  1.00  0.00     0.293 HD
ENDBRANCH  10  34
BRANCH   9  36
ATOM     36  C   UNL     1       3.086 -34.778  15.577  1.00  0.00     0.017 C 
ATOM     37  C   UNL     1       3.682 -35.330  14.279  1.00  0.00     0.012 C 
ATOM     38  C   UNL     1       4.150 -34.039  16.410  1.00  0.00     0.012 C 
ENDBRANCH   9  36
BRANCH   6  39
ATOM     39  C   UNL     1       0.759 -39.530  17.947  1.00  0.00     0.264 C 
ATOM     40  O   UNL     1      -0.264 -39.695  18.663  1.00  0.00    -0.298 OA
ENDBRANCH   6  39
BRANCH   8  41
ATOM     41  O   UNL     1       0.602 -35.907  14.666  1.00  0.00    -0.504 OA
ATOM     42  H   UNL     1       0.464 -34.913  14.552  1.00  0.00     0.293 HD
ENDBRANCH   8  41
BRANCH   7  43
ATOM     43  O   UNL     1      -0.303 -38.415  15.674  1.00  0.00    -0.504 OA
ATOM     44  H   UNL     1      -0.184 -38.827  14.758  1.00  0.00     0.293 HD
ENDBRANCH   7  43
TORSDOF 11
ENDMDL
MODEL 4
REMARK VINA RESULT:    65.100      1.814      3.159
REMARK INTER + INTRA:          98.569
REMARK INTER:                  92.397
REMARK INTRA:                   6.171
REMARK UNBOUND:                 3.024
REMARK SMILES Cc1cc2c(C(C)C)c(O)c(O)c(C=O)c2c(O)c1-c1c(C)cc2c(C(C)C)c(O)c(O)c(C=O)c2c1O
REMARK SMILES IDX 1 1 2 2 3 3 4 4 16 5 13 6 11 7 9 8 5 9 17 10 19 11 20 12
REMARK SMILES IDX 37 13 21 14 36 15 23 16 22 17 24 18 33 19 25 20 31 21 29 22
REMARK SMILES IDX 38 23 34 25 35 26 26 27 27 28 28 29 32 30 30 32 18 34 6 36
REMARK SMILES IDX 7 37 8 38 14 39 15 40 10 41 12 43
REMARK H PARENT 38 24 32 31 30 33 18 35 10 42 12 44
REMARK Flexibility Score: inf
ROOT
ATOM      1  C   UNL     1       2.460 -39.164  20.344  1.00  0.00     0.045 C 
ATOM      2  C   UNL     1       2.997 -37.914  19.689  1.00  0.00    -0.039 A 
ATOM      3  C   UNL     1       2.801 -37.722  18.320  1.00  0.00     0.013 A 
ATOM      4  C   UNL     1       3.250 -36.556  17.659  1.00  0.00    -0.006 A 
ATOM      5  C   UNL     1       3.966 -35.577  18.410  1.00  0.00     0.039 A 
ATOM      6  C   UNL     1       4.413 -34.397  17.750  1.00  0.00     0.072 A 
ATOM      7  C   UNL     1       4.366 -34.318  16.351  1.00  0.00     0.169 A 
ATOM      8  C   UNL     1       3.754 -35.339  15.602  1.00  0.00     0.162 A 
ATOM      9  C   UNL     1       3.044 -36.371  16.255  1.00  0.00     0.008 A 
ATOM     10  C   UNL     1       4.265 -35.834  19.780  1.00  0.00     0.132 A 
ATOM     11  C   UNL     1       3.747 -36.980  20.420  1.00  0.00     0.031 A 
ENDROOT
BRANCH  11  12
ATOM     12  C   UNL     1       4.038 -37.229  21.857  1.00  0.00     0.031 A 
ATOM     13  C   UNL     1       4.009 -36.163  22.781  1.00  0.00     0.132 A 
ATOM     14  C   UNL     1       4.357 -38.527  22.289  1.00  0.00    -0.039 A 
ATOM     15  C   UNL     1       4.308 -36.392  24.158  1.00  0.00     0.039 A 
ATOM     16  C   UNL     1       4.583 -38.765  23.644  1.00  0.00     0.013 A 
ATOM     17  C   UNL     1       4.487 -39.667  21.307  1.00  0.00     0.045 C 
ATOM     18  C   UNL     1       4.490 -37.735  24.607  1.00  0.00    -0.006 A 
ATOM     19  C   UNL     1       4.421 -35.330  25.106  1.00  0.00     0.072 A 
ATOM     20  C   UNL     1       4.603 -38.018  26.002  1.00  0.00     0.008 A 
ATOM     21  C   UNL     1       4.719 -35.619  26.453  1.00  0.00     0.169 A 
ATOM     22  C   UNL     1       4.805 -36.944  26.894  1.00  0.00     0.162 A 
BRANCH  13  23
ATOM     23  O   UNL     1       3.663 -34.882  22.335  1.00  0.00    -0.507 OA
ATOM     24  H   UNL     1       4.315 -34.111  22.269  1.00  0.00     0.293 HD
ENDBRANCH  13  23
BRANCH  19  25
ATOM     25  C   UNL     1       4.319 -33.911  24.706  1.00  0.00     0.264 C 
ATOM     26  O   UNL     1       5.104 -33.433  23.843  1.00  0.00    -0.298 OA
ENDBRANCH  19  25
BRANCH  20  27
ATOM     27  C   UNL     1       4.519 -39.457  26.543  1.00  0.00     0.017 C 
ATOM     28  C   UNL     1       4.009 -39.469  27.988  1.00  0.00     0.012 C 
ATOM     29  C   UNL     1       3.698 -40.408  25.650  1.00  0.00     0.012 C 
ENDBRANCH  20  27
BRANCH  21  30
ATOM     30  O   UNL     1       4.957 -34.602  27.385  1.00  0.00    -0.504 OA
ATOM     31  H   UNL     1       5.471 -34.732  28.246  1.00  0.00     0.293 HD
ENDBRANCH  21  30
BRANCH  22  32
ATOM     32  O   UNL     1       5.120 -37.200  28.231  1.00  0.00    -0.504 OA
ATOM     33  H   UNL     1       5.884 -37.802  28.513  1.00  0.00     0.293 HD
ENDBRANCH  22  32
ENDBRANCH  11  12
BRANCH  10  34
ATOM     34  O   UNL     1       5.120 -34.981  20.485  1.00  0.00    -0.507 OA
ATOM     35  H   UNL     1       4.990 -33.979  20.553  1.00  0.00     0.293 HD
ENDBRANCH  10  34
BRANCH   9  36
ATOM     36  C   UNL     1       2.126 -37.300  15.441  1.00  0.00     0.017 C 
ATOM     37  C   UNL     1       2.887 -38.541  14.965  1.00  0.00     0.012 C 
ATOM     38  C   UNL     1       1.412 -36.600  14.269  1.00  0.00     0.012 C 
ENDBRANCH   9  36
BRANCH   6  39
ATOM     39  C   UNL     1       4.863 -33.187  18.474  1.00  0.00     0.264 C 
ATOM     40  O   UNL     1       5.046 -32.101  17.861  1.00  0.00    -0.298 OA
ENDBRANCH   6  39
BRANCH   8  41
ATOM     41  O   UNL     1       3.847 -35.351  14.208  1.00  0.00    -0.504 OA
ATOM     42  H   UNL     1       4.631 -35.730  13.695  1.00  0.00     0.293 HD
ENDBRANCH   8  41
BRANCH   7  43
ATOM     43  O   UNL     1       4.896 -33.180  15.729  1.00  0.00    -0.504 OA
ATOM     44  H   UNL     1       4.857 -33.010  14.733  1.00  0.00     0.293 HD
ENDBRANCH   7  43
TORSDOF 11
ENDMDL
