MODEL 1
REMARK VINA RESULT:    -3.747      0.000      0.000
REMARK INTER + INTRA:          -5.504
REMARK INTER:                  -5.061
REMARK INTRA:                  -0.443
REMARK UNBOUND:                -0.443
REMARK SMILES CCCCCCCC(=O)[O-]
REMARK SMILES IDX 5 1 6 2 7 3 8 4 9 5 10 6 4 7 3 8 2 9 1 10
REMARK H PARENT
REMARK Flexibility Score: inf
ROOT
ATOM      1  C   UNL     1       9.806   7.398   2.785  1.00  0.00     0.000 C 
ENDROOT
BRANCH   1   2
ATOM      2  C   UNL     1       9.651   6.468   4.003  1.00  0.00     0.006 C 
BRANCH   2   3
ATOM      3  C   UNL     1       8.873   7.087   5.176  1.00  0.00     0.053 C 
BRANCH   3   4
ATOM      4  C   UNL     1       7.435   7.324   4.832  1.00  0.00     0.041 C 
ATOM      5  O   UNL     1       6.873   8.401   5.163  1.00  0.00    -0.550 OA
ATOM      6  O   UNL     1       6.725   6.369   4.116  1.00  0.00    -0.550 OA
ENDBRANCH   3   4
ENDBRANCH   2   3
ENDBRANCH   1   2
BRANCH   1   7
ATOM      7  C   UNL     1       9.900   6.631   1.458  1.00  0.00     0.000 C 
BRANCH   7   8
ATOM      8  C   UNL     1       8.820   5.546   1.372  1.00  0.00    -0.000 C 
BRANCH   8   9
ATOM      9  C   UNL     1       9.393   4.244   0.801  1.00  0.00    -0.003 C 
ATOM     10  C   UNL     1      10.125   3.446   1.876  1.00  0.00     0.004 C 
ENDBRANCH   8   9
ENDBRANCH   7   8
ENDBRANCH   1   7
TORSDOF 6
ENDMDL
MODEL 2
REMARK VINA RESULT:    -3.579      1.378      2.006
REMARK INTER + INTRA:          -5.278
REMARK INTER:                  -4.896
REMARK INTRA:                  -0.382
REMARK UNBOUND:                -0.443
REMARK SMILES CCCCCCCC(=O)[O-]
REMARK SMILES IDX 5 1 6 2 7 3 8 4 9 5 10 6 4 7 3 8 2 9 1 10
REMARK H PARENT
REMARK Flexibility Score: inf
ROOT
ATOM      1  C   UNL     1       9.767   5.358   4.591  1.00  0.00     0.000 C 
ENDROOT
BRANCH   1   2
ATOM      2  C   UNL     1       9.073   6.499   5.358  1.00  0.00     0.006 C 
BRANCH   2   3
ATOM      3  C   UNL     1       7.706   6.906   4.785  1.00  0.00     0.053 C 
BRANCH   3   4
ATOM      4  C   UNL     1       7.519   8.391   4.781  1.00  0.00     0.041 C 
ATOM      5  O   UNL     1       8.489   9.152   4.523  1.00  0.00    -0.550 OA
ATOM      6  O   UNL     1       6.265   8.935   5.030  1.00  0.00    -0.550 OA
ENDBRANCH   3   4
ENDBRANCH   2   3
ENDBRANCH   1   2
BRANCH   1   7
ATOM      7  C   UNL     1       9.990   5.687   3.107  1.00  0.00     0.000 C 
BRANCH   7   8
ATOM      8  C   UNL     1      10.007   4.410   2.259  1.00  0.00    -0.000 C 
BRANCH   8   9
ATOM      9  C   UNL     1       9.252   4.616   0.940  1.00  0.00    -0.003 C 
ATOM     10  C   UNL     1       8.159   5.671   1.090  1.00  0.00     0.004 C 
ENDBRANCH   8   9
ENDBRANCH   7   8
ENDBRANCH   1   7
TORSDOF 6
ENDMDL
MODEL 3
REMARK VINA RESULT:    -3.123      2.203      4.404
REMARK INTER + INTRA:          -4.662
REMARK INTER:                  -4.304
REMARK INTRA:                  -0.358
REMARK UNBOUND:                -0.443
REMARK SMILES CCCCCCCC(=O)[O-]
REMARK SMILES IDX 5 1 6 2 7 3 8 4 9 5 10 6 4 7 3 8 2 9 1 10
REMARK H PARENT
REMARK Flexibility Score: inf
ROOT
ATOM      1  C   UNL     1       9.600   5.602   4.873  1.00  0.00     0.000 C 
ENDROOT
BRANCH   1   2
ATOM      2  C   UNL     1      10.125   5.782   3.437  1.00  0.00     0.006 C 
BRANCH   2   3
ATOM      3  C   UNL     1       9.903   4.564   2.526  1.00  0.00     0.053 C 
BRANCH   3   4
ATOM      4  C   UNL     1       9.242   4.942   1.236  1.00  0.00     0.041 C 
ATOM      5  O   UNL     1       9.193   4.121   0.283  1.00  0.00    -0.550 OA
ATOM      6  O   UNL     1       8.649   6.192   1.099  1.00  0.00    -0.550 OA
ENDBRANCH   3   4
ENDBRANCH   2   3
ENDBRANCH   1   2
BRANCH   1   7
ATOM      7  C   UNL     1       9.120   6.919   5.502  1.00  0.00     0.000 C 
BRANCH   7   8
ATOM      8  C   UNL     1       8.427   7.804   4.460  1.00  0.00    -0.000 C 
BRANCH   8   9
ATOM      9  C   UNL     1       6.905   7.624   4.510  1.00  0.00    -0.003 C 
ATOM     10  C   UNL     1       6.474   6.371   3.753  1.00  0.00     0.004 C 
ENDBRANCH   8   9
ENDBRANCH   7   8
ENDBRANCH   1   7
TORSDOF 6
ENDMDL
MODEL 4
REMARK VINA RESULT:    -3.095      1.485      2.467
REMARK INTER + INTRA:          -4.623
REMARK INTER:                  -4.352
REMARK INTRA:                  -0.271
REMARK UNBOUND:                -0.443
REMARK SMILES CCCCCCCC(=O)[O-]
REMARK SMILES IDX 5 1 6 2 7 3 8 4 9 5 10 6 4 7 3 8 2 9 1 10
REMARK H PARENT
REMARK Flexibility Score: inf
ROOT
ATOM      1  C   UNL     1       7.652   6.207   3.900  1.00  0.00     0.000 C 
ENDROOT
BRANCH   1   2
ATOM      2  C   UNL     1       7.564   7.191   5.081  1.00  0.00     0.006 C 
BRANCH   2   3
ATOM      3  C   UNL     1       7.329   8.653   4.669  1.00  0.00     0.053 C 
BRANCH   3   4
ATOM      4  C   UNL     1       5.885   9.039   4.773  1.00  0.00     0.041 C 
ATOM      5  O   UNL     1       5.034   8.525   4.001  1.00  0.00    -0.550 OA
ATOM      6  O   UNL     1       5.476   9.942   5.746  1.00  0.00    -0.550 OA
ENDBRANCH   3   4
ENDBRANCH   2   3
ENDBRANCH   1   2
BRANCH   1   7
ATOM      7  C   UNL     1       9.047   5.580   3.749  1.00  0.00     0.000 C 
BRANCH   7   8
ATOM      8  C   UNL     1       9.913   6.395   2.781  1.00  0.00    -0.000 C 
BRANCH   8   9
ATOM      9  C   UNL     1       9.788   5.863   1.349  1.00  0.00    -0.003 C 
ATOM     10  C   UNL     1       9.705   4.339   1.333  1.00  0.00     0.004 C 
ENDBRANCH   8   9
ENDBRANCH   7   8
ENDBRANCH   1   7
TORSDOF 6
ENDMDL
MODEL 5
REMARK VINA RESULT:    -2.992     22.123     23.548
REMARK INTER + INTRA:          -4.484
REMARK INTER:                  -4.096
REMARK INTRA:                  -0.388
REMARK UNBOUND:                -0.443
REMARK SMILES CCCCCCCC(=O)[O-]
REMARK SMILES IDX 5 1 6 2 7 3 8 4 9 5 10 6 4 7 3 8 2 9 1 10
REMARK H PARENT
REMARK Flexibility Score: inf
ROOT
ATOM      1  C   UNL     1      -8.212  -6.271  -9.746  1.00  0.00     0.000 C 
ENDROOT
BRANCH   1   2
ATOM      2  C   UNL     1      -6.714  -5.946  -9.885  1.00  0.00     0.006 C 
BRANCH   2   3
ATOM      3  C   UNL     1      -5.804  -6.743  -8.936  1.00  0.00     0.053 C 
BRANCH   3   4
ATOM      4  C   UNL     1      -4.374  -6.722  -9.381  1.00  0.00     0.041 C 
ATOM      5  O   UNL     1      -3.729  -7.797  -9.495  1.00  0.00    -0.550 OA
ATOM      6  O   UNL     1      -3.764  -5.516  -9.702  1.00  0.00    -0.550 OA
ENDBRANCH   3   4
ENDBRANCH   2   3
ENDBRANCH   1   2
BRANCH   1   7
ATOM      7  C   UNL     1      -8.662  -6.397  -8.283  1.00  0.00     0.000 C 
BRANCH   7   8
ATOM      8  C   UNL     1      -9.655  -5.288  -7.916  1.00  0.00    -0.000 C 
BRANCH   8   9
ATOM      9  C   UNL     1      -9.153  -4.475  -6.716  1.00  0.00    -0.003 C 
ATOM     10  C   UNL     1      -7.713  -4.840  -6.367  1.00  0.00     0.004 C 
ENDBRANCH   8   9
ENDBRANCH   7   8
ENDBRANCH   1   7
TORSDOF 6
ENDMDL
MODEL 6
REMARK VINA RESULT:    -2.979     22.125     23.302
REMARK INTER + INTRA:          -4.467
REMARK INTER:                  -4.294
REMARK INTRA:                  -0.173
REMARK UNBOUND:                -0.443
REMARK SMILES CCCCCCCC(=O)[O-]
REMARK SMILES IDX 5 1 6 2 7 3 8 4 9 5 10 6 4 7 3 8 2 9 1 10
REMARK H PARENT
REMARK Flexibility Score: inf
ROOT
ATOM      1  C   UNL     1      -7.074  -5.875  -7.881  1.00  0.00     0.000 C 
ENDROOT
BRANCH   1   2
ATOM      2  C   UNL     1      -6.744  -6.510  -9.243  1.00  0.00     0.006 C 
BRANCH   2   3
ATOM      3  C   UNL     1      -5.731  -5.715 -10.083  1.00  0.00     0.053 C 
BRANCH   3   4
ATOM      4  C   UNL     1      -4.318  -6.087  -9.757  1.00  0.00     0.041 C 
ATOM      5  O   UNL     1      -3.396  -5.238  -9.873  1.00  0.00    -0.550 OA
ATOM      6  O   UNL     1      -4.024  -7.363  -9.294  1.00  0.00    -0.550 OA
ENDBRANCH   3   4
ENDBRANCH   2   3
ENDBRANCH   1   2
BRANCH   1   7
ATOM      7  C   UNL     1      -8.564  -5.979  -7.520  1.00  0.00     0.000 C 
BRANCH   7   8
ATOM      8  C   UNL     1      -8.982  -4.841  -6.581  1.00  0.00    -0.000 C 
BRANCH   8   9
ATOM      9  C   UNL     1     -10.125  -4.019  -7.188  1.00  0.00    -0.003 C 
ATOM     10  C   UNL     1     -10.089  -2.576  -6.693  1.00  0.00     0.004 C 
ENDBRANCH   8   9
ENDBRANCH   7   8
ENDBRANCH   1   7
TORSDOF 6
ENDMDL
MODEL 7
REMARK VINA RESULT:    -2.742     22.326     23.250
REMARK INTER + INTRA:          -4.146
REMARK INTER:                  -3.620
REMARK INTRA:                  -0.526
REMARK UNBOUND:                -0.443
REMARK SMILES CCCCCCCC(=O)[O-]
REMARK SMILES IDX 5 1 6 2 7 3 8 4 9 5 10 6 4 7 3 8 2 9 1 10
REMARK H PARENT
REMARK Flexibility Score: inf
ROOT
ATOM      1  C   UNL     1      -5.624  -5.628  -9.012  1.00  0.00     0.000 C 
ENDROOT
BRANCH   1   2
ATOM      2  C   UNL     1      -4.405  -6.358  -9.604  1.00  0.00     0.006 C 
BRANCH   2   3
ATOM      3  C   UNL     1      -4.515  -7.891  -9.584  1.00  0.00     0.053 C 
BRANCH   3   4
ATOM      4  C   UNL     1      -4.540  -8.433  -8.189  1.00  0.00     0.041 C 
ATOM      5  O   UNL     1      -3.502  -8.399  -7.476  1.00  0.00    -0.550 OA
ATOM      6  O   UNL     1      -5.720  -8.946  -7.663  1.00  0.00    -0.550 OA
ENDBRANCH   3   4
ENDBRANCH   2   3
ENDBRANCH   1   2
BRANCH   1   7
ATOM      7  C   UNL     1      -6.942  -6.017  -9.698  1.00  0.00     0.000 C 
BRANCH   7   8
ATOM      8  C   UNL     1      -8.010  -6.390  -8.663  1.00  0.00    -0.000 C 
BRANCH   8   9
ATOM      9  C   UNL     1      -7.640  -5.857  -7.274  1.00  0.00    -0.003 C 
ATOM     10  C   UNL     1      -8.714  -4.912  -6.742  1.00  0.00     0.004 C 
ENDBRANCH   8   9
ENDBRANCH   7   8
ENDBRANCH   1   7
TORSDOF 6
ENDMDL
MODEL 8
REMARK VINA RESULT:    -2.734     21.570     22.795
REMARK INTER + INTRA:          -4.136
REMARK INTER:                  -3.944
REMARK INTRA:                  -0.192
REMARK UNBOUND:                -0.443
REMARK SMILES CCCCCCCC(=O)[O-]
REMARK SMILES IDX 5 1 6 2 7 3 8 4 9 5 10 6 4 7 3 8 2 9 1 10
REMARK H PARENT
REMARK Flexibility Score: inf
ROOT
ATOM      1  C   UNL     1      -6.013  -7.960  -8.478  1.00  0.00     0.000 C 
ENDROOT
BRANCH   1   2
ATOM      2  C   UNL     1      -6.674  -6.579  -8.317  1.00  0.00     0.006 C 
BRANCH   2   3
ATOM      3  C   UNL     1      -7.938  -6.582  -7.443  1.00  0.00     0.053 C 
BRANCH   3   4
ATOM      4  C   UNL     1      -8.170  -5.255  -6.788  1.00  0.00     0.041 C 
ATOM      5  O   UNL     1      -9.341  -4.818  -6.636  1.00  0.00    -0.550 OA
ATOM      6  O   UNL     1      -7.092  -4.516  -6.315  1.00  0.00    -0.550 OA
ENDBRANCH   3   4
ENDBRANCH   2   3
ENDBRANCH   1   2
BRANCH   1   7
ATOM      7  C   UNL     1      -4.479  -7.894  -8.446  1.00  0.00     0.000 C 
BRANCH   7   8
ATOM      8  C   UNL     1      -3.862  -9.245  -8.828  1.00  0.00    -0.000 C 
BRANCH   8   9
ATOM      9  C   UNL     1      -3.394 -10.008  -7.584  1.00  0.00    -0.003 C 
ATOM     10  C   UNL     1      -2.991  -9.049  -6.468  1.00  0.00     0.004 C 
ENDBRANCH   8   9
ENDBRANCH   7   8
ENDBRANCH   1   7
TORSDOF 6
ENDMDL
MODEL 9
REMARK VINA RESULT:    -2.716     22.209     22.876
REMARK INTER + INTRA:          -4.112
REMARK INTER:                  -3.638
REMARK INTRA:                  -0.474
REMARK UNBOUND:                -0.443
REMARK SMILES CCCCCCCC(=O)[O-]
REMARK SMILES IDX 5 1 6 2 7 3 8 4 9 5 10 6 4 7 3 8 2 9 1 10
REMARK H PARENT
REMARK Flexibility Score: inf
ROOT
ATOM      1  C   UNL     1      -5.612  -5.577  -9.024  1.00  0.00     0.000 C 
ENDROOT
BRANCH   1   2
ATOM      2  C   UNL     1      -6.969  -6.302  -9.077  1.00  0.00     0.006 C 
BRANCH   2   3
ATOM      3  C   UNL     1      -7.567  -6.626  -7.698  1.00  0.00     0.053 C 
BRANCH   3   4
ATOM      4  C   UNL     1      -8.153  -5.414  -7.043  1.00  0.00     0.041 C 
ATOM      5  O   UNL     1      -7.483  -4.761  -6.200  1.00  0.00    -0.550 OA
ATOM      6  O   UNL     1      -9.429  -4.985  -7.389  1.00  0.00    -0.550 OA
ENDBRANCH   3   4
ENDBRANCH   2   3
ENDBRANCH   1   2
BRANCH   1   7
ATOM      7  C   UNL     1      -4.536  -6.262  -9.880  1.00  0.00     0.000 C 
BRANCH   7   8
ATOM      8  C   UNL     1      -4.602  -7.786  -9.729  1.00  0.00    -0.000 C 
BRANCH   8   9
ATOM      9  C   UNL     1      -3.916  -8.241  -8.436  1.00  0.00    -0.003 C 
ATOM     10  C   UNL     1      -4.799  -9.209  -7.654  1.00  0.00     0.004 C 
ENDBRANCH   8   9
ENDBRANCH   7   8
ENDBRANCH   1   7
TORSDOF 6
ENDMDL
