MODEL 1
REMARK VINA RESULT:    -0.647      0.000      0.000
REMARK INTER + INTRA:          -7.662
REMARK INTER:                  -1.630
REMARK INTRA:                  -6.031
REMARK UNBOUND:                -6.031
REMARK SMILES CCCCCCCCCCCCCCCCCCCCCCCCCCCC(=O)[O-]
REMARK SMILES IDX 15 1 16 2 17 3 18 4 19 5 20 6 21 7 22 8 23 9 24 10 25 11
REMARK SMILES IDX 26 12 27 13 28 14 29 15 30 16 14 17 13 18 12 19 11 20 10 21
REMARK SMILES IDX 9 22 8 23 7 24 6 25 5 26 4 27 3 28 2 29 1 30
REMARK H PARENT
REMARK Flexibility Score: inf
ROOT
ATOM      1  C   UNL     1      37.356   5.026  36.404  1.00  0.00     0.000 C 
ENDROOT
BRANCH   1   2
ATOM      2  C   UNL     1      37.685   3.542  36.627  1.00  0.00     0.000 C 
BRANCH   2   3
ATOM      3  C   UNL     1      37.152   3.028  37.974  1.00  0.00     0.000 C 
BRANCH   3   4
ATOM      4  C   UNL     1      35.840   2.244  37.825  1.00  0.00     0.000 C 
BRANCH   4   5
ATOM      5  C   UNL     1      34.635   3.001  38.419  1.00  0.00     0.000 C 
BRANCH   5   6
ATOM      6  C   UNL     1      35.026   3.890  39.617  1.00  0.00     0.000 C 
BRANCH   6   7
ATOM      7  C   UNL     1      34.395   3.457  40.959  1.00  0.00     0.000 C 
BRANCH   7   8
ATOM      8  C   UNL     1      35.398   3.353  42.125  1.00  0.00     0.000 C 
BRANCH   8   9
ATOM      9  C   UNL     1      36.376   2.174  41.958  1.00  0.00     0.000 C 
BRANCH   9  10
ATOM     10  C   UNL     1      37.830   2.636  41.770  1.00  0.00     0.000 C 
BRANCH  10  11
ATOM     11  C   UNL     1      38.019   4.127  42.094  1.00  0.00     0.000 C 
BRANCH  11  12
ATOM     12  C   UNL     1      39.278   4.721  41.443  1.00  0.00     0.006 C 
BRANCH  12  13
ATOM     13  C   UNL     1      39.077   5.074  39.962  1.00  0.00     0.053 C 
BRANCH  13  14
ATOM     14  C   UNL     1      40.396   5.258  39.276  1.00  0.00     0.041 C 
ATOM     15  O   UNL     1      41.247   6.063  39.742  1.00  0.00    -0.550 OA
ATOM     16  O   UNL     1      40.693   4.533  38.127  1.00  0.00    -0.550 OA
ENDBRANCH  13  14
ENDBRANCH  12  13
ENDBRANCH  11  12
ENDBRANCH  10  11
ENDBRANCH   9  10
ENDBRANCH   8   9
ENDBRANCH   7   8
ENDBRANCH   6   7
ENDBRANCH   5   6
ENDBRANCH   4   5
ENDBRANCH   3   4
ENDBRANCH   2   3
ENDBRANCH   1   2
BRANCH   1  17
ATOM     17  C   UNL     1      36.533   5.252  35.121  1.00  0.00     0.000 C 
BRANCH  17  18
ATOM     18  C   UNL     1      35.139   5.844  35.414  1.00  0.00     0.000 C 
BRANCH  18  19
ATOM     19  C   UNL     1      34.958   6.320  36.866  1.00  0.00     0.000 C 
BRANCH  19  20
ATOM     20  C   UNL     1      34.976   7.851  37.000  1.00  0.00     0.000 C 
BRANCH  20  21
ATOM     21  C   UNL     1      36.056   8.345  37.978  1.00  0.00     0.000 C 
BRANCH  21  22
ATOM     22  C   UNL     1      37.365   8.795  37.290  1.00  0.00    -0.000 C 
BRANCH  22  23
ATOM     23  C   UNL     1      38.642   8.292  37.991  1.00  0.00    -0.000 C 
BRANCH  23  24
ATOM     24  C   UNL     1      39.110   9.150  39.181  1.00  0.00    -0.000 C 
BRANCH  24  25
ATOM     25  C   UNL     1      38.876   8.526  40.574  1.00  0.00    -0.000 C 
BRANCH  25  26
ATOM     26  C   UNL     1      37.580   8.962  41.280  1.00  0.00    -0.000 C 
BRANCH  26  27
ATOM     27  C   UNL     1      36.949   7.844  42.122  1.00  0.00    -0.000 C 
BRANCH  27  28
ATOM     28  C   UNL     1      35.893   7.079  41.310  1.00  0.00    -0.000 C 
BRANCH  28  29
ATOM     29  C   UNL     1      34.460   7.382  41.775  1.00  0.00    -0.003 C 
ATOM     30  C   UNL     1      33.409   7.031  40.720  1.00  0.00     0.004 C 
ENDBRANCH  28  29
ENDBRANCH  27  28
ENDBRANCH  26  27
ENDBRANCH  25  26
ENDBRANCH  24  25
ENDBRANCH  23  24
ENDBRANCH  22  23
ENDBRANCH  21  22
ENDBRANCH  20  21
ENDBRANCH  19  20
ENDBRANCH  18  19
ENDBRANCH  17  18
ENDBRANCH   1  17
TORSDOF 26
ENDMDL
MODEL 2
REMARK VINA RESULT:    -0.614      2.237      5.401
REMARK INTER + INTRA:          -7.579
REMARK INTER:                  -1.679
REMARK INTRA:                  -5.899
REMARK UNBOUND:                -6.031
REMARK SMILES CCCCCCCCCCCCCCCCCCCCCCCCCCCC(=O)[O-]
REMARK SMILES IDX 15 1 16 2 17 3 18 4 19 5 20 6 21 7 22 8 23 9 24 10 25 11
REMARK SMILES IDX 26 12 27 13 28 14 29 15 30 16 14 17 13 18 12 19 11 20 10 21
REMARK SMILES IDX 9 22 8 23 7 24 6 25 5 26 4 27 3 28 2 29 1 30
REMARK H PARENT
REMARK Flexibility Score: inf
ROOT
ATOM      1  C   UNL     1      35.870   4.400  37.563  1.00  0.00     0.000 C 
ENDROOT
BRANCH   1   2
ATOM      2  C   UNL     1      34.588   5.243  37.652  1.00  0.00     0.000 C 
BRANCH   2   3
ATOM      3  C   UNL     1      33.399   4.562  36.957  1.00  0.00     0.000 C 
BRANCH   3   4
ATOM      4  C   UNL     1      32.063   4.858  37.654  1.00  0.00     0.000 C 
BRANCH   4   5
ATOM      5  C   UNL     1      31.401   3.584  38.216  1.00  0.00     0.000 C 
BRANCH   5   6
ATOM      6  C   UNL     1      31.380   3.559  39.758  1.00  0.00     0.000 C 
BRANCH   6   7
ATOM      7  C   UNL     1      32.669   3.002  40.400  1.00  0.00     0.000 C 
BRANCH   7   8
ATOM      8  C   UNL     1      33.411   4.008  41.303  1.00  0.00     0.000 C 
BRANCH   8   9
ATOM      9  C   UNL     1      32.790   5.417  41.250  1.00  0.00     0.000 C 
BRANCH   9  10
ATOM     10  C   UNL     1      33.821   6.526  41.519  1.00  0.00     0.000 C 
BRANCH  10  11
ATOM     11  C   UNL     1      35.265   6.056  41.279  1.00  0.00     0.000 C 
BRANCH  11  12
ATOM     12  C   UNL     1      36.239   7.224  41.057  1.00  0.00     0.006 C 
BRANCH  12  13
ATOM     13  C   UNL     1      37.150   7.021  39.837  1.00  0.00     0.053 C 
BRANCH  13  14
ATOM     14  C   UNL     1      37.107   8.217  38.936  1.00  0.00     0.041 C 
ATOM     15  O   UNL     1      36.838   8.079  37.712  1.00  0.00    -0.550 OA
ATOM     16  O   UNL     1      37.351   9.486  39.448  1.00  0.00    -0.550 OA
ENDBRANCH  13  14
ENDBRANCH  12  13
ENDBRANCH  11  12
ENDBRANCH  10  11
ENDBRANCH   9  10
ENDBRANCH   8   9
ENDBRANCH   7   8
ENDBRANCH   6   7
ENDBRANCH   5   6
ENDBRANCH   4   5
ENDBRANCH   3   4
ENDBRANCH   2   3
ENDBRANCH   1   2
BRANCH   1  17
ATOM     17  C   UNL     1      36.095   3.551  38.829  1.00  0.00     0.000 C 
BRANCH  17  18
ATOM     18  C   UNL     1      35.841   2.050  38.584  1.00  0.00     0.000 C 
BRANCH  18  19
ATOM     19  C   UNL     1      36.489   1.130  39.633  1.00  0.00     0.000 C 
BRANCH  19  20
ATOM     20  C   UNL     1      35.615   0.939  40.883  1.00  0.00     0.000 C 
BRANCH  20  21
ATOM     21  C   UNL     1      36.197   1.643  42.122  1.00  0.00     0.000 C 
BRANCH  21  22
ATOM     22  C   UNL     1      37.696   1.998  41.994  1.00  0.00    -0.000 C 
BRANCH  22  23
ATOM     23  C   UNL     1      37.993   3.505  42.125  1.00  0.00    -0.000 C 
BRANCH  23  24
ATOM     24  C   UNL     1      38.790   4.113  40.956  1.00  0.00    -0.000 C 
BRANCH  24  25
ATOM     25  C   UNL     1      39.975   3.259  40.453  1.00  0.00    -0.000 C 
BRANCH  25  26
ATOM     26  C   UNL     1      39.781   2.618  39.067  1.00  0.00    -0.000 C 
BRANCH  26  27
ATOM     27  C   UNL     1      39.698   3.652  37.934  1.00  0.00    -0.000 C 
BRANCH  27  28
ATOM     28  C   UNL     1      40.825   4.688  38.058  1.00  0.00    -0.000 C 
BRANCH  28  29
ATOM     29  C   UNL     1      40.295   6.129  38.121  1.00  0.00    -0.003 C 
ATOM     30  C   UNL     1      40.911   6.937  39.264  1.00  0.00     0.004 C 
ENDBRANCH  28  29
ENDBRANCH  27  28
ENDBRANCH  26  27
ENDBRANCH  25  26
ENDBRANCH  24  25
ENDBRANCH  23  24
ENDBRANCH  22  23
ENDBRANCH  21  22
ENDBRANCH  20  21
ENDBRANCH  19  20
ENDBRANCH  18  19
ENDBRANCH  17  18
ENDBRANCH   1  17
TORSDOF 26
ENDMDL
MODEL 3
REMARK VINA RESULT:    -0.613      2.196      4.625
REMARK INTER + INTRA:          -7.576
REMARK INTER:                  -1.360
REMARK INTRA:                  -6.216
REMARK UNBOUND:                -6.031
REMARK SMILES CCCCCCCCCCCCCCCCCCCCCCCCCCCC(=O)[O-]
REMARK SMILES IDX 15 1 16 2 17 3 18 4 19 5 20 6 21 7 22 8 23 9 24 10 25 11
REMARK SMILES IDX 26 12 27 13 28 14 29 15 30 16 14 17 13 18 12 19 11 20 10 21
REMARK SMILES IDX 9 22 8 23 7 24 6 25 5 26 4 27 3 28 2 29 1 30
REMARK H PARENT
REMARK Flexibility Score: inf
ROOT
ATOM      1  C   UNL     1      37.958   6.753  37.079  1.00  0.00     0.000 C 
ENDROOT
BRANCH   1   2
ATOM      2  C   UNL     1      39.090   5.714  37.025  1.00  0.00     0.000 C 
BRANCH   2   3
ATOM      3  C   UNL     1      38.585   4.294  37.325  1.00  0.00     0.000 C 
BRANCH   3   4
ATOM      4  C   UNL     1      39.716   3.349  37.758  1.00  0.00     0.000 C 
BRANCH   4   5
ATOM      5  C   UNL     1      39.454   1.891  37.333  1.00  0.00     0.000 C 
BRANCH   5   6
ATOM      6  C   UNL     1      39.776   0.880  38.452  1.00  0.00     0.000 C 
BRANCH   6   7
ATOM      7  C   UNL     1      39.113   1.205  39.808  1.00  0.00     0.000 C 
BRANCH   7   8
ATOM      8  C   UNL     1      40.092   1.236  40.999  1.00  0.00     0.000 C 
BRANCH   8   9
ATOM      9  C   UNL     1      41.515   1.655  40.582  1.00  0.00     0.000 C 
BRANCH   9  10
ATOM     10  C   UNL     1      41.836   3.110  40.961  1.00  0.00     0.000 C 
BRANCH  10  11
ATOM     11  C   UNL     1      42.662   3.829  39.881  1.00  0.00     0.000 C 
BRANCH  11  12
ATOM     12  C   UNL     1      42.241   5.295  39.691  1.00  0.00     0.006 C 
BRANCH  12  13
ATOM     13  C   UNL     1      42.994   5.992  38.548  1.00  0.00     0.053 C 
BRANCH  13  14
ATOM     14  C   UNL     1      43.029   7.474  38.760  1.00  0.00     0.041 C 
ATOM     15  O   UNL     1      43.008   8.256  37.772  1.00  0.00    -0.550 OA
ATOM     16  O   UNL     1      43.073   7.995  40.048  1.00  0.00    -0.550 OA
ENDBRANCH  13  14
ENDBRANCH  12  13
ENDBRANCH  11  12
ENDBRANCH  10  11
ENDBRANCH   9  10
ENDBRANCH   8   9
ENDBRANCH   7   8
ENDBRANCH   6   7
ENDBRANCH   5   6
ENDBRANCH   4   5
ENDBRANCH   3   4
ENDBRANCH   2   3
ENDBRANCH   1   2
BRANCH   1  17
ATOM     17  C   UNL     1      36.574   6.095  37.231  1.00  0.00     0.000 C 
BRANCH  17  18
ATOM     18  C   UNL     1      35.747   6.722  38.372  1.00  0.00     0.000 C 
BRANCH  18  19
ATOM     19  C   UNL     1      36.566   7.629  39.308  1.00  0.00     0.000 C 
BRANCH  19  20
ATOM     20  C   UNL     1      36.313   7.336  40.796  1.00  0.00     0.000 C 
BRANCH  20  21
ATOM     21  C   UNL     1      37.618   7.223  41.604  1.00  0.00     0.000 C 
BRANCH  21  22
ATOM     22  C   UNL     1      38.780   6.563  40.827  1.00  0.00    -0.000 C 
BRANCH  22  23
ATOM     23  C   UNL     1      38.752   5.022  40.853  1.00  0.00    -0.000 C 
BRANCH  23  24
ATOM     24  C   UNL     1      38.142   4.406  42.125  1.00  0.00    -0.000 C 
BRANCH  24  25
ATOM     25  C   UNL     1      37.106   3.286  41.881  1.00  0.00    -0.000 C 
BRANCH  25  26
ATOM     26  C   UNL     1      35.866   3.702  41.070  1.00  0.00    -0.000 C 
BRANCH  26  27
ATOM     27  C   UNL     1      35.926   3.243  39.605  1.00  0.00    -0.000 C 
BRANCH  27  28
ATOM     28  C   UNL     1      35.535   1.763  39.482  1.00  0.00    -0.000 C 
BRANCH  28  29
ATOM     29  C   UNL     1      35.820   1.193  38.084  1.00  0.00    -0.003 C 
ATOM     30  C   UNL     1      35.631   2.227  36.973  1.00  0.00     0.004 C 
ENDBRANCH  28  29
ENDBRANCH  27  28
ENDBRANCH  26  27
ENDBRANCH  25  26
ENDBRANCH  24  25
ENDBRANCH  23  24
ENDBRANCH  22  23
ENDBRANCH  21  22
ENDBRANCH  20  21
ENDBRANCH  19  20
ENDBRANCH  18  19
ENDBRANCH  17  18
ENDBRANCH   1  17
TORSDOF 26
ENDMDL
MODEL 4
REMARK VINA RESULT:    -0.602      2.186      5.106
REMARK INTER + INTRA:          -7.548
REMARK INTER:                  -1.766
REMARK INTRA:                  -5.782
REMARK UNBOUND:                -6.031
REMARK SMILES CCCCCCCCCCCCCCCCCCCCCCCCCCCC(=O)[O-]
REMARK SMILES IDX 15 1 16 2 17 3 18 4 19 5 20 6 21 7 22 8 23 9 24 10 25 11
REMARK SMILES IDX 26 12 27 13 28 14 29 15 30 16 14 17 13 18 12 19 11 20 10 21
REMARK SMILES IDX 9 22 8 23 7 24 6 25 5 26 4 27 3 28 2 29 1 30
REMARK H PARENT
REMARK Flexibility Score: inf
ROOT
ATOM      1  C   UNL     1      36.434   5.434  37.858  1.00  0.00     0.000 C 
ENDROOT
BRANCH   1   2
ATOM      2  C   UNL     1      36.088   3.975  37.518  1.00  0.00     0.000 C 
BRANCH   2   3
ATOM      3  C   UNL     1      36.663   3.548  36.158  1.00  0.00     0.000 C 
BRANCH   3   4
ATOM      4  C   UNL     1      37.001   4.747  35.261  1.00  0.00     0.000 C 
BRANCH   4   5
ATOM      5  C   UNL     1      38.400   4.625  34.624  1.00  0.00     0.000 C 
BRANCH   5   6
ATOM      6  C   UNL     1      39.196   5.944  34.682  1.00  0.00     0.000 C 
BRANCH   6   7
ATOM      7  C   UNL     1      38.614   6.991  35.657  1.00  0.00     0.000 C 
BRANCH   7   8
ATOM      8  C   UNL     1      39.484   7.243  36.906  1.00  0.00     0.000 C 
BRANCH   8   9
ATOM      9  C   UNL     1      40.527   6.132  37.131  1.00  0.00     0.000 C 
BRANCH   9  10
ATOM     10  C   UNL     1      40.020   5.030  38.076  1.00  0.00     0.000 C 
BRANCH  10  11
ATOM     11  C   UNL     1      40.783   3.707  37.897  1.00  0.00     0.000 C 
BRANCH  11  12
ATOM     12  C   UNL     1      40.519   2.711  39.038  1.00  0.00     0.006 C 
BRANCH  12  13
ATOM     13  C   UNL     1      41.630   2.709  40.099  1.00  0.00     0.053 C 
BRANCH  13  14
ATOM     14  C   UNL     1      41.492   1.529  41.010  1.00  0.00     0.041 C 
ATOM     15  O   UNL     1      40.353   1.053  41.264  1.00  0.00    -0.550 OA
ATOM     16  O   UNL     1      42.622   0.943  41.571  1.00  0.00    -0.550 OA
ENDBRANCH  13  14
ENDBRANCH  12  13
ENDBRANCH  11  12
ENDBRANCH  10  11
ENDBRANCH   9  10
ENDBRANCH   8   9
ENDBRANCH   7   8
ENDBRANCH   6   7
ENDBRANCH   5   6
ENDBRANCH   4   5
ENDBRANCH   3   4
ENDBRANCH   2   3
ENDBRANCH   1   2
BRANCH   1  17
ATOM     17  C   UNL     1      35.195   6.235  38.302  1.00  0.00     0.000 C 
BRANCH  17  18
ATOM     18  C   UNL     1      34.462   5.575  39.488  1.00  0.00     0.000 C 
BRANCH  18  19
ATOM     19  C   UNL     1      34.557   6.374  40.800  1.00  0.00     0.000 C 
BRANCH  19  20
ATOM     20  C   UNL     1      34.647   5.474  42.043  1.00  0.00     0.000 C 
BRANCH  20  21
ATOM     21  C   UNL     1      34.173   4.036  41.766  1.00  0.00     0.000 C 
BRANCH  21  22
ATOM     22  C   UNL     1      35.216   2.953  42.124  1.00  0.00    -0.000 C 
BRANCH  22  23
ATOM     23  C   UNL     1      35.997   2.414  40.909  1.00  0.00    -0.000 C 
BRANCH  23  24
ATOM     24  C   UNL     1      37.447   2.920  40.794  1.00  0.00    -0.000 C 
BRANCH  24  25
ATOM     25  C   UNL     1      37.942   3.775  41.981  1.00  0.00    -0.000 C 
BRANCH  25  26
ATOM     26  C   UNL     1      38.989   4.847  41.627  1.00  0.00    -0.000 C 
BRANCH  26  27
ATOM     27  C   UNL     1      38.472   6.279  41.824  1.00  0.00    -0.000 C 
BRANCH  27  28
ATOM     28  C   UNL     1      38.213   6.956  40.469  1.00  0.00    -0.000 C 
BRANCH  28  29
ATOM     29  C   UNL     1      38.200   8.490  40.570  1.00  0.00    -0.003 C 
ATOM     30  C   UNL     1      36.919   9.108  40.009  1.00  0.00     0.004 C 
ENDBRANCH  28  29
ENDBRANCH  27  28
ENDBRANCH  26  27
ENDBRANCH  25  26
ENDBRANCH  24  25
ENDBRANCH  23  24
ENDBRANCH  22  23
ENDBRANCH  21  22
ENDBRANCH  20  21
ENDBRANCH  19  20
ENDBRANCH  18  19
ENDBRANCH  17  18
ENDBRANCH   1  17
TORSDOF 26
ENDMDL
MODEL 5
REMARK VINA RESULT:    -0.599      2.878      5.405
REMARK INTER + INTRA:          -7.540
REMARK INTER:                  -1.675
REMARK INTRA:                  -5.865
REMARK UNBOUND:                -6.031
REMARK SMILES CCCCCCCCCCCCCCCCCCCCCCCCCCCC(=O)[O-]
REMARK SMILES IDX 15 1 16 2 17 3 18 4 19 5 20 6 21 7 22 8 23 9 24 10 25 11
REMARK SMILES IDX 26 12 27 13 28 14 29 15 30 16 14 17 13 18 12 19 11 20 10 21
REMARK SMILES IDX 9 22 8 23 7 24 6 25 5 26 4 27 3 28 2 29 1 30
REMARK H PARENT
REMARK Flexibility Score: inf
ROOT
ATOM      1  C   UNL     1      42.144   4.372  38.297  1.00  0.00     0.000 C 
ENDROOT
BRANCH   1   2
ATOM      2  C   UNL     1      42.908   3.669  39.431  1.00  0.00     0.000 C 
BRANCH   2   3
ATOM      3  C   UNL     1      41.980   3.268  40.589  1.00  0.00     0.000 C 
BRANCH   3   4
ATOM      4  C   UNL     1      41.233   1.955  40.315  1.00  0.00     0.000 C 
BRANCH   4   5
ATOM      5  C   UNL     1      39.821   1.945  40.933  1.00  0.00     0.000 C 
BRANCH   5   6
ATOM      6  C   UNL     1      39.408   3.322  41.490  1.00  0.00     0.000 C 
BRANCH   6   7
ATOM      7  C   UNL     1      37.923   3.419  41.903  1.00  0.00     0.000 C 
BRANCH   7   8
ATOM      8  C   UNL     1      37.148   2.090  41.791  1.00  0.00     0.000 C 
BRANCH   8   9
ATOM      9  C   UNL     1      35.653   2.249  42.125  1.00  0.00     0.000 C 
BRANCH   9  10
ATOM     10  C   UNL     1      34.743   1.907  40.934  1.00  0.00     0.000 C 
BRANCH  10  11
ATOM     11  C   UNL     1      33.809   3.069  40.556  1.00  0.00     0.000 C 
BRANCH  11  12
ATOM     12  C   UNL     1      34.095   4.346  41.362  1.00  0.00     0.006 C 
BRANCH  12  13
ATOM     13  C   UNL     1      32.835   4.942  42.007  1.00  0.00     0.053 C 
BRANCH  13  14
ATOM     14  C   UNL     1      32.528   6.288  41.426  1.00  0.00     0.041 C 
ATOM     15  O   UNL     1      32.986   6.612  40.298  1.00  0.00    -0.550 OA
ATOM     16  O   UNL     1      31.724   7.183  42.124  1.00  0.00    -0.550 OA
ENDBRANCH  13  14
ENDBRANCH  12  13
ENDBRANCH  11  12
ENDBRANCH  10  11
ENDBRANCH   9  10
ENDBRANCH   8   9
ENDBRANCH   7   8
ENDBRANCH   6   7
ENDBRANCH   5   6
ENDBRANCH   4   5
ENDBRANCH   3   4
ENDBRANCH   2   3
ENDBRANCH   1   2
BRANCH   1  17
ATOM     17  C   UNL     1      41.128   5.399  38.831  1.00  0.00     0.000 C 
BRANCH  17  18
ATOM     18  C   UNL     1      39.705   5.154  38.290  1.00  0.00     0.000 C 
BRANCH  18  19
ATOM     19  C   UNL     1      39.621   4.024  37.248  1.00  0.00     0.000 C 
BRANCH  19  20
ATOM     20  C   UNL     1      38.522   2.997  37.567  1.00  0.00     0.000 C 
BRANCH  20  21
ATOM     21  C   UNL     1      37.378   3.598  38.403  1.00  0.00     0.000 C 
BRANCH  21  22
ATOM     22  C   UNL     1      36.116   3.941  37.581  1.00  0.00    -0.000 C 
BRANCH  22  23
ATOM     23  C   UNL     1      35.428   5.251  38.012  1.00  0.00    -0.000 C 
BRANCH  23  24
ATOM     24  C   UNL     1      36.350   6.484  38.056  1.00  0.00    -0.000 C 
BRANCH  24  25
ATOM     25  C   UNL     1      36.305   7.292  39.371  1.00  0.00    -0.000 C 
BRANCH  25  26
ATOM     26  C   UNL     1      36.941   6.599  40.590  1.00  0.00    -0.000 C 
BRANCH  26  27
ATOM     27  C   UNL     1      38.340   7.136  40.924  1.00  0.00    -0.000 C 
BRANCH  27  28
ATOM     28  C   UNL     1      38.523   8.559  40.375  1.00  0.00    -0.000 C 
BRANCH  28  29
ATOM     29  C   UNL     1      39.917   8.782  39.769  1.00  0.00    -0.003 C 
ATOM     30  C   UNL     1      39.891   8.876  38.243  1.00  0.00     0.004 C 
ENDBRANCH  28  29
ENDBRANCH  27  28
ENDBRANCH  26  27
ENDBRANCH  25  26
ENDBRANCH  24  25
ENDBRANCH  23  24
ENDBRANCH  22  23
ENDBRANCH  21  22
ENDBRANCH  20  21
ENDBRANCH  19  20
ENDBRANCH  18  19
ENDBRANCH  17  18
ENDBRANCH   1  17
TORSDOF 26
ENDMDL
MODEL 6
REMARK VINA RESULT:    -0.592      2.771      5.669
REMARK INTER + INTRA:          -7.523
REMARK INTER:                  -1.582
REMARK INTRA:                  -5.941
REMARK UNBOUND:                -6.031
REMARK SMILES CCCCCCCCCCCCCCCCCCCCCCCCCCCC(=O)[O-]
REMARK SMILES IDX 15 1 16 2 17 3 18 4 19 5 20 6 21 7 22 8 23 9 24 10 25 11
REMARK SMILES IDX 26 12 27 13 28 14 29 15 30 16 14 17 13 18 12 19 11 20 10 21
REMARK SMILES IDX 9 22 8 23 7 24 6 25 5 26 4 27 3 28 2 29 1 30
REMARK H PARENT
REMARK Flexibility Score: inf
ROOT
ATOM      1  C   UNL     1      37.007   5.418  35.244  1.00  0.00     0.000 C 
ENDROOT
BRANCH   1   2
ATOM      2  C   UNL     1      36.868   6.686  36.102  1.00  0.00     0.000 C 
BRANCH   2   3
ATOM      3  C   UNL     1      36.263   6.386  37.482  1.00  0.00     0.000 C 
BRANCH   3   4
ATOM      4  C   UNL     1      37.308   6.440  38.606  1.00  0.00     0.000 C 
BRANCH   4   5
ATOM      5  C   UNL     1      37.120   5.307  39.635  1.00  0.00     0.000 C 
BRANCH   5   6
ATOM      6  C   UNL     1      37.038   5.829  41.083  1.00  0.00     0.000 C 
BRANCH   6   7
ATOM      7  C   UNL     1      36.670   4.750  42.125  1.00  0.00     0.000 C 
BRANCH   7   8
ATOM      8  C   UNL     1      37.380   3.397  41.911  1.00  0.00     0.000 C 
BRANCH   8   9
ATOM      9  C   UNL     1      36.424   2.199  42.063  1.00  0.00     0.000 C 
BRANCH   9  10
ATOM     10  C   UNL     1      34.997   2.519  41.586  1.00  0.00     0.000 C 
BRANCH  10  11
ATOM     11  C   UNL     1      34.800   2.229  40.089  1.00  0.00     0.000 C 
BRANCH  11  12
ATOM     12  C   UNL     1      34.184   3.416  39.331  1.00  0.00     0.006 C 
BRANCH  12  13
ATOM     13  C   UNL     1      33.430   4.387  40.251  1.00  0.00     0.053 C 
BRANCH  13  14
ATOM     14  C   UNL     1      33.318   5.740  39.617  1.00  0.00     0.041 C 
ATOM     15  O   UNL     1      32.811   5.863  38.470  1.00  0.00    -0.550 OA
ATOM     16  O   UNL     1      33.760   6.869  40.298  1.00  0.00    -0.550 OA
ENDBRANCH  13  14
ENDBRANCH  12  13
ENDBRANCH  11  12
ENDBRANCH  10  11
ENDBRANCH   9  10
ENDBRANCH   8   9
ENDBRANCH   7   8
ENDBRANCH   6   7
ENDBRANCH   5   6
ENDBRANCH   4   5
ENDBRANCH   3   4
ENDBRANCH   2   3
ENDBRANCH   1   2
BRANCH   1  17
ATOM     17  C   UNL     1      36.063   4.294  35.713  1.00  0.00     0.000 C 
BRANCH  17  18
ATOM     18  C   UNL     1      36.818   2.988  36.034  1.00  0.00     0.000 C 
BRANCH  18  19
ATOM     19  C   UNL     1      38.113   3.200  36.837  1.00  0.00     0.000 C 
BRANCH  19  20
ATOM     20  C   UNL     1      38.690   1.889  37.398  1.00  0.00     0.000 C 
BRANCH  20  21
ATOM     21  C   UNL     1      38.041   1.482  38.732  1.00  0.00     0.000 C 
BRANCH  21  22
ATOM     22  C   UNL     1      39.038   0.905  39.762  1.00  0.00    -0.000 C 
BRANCH  22  23
ATOM     23  C   UNL     1      40.494   1.362  39.545  1.00  0.00    -0.000 C 
BRANCH  23  24
ATOM     24  C   UNL     1      41.204   1.888  40.806  1.00  0.00    -0.000 C 
BRANCH  24  25
ATOM     25  C   UNL     1      41.474   3.409  40.824  1.00  0.00    -0.000 C 
BRANCH  25  26
ATOM     26  C   UNL     1      40.440   4.268  40.075  1.00  0.00    -0.000 C 
BRANCH  26  27
ATOM     27  C   UNL     1      41.079   5.398  39.254  1.00  0.00    -0.000 C 
BRANCH  27  28
ATOM     28  C   UNL     1      41.291   4.960  37.797  1.00  0.00    -0.000 C 
BRANCH  28  29
ATOM     29  C   UNL     1      40.473   5.801  36.804  1.00  0.00    -0.003 C 
ATOM     30  C   UNL     1      41.343   6.474  35.742  1.00  0.00     0.004 C 
ENDBRANCH  28  29
ENDBRANCH  27  28
ENDBRANCH  26  27
ENDBRANCH  25  26
ENDBRANCH  24  25
ENDBRANCH  23  24
ENDBRANCH  22  23
ENDBRANCH  21  22
ENDBRANCH  20  21
ENDBRANCH  19  20
ENDBRANCH  18  19
ENDBRANCH  17  18
ENDBRANCH   1  17
TORSDOF 26
ENDMDL
MODEL 7
REMARK VINA RESULT:    -0.571      2.262      5.331
REMARK INTER + INTRA:          -7.470
REMARK INTER:                  -1.482
REMARK INTRA:                  -5.987
REMARK UNBOUND:                -6.031
REMARK SMILES CCCCCCCCCCCCCCCCCCCCCCCCCCCC(=O)[O-]
REMARK SMILES IDX 15 1 16 2 17 3 18 4 19 5 20 6 21 7 22 8 23 9 24 10 25 11
REMARK SMILES IDX 26 12 27 13 28 14 29 15 30 16 14 17 13 18 12 19 11 20 10 21
REMARK SMILES IDX 9 22 8 23 7 24 6 25 5 26 4 27 3 28 2 29 1 30
REMARK H PARENT
REMARK Flexibility Score: inf
ROOT
ATOM      1  C   UNL     1      35.058   6.576  37.183  1.00  0.00     0.000 C 
ENDROOT
BRANCH   1   2
ATOM      2  C   UNL     1      35.789   5.492  37.991  1.00  0.00     0.000 C 
BRANCH   2   3
ATOM      3  C   UNL     1      37.291   5.786  38.125  1.00  0.00     0.000 C 
BRANCH   3   4
ATOM      4  C   UNL     1      37.872   5.277  39.453  1.00  0.00     0.000 C 
BRANCH   4   5
ATOM      5  C   UNL     1      37.071   4.090  40.025  1.00  0.00     0.000 C 
BRANCH   5   6
ATOM      6  C   UNL     1      37.352   3.852  41.522  1.00  0.00     0.000 C 
BRANCH   6   7
ATOM      7  C   UNL     1      36.656   2.603  42.105  1.00  0.00     0.000 C 
BRANCH   7   8
ATOM      8  C   UNL     1      36.932   1.303  41.323  1.00  0.00     0.000 C 
BRANCH   8   9
ATOM      9  C   UNL     1      38.431   0.952  41.272  1.00  0.00     0.000 C 
BRANCH   9  10
ATOM     10  C   UNL     1      38.970   0.875  39.834  1.00  0.00     0.000 C 
BRANCH  10  11
ATOM     11  C   UNL     1      40.077   1.907  39.566  1.00  0.00     0.000 C 
BRANCH  11  12
ATOM     12  C   UNL     1      40.754   2.399  40.855  1.00  0.00     0.006 C 
BRANCH  12  13
ATOM     13  C   UNL     1      41.033   3.909  40.847  1.00  0.00     0.053 C 
BRANCH  13  14
ATOM     14  C   UNL     1      42.435   4.194  41.291  1.00  0.00     0.041 C 
ATOM     15  O   UNL     1      42.827   5.384  41.430  1.00  0.00    -0.550 OA
ATOM     16  O   UNL     1      43.307   3.146  41.565  1.00  0.00    -0.550 OA
ENDBRANCH  13  14
ENDBRANCH  12  13
ENDBRANCH  11  12
ENDBRANCH  10  11
ENDBRANCH   9  10
ENDBRANCH   8   9
ENDBRANCH   7   8
ENDBRANCH   6   7
ENDBRANCH   5   6
ENDBRANCH   4   5
ENDBRANCH   3   4
ENDBRANCH   2   3
ENDBRANCH   1   2
BRANCH   1  17
ATOM     17  C   UNL     1      33.995   7.309  38.024  1.00  0.00     0.000 C 
BRANCH  17  18
ATOM     18  C   UNL     1      34.444   7.522  39.484  1.00  0.00     0.000 C 
BRANCH  18  19
ATOM     19  C   UNL     1      33.417   7.047  40.527  1.00  0.00     0.000 C 
BRANCH  19  20
ATOM     20  C   UNL     1      33.998   6.025  41.517  1.00  0.00     0.000 C 
BRANCH  20  21
ATOM     21  C   UNL     1      33.652   4.574  41.138  1.00  0.00     0.000 C 
BRANCH  21  22
ATOM     22  C   UNL     1      32.611   4.456  40.001  1.00  0.00    -0.000 C 
BRANCH  22  23
ATOM     23  C   UNL     1      32.938   3.361  38.967  1.00  0.00    -0.000 C 
BRANCH  23  24
ATOM     24  C   UNL     1      33.894   2.262  39.467  1.00  0.00    -0.000 C 
BRANCH  24  25
ATOM     25  C   UNL     1      34.334   1.238  38.398  1.00  0.00    -0.000 C 
BRANCH  25  26
ATOM     26  C   UNL     1      35.785   1.386  37.903  1.00  0.00    -0.000 C 
BRANCH  26  27
ATOM     27  C   UNL     1      35.889   2.133  36.566  1.00  0.00    -0.000 C 
BRANCH  27  28
ATOM     28  C   UNL     1      37.220   1.818  35.867  1.00  0.00    -0.000 C 
BRANCH  28  29
ATOM     29  C   UNL     1      38.388   2.647  36.423  1.00  0.00    -0.003 C 
ATOM     30  C   UNL     1      38.795   3.792  35.495  1.00  0.00     0.004 C 
ENDBRANCH  28  29
ENDBRANCH  27  28
ENDBRANCH  26  27
ENDBRANCH  25  26
ENDBRANCH  24  25
ENDBRANCH  23  24
ENDBRANCH  22  23
ENDBRANCH  21  22
ENDBRANCH  20  21
ENDBRANCH  19  20
ENDBRANCH  18  19
ENDBRANCH  17  18
ENDBRANCH   1  17
TORSDOF 26
ENDMDL
MODEL 8
REMARK VINA RESULT:    -0.558      2.503      5.128
REMARK INTER + INTRA:          -7.438
REMARK INTER:                  -1.873
REMARK INTRA:                  -5.565
REMARK UNBOUND:                -6.031
REMARK SMILES CCCCCCCCCCCCCCCCCCCCCCCCCCCC(=O)[O-]
REMARK SMILES IDX 15 1 16 2 17 3 18 4 19 5 20 6 21 7 22 8 23 9 24 10 25 11
REMARK SMILES IDX 26 12 27 13 28 14 29 15 30 16 14 17 13 18 12 19 11 20 10 21
REMARK SMILES IDX 9 22 8 23 7 24 6 25 5 26 4 27 3 28 2 29 1 30
REMARK H PARENT
REMARK Flexibility Score: inf
ROOT
ATOM      1  C   UNL     1      37.783   4.099  37.456  1.00  0.00     0.000 C 
ENDROOT
BRANCH   1   2
ATOM      2  C   UNL     1      38.677   2.851  37.533  1.00  0.00     0.000 C 
BRANCH   2   3
ATOM      3  C   UNL     1      39.608   2.883  38.755  1.00  0.00     0.000 C 
BRANCH   3   4
ATOM      4  C   UNL     1      39.997   1.476  39.234  1.00  0.00     0.000 C 
BRANCH   4   5
ATOM      5  C   UNL     1      40.324   1.441  40.740  1.00  0.00     0.000 C 
BRANCH   5   6
ATOM      6  C   UNL     1      41.730   0.877  41.028  1.00  0.00     0.000 C 
BRANCH   6   7
ATOM      7  C   UNL     1      42.829   1.402  40.079  1.00  0.00     0.000 C 
BRANCH   7   8
ATOM      8  C   UNL     1      43.928   2.226  40.780  1.00  0.00     0.000 C 
BRANCH   8   9
ATOM      9  C   UNL     1      43.413   2.944  42.041  1.00  0.00     0.000 C 
BRANCH   9  10
ATOM     10  C   UNL     1      43.389   4.473  41.881  1.00  0.00     0.000 C 
BRANCH  10  11
ATOM     11  C   UNL     1      42.285   4.945  40.921  1.00  0.00     0.000 C 
BRANCH  11  12
ATOM     12  C   UNL     1      42.845   5.599  39.648  1.00  0.00     0.006 C 
BRANCH  12  13
ATOM     13  C   UNL     1      41.804   5.714  38.525  1.00  0.00     0.053 C 
BRANCH  13  14
ATOM     14  C   UNL     1      42.203   4.883  37.344  1.00  0.00     0.041 C 
ATOM     15  O   UNL     1      43.133   4.039  37.448  1.00  0.00    -0.550 OA
ATOM     16  O   UNL     1      41.539   5.029  36.131  1.00  0.00    -0.550 OA
ENDBRANCH  13  14
ENDBRANCH  12  13
ENDBRANCH  11  12
ENDBRANCH  10  11
ENDBRANCH   9  10
ENDBRANCH   8   9
ENDBRANCH   7   8
ENDBRANCH   6   7
ENDBRANCH   5   6
ENDBRANCH   4   5
ENDBRANCH   3   4
ENDBRANCH   2   3
ENDBRANCH   1   2
BRANCH   1  17
ATOM     17  C   UNL     1      36.341   3.810  37.914  1.00  0.00     0.000 C 
BRANCH  17  18
ATOM     18  C   UNL     1      36.035   2.299  37.972  1.00  0.00     0.000 C 
BRANCH  18  19
ATOM     19  C   UNL     1      35.419   1.840  39.305  1.00  0.00     0.000 C 
BRANCH  19  20
ATOM     20  C   UNL     1      36.376   0.973  40.139  1.00  0.00     0.000 C 
BRANCH  20  21
ATOM     21  C   UNL     1      36.659   1.575  41.527  1.00  0.00     0.000 C 
BRANCH  21  22
ATOM     22  C   UNL     1      35.729   2.752  41.899  1.00  0.00    -0.000 C 
BRANCH  22  23
ATOM     23  C   UNL     1      36.470   4.086  42.118  1.00  0.00    -0.000 C 
BRANCH  23  24
ATOM     24  C   UNL     1      38.006   3.984  42.110  1.00  0.00    -0.000 C 
BRANCH  24  25
ATOM     25  C   UNL     1      38.754   5.325  41.943  1.00  0.00    -0.000 C 
BRANCH  25  26
ATOM     26  C   UNL     1      38.717   5.926  40.526  1.00  0.00    -0.000 C 
BRANCH  26  27
ATOM     27  C   UNL     1      38.627   7.459  40.526  1.00  0.00    -0.000 C 
BRANCH  27  28
ATOM     28  C   UNL     1      37.197   7.921  40.846  1.00  0.00    -0.000 C 
BRANCH  28  29
ATOM     29  C   UNL     1      36.253   7.791  39.640  1.00  0.00    -0.003 C 
ATOM     30  C   UNL     1      35.170   6.732  39.849  1.00  0.00     0.004 C 
ENDBRANCH  28  29
ENDBRANCH  27  28
ENDBRANCH  26  27
ENDBRANCH  25  26
ENDBRANCH  24  25
ENDBRANCH  23  24
ENDBRANCH  22  23
ENDBRANCH  21  22
ENDBRANCH  20  21
ENDBRANCH  19  20
ENDBRANCH  18  19
ENDBRANCH  17  18
ENDBRANCH   1  17
TORSDOF 26
ENDMDL
MODEL 9
REMARK VINA RESULT:    -0.538      2.244      4.984
REMARK INTER + INTRA:          -7.388
REMARK INTER:                  -1.148
REMARK INTRA:                  -6.240
REMARK UNBOUND:                -6.031
REMARK SMILES CCCCCCCCCCCCCCCCCCCCCCCCCCCC(=O)[O-]
REMARK SMILES IDX 15 1 16 2 17 3 18 4 19 5 20 6 21 7 22 8 23 9 24 10 25 11
REMARK SMILES IDX 26 12 27 13 28 14 29 15 30 16 14 17 13 18 12 19 11 20 10 21
REMARK SMILES IDX 9 22 8 23 7 24 6 25 5 26 4 27 3 28 2 29 1 30
REMARK H PARENT
REMARK Flexibility Score: inf
ROOT
ATOM      1  C   UNL     1      35.399   6.157  36.808  1.00  0.00     0.000 C 
ENDROOT
BRANCH   1   2
ATOM      2  C   UNL     1      34.296   6.442  37.841  1.00  0.00     0.000 C 
BRANCH   2   3
ATOM      3  C   UNL     1      33.437   5.200  38.126  1.00  0.00     0.000 C 
BRANCH   3   4
ATOM      4  C   UNL     1      32.984   5.124  39.591  1.00  0.00     0.000 C 
BRANCH   4   5
ATOM      5  C   UNL     1      33.041   3.686  40.147  1.00  0.00     0.000 C 
BRANCH   5   6
ATOM      6  C   UNL     1      34.468   3.100  40.128  1.00  0.00     0.000 C 
BRANCH   6   7
ATOM      7  C   UNL     1      35.095   2.917  41.527  1.00  0.00     0.000 C 
BRANCH   7   8
ATOM      8  C   UNL     1      36.223   3.918  41.850  1.00  0.00     0.000 C 
BRANCH   8   9
ATOM      9  C   UNL     1      35.691   5.337  42.125  1.00  0.00     0.000 C 
BRANCH   9  10
ATOM     10  C   UNL     1      36.222   6.372  41.119  1.00  0.00     0.000 C 
BRANCH  10  11
ATOM     11  C   UNL     1      37.291   5.785  40.183  1.00  0.00     0.000 C 
BRANCH  11  12
ATOM     12  C   UNL     1      38.013   6.862  39.357  1.00  0.00     0.006 C 
BRANCH  12  13
ATOM     13  C   UNL     1      37.261   8.201  39.334  1.00  0.00     0.053 C 
BRANCH  13  14
ATOM     14  C   UNL     1      38.125   9.305  39.863  1.00  0.00     0.041 C 
ATOM     15  O   UNL     1      39.267   9.048  40.329  1.00  0.00    -0.550 OA
ATOM     16  O   UNL     1      37.676  10.620  39.829  1.00  0.00    -0.550 OA
ENDBRANCH  13  14
ENDBRANCH  12  13
ENDBRANCH  11  12
ENDBRANCH  10  11
ENDBRANCH   9  10
ENDBRANCH   8   9
ENDBRANCH   7   8
ENDBRANCH   6   7
ENDBRANCH   5   6
ENDBRANCH   4   5
ENDBRANCH   3   4
ENDBRANCH   2   3
ENDBRANCH   1   2
BRANCH   1  17
ATOM     17  C   UNL     1      35.883   4.696  36.866  1.00  0.00     0.000 C 
BRANCH  17  18
ATOM     18  C   UNL     1      37.155   4.465  36.024  1.00  0.00     0.000 C 
BRANCH  18  19
ATOM     19  C   UNL     1      37.768   5.756  35.456  1.00  0.00     0.000 C 
BRANCH  19  20
ATOM     20  C   UNL     1      39.168   6.052  36.018  1.00  0.00     0.000 C 
BRANCH  20  21
ATOM     21  C   UNL     1      39.699   4.913  36.907  1.00  0.00     0.000 C 
BRANCH  21  22
ATOM     22  C   UNL     1      41.089   4.386  36.485  1.00  0.00    -0.000 C 
BRANCH  22  23
ATOM     23  C   UNL     1      41.202   2.849  36.494  1.00  0.00    -0.000 C 
BRANCH  23  24
ATOM     24  C   UNL     1      39.904   2.101  36.138  1.00  0.00    -0.000 C 
BRANCH  24  25
ATOM     25  C   UNL     1      39.413   1.093  37.200  1.00  0.00    -0.000 C 
BRANCH  25  26
ATOM     26  C   UNL     1      37.985   1.333  37.722  1.00  0.00    -0.000 C 
BRANCH  26  27
ATOM     27  C   UNL     1      37.941   2.261  38.946  1.00  0.00    -0.000 C 
BRANCH  27  28
ATOM     28  C   UNL     1      38.362   1.506  40.217  1.00  0.00    -0.000 C 
BRANCH  28  29
ATOM     29  C   UNL     1      39.393   2.284  41.049  1.00  0.00    -0.003 C 
ATOM     30  C   UNL     1      40.130   3.348  40.235  1.00  0.00     0.004 C 
ENDBRANCH  28  29
ENDBRANCH  27  28
ENDBRANCH  26  27
ENDBRANCH  25  26
ENDBRANCH  24  25
ENDBRANCH  23  24
ENDBRANCH  22  23
ENDBRANCH  21  22
ENDBRANCH  20  21
ENDBRANCH  19  20
ENDBRANCH  18  19
ENDBRANCH  17  18
ENDBRANCH   1  17
TORSDOF 26
ENDMDL
