MODEL 1
REMARK VINA RESULT:    -5.984      0.000      0.000
REMARK INTER + INTRA:         -11.783
REMARK INTER:                 -10.881
REMARK INTRA:                  -0.903
REMARK UNBOUND:                -0.903
REMARK SMILES CCCCCCCCCCCCCC[C@H](C)C(=O)[O-]
REMARK SMILES IDX 9 1 10 2 11 3 12 4 13 5 14 6 15 7 16 8 17 9 18 10 19 11 8 12
REMARK SMILES IDX 7 13 6 14 5 15 4 16 3 17 2 18 1 19
REMARK H PARENT
REMARK Flexibility Score: inf
ROOT
ATOM      1  C   UNL     1     104.217 312.324 195.628  1.00  0.00     0.000 C 
ENDROOT
BRANCH   1   2
ATOM      2  C   UNL     1     104.263 311.486 196.914  1.00  0.00     0.000 C 
BRANCH   2   3
ATOM      3  C   UNL     1     103.852 312.283 198.166  1.00  0.00     0.000 C 
BRANCH   3   4
ATOM      4  C   UNL     1     103.124 311.467 199.249  1.00  0.00     0.000 C 
BRANCH   4   5
ATOM      5  C   UNL     1     102.958 312.236 200.569  1.00  0.00     0.001 C 
BRANCH   5   6
ATOM      6  C   UNL     1     104.085 311.888 201.555  1.00  0.00     0.009 C 
BRANCH   6   7
ATOM      7  C   UNL     1     103.599 311.016 202.732  1.00  0.00     0.032 C 
ATOM      8  C   UNL     1     102.087 310.755 202.679  1.00  0.00     0.014 C 
BRANCH   7   9
ATOM      9  C   UNL     1     103.948 311.683 204.035  1.00  0.00     0.044 C 
ATOM     10  O   UNL     1     103.893 312.937 204.138  1.00  0.00    -0.550 OA
ATOM     11  O   UNL     1     104.331 310.921 205.132  1.00  0.00    -0.550 OA
ENDBRANCH   7   9
ENDBRANCH   6   7
ENDBRANCH   5   6
ENDBRANCH   4   5
ENDBRANCH   3   4
ENDBRANCH   2   3
ENDBRANCH   1   2
BRANCH   1  12
ATOM     12  C   UNL     1     103.311 311.668 194.578  1.00  0.00     0.000 C 
BRANCH  12  13
ATOM     13  C   UNL     1     104.083 311.382 193.285  1.00  0.00    -0.000 C 
BRANCH  13  14
ATOM     14  C   UNL     1     105.586 311.608 193.479  1.00  0.00    -0.000 C 
BRANCH  14  15
ATOM     15  C   UNL     1     106.125 312.629 192.466  1.00  0.00    -0.000 C 
BRANCH  15  16
ATOM     16  C   UNL     1     105.553 314.039 192.685  1.00  0.00    -0.000 C 
BRANCH  16  17
ATOM     17  C   UNL     1     105.125 314.714 191.372  1.00  0.00    -0.000 C 
BRANCH  17  18
ATOM     18  C   UNL     1     104.003 313.923 190.690  1.00  0.00    -0.003 C 
ATOM     19  C   UNL     1     103.457 314.674 189.479  1.00  0.00     0.004 C 
ENDBRANCH  17  18
ENDBRANCH  16  17
ENDBRANCH  15  16
ENDBRANCH  14  15
ENDBRANCH  13  14
ENDBRANCH  12  13
ENDBRANCH   1  12
TORSDOF 14
ENDMDL
MODEL 2
REMARK VINA RESULT:    -5.962      1.155      1.926
REMARK INTER + INTRA:         -11.745
REMARK INTER:                 -11.063
REMARK INTRA:                  -0.682
REMARK UNBOUND:                -0.903
REMARK SMILES CCCCCCCCCCCCCC[C@H](C)C(=O)[O-]
REMARK SMILES IDX 9 1 10 2 11 3 12 4 13 5 14 6 15 7 16 8 17 9 18 10 19 11 8 12
REMARK SMILES IDX 7 13 6 14 5 15 4 16 3 17 2 18 1 19
REMARK H PARENT
REMARK Flexibility Score: inf
ROOT
ATOM      1  C   UNL     1     103.903 312.849 196.966  1.00  0.00     0.000 C 
ENDROOT
BRANCH   1   2
ATOM      2  C   UNL     1     103.851 311.719 198.004  1.00  0.00     0.000 C 
BRANCH   2   3
ATOM      3  C   UNL     1     103.353 312.191 199.382  1.00  0.00     0.000 C 
BRANCH   3   4
ATOM      4  C   UNL     1     104.158 311.661 200.583  1.00  0.00     0.000 C 
BRANCH   4   5
ATOM      5  C   UNL     1     103.290 311.420 201.828  1.00  0.00     0.001 C 
BRANCH   5   6
ATOM      6  C   UNL     1     104.151 310.978 203.022  1.00  0.00     0.009 C 
BRANCH   6   7
ATOM      7  C   UNL     1     103.986 311.899 204.250  1.00  0.00     0.032 C 
ATOM      8  C   UNL     1     105.334 312.289 204.872  1.00  0.00     0.014 C 
BRANCH   7   9
ATOM      9  C   UNL     1     103.134 311.217 205.285  1.00  0.00     0.044 C 
ATOM     10  O   UNL     1     103.302 311.466 206.508  1.00  0.00    -0.550 OA
ATOM     11  O   UNL     1     102.155 310.308 204.899  1.00  0.00    -0.550 OA
ENDBRANCH   7   9
ENDBRANCH   6   7
ENDBRANCH   5   6
ENDBRANCH   4   5
ENDBRANCH   3   4
ENDBRANCH   2   3
ENDBRANCH   1   2
BRANCH   1  12
ATOM     12  C   UNL     1     104.506 312.354 195.645  1.00  0.00     0.000 C 
BRANCH  12  13
ATOM     13  C   UNL     1     103.451 311.640 194.792  1.00  0.00    -0.000 C 
BRANCH  13  14
ATOM     14  C   UNL     1     103.954 311.423 193.360  1.00  0.00    -0.000 C 
BRANCH  14  15
ATOM     15  C   UNL     1     105.383 311.960 193.193  1.00  0.00    -0.000 C 
BRANCH  15  16
ATOM     16  C   UNL     1     105.481 313.064 192.128  1.00  0.00    -0.000 C 
BRANCH  16  17
ATOM     17  C   UNL     1     104.117 313.417 191.515  1.00  0.00    -0.000 C 
BRANCH  17  18
ATOM     18  C   UNL     1     104.269 314.468 190.409  1.00  0.00    -0.003 C 
ATOM     19  C   UNL     1     105.723 314.906 190.260  1.00  0.00     0.004 C 
ENDBRANCH  17  18
ENDBRANCH  16  17
ENDBRANCH  15  16
ENDBRANCH  14  15
ENDBRANCH  13  14
ENDBRANCH  12  13
ENDBRANCH   1  12
TORSDOF 14
ENDMDL
MODEL 3
REMARK VINA RESULT:    -5.949     20.147     20.920
REMARK INTER + INTRA:         -11.720
REMARK INTER:                 -10.824
REMARK INTRA:                  -0.896
REMARK UNBOUND:                -0.903
REMARK SMILES CCCCCCCCCCCCCC[C@H](C)C(=O)[O-]
REMARK SMILES IDX 9 1 10 2 11 3 12 4 13 5 14 6 15 7 16 8 17 9 18 10 19 11 8 12
REMARK SMILES IDX 7 13 6 14 5 15 4 16 3 17 2 18 1 19
REMARK H PARENT
REMARK Flexibility Score: inf
ROOT
ATOM      1  C   UNL     1      88.539 325.631 197.885  1.00  0.00     0.000 C 
ENDROOT
BRANCH   1   2
ATOM      2  C   UNL     1      89.066 326.793 198.738  1.00  0.00     0.000 C 
BRANCH   2   3
ATOM      3  C   UNL     1      89.571 326.344 200.121  1.00  0.00     0.000 C 
BRANCH   3   4
ATOM      4  C   UNL     1      88.473 326.134 201.180  1.00  0.00     0.000 C 
BRANCH   4   5
ATOM      5  C   UNL     1      88.709 324.891 202.051  1.00  0.00     0.001 C 
BRANCH   5   6
ATOM      6  C   UNL     1      89.589 325.229 203.266  1.00  0.00     0.009 C 
BRANCH   6   7
ATOM      7  C   UNL     1      89.244 326.599 203.889  1.00  0.00     0.032 C 
ATOM      8  C   UNL     1      90.412 327.590 203.800  1.00  0.00     0.014 C 
BRANCH   7   9
ATOM      9  C   UNL     1      88.850 326.415 205.329  1.00  0.00     0.044 C 
ATOM     10  O   UNL     1      89.571 326.886 206.248  1.00  0.00    -0.550 OA
ATOM     11  O   UNL     1      87.686 325.728 205.656  1.00  0.00    -0.550 OA
ENDBRANCH   7   9
ENDBRANCH   6   7
ENDBRANCH   5   6
ENDBRANCH   4   5
ENDBRANCH   3   4
ENDBRANCH   2   3
ENDBRANCH   1   2
BRANCH   1  12
ATOM     12  C   UNL     1      87.895 326.147 196.592  1.00  0.00     0.000 C 
BRANCH  12  13
ATOM     13  C   UNL     1      88.954 326.402 195.512  1.00  0.00    -0.000 C 
BRANCH  13  14
ATOM     14  C   UNL     1      88.301 326.657 194.149  1.00  0.00    -0.000 C 
BRANCH  14  15
ATOM     15  C   UNL     1      86.849 326.156 194.132  1.00  0.00    -0.000 C 
BRANCH  15  16
ATOM     16  C   UNL     1      86.661 324.915 193.246  1.00  0.00    -0.000 C 
BRANCH  16  17
ATOM     17  C   UNL     1      87.901 324.602 192.394  1.00  0.00    -0.000 C 
BRANCH  17  18
ATOM     18  C   UNL     1      87.556 323.627 191.262  1.00  0.00    -0.003 C 
ATOM     19  C   UNL     1      86.126 323.112 191.394  1.00  0.00     0.004 C 
ENDBRANCH  17  18
ENDBRANCH  16  17
ENDBRANCH  15  16
ENDBRANCH  14  15
ENDBRANCH  13  14
ENDBRANCH  12  13
ENDBRANCH   1  12
TORSDOF 14
ENDMDL
MODEL 4
REMARK VINA RESULT:    -5.945     20.023     20.902
REMARK INTER + INTRA:         -11.713
REMARK INTER:                 -10.765
REMARK INTRA:                  -0.948
REMARK UNBOUND:                -0.903
REMARK SMILES CCCCCCCCCCCCCC[C@H](C)C(=O)[O-]
REMARK SMILES IDX 9 1 10 2 11 3 12 4 13 5 14 6 15 7 16 8 17 9 18 10 19 11 8 12
REMARK SMILES IDX 7 13 6 14 5 15 4 16 3 17 2 18 1 19
REMARK H PARENT
REMARK Flexibility Score: inf
ROOT
ATOM      1  C   UNL     1      88.068 326.044 196.569  1.00  0.00     0.000 C 
ENDROOT
BRANCH   1   2
ATOM      2  C   UNL     1      88.828 326.603 197.781  1.00  0.00     0.000 C 
BRANCH   2   3
ATOM      3  C   UNL     1      88.871 325.623 198.968  1.00  0.00     0.000 C 
BRANCH   3   4
ATOM      4  C   UNL     1      89.479 326.194 200.263  1.00  0.00     0.000 C 
BRANCH   4   5
ATOM      5  C   UNL     1      88.506 326.150 201.451  1.00  0.00     0.001 C 
BRANCH   5   6
ATOM      6  C   UNL     1      89.179 326.670 202.732  1.00  0.00     0.009 C 
BRANCH   6   7
ATOM      7  C   UNL     1      89.176 325.629 203.872  1.00  0.00     0.032 C 
ATOM      8  C   UNL     1      88.162 324.502 203.629  1.00  0.00     0.014 C 
BRANCH   7   9
ATOM      9  C   UNL     1      88.867 326.309 205.178  1.00  0.00     0.044 C 
ATOM     10  O   UNL     1      88.045 325.793 205.982  1.00  0.00    -0.550 OA
ATOM     11  O   UNL     1      89.485 327.510 205.508  1.00  0.00    -0.550 OA
ENDBRANCH   7   9
ENDBRANCH   6   7
ENDBRANCH   5   6
ENDBRANCH   4   5
ENDBRANCH   3   4
ENDBRANCH   2   3
ENDBRANCH   1   2
BRANCH   1  12
ATOM     12  C   UNL     1      88.728 326.486 195.256  1.00  0.00     0.000 C 
BRANCH  12  13
ATOM     13  C   UNL     1      87.672 326.820 194.195  1.00  0.00    -0.000 C 
BRANCH  13  14
ATOM     14  C   UNL     1      86.365 326.064 194.461  1.00  0.00    -0.000 C 
BRANCH  14  15
ATOM     15  C   UNL     1      86.085 325.042 193.349  1.00  0.00    -0.000 C 
BRANCH  15  16
ATOM     16  C   UNL     1      86.761 323.685 193.608  1.00  0.00    -0.000 C 
BRANCH  16  17
ATOM     17  C   UNL     1      88.104 323.543 192.876  1.00  0.00    -0.000 C 
BRANCH  17  18
ATOM     18  C   UNL     1      88.082 324.295 191.539  1.00  0.00    -0.003 C 
ATOM     19  C   UNL     1      88.142 323.327 190.361  1.00  0.00     0.004 C 
ENDBRANCH  17  18
ENDBRANCH  16  17
ENDBRANCH  15  16
ENDBRANCH  14  15
ENDBRANCH  13  14
ENDBRANCH  12  13
ENDBRANCH   1  12
TORSDOF 14
ENDMDL
MODEL 5
REMARK VINA RESULT:    -5.919      1.427      3.360
REMARK INTER + INTRA:         -11.667
REMARK INTER:                 -10.732
REMARK INTRA:                  -0.935
REMARK UNBOUND:                -0.903
REMARK SMILES CCCCCCCCCCCCCC[C@H](C)C(=O)[O-]
REMARK SMILES IDX 9 1 10 2 11 3 12 4 13 5 14 6 15 7 16 8 17 9 18 10 19 11 8 12
REMARK SMILES IDX 7 13 6 14 5 15 4 16 3 17 2 18 1 19
REMARK H PARENT
REMARK Flexibility Score: inf
ROOT
ATOM      1  C   UNL     1     104.077 312.336 199.330  1.00  0.00     0.000 C 
ENDROOT
BRANCH   1   2
ATOM      2  C   UNL     1     104.055 311.872 200.793  1.00  0.00     0.000 C 
BRANCH   2   3
ATOM      3  C   UNL     1     102.635 311.579 201.311  1.00  0.00     0.000 C 
BRANCH   3   4
ATOM      4  C   UNL     1     102.571 310.840 202.660  1.00  0.00     0.000 C 
BRANCH   4   5
ATOM      5  C   UNL     1     103.959 310.586 203.271  1.00  0.00     0.001 C 
BRANCH   5   6
ATOM      6  C   UNL     1     104.027 311.105 204.716  1.00  0.00     0.009 C 
BRANCH   6   7
ATOM      7  C   UNL     1     105.322 311.895 205.005  1.00  0.00     0.032 C 
ATOM      8  C   UNL     1     105.680 311.899 206.498  1.00  0.00     0.014 C 
BRANCH   7   9
ATOM      9  C   UNL     1     105.171 313.311 204.522  1.00  0.00     0.044 C 
ATOM     10  O   UNL     1     105.822 313.711 203.521  1.00  0.00    -0.550 OA
ATOM     11  O   UNL     1     104.311 314.188 205.175  1.00  0.00    -0.550 OA
ENDBRANCH   7   9
ENDBRANCH   6   7
ENDBRANCH   5   6
ENDBRANCH   4   5
ENDBRANCH   3   4
ENDBRANCH   2   3
ENDBRANCH   1   2
BRANCH   1  12
ATOM     12  C   UNL     1     103.551 311.236 198.398  1.00  0.00     0.000 C 
BRANCH  12  13
ATOM     13  C   UNL     1     103.984 311.489 196.949  1.00  0.00    -0.000 C 
BRANCH  13  14
ATOM     14  C   UNL     1     103.874 312.975 196.592  1.00  0.00    -0.000 C 
BRANCH  14  15
ATOM     15  C   UNL     1     103.889 313.178 195.069  1.00  0.00    -0.000 C 
BRANCH  15  16
ATOM     16  C   UNL     1     103.876 311.850 194.295  1.00  0.00    -0.000 C 
BRANCH  16  17
ATOM     17  C   UNL     1     103.969 312.051 192.774  1.00  0.00    -0.000 C 
BRANCH  17  18
ATOM     18  C   UNL     1     103.820 313.532 192.407  1.00  0.00    -0.003 C 
ATOM     19  C   UNL     1     104.239 313.787 190.962  1.00  0.00     0.004 C 
ENDBRANCH  17  18
ENDBRANCH  16  17
ENDBRANCH  15  16
ENDBRANCH  14  15
ENDBRANCH  13  14
ENDBRANCH  12  13
ENDBRANCH   1  12
TORSDOF 14
ENDMDL
MODEL 6
REMARK VINA RESULT:    -5.910      1.401      2.471
REMARK INTER + INTRA:         -11.650
REMARK INTER:                 -10.077
REMARK INTRA:                  -1.573
REMARK UNBOUND:                -0.903
REMARK SMILES CCCCCCCCCCCCCC[C@H](C)C(=O)[O-]
REMARK SMILES IDX 9 1 10 2 11 3 12 4 13 5 14 6 15 7 16 8 17 9 18 10 19 11 8 12
REMARK SMILES IDX 7 13 6 14 5 15 4 16 3 17 2 18 1 19
REMARK H PARENT
REMARK Flexibility Score: inf
ROOT
ATOM      1  C   UNL     1     103.441 311.580 194.632  1.00  0.00     0.000 C 
ENDROOT
BRANCH   1   2
ATOM      2  C   UNL     1     104.516 311.986 195.651  1.00  0.00     0.000 C 
BRANCH   2   3
ATOM      3  C   UNL     1     104.218 311.481 197.074  1.00  0.00     0.000 C 
BRANCH   3   4
ATOM      4  C   UNL     1     103.638 312.536 198.033  1.00  0.00     0.000 C 
BRANCH   4   5
ATOM      5  C   UNL     1     103.126 311.933 199.350  1.00  0.00     0.001 C 
BRANCH   5   6
ATOM      6  C   UNL     1     104.235 311.916 200.415  1.00  0.00     0.009 C 
BRANCH   6   7
ATOM      7  C   UNL     1     103.725 311.462 201.800  1.00  0.00     0.032 C 
ATOM      8  C   UNL     1     102.219 311.161 201.797  1.00  0.00     0.014 C 
BRANCH   7   9
ATOM      9  C   UNL     1     104.023 312.523 202.823  1.00  0.00     0.044 C 
ATOM     10  O   UNL     1     104.740 312.255 203.823  1.00  0.00    -0.550 OA
ATOM     11  O   UNL     1     103.510 313.807 202.673  1.00  0.00    -0.550 OA
ENDBRANCH   7   9
ENDBRANCH   6   7
ENDBRANCH   5   6
ENDBRANCH   4   5
ENDBRANCH   3   4
ENDBRANCH   2   3
ENDBRANCH   1   2
BRANCH   1  12
ATOM     12  C   UNL     1     104.053 311.375 193.241  1.00  0.00     0.000 C 
BRANCH  12  13
ATOM     13  C   UNL     1     105.488 311.913 193.185  1.00  0.00    -0.000 C 
BRANCH  13  14
ATOM     14  C   UNL     1     105.616 313.036 192.149  1.00  0.00    -0.000 C 
BRANCH  14  15
ATOM     15  C   UNL     1     104.235 313.468 191.634  1.00  0.00    -0.000 C 
BRANCH  15  16
ATOM     16  C   UNL     1     103.878 314.909 192.032  1.00  0.00    -0.000 C 
BRANCH  16  17
ATOM     17  C   UNL     1     103.374 315.015 193.480  1.00  0.00    -0.000 C 
BRANCH  17  18
ATOM     18  C   UNL     1     104.450 315.615 194.392  1.00  0.00    -0.003 C 
ATOM     19  C   UNL     1     104.008 315.597 195.852  1.00  0.00     0.004 C 
ENDBRANCH  17  18
ENDBRANCH  16  17
ENDBRANCH  15  16
ENDBRANCH  14  15
ENDBRANCH  13  14
ENDBRANCH  12  13
ENDBRANCH   1  12
TORSDOF 14
ENDMDL
MODEL 7
REMARK VINA RESULT:    -5.878      3.852     10.207
REMARK INTER + INTRA:         -11.591
REMARK INTER:                 -10.816
REMARK INTRA:                  -0.775
REMARK UNBOUND:                -0.903
REMARK SMILES CCCCCCCCCCCCCC[C@H](C)C(=O)[O-]
REMARK SMILES IDX 9 1 10 2 11 3 12 4 13 5 14 6 15 7 16 8 17 9 18 10 19 11 8 12
REMARK SMILES IDX 7 13 6 14 5 15 4 16 3 17 2 18 1 19
REMARK H PARENT
REMARK Flexibility Score: inf
ROOT
ATOM      1  C   UNL     1     103.629 312.397 198.082  1.00  0.00     0.000 C 
ENDROOT
BRANCH   1   2
ATOM      2  C   UNL     1     104.016 311.314 197.064  1.00  0.00     0.000 C 
BRANCH   2   3
ATOM      3  C   UNL     1     104.534 311.895 195.736  1.00  0.00     0.000 C 
BRANCH   3   4
ATOM      4  C   UNL     1     103.564 311.768 194.547  1.00  0.00     0.000 C 
BRANCH   4   5
ATOM      5  C   UNL     1     104.261 311.333 193.248  1.00  0.00     0.001 C 
BRANCH   5   6
ATOM      6  C   UNL     1     104.922 312.532 192.549  1.00  0.00     0.009 C 
BRANCH   6   7
ATOM      7  C   UNL     1     103.899 313.596 192.097  1.00  0.00     0.032 C 
ATOM      8  C   UNL     1     103.892 313.787 190.574  1.00  0.00     0.014 C 
BRANCH   7   9
ATOM      9  C   UNL     1     104.203 314.908 192.766  1.00  0.00     0.044 C 
ATOM     10  O   UNL     1     103.680 315.972 192.342  1.00  0.00    -0.550 OA
ATOM     11  O   UNL     1     105.063 314.957 193.858  1.00  0.00    -0.550 OA
ENDBRANCH   7   9
ENDBRANCH   6   7
ENDBRANCH   5   6
ENDBRANCH   4   5
ENDBRANCH   3   4
ENDBRANCH   2   3
ENDBRANCH   1   2
BRANCH   1  12
ATOM     12  C   UNL     1     103.375 311.785 199.465  1.00  0.00     0.000 C 
BRANCH  12  13
ATOM     13  C   UNL     1     104.542 312.072 200.418  1.00  0.00    -0.000 C 
BRANCH  13  14
ATOM     14  C   UNL     1     104.043 312.281 201.852  1.00  0.00    -0.000 C 
BRANCH  14  15
ATOM     15  C   UNL     1     102.990 311.228 202.228  1.00  0.00    -0.000 C 
BRANCH  15  16
ATOM     16  C   UNL     1     103.194 310.666 203.644  1.00  0.00    -0.000 C 
BRANCH  16  17
ATOM     17  C   UNL     1     104.539 311.082 204.258  1.00  0.00    -0.000 C 
BRANCH  17  18
ATOM     18  C   UNL     1     104.331 311.809 205.592  1.00  0.00    -0.003 C 
ATOM     19  C   UNL     1     105.630 311.884 206.388  1.00  0.00     0.004 C 
ENDBRANCH  17  18
ENDBRANCH  16  17
ENDBRANCH  15  16
ENDBRANCH  14  15
ENDBRANCH  13  14
ENDBRANCH  12  13
ENDBRANCH   1  12
TORSDOF 14
ENDMDL
MODEL 8
REMARK VINA RESULT:    -5.866      6.364      9.910
REMARK INTER + INTRA:         -11.570
REMARK INTER:                  -9.504
REMARK INTRA:                  -2.066
REMARK UNBOUND:                -0.903
REMARK SMILES CCCCCCCCCCCCCC[C@H](C)C(=O)[O-]
REMARK SMILES IDX 9 1 10 2 11 3 12 4 13 5 14 6 15 7 16 8 17 9 18 10 19 11 8 12
REMARK SMILES IDX 7 13 6 14 5 15 4 16 3 17 2 18 1 19
REMARK H PARENT
REMARK Flexibility Score: inf
ROOT
ATOM      1  C   UNL     1     105.459 311.516 193.368  1.00  0.00     0.000 C 
ENDROOT
BRANCH   1   2
ATOM      2  C   UNL     1     104.031 311.790 192.876  1.00  0.00     0.000 C 
BRANCH   2   3
ATOM      3  C   UNL     1     103.957 312.940 191.855  1.00  0.00     0.000 C 
BRANCH   3   4
ATOM      4  C   UNL     1     105.299 313.632 191.553  1.00  0.00     0.000 C 
BRANCH   4   5
ATOM      5  C   UNL     1     105.189 314.700 190.454  1.00  0.00     0.001 C 
BRANCH   5   6
ATOM      6  C   UNL     1     103.726 314.903 190.028  1.00  0.00     0.009 C 
BRANCH   6   7
ATOM      7  C   UNL     1     103.565 315.055 188.501  1.00  0.00     0.032 C 
ATOM      8  C   UNL     1     104.643 315.960 187.888  1.00  0.00     0.014 C 
BRANCH   7   9
ATOM      9  C   UNL     1     102.204 315.614 188.188  1.00  0.00     0.044 C 
ATOM     10  O   UNL     1     101.229 314.839 187.998  1.00  0.00    -0.550 OA
ATOM     11  O   UNL     1     102.012 316.989 188.107  1.00  0.00    -0.550 OA
ENDBRANCH   7   9
ENDBRANCH   6   7
ENDBRANCH   5   6
ENDBRANCH   4   5
ENDBRANCH   3   4
ENDBRANCH   2   3
ENDBRANCH   1   2
BRANCH   1  12
ATOM     12  C   UNL     1     105.585 311.800 194.871  1.00  0.00     0.000 C 
BRANCH  12  13
ATOM     13  C   UNL     1     104.228 311.668 195.572  1.00  0.00    -0.000 C 
BRANCH  13  14
ATOM     14  C   UNL     1     104.270 312.284 196.974  1.00  0.00    -0.000 C 
BRANCH  14  15
ATOM     15  C   UNL     1     103.821 313.753 196.944  1.00  0.00    -0.000 C 
BRANCH  15  16
ATOM     16  C   UNL     1     102.739 314.019 195.885  1.00  0.00    -0.000 C 
BRANCH  16  17
ATOM     17  C   UNL     1     103.217 314.971 194.777  1.00  0.00    -0.000 C 
BRANCH  17  18
ATOM     18  C   UNL     1     104.557 315.617 195.150  1.00  0.00    -0.003 C 
ATOM     19  C   UNL     1     105.187 316.313 193.948  1.00  0.00     0.004 C 
ENDBRANCH  17  18
ENDBRANCH  16  17
ENDBRANCH  15  16
ENDBRANCH  14  15
ENDBRANCH  13  14
ENDBRANCH  12  13
ENDBRANCH   1  12
TORSDOF 14
ENDMDL
MODEL 9
REMARK VINA RESULT:    -5.796     19.798     22.504
REMARK INTER + INTRA:         -11.442
REMARK INTER:                 -10.596
REMARK INTRA:                  -0.846
REMARK UNBOUND:                -0.903
REMARK SMILES CCCCCCCCCCCCCC[C@H](C)C(=O)[O-]
REMARK SMILES IDX 9 1 10 2 11 3 12 4 13 5 14 6 15 7 16 8 17 9 18 10 19 11 8 12
REMARK SMILES IDX 7 13 6 14 5 15 4 16 3 17 2 18 1 19
REMARK H PARENT
REMARK Flexibility Score: inf
ROOT
ATOM      1  C   UNL     1      88.640 325.424 197.786  1.00  0.00     0.000 C 
ENDROOT
BRANCH   1   2
ATOM      2  C   UNL     1      87.905 326.061 196.598  1.00  0.00     0.000 C 
BRANCH   2   3
ATOM      3  C   UNL     1      88.852 326.484 195.461  1.00  0.00     0.000 C 
BRANCH   3   4
ATOM      4  C   UNL     1      88.191 326.614 194.076  1.00  0.00     0.000 C 
BRANCH   4   5
ATOM      5  C   UNL     1      86.747 326.090 194.049  1.00  0.00     0.001 C 
BRANCH   5   6
ATOM      6  C   UNL     1      86.645 324.801 193.217  1.00  0.00     0.009 C 
BRANCH   6   7
ATOM      7  C   UNL     1      88.018 324.304 192.716  1.00  0.00     0.032 C 
ATOM      8  C   UNL     1      88.024 324.036 191.205  1.00  0.00     0.014 C 
BRANCH   7   9
ATOM      9  C   UNL     1      88.401 323.048 193.451  1.00  0.00     0.044 C 
ATOM     10  O   UNL     1      88.384 323.021 194.710  1.00  0.00    -0.550 OA
ATOM     11  O   UNL     1      88.776 321.910 192.745  1.00  0.00    -0.550 OA
ENDBRANCH   7   9
ENDBRANCH   6   7
ENDBRANCH   5   6
ENDBRANCH   4   5
ENDBRANCH   3   4
ENDBRANCH   2   3
ENDBRANCH   1   2
BRANCH   1  12
ATOM     12  C   UNL     1      88.883 326.453 198.897  1.00  0.00     0.000 C 
BRANCH  12  13
ATOM     13  C   UNL     1      89.306 325.766 200.201  1.00  0.00    -0.000 C 
BRANCH  13  14
ATOM     14  C   UNL     1      90.383 326.579 200.928  1.00  0.00    -0.000 C 
BRANCH  14  15
ATOM     15  C   UNL     1      90.485 326.163 202.403  1.00  0.00    -0.000 C 
BRANCH  15  16
ATOM     16  C   UNL     1      90.073 327.287 203.366  1.00  0.00    -0.000 C 
BRANCH  16  17
ATOM     17  C   UNL     1      88.988 326.847 204.361  1.00  0.00    -0.000 C 
BRANCH  17  18
ATOM     18  C   UNL     1      89.599 326.512 205.726  1.00  0.00    -0.003 C 
ATOM     19  C   UNL     1      88.534 326.500 206.819  1.00  0.00     0.004 C 
ENDBRANCH  17  18
ENDBRANCH  16  17
ENDBRANCH  15  16
ENDBRANCH  14  15
ENDBRANCH  13  14
ENDBRANCH  12  13
ENDBRANCH   1  12
TORSDOF 14
ENDMDL
