MODEL 1
REMARK VINA RESULT:    -4.448      0.000      0.000
REMARK INTER + INTRA:          -4.448
REMARK INTER:                  -4.448
REMARK INTRA:                   0.000
REMARK UNBOUND:                 0.000
REMARK SMILES CC1=CC[C@@]2(C)CCCC(C)(C)[C@]23C[C@@H]13
REMARK SMILES IDX 1 1 2 2 3 3 4 4 5 5 7 6 8 7 9 8 10 9 13 10 15 11 14 12 11 13
REMARK SMILES IDX 12 14 6 15
REMARK H PARENT
REMARK Flexibility Score: inf
ROOT
ATOM      1  C   UNL     1       2.025  16.396  -1.843  1.00  0.00     0.039 C 
ATOM      2  C   UNL     1       2.122  15.669  -0.533  1.00  0.00    -0.074 C 
ATOM      3  C   UNL     1       2.599  16.280   0.579  1.00  0.00    -0.027 C 
ATOM      4  C   UNL     1       2.745  15.511   1.894  1.00  0.00     0.034 C 
ATOM      5  C   UNL     1       1.717  14.314   2.075  1.00  0.00    -0.022 C 
ATOM      6  C   UNL     1       0.780  14.590   3.298  1.00  0.00     0.008 C 
ATOM      7  C   UNL     1      -0.563  13.863   3.171  1.00  0.00     0.001 C 
ATOM      8  C   UNL     1      -1.396  14.325   1.956  1.00  0.00     0.007 C 
ATOM      9  C   UNL     1      -0.573  14.904   0.754  1.00  0.00    -0.029 C 
ATOM     10  C   UNL     1       0.860  14.176   0.753  1.00  0.00    -0.012 C 
ATOM     11  C   UNL     1       1.872  14.193  -0.463  1.00  0.00     0.022 C 
ATOM     12  C   UNL     1       0.924  13.016  -0.196  1.00  0.00     0.017 C 
ATOM     13  C   UNL     1      -1.415  14.690  -0.536  1.00  0.00     0.012 C 
ATOM     14  C   UNL     1      -0.475  16.451   0.912  1.00  0.00     0.012 C 
ATOM     15  C   UNL     1       2.506  13.014   2.401  1.00  0.00     0.012 C 
ENDROOT
TORSDOF 0
ENDMDL
MODEL 2
REMARK VINA RESULT:    -4.409      1.512      3.897
REMARK INTER + INTRA:          -4.409
REMARK INTER:                  -4.409
REMARK INTRA:                   0.000
REMARK UNBOUND:                 0.000
REMARK SMILES CC1=CC[C@@]2(C)CCCC(C)(C)[C@]23C[C@@H]13
REMARK SMILES IDX 1 1 2 2 3 3 4 4 5 5 7 6 8 7 9 8 10 9 13 10 15 11 14 12 11 13
REMARK SMILES IDX 12 14 6 15
REMARK H PARENT
REMARK Flexibility Score: inf
ROOT
ATOM      1  C   UNL     1      -3.628  15.995   1.900  1.00  0.00     0.039 C 
ATOM      2  C   UNL     1      -2.201  15.619   1.626  1.00  0.00    -0.074 C 
ATOM      3  C   UNL     1      -1.522  14.784   2.449  1.00  0.00    -0.027 C 
ATOM      4  C   UNL     1      -0.050  14.454   2.189  1.00  0.00     0.034 C 
ATOM      5  C   UNL     1       0.381  14.519   0.663  1.00  0.00    -0.022 C 
ATOM      6  C   UNL     1       0.831  13.105   0.168  1.00  0.00     0.008 C 
ATOM      7  C   UNL     1       0.659  12.940  -1.346  1.00  0.00     0.001 C 
ATOM      8  C   UNL     1      -0.809  13.043  -1.809  1.00  0.00     0.007 C 
ATOM      9  C   UNL     1      -1.751  13.892  -0.888  1.00  0.00    -0.029 C 
ATOM     10  C   UNL     1      -0.850  15.027  -0.191  1.00  0.00    -0.012 C 
ATOM     11  C   UNL     1      -1.430  16.306   0.539  1.00  0.00     0.022 C 
ATOM     12  C   UNL     1      -0.917  16.344  -0.906  1.00  0.00     0.017 C 
ATOM     13  C   UNL     1      -2.911  14.431  -1.773  1.00  0.00     0.012 C 
ATOM     14  C   UNL     1      -2.441  12.942   0.136  1.00  0.00     0.012 C 
ATOM     15  C   UNL     1       1.616  15.455   0.524  1.00  0.00     0.012 C 
ENDROOT
TORSDOF 0
ENDMDL
MODEL 3
REMARK VINA RESULT:    -4.393      1.018      3.582
REMARK INTER + INTRA:          -4.393
REMARK INTER:                  -4.393
REMARK INTRA:                   0.000
REMARK UNBOUND:                 0.000
REMARK SMILES CC1=CC[C@@]2(C)CCCC(C)(C)[C@]23C[C@@H]13
REMARK SMILES IDX 1 1 2 2 3 3 4 4 5 5 7 6 8 7 9 8 10 9 13 10 15 11 14 12 11 13
REMARK SMILES IDX 12 14 6 15
REMARK H PARENT
REMARK Flexibility Score: inf
ROOT
ATOM      1  C   UNL     1       3.120  13.623   2.669  1.00  0.00     0.039 C 
ATOM      2  C   UNL     1       1.739  13.804   2.107  1.00  0.00    -0.074 C 
ATOM      3  C   UNL     1       0.779  14.466   2.795  1.00  0.00    -0.027 C 
ATOM      4  C   UNL     1      -0.640  14.593   2.235  1.00  0.00     0.034 C 
ATOM      5  C   UNL     1      -0.727  14.577   0.650  1.00  0.00    -0.022 C 
ATOM      6  C   UNL     1      -1.284  15.942   0.126  1.00  0.00     0.008 C 
ATOM      7  C   UNL     1      -0.829  16.239  -1.307  1.00  0.00     0.001 C 
ATOM      8  C   UNL     1       0.701  16.389  -1.444  1.00  0.00     0.007 C 
ATOM      9  C   UNL     1       1.553  15.623  -0.374  1.00  0.00    -0.029 C 
ATOM     10  C   UNL     1       0.720  14.320   0.064  1.00  0.00    -0.012 C 
ATOM     11  C   UNL     1       1.331  13.091   0.852  1.00  0.00     0.022 C 
ATOM     12  C   UNL     1       1.144  13.083  -0.671  1.00  0.00     0.017 C 
ATOM     13  C   UNL     1       2.943  15.328  -1.007  1.00  0.00     0.012 C 
ATOM     14  C   UNL     1       1.853  16.587   0.812  1.00  0.00     0.012 C 
ATOM     15  C   UNL     1      -1.740  13.481   0.209  1.00  0.00     0.012 C 
ENDROOT
TORSDOF 0
ENDMDL
MODEL 4
REMARK VINA RESULT:    -4.217      1.166      3.453
REMARK INTER + INTRA:          -4.217
REMARK INTER:                  -4.217
REMARK INTRA:                   0.000
REMARK UNBOUND:                 0.000
REMARK SMILES CC1=CC[C@@]2(C)CCCC(C)(C)[C@]23C[C@@H]13
REMARK SMILES IDX 1 1 2 2 3 3 4 4 5 5 7 6 8 7 9 8 10 9 13 10 15 11 14 12 11 13
REMARK SMILES IDX 12 14 6 15
REMARK H PARENT
REMARK Flexibility Score: inf
ROOT
ATOM      1  C   UNL     1      -0.245  12.884  -2.125  1.00  0.00     0.039 C 
ATOM      2  C   UNL     1       0.314  13.302  -0.795  1.00  0.00    -0.074 C 
ATOM      3  C   UNL     1       1.271  12.574  -0.173  1.00  0.00    -0.027 C 
ATOM      4  C   UNL     1       1.792  12.981   1.208  1.00  0.00     0.034 C 
ATOM      5  C   UNL     1       1.718  14.538   1.507  1.00  0.00    -0.022 C 
ATOM      6  C   UNL     1       3.158  15.119   1.705  1.00  0.00     0.008 C 
ATOM      7  C   UNL     1       3.228  16.614   1.378  1.00  0.00     0.001 C 
ATOM      8  C   UNL     1       2.900  16.934  -0.096  1.00  0.00     0.007 C 
ATOM      9  C   UNL     1       1.971  15.902  -0.820  1.00  0.00    -0.029 C 
ATOM     10  C   UNL     1       1.006  15.256   0.291  1.00  0.00    -0.012 C 
ATOM     11  C   UNL     1      -0.307  14.434  -0.032  1.00  0.00     0.022 C 
ATOM     12  C   UNL     1      -0.339  15.919   0.351  1.00  0.00     0.017 C 
ATOM     13  C   UNL     1       1.236  16.656  -1.965  1.00  0.00     0.012 C 
ATOM     14  C   UNL     1       2.860  14.849  -1.547  1.00  0.00     0.012 C 
ATOM     15  C   UNL     1       0.959  14.762   2.846  1.00  0.00     0.012 C 
ENDROOT
TORSDOF 0
ENDMDL
MODEL 5
REMARK VINA RESULT:    -4.125      1.171      3.670
REMARK INTER + INTRA:          -4.125
REMARK INTER:                  -4.125
REMARK INTRA:                   0.000
REMARK UNBOUND:                 0.000
REMARK SMILES CC1=CC[C@@]2(C)CCCC(C)(C)[C@]23C[C@@H]13
REMARK SMILES IDX 1 1 2 2 3 3 4 4 5 5 7 6 8 7 9 8 10 9 13 10 15 11 14 12 11 13
REMARK SMILES IDX 12 14 6 15
REMARK H PARENT
REMARK Flexibility Score: inf
ROOT
ATOM      1  C   UNL     1      -2.408  13.121  -0.313  1.00  0.00     0.039 C 
ATOM      2  C   UNL     1      -1.131  13.744  -0.799  1.00  0.00    -0.074 C 
ATOM      3  C   UNL     1      -1.135  14.898  -1.508  1.00  0.00    -0.027 C 
ATOM      4  C   UNL     1       0.170  15.492  -2.045  1.00  0.00     0.034 C 
ATOM      5  C   UNL     1       1.457  15.142  -1.185  1.00  0.00    -0.022 C 
ATOM      6  C   UNL     1       2.076  16.447  -0.583  1.00  0.00     0.008 C 
ATOM      7  C   UNL     1       2.877  16.172   0.693  1.00  0.00     0.001 C 
ATOM      8  C   UNL     1       2.017  15.607   1.844  1.00  0.00     0.007 C 
ATOM      9  C   UNL     1       0.733  14.823   1.406  1.00  0.00    -0.029 C 
ATOM     10  C   UNL     1       1.038  14.154  -0.023  1.00  0.00    -0.012 C 
ATOM     11  C   UNL     1       0.168  13.005  -0.677  1.00  0.00     0.022 C 
ATOM     12  C   UNL     1       1.469  12.720   0.086  1.00  0.00     0.017 C 
ATOM     13  C   UNL     1       0.390  13.815   2.540  1.00  0.00     0.012 C 
ATOM     14  C   UNL     1      -0.472  15.811   1.376  1.00  0.00     0.012 C 
ATOM     15  C   UNL     1       2.538  14.524  -2.118  1.00  0.00     0.012 C 
ENDROOT
TORSDOF 0
ENDMDL
MODEL 6
REMARK VINA RESULT:    -3.763      1.895      4.479
REMARK INTER + INTRA:          -3.763
REMARK INTER:                  -3.763
REMARK INTRA:                   0.000
REMARK UNBOUND:                 0.000
REMARK SMILES CC1=CC[C@@]2(C)CCCC(C)(C)[C@]23C[C@@H]13
REMARK SMILES IDX 1 1 2 2 3 3 4 4 5 5 7 6 8 7 9 8 10 9 13 10 15 11 14 12 11 13
REMARK SMILES IDX 12 14 6 15
REMARK H PARENT
REMARK Flexibility Score: inf
ROOT
ATOM      1  C   UNL     1      -4.147  13.013   0.133  1.00  0.00     0.039 C 
ATOM      2  C   UNL     1      -2.668  13.020  -0.128  1.00  0.00    -0.074 C 
ATOM      3  C   UNL     1      -2.139  12.379  -1.198  1.00  0.00    -0.027 C 
ATOM      4  C   UNL     1      -0.625  12.346  -1.421  1.00  0.00     0.034 C 
ATOM      5  C   UNL     1       0.156  13.596  -0.830  1.00  0.00    -0.022 C 
ATOM      6  C   UNL     1       0.835  14.404  -1.986  1.00  0.00     0.008 C 
ATOM      7  C   UNL     1       1.050  15.875  -1.614  1.00  0.00     0.001 C 
ATOM      8  C   UNL     1      -0.266  16.638  -1.354  1.00  0.00     0.007 C 
ATOM      9  C   UNL     1      -1.473  15.761  -0.875  1.00  0.00    -0.029 C 
ATOM     10  C   UNL     1      -0.871  14.517  -0.055  1.00  0.00    -0.012 C 
ATOM     11  C   UNL     1      -1.720  13.575   0.892  1.00  0.00     0.022 C 
ATOM     12  C   UNL     1      -0.877  14.739   1.429  1.00  0.00     0.017 C 
ATOM     13  C   UNL     1      -2.427  16.681  -0.060  1.00  0.00     0.012 C 
ATOM     14  C   UNL     1      -2.305  15.330  -2.120  1.00  0.00     0.012 C 
ATOM     15  C   UNL     1       1.301  13.090   0.093  1.00  0.00     0.012 C 
ENDROOT
TORSDOF 0
ENDMDL
MODEL 7
REMARK VINA RESULT:    -3.660      1.469      3.203
REMARK INTER + INTRA:          -3.660
REMARK INTER:                  -3.660
REMARK INTRA:                   0.000
REMARK UNBOUND:                 0.000
REMARK SMILES CC1=CC[C@@]2(C)CCCC(C)(C)[C@]23C[C@@H]13
REMARK SMILES IDX 1 1 2 2 3 3 4 4 5 5 7 6 8 7 9 8 10 9 13 10 15 11 14 12 11 13
REMARK SMILES IDX 12 14 6 15
REMARK H PARENT
REMARK Flexibility Score: inf
ROOT
ATOM      1  C   UNL     1       2.163  16.415   1.611  1.00  0.00     0.039 C 
ATOM      2  C   UNL     1       1.468  15.379   0.774  1.00  0.00    -0.074 C 
ATOM      3  C   UNL     1       1.488  14.068   1.116  1.00  0.00    -0.027 C 
ATOM      4  C   UNL     1       0.823  13.016   0.224  1.00  0.00     0.034 C 
ATOM      5  C   UNL     1      -0.405  13.554  -0.626  1.00  0.00    -0.022 C 
ATOM      6  C   UNL     1      -1.720  12.823  -0.195  1.00  0.00     0.008 C 
ATOM      7  C   UNL     1      -2.969  13.665  -0.478  1.00  0.00     0.001 C 
ATOM      8  C   UNL     1      -3.005  14.989   0.316  1.00  0.00     0.007 C 
ATOM      9  C   UNL     1      -1.609  15.567   0.729  1.00  0.00    -0.029 C 
ATOM     10  C   UNL     1      -0.546  15.111  -0.387  1.00  0.00    -0.012 C 
ATOM     11  C   UNL     1       0.894  15.743  -0.562  1.00  0.00     0.022 C 
ATOM     12  C   UNL     1      -0.302  16.167  -1.425  1.00  0.00     0.017 C 
ATOM     13  C   UNL     1      -1.768  17.107   0.889  1.00  0.00     0.012 C 
ATOM     14  C   UNL     1      -1.256  15.055   2.158  1.00  0.00     0.012 C 
ATOM     15  C   UNL     1      -0.174  13.210  -2.125  1.00  0.00     0.012 C 
ENDROOT
TORSDOF 0
ENDMDL
MODEL 8
REMARK VINA RESULT:    -3.609      2.695      5.135
REMARK INTER + INTRA:          -3.609
REMARK INTER:                  -3.609
REMARK INTRA:                   0.000
REMARK UNBOUND:                 0.000
REMARK SMILES CC1=CC[C@@]2(C)CCCC(C)(C)[C@]23C[C@@H]13
REMARK SMILES IDX 1 1 2 2 3 3 4 4 5 5 7 6 8 7 9 8 10 9 13 10 15 11 14 12 11 13
REMARK SMILES IDX 12 14 6 15
REMARK H PARENT
REMARK Flexibility Score: inf
ROOT
ATOM      1  C   UNL     1      -0.355  12.635  -1.747  1.00  0.00     0.039 C 
ATOM      2  C   UNL     1      -1.749  13.043  -1.367  1.00  0.00    -0.074 C 
ATOM      3  C   UNL     1      -2.563  12.209  -0.675  1.00  0.00    -0.027 C 
ATOM      4  C   UNL     1      -4.001  12.615  -0.343  1.00  0.00     0.034 C 
ATOM      5  C   UNL     1      -4.227  14.180  -0.197  1.00  0.00    -0.022 C 
ATOM      6  C   UNL     1      -4.667  14.527   1.264  1.00  0.00     0.008 C 
ATOM      7  C   UNL     1      -4.307  15.966   1.648  1.00  0.00     0.001 C 
ATOM      8  C   UNL     1      -2.788  16.238   1.646  1.00  0.00     0.007 C 
ATOM      9  C   UNL     1      -1.940  15.327   0.693  1.00  0.00    -0.029 C 
ATOM     10  C   UNL     1      -2.876  14.924  -0.549  1.00  0.00    -0.012 C 
ATOM     11  C   UNL     1      -2.345  14.308  -1.907  1.00  0.00     0.022 C 
ATOM     12  C   UNL     1      -2.664  15.801  -1.748  1.00  0.00     0.017 C 
ATOM     13  C   UNL     1      -0.654  16.116   0.314  1.00  0.00     0.012 C 
ATOM     14  C   UNL     1      -1.428  14.097   1.501  1.00  0.00     0.012 C 
ATOM     15  C   UNL     1      -5.394  14.613  -1.130  1.00  0.00     0.012 C 
ENDROOT
TORSDOF 0
ENDMDL
