MODEL 1
REMARK VINA RESULT:    -5.528      0.000      0.000
REMARK INTER + INTRA:          -6.809
REMARK INTER:                  -6.498
REMARK INTRA:                  -0.311
REMARK UNBOUND:                -0.311
REMARK SMILES O=c1cc(-c2ccc(O)c(O)c2)oc2cc(O)cc(O)c12
REMARK SMILES IDX 4 1 3 2 2 3 1 4 21 5 19 6 18 7 16 8 15 9 14 10 13 11 5 12
REMARK SMILES IDX 6 13 7 14 8 15 12 16 10 17 9 18 11 20 20 22 17 24
REMARK H PARENT 9 19 11 21 20 23 17 25
REMARK Flexibility Score: inf
ROOT
ATOM      1  C   UNL     1      15.095  19.365  35.691  1.00  0.00     0.138 A 
ATOM      2  C   UNL     1      15.973  18.379  36.160  1.00  0.00     0.100 A 
ATOM      3  C   UNL     1      16.327  17.317  35.328  1.00  0.00     0.197 A 
ATOM      4  O   UNL     1      17.166  16.482  35.754  1.00  0.00    -0.289 OA
ATOM      5  C   UNL     1      15.772  17.225  34.029  1.00  0.00     0.107 A 
ATOM      6  C   UNL     1      16.028  16.166  33.108  1.00  0.00     0.134 A 
ATOM      7  C   UNL     1      15.514  16.243  31.808  1.00  0.00     0.093 A 
ATOM      8  C   UNL     1      14.703  17.311  31.415  1.00  0.00     0.123 A 
ATOM      9  C   UNL     1      14.403  18.322  32.324  1.00  0.00     0.094 A 
ATOM     10  C   UNL     1      14.929  18.292  33.617  1.00  0.00     0.146 A 
ATOM     11  O   UNL     1      14.630  19.286  34.448  1.00  0.00    -0.456 OA
ENDROOT
BRANCH   1  12
ATOM     12  C   UNL     1      14.685  20.516  36.535  1.00  0.00     0.021 A 
ATOM     13  C   UNL     1      15.451  20.934  37.640  1.00  0.00     0.016 A 
ATOM     14  C   UNL     1      15.036  22.013  38.424  1.00  0.00     0.051 A 
ATOM     15  C   UNL     1      13.846  22.689  38.123  1.00  0.00     0.157 A 
ATOM     16  C   UNL     1      13.484  21.192  36.249  1.00  0.00     0.062 A 
ATOM     17  C   UNL     1      13.068  22.276  37.035  1.00  0.00     0.158 A 
BRANCH  15  18
ATOM     18  O   UNL     1      13.429  23.767  38.902  1.00  0.00    -0.504 OA
ATOM     19  H   UNL     1      12.764  24.447  38.552  1.00  0.00     0.293 HD
ENDBRANCH  15  18
BRANCH  17  20
ATOM     20  O   UNL     1      11.883  22.947  36.740  1.00  0.00    -0.504 OA
ATOM     21  H   UNL     1      11.541  23.028  35.790  1.00  0.00     0.293 HD
ENDBRANCH  17  20
ENDBRANCH   1  12
BRANCH   6  22
ATOM     22  O   UNL     1      16.754  15.015  33.425  1.00  0.00    -0.507 OA
ATOM     23  H   UNL     1      16.846  14.628  34.352  1.00  0.00     0.293 HD
ENDBRANCH   6  22
BRANCH   8  24
ATOM     24  O   UNL     1      14.183  17.371  30.123  1.00  0.00    -0.508 OA
ATOM     25  H   UNL     1      14.757  17.173  29.312  1.00  0.00     0.293 HD
ENDBRANCH   8  24
TORSDOF 5
ENDMDL
MODEL 2
REMARK VINA RESULT:    -5.209      2.682      4.411
REMARK INTER + INTRA:          -6.434
REMARK INTER:                  -6.165
REMARK INTRA:                  -0.269
REMARK UNBOUND:                -0.311
REMARK SMILES O=c1cc(-c2ccc(O)c(O)c2)oc2cc(O)cc(O)c12
REMARK SMILES IDX 4 1 3 2 2 3 1 4 21 5 19 6 18 7 16 8 15 9 14 10 13 11 5 12
REMARK SMILES IDX 6 13 7 14 8 15 12 16 10 17 9 18 11 20 20 22 17 24
REMARK H PARENT 9 19 11 21 20 23 17 25
REMARK Flexibility Score: inf
ROOT
ATOM      1  C   UNL     1      15.850  16.380  33.193  1.00  0.00     0.138 A 
ATOM      2  C   UNL     1      15.673  15.216  33.953  1.00  0.00     0.100 A 
ATOM      3  C   UNL     1      16.205  14.008  33.500  1.00  0.00     0.197 A 
ATOM      4  O   UNL     1      16.084  12.993  34.234  1.00  0.00    -0.289 OA
ATOM      5  C   UNL     1      16.890  13.961  32.262  1.00  0.00     0.107 A 
ATOM      6  C   UNL     1      17.437  12.779  31.681  1.00  0.00     0.134 A 
ATOM      7  C   UNL     1      18.196  12.875  30.507  1.00  0.00     0.093 A 
ATOM      8  C   UNL     1      18.373  14.102  29.862  1.00  0.00     0.123 A 
ATOM      9  C   UNL     1      17.797  15.252  30.393  1.00  0.00     0.094 A 
ATOM     10  C   UNL     1      17.064  15.195  31.580  1.00  0.00     0.146 A 
ATOM     11  O   UNL     1      16.544  16.320  32.061  1.00  0.00    -0.456 OA
ENDROOT
BRANCH   1  12
ATOM     12  C   UNL     1      15.304  17.691  33.628  1.00  0.00     0.021 A 
ATOM     13  C   UNL     1      15.819  18.372  34.747  1.00  0.00     0.016 A 
ATOM     14  C   UNL     1      15.279  19.599  35.141  1.00  0.00     0.051 A 
ATOM     15  C   UNL     1      14.213  20.163  34.429  1.00  0.00     0.157 A 
ATOM     16  C   UNL     1      14.224  18.258  32.928  1.00  0.00     0.062 A 
ATOM     17  C   UNL     1      13.683  19.490  33.322  1.00  0.00     0.158 A 
BRANCH  15  18
ATOM     18  O   UNL     1      13.672  21.388  34.818  1.00  0.00    -0.504 OA
ATOM     19  H   UNL     1      13.786  21.742  35.761  1.00  0.00     0.293 HD
ENDBRANCH  15  18
BRANCH  17  20
ATOM     20  O   UNL     1      12.619  20.052  32.618  1.00  0.00    -0.504 OA
ATOM     21  H   UNL     1      12.638  20.139  31.609  1.00  0.00     0.293 HD
ENDBRANCH  17  20
ENDBRANCH   1  12
BRANCH   6  22
ATOM     22  O   UNL     1      17.248  11.495  32.198  1.00  0.00    -0.507 OA
ATOM     23  H   UNL     1      17.698  11.134  33.025  1.00  0.00     0.293 HD
ENDBRANCH   6  22
BRANCH   8  24
ATOM     24  O   UNL     1      19.116  14.185  28.686  1.00  0.00    -0.508 OA
ATOM     25  H   UNL     1      19.309  15.075  28.243  1.00  0.00     0.293 HD
ENDBRANCH   8  24
TORSDOF 5
ENDMDL
MODEL 3
REMARK VINA RESULT:    -5.189      2.783      7.782
REMARK INTER + INTRA:          -6.410
REMARK INTER:                  -6.146
REMARK INTRA:                  -0.264
REMARK UNBOUND:                -0.311
REMARK SMILES O=c1cc(-c2ccc(O)c(O)c2)oc2cc(O)cc(O)c12
REMARK SMILES IDX 4 1 3 2 2 3 1 4 21 5 19 6 18 7 16 8 15 9 14 10 13 11 5 12
REMARK SMILES IDX 6 13 7 14 8 15 12 16 10 17 9 18 11 20 20 22 17 24
REMARK H PARENT 9 19 11 21 20 23 17 25
REMARK Flexibility Score: inf
ROOT
ATOM      1  C   UNL     1      16.133  15.443  33.459  1.00  0.00     0.138 A 
ATOM      2  C   UNL     1      16.795  15.833  34.631  1.00  0.00     0.100 A 
ATOM      3  C   UNL     1      16.542  17.089  35.181  1.00  0.00     0.197 A 
ATOM      4  O   UNL     1      17.103  17.386  36.267  1.00  0.00    -0.289 OA
ATOM      5  C   UNL     1      15.643  17.973  34.536  1.00  0.00     0.107 A 
ATOM      6  C   UNL     1      15.339  19.293  34.982  1.00  0.00     0.134 A 
ATOM      7  C   UNL     1      14.346  20.032  34.326  1.00  0.00     0.093 A 
ATOM      8  C   UNL     1      13.691  19.520  33.203  1.00  0.00     0.123 A 
ATOM      9  C   UNL     1      14.019  18.254  32.728  1.00  0.00     0.094 A 
ATOM     10  C   UNL     1      14.980  17.479  33.380  1.00  0.00     0.146 A 
ATOM     11  O   UNL     1      15.253  16.269  32.902  1.00  0.00    -0.456 OA
ENDROOT
BRANCH   1  12
ATOM     12  C   UNL     1      16.366  14.117  32.830  1.00  0.00     0.021 A 
ATOM     13  C   UNL     1      15.678  12.965  33.256  1.00  0.00     0.016 A 
ATOM     14  C   UNL     1      15.926  11.729  32.654  1.00  0.00     0.051 A 
ATOM     15  C   UNL     1      16.867  11.621  31.623  1.00  0.00     0.157 A 
ATOM     16  C   UNL     1      17.320  13.997  31.804  1.00  0.00     0.062 A 
ATOM     17  C   UNL     1      17.568  12.756  31.198  1.00  0.00     0.158 A 
BRANCH  15  18
ATOM     18  O   UNL     1      17.116  10.389  31.019  1.00  0.00    -0.504 OA
ATOM     19  H   UNL     1      18.046  10.129  30.710  1.00  0.00     0.293 HD
ENDBRANCH  15  18
BRANCH  17  20
ATOM     20  O   UNL     1      18.508  12.644  30.175  1.00  0.00    -0.504 OA
ATOM     21  H   UNL     1      18.684  13.407  29.532  1.00  0.00     0.293 HD
ENDBRANCH  17  20
ENDBRANCH   1  12
BRANCH   6  22
ATOM     22  O   UNL     1      15.994  19.929  36.040  1.00  0.00    -0.507 OA
ATOM     23  H   UNL     1      16.185  19.508  36.937  1.00  0.00     0.293 HD
ENDBRANCH   6  22
BRANCH   8  24
ATOM     24  O   UNL     1      12.715  20.269  32.548  1.00  0.00    -0.508 OA
ATOM     25  H   UNL     1      12.867  20.639  31.617  1.00  0.00     0.293 HD
ENDBRANCH   8  24
TORSDOF 5
ENDMDL
MODEL 4
REMARK VINA RESULT:    -5.189      2.789      4.937
REMARK INTER + INTRA:          -6.410
REMARK INTER:                  -6.148
REMARK INTRA:                  -0.262
REMARK UNBOUND:                -0.311
REMARK SMILES O=c1cc(-c2ccc(O)c(O)c2)oc2cc(O)cc(O)c12
REMARK SMILES IDX 4 1 3 2 2 3 1 4 21 5 19 6 18 7 16 8 15 9 14 10 13 11 5 12
REMARK SMILES IDX 6 13 7 14 8 15 12 16 10 17 9 18 11 20 20 22 17 24
REMARK H PARENT 9 19 11 21 20 23 17 25
REMARK Flexibility Score: inf
ROOT
ATOM      1  C   UNL     1      15.900  16.377  32.831  1.00  0.00     0.138 A 
ATOM      2  C   UNL     1      16.764  16.380  31.727  1.00  0.00     0.100 A 
ATOM      3  C   UNL     1      17.274  15.174  31.246  1.00  0.00     0.197 A 
ATOM      4  O   UNL     1      17.996  15.203  30.216  1.00  0.00    -0.289 OA
ATOM      5  C   UNL     1      16.941  13.960  31.894  1.00  0.00     0.107 A 
ATOM      6  C   UNL     1      17.434  12.676  31.518  1.00  0.00     0.134 A 
ATOM      7  C   UNL     1      16.944  11.533  32.161  1.00  0.00     0.093 A 
ATOM      8  C   UNL     1      16.024  11.634  33.209  1.00  0.00     0.123 A 
ATOM      9  C   UNL     1      15.578  12.887  33.619  1.00  0.00     0.094 A 
ATOM     10  C   UNL     1      16.022  14.043  32.975  1.00  0.00     0.146 A 
ATOM     11  O   UNL     1      15.560  15.219  33.388  1.00  0.00    -0.456 OA
ENDROOT
BRANCH   1  12
ATOM     12  C   UNL     1      15.330  17.632  33.384  1.00  0.00     0.021 A 
ATOM     13  C   UNL     1      15.842  18.224  34.554  1.00  0.00     0.016 A 
ATOM     14  C   UNL     1      15.279  19.399  35.059  1.00  0.00     0.051 A 
ATOM     15  C   UNL     1      14.194  19.999  34.408  1.00  0.00     0.157 A 
ATOM     16  C   UNL     1      14.231  18.233  32.745  1.00  0.00     0.062 A 
ATOM     17  C   UNL     1      13.667  19.414  33.250  1.00  0.00     0.158 A 
BRANCH  15  18
ATOM     18  O   UNL     1      13.631  21.172  34.907  1.00  0.00    -0.504 OA
ATOM     19  H   UNL     1      13.309  21.909  34.291  1.00  0.00     0.293 HD
ENDBRANCH  15  18
BRANCH  17  20
ATOM     20  O   UNL     1      12.584  20.010  32.607  1.00  0.00    -0.504 OA
ATOM     21  H   UNL     1      12.476  21.017  32.573  1.00  0.00     0.293 HD
ENDBRANCH  17  20
ENDBRANCH   1  12
BRANCH   6  22
ATOM     22  O   UNL     1      18.415  12.471  30.543  1.00  0.00    -0.507 OA
ATOM     23  H   UNL     1      19.203  11.849  30.640  1.00  0.00     0.293 HD
ENDBRANCH   6  22
BRANCH   8  24
ATOM     24  O   UNL     1      15.553  10.491  33.854  1.00  0.00    -0.508 OA
ATOM     25  H   UNL     1      15.893  10.222  34.769  1.00  0.00     0.293 HD
ENDBRANCH   8  24
TORSDOF 5
ENDMDL
MODEL 5
REMARK VINA RESULT:    -5.155      2.368      6.912
REMARK INTER + INTRA:          -6.370
REMARK INTER:                  -6.075
REMARK INTRA:                  -0.295
REMARK UNBOUND:                -0.311
REMARK SMILES O=c1cc(-c2ccc(O)c(O)c2)oc2cc(O)cc(O)c12
REMARK SMILES IDX 4 1 3 2 2 3 1 4 21 5 19 6 18 7 16 8 15 9 14 10 13 11 5 12
REMARK SMILES IDX 6 13 7 14 8 15 12 16 10 17 9 18 11 20 20 22 17 24
REMARK H PARENT 9 19 11 21 20 23 17 25
REMARK Flexibility Score: inf
ROOT
ATOM      1  C   UNL     1      15.660  20.070  36.315  1.00  0.00     0.138 A 
ATOM      2  C   UNL     1      17.033  20.170  36.582  1.00  0.00     0.100 A 
ATOM      3  C   UNL     1      17.464  20.778  37.761  1.00  0.00     0.197 A 
ATOM      4  O   UNL     1      18.698  20.797  38.003  1.00  0.00    -0.289 OA
ATOM      5  C   UNL     1      16.515  21.316  38.663  1.00  0.00     0.107 A 
ATOM      6  C   UNL     1      16.839  21.994  39.876  1.00  0.00     0.134 A 
ATOM      7  C   UNL     1      15.812  22.381  40.746  1.00  0.00     0.093 A 
ATOM      8  C   UNL     1      14.471  22.169  40.418  1.00  0.00     0.123 A 
ATOM      9  C   UNL     1      14.143  21.557  39.211  1.00  0.00     0.094 A 
ATOM     10  C   UNL     1      15.144  21.128  38.338  1.00  0.00     0.146 A 
ATOM     11  O   UNL     1      14.788  20.534  37.203  1.00  0.00    -0.456 OA
ENDROOT
BRANCH   1  12
ATOM     12  C   UNL     1      15.148  19.434  35.074  1.00  0.00     0.021 A 
ATOM     13  C   UNL     1      15.720  18.257  34.555  1.00  0.00     0.016 A 
ATOM     14  C   UNL     1      15.224  17.686  33.380  1.00  0.00     0.051 A 
ATOM     15  C   UNL     1      14.155  18.283  32.701  1.00  0.00     0.157 A 
ATOM     16  C   UNL     1      14.083  20.034  34.378  1.00  0.00     0.062 A 
ATOM     17  C   UNL     1      13.584  19.461  33.200  1.00  0.00     0.158 A 
BRANCH  15  18
ATOM     18  O   UNL     1      13.656  17.716  31.529  1.00  0.00    -0.504 OA
ATOM     19  H   UNL     1      13.511  18.270  30.693  1.00  0.00     0.293 HD
ENDBRANCH  15  18
BRANCH  17  20
ATOM     20  O   UNL     1      12.523  20.055  32.519  1.00  0.00    -0.504 OA
ATOM     21  H   UNL     1      12.572  21.014  32.194  1.00  0.00     0.293 HD
ENDBRANCH  17  20
ENDBRANCH   1  12
BRANCH   6  22
ATOM     22  O   UNL     1      18.141  22.330  40.258  1.00  0.00    -0.507 OA
ATOM     23  H   UNL     1      18.974  21.848  39.955  1.00  0.00     0.293 HD
ENDBRANCH   6  22
BRANCH   8  24
ATOM     24  O   UNL     1      13.455  22.572  41.283  1.00  0.00    -0.508 OA
ATOM     25  H   UNL     1      12.577  22.071  41.338  1.00  0.00     0.293 HD
ENDBRANCH   8  24
TORSDOF 5
ENDMDL
MODEL 6
REMARK VINA RESULT:    -4.988      1.823      7.366
REMARK INTER + INTRA:          -6.174
REMARK INTER:                  -5.885
REMARK INTRA:                  -0.289
REMARK UNBOUND:                -0.311
REMARK SMILES O=c1cc(-c2ccc(O)c(O)c2)oc2cc(O)cc(O)c12
REMARK SMILES IDX 4 1 3 2 2 3 1 4 21 5 19 6 18 7 16 8 15 9 14 10 13 11 5 12
REMARK SMILES IDX 6 13 7 14 8 15 12 16 10 17 9 18 11 20 20 22 17 24
REMARK H PARENT 9 19 11 21 20 23 17 25
REMARK Flexibility Score: inf
ROOT
ATOM      1  C   UNL     1      15.380  18.331  33.743  1.00  0.00     0.138 A 
ATOM      2  C   UNL     1      15.044  19.400  32.901  1.00  0.00     0.100 A 
ATOM      3  C   UNL     1      14.588  20.597  33.453  1.00  0.00     0.197 A 
ATOM      4  O   UNL     1      14.354  21.558  32.676  1.00  0.00    -0.289 OA
ATOM      5  C   UNL     1      14.437  20.713  34.856  1.00  0.00     0.107 A 
ATOM      6  C   UNL     1      13.941  21.869  35.527  1.00  0.00     0.134 A 
ATOM      7  C   UNL     1      13.946  21.910  36.927  1.00  0.00     0.093 A 
ATOM      8  C   UNL     1      14.370  20.811  37.678  1.00  0.00     0.123 A 
ATOM      9  C   UNL     1      14.805  19.657  37.032  1.00  0.00     0.094 A 
ATOM     10  C   UNL     1      14.845  19.598  35.637  1.00  0.00     0.146 A 
ATOM     11  O   UNL     1      15.281  18.483  35.060  1.00  0.00    -0.456 OA
ENDROOT
BRANCH   1  12
ATOM     12  C   UNL     1      15.869  17.035  33.208  1.00  0.00     0.021 A 
ATOM     13  C   UNL     1      15.777  15.845  33.954  1.00  0.00     0.016 A 
ATOM     14  C   UNL     1      16.256  14.641  33.430  1.00  0.00     0.051 A 
ATOM     15  C   UNL     1      16.839  14.606  32.157  1.00  0.00     0.157 A 
ATOM     16  C   UNL     1      16.469  16.993  31.936  1.00  0.00     0.062 A 
ATOM     17  C   UNL     1      16.948  15.785  31.410  1.00  0.00     0.158 A 
BRANCH  15  18
ATOM     18  O   UNL     1      17.317  13.407  31.630  1.00  0.00    -0.504 OA
ATOM     19  H   UNL     1      16.831  12.927  30.881  1.00  0.00     0.293 HD
ENDBRANCH  15  18
BRANCH  17  20
ATOM     20  O   UNL     1      17.533  15.749  30.145  1.00  0.00    -0.504 OA
ATOM     21  H   UNL     1      17.308  15.020  29.478  1.00  0.00     0.293 HD
ENDBRANCH  17  20
ENDBRANCH   1  12
BRANCH   6  22
ATOM     22  O   UNL     1      13.415  22.987  34.872  1.00  0.00    -0.507 OA
ATOM     23  H   UNL     1      12.436  23.226  34.836  1.00  0.00     0.293 HD
ENDBRANCH   6  22
BRANCH   8  24
ATOM     24  O   UNL     1      14.357  20.855  39.071  1.00  0.00    -0.508 OA
ATOM     25  H   UNL     1      14.789  21.616  39.581  1.00  0.00     0.293 HD
ENDBRANCH   8  24
TORSDOF 5
ENDMDL
MODEL 7
REMARK VINA RESULT:    -4.913      1.567      2.647
REMARK INTER + INTRA:          -6.085
REMARK INTER:                  -5.821
REMARK INTRA:                  -0.265
REMARK UNBOUND:                -0.311
REMARK SMILES O=c1cc(-c2ccc(O)c(O)c2)oc2cc(O)cc(O)c12
REMARK SMILES IDX 4 1 3 2 2 3 1 4 21 5 19 6 18 7 16 8 15 9 14 10 13 11 5 12
REMARK SMILES IDX 6 13 7 14 8 15 12 16 10 17 9 18 11 20 20 22 17 24
REMARK H PARENT 9 19 11 21 20 23 17 25
REMARK Flexibility Score: inf
ROOT
ATOM      1  C   UNL     1      15.318  19.574  34.556  1.00  0.00     0.138 A 
ATOM      2  C   UNL     1      15.556  20.272  33.365  1.00  0.00     0.100 A 
ATOM      3  C   UNL     1      15.980  19.578  32.231  1.00  0.00     0.197 A 
ATOM      4  O   UNL     1      16.125  20.222  31.160  1.00  0.00    -0.289 OA
ATOM      5  C   UNL     1      16.196  18.181  32.301  1.00  0.00     0.107 A 
ATOM      6  C   UNL     1      16.666  17.376  31.222  1.00  0.00     0.134 A 
ATOM      7  C   UNL     1      16.730  15.985  31.375  1.00  0.00     0.093 A 
ATOM      8  C   UNL     1      16.400  15.378  32.589  1.00  0.00     0.123 A 
ATOM      9  C   UNL     1      15.992  16.160  33.666  1.00  0.00     0.094 A 
ATOM     10  C   UNL     1      15.884  17.546  33.534  1.00  0.00     0.146 A 
ATOM     11  O   UNL     1      15.476  18.255  34.582  1.00  0.00    -0.456 OA
ENDROOT
BRANCH   1  12
ATOM     12  C   UNL     1      14.868  20.265  35.792  1.00  0.00     0.021 A 
ATOM     13  C   UNL     1      15.611  20.203  36.986  1.00  0.00     0.016 A 
ATOM     14  C   UNL     1      15.158  20.853  38.138  1.00  0.00     0.051 A 
ATOM     15  C   UNL     1      13.954  21.569  38.118  1.00  0.00     0.157 A 
ATOM     16  C   UNL     1      13.653  20.975  35.785  1.00  0.00     0.062 A 
ATOM     17  C   UNL     1      13.200  21.628  36.940  1.00  0.00     0.158 A 
BRANCH  15  18
ATOM     18  O   UNL     1      13.500  22.220  39.264  1.00  0.00    -0.504 OA
ATOM     19  H   UNL     1      14.122  22.779  39.837  1.00  0.00     0.293 HD
ENDBRANCH  15  18
BRANCH  17  20
ATOM     20  O   UNL     1      12.000  22.338  36.924  1.00  0.00    -0.504 OA
ATOM     21  H   UNL     1      11.104  21.865  36.951  1.00  0.00     0.293 HD
ENDBRANCH  17  20
ENDBRANCH   1  12
BRANCH   6  22
ATOM     22  O   UNL     1      17.101  17.889  29.997  1.00  0.00    -0.507 OA
ATOM     23  H   UNL     1      18.029  18.238  29.815  1.00  0.00     0.293 HD
ENDBRANCH   6  22
BRANCH   8  24
ATOM     24  O   UNL     1      16.482  13.994  32.737  1.00  0.00    -0.508 OA
ATOM     25  H   UNL     1      16.895  13.573  33.561  1.00  0.00     0.293 HD
ENDBRANCH   8  24
TORSDOF 5
ENDMDL
MODEL 8
REMARK VINA RESULT:    -4.857      4.849      7.428
REMARK INTER + INTRA:          -6.020
REMARK INTER:                  -5.749
REMARK INTRA:                  -0.271
REMARK UNBOUND:                -0.311
REMARK SMILES O=c1cc(-c2ccc(O)c(O)c2)oc2cc(O)cc(O)c12
REMARK SMILES IDX 4 1 3 2 2 3 1 4 21 5 19 6 18 7 16 8 15 9 14 10 13 11 5 12
REMARK SMILES IDX 6 13 7 14 8 15 12 16 10 17 9 18 11 20 20 22 17 24
REMARK H PARENT 9 19 11 21 20 23 17 25
REMARK Flexibility Score: inf
ROOT
ATOM      1  C   UNL     1      16.582  13.005  32.854  1.00  0.00     0.138 A 
ATOM      2  C   UNL     1      17.810  12.585  32.323  1.00  0.00     0.100 A 
ATOM      3  C   UNL     1      17.904  11.339  31.702  1.00  0.00     0.197 A 
ATOM      4  O   UNL     1      19.002  11.017  31.180  1.00  0.00    -0.289 OA
ATOM      5  C   UNL     1      16.768  10.496  31.640  1.00  0.00     0.107 A 
ATOM      6  C   UNL     1      16.756   9.189  31.069  1.00  0.00     0.134 A 
ATOM      7  C   UNL     1      15.545   8.495  30.961  1.00  0.00     0.093 A 
ATOM      8  C   UNL     1      14.357   9.035  31.460  1.00  0.00     0.123 A 
ATOM      9  C   UNL     1      14.369  10.287  32.068  1.00  0.00     0.094 A 
ATOM     10  C   UNL     1      15.554  11.020  32.160  1.00  0.00     0.146 A 
ATOM     11  O   UNL     1      15.518  12.218  32.735  1.00  0.00    -0.456 OA
ENDROOT
BRANCH   1  12
ATOM     12  C   UNL     1      16.428  14.320  33.526  1.00  0.00     0.021 A 
ATOM     13  C   UNL     1      16.986  14.573  34.793  1.00  0.00     0.016 A 
ATOM     14  C   UNL     1      16.815  15.817  35.408  1.00  0.00     0.051 A 
ATOM     15  C   UNL     1      16.080  16.825  34.771  1.00  0.00     0.157 A 
ATOM     16  C   UNL     1      15.679  15.334  32.900  1.00  0.00     0.062 A 
ATOM     17  C   UNL     1      15.510  16.582  33.516  1.00  0.00     0.158 A 
BRANCH  15  18
ATOM     18  O   UNL     1      15.909  18.067  35.380  1.00  0.00    -0.504 OA
ATOM     19  H   UNL     1      16.243  18.247  36.320  1.00  0.00     0.293 HD
ENDBRANCH  15  18
BRANCH  17  20
ATOM     20  O   UNL     1      14.775  17.585  32.886  1.00  0.00    -0.504 OA
ATOM     21  H   UNL     1      13.976  18.018  33.335  1.00  0.00     0.293 HD
ENDBRANCH  17  20
ENDBRANCH   1  12
BRANCH   6  22
ATOM     22  O   UNL     1      17.900   8.524  30.618  1.00  0.00    -0.507 OA
ATOM     23  H   UNL     1      18.763   8.445  31.134  1.00  0.00     0.293 HD
ENDBRANCH   6  22
BRANCH   8  24
ATOM     24  O   UNL     1      13.159   8.329  31.361  1.00  0.00    -0.508 OA
ATOM     25  H   UNL     1      13.064   7.530  30.745  1.00  0.00     0.293 HD
ENDBRANCH   8  24
TORSDOF 5
ENDMDL
MODEL 9
REMARK VINA RESULT:    -4.787      1.614      6.758
REMARK INTER + INTRA:          -5.938
REMARK INTER:                  -5.620
REMARK INTRA:                  -0.318
REMARK UNBOUND:                -0.311
REMARK SMILES O=c1cc(-c2ccc(O)c(O)c2)oc2cc(O)cc(O)c12
REMARK SMILES IDX 4 1 3 2 2 3 1 4 21 5 19 6 18 7 16 8 15 9 14 10 13 11 5 12
REMARK SMILES IDX 6 13 7 14 8 15 12 16 10 17 9 18 11 20 20 22 17 24
REMARK H PARENT 9 19 11 21 20 23 17 25
REMARK Flexibility Score: inf
ROOT
ATOM      1  C   UNL     1      16.000  18.881  34.905  1.00  0.00     0.138 A 
ATOM      2  C   UNL     1      16.859  18.891  36.012  1.00  0.00     0.100 A 
ATOM      3  C   UNL     1      16.570  19.711  37.103  1.00  0.00     0.197 A 
ATOM      4  O   UNL     1      17.324  19.652  38.108  1.00  0.00    -0.289 OA
ATOM      5  C   UNL     1      15.429  20.549  37.070  1.00  0.00     0.107 A 
ATOM      6  C   UNL     1      15.057  21.456  38.106  1.00  0.00     0.134 A 
ATOM      7  C   UNL     1      13.843  22.149  38.014  1.00  0.00     0.093 A 
ATOM      8  C   UNL     1      13.020  22.014  36.893  1.00  0.00     0.123 A 
ATOM      9  C   UNL     1      13.401  21.171  35.852  1.00  0.00     0.094 A 
ATOM     10  C   UNL     1      14.588  20.440  35.930  1.00  0.00     0.146 A 
ATOM     11  O   UNL     1      14.907  19.636  34.921  1.00  0.00    -0.456 OA
ENDROOT
BRANCH   1  12
ATOM     12  C   UNL     1      16.262  18.028  33.717  1.00  0.00     0.021 A 
ATOM     13  C   UNL     1      17.388  17.186  33.645  1.00  0.00     0.016 A 
ATOM     14  C   UNL     1      17.616  16.402  32.511  1.00  0.00     0.051 A 
ATOM     15  C   UNL     1      16.729  16.451  31.428  1.00  0.00     0.157 A 
ATOM     16  C   UNL     1      15.384  18.081  32.619  1.00  0.00     0.062 A 
ATOM     17  C   UNL     1      15.612  17.294  31.482  1.00  0.00     0.158 A 
BRANCH  15  18
ATOM     18  O   UNL     1      16.952  15.670  30.295  1.00  0.00    -0.504 OA
ATOM     19  H   UNL     1      17.639  14.925  30.292  1.00  0.00     0.293 HD
ENDBRANCH  15  18
BRANCH  17  20
ATOM     20  O   UNL     1      14.733  17.344  30.401  1.00  0.00    -0.504 OA
ATOM     21  H   UNL     1      15.062  17.259  29.446  1.00  0.00     0.293 HD
ENDBRANCH  17  20
ENDBRANCH   1  12
BRANCH   6  22
ATOM     22  O   UNL     1      15.848  21.729  39.226  1.00  0.00    -0.507 OA
ATOM     23  H   UNL     1      15.501  21.816  40.169  1.00  0.00     0.293 HD
ENDBRANCH   6  22
BRANCH   8  24
ATOM     24  O   UNL     1      11.821  22.719  36.803  1.00  0.00    -0.508 OA
ATOM     25  H   UNL     1      11.799  23.732  36.837  1.00  0.00     0.293 HD
ENDBRANCH   8  24
TORSDOF 5
ENDMDL
