MODEL 1
REMARK VINA RESULT:    -3.961      0.000      0.000
REMARK INTER + INTRA:          -5.754
REMARK INTER:                  -5.466
REMARK INTRA:                  -0.288
REMARK UNBOUND:                -0.288
REMARK SMILES CCCCCCCCO
REMARK SMILES IDX 5 1 4 2 3 3 2 4 1 5 6 6 7 7 8 8 9 9
REMARK H PARENT 9 10
REMARK Flexibility Score: inf
ROOT
ATOM      1  C   UNL     1      21.353 -11.816 -49.712  1.00  0.00     0.000 C 
ENDROOT
BRANCH   1   2
ATOM      2  C   UNL     1      21.542 -13.328 -49.946  1.00  0.00    -0.000 C 
BRANCH   2   3
ATOM      3  C   UNL     1      22.983 -13.845 -49.759  1.00  0.00    -0.000 C 
BRANCH   3   4
ATOM      4  C   UNL     1      23.153 -14.895 -48.646  1.00  0.00    -0.003 C 
ATOM      5  C   UNL     1      22.329 -14.580 -47.399  1.00  0.00     0.004 C 
ENDBRANCH   3   4
ENDBRANCH   2   3
ENDBRANCH   1   2
BRANCH   1   6
ATOM      6  C   UNL     1      20.627 -11.446 -48.406  1.00  0.00     0.002 C 
BRANCH   6   7
ATOM      7  C   UNL     1      20.659  -9.939 -48.113  1.00  0.00     0.028 C 
BRANCH   7   8
ATOM      8  C   UNL     1      20.580  -9.125 -49.404  1.00  0.00     0.156 C 
BRANCH   8   9
ATOM      9  O   UNL     1      21.421  -8.011 -49.306  1.00  0.00    -0.396 OA
ATOM     10  H   UNL     1      21.192  -7.424 -50.072  1.00  0.00     0.210 HD
ENDBRANCH   8   9
ENDBRANCH   7   8
ENDBRANCH   6   7
ENDBRANCH   1   6
TORSDOF 7
ENDMDL
MODEL 2
REMARK VINA RESULT:    -3.938     11.185     13.180
REMARK INTER + INTRA:          -5.722
REMARK INTER:                  -5.533
REMARK INTRA:                  -0.189
REMARK UNBOUND:                -0.288
REMARK SMILES CCCCCCCCO
REMARK SMILES IDX 5 1 4 2 3 3 2 4 1 5 6 6 7 7 8 8 9 9
REMARK H PARENT 9 10
REMARK Flexibility Score: inf
ROOT
ATOM      1  C   UNL     1      15.720   0.206 -48.007  1.00  0.00     0.000 C 
ENDROOT
BRANCH   1   2
ATOM      2  C   UNL     1      15.523  -0.624 -49.292  1.00  0.00    -0.000 C 
BRANCH   2   3
ATOM      3  C   UNL     1      16.399  -1.889 -49.397  1.00  0.00    -0.000 C 
BRANCH   3   4
ATOM      4  C   UNL     1      15.629  -3.183 -49.715  1.00  0.00    -0.003 C 
ATOM      5  C   UNL     1      14.161  -3.120 -49.296  1.00  0.00     0.004 C 
ENDBRANCH   3   4
ENDBRANCH   2   3
ENDBRANCH   1   2
BRANCH   1   6
ATOM      6  C   UNL     1      15.927   1.714 -48.232  1.00  0.00     0.002 C 
BRANCH   6   7
ATOM      7  C   UNL     1      17.228   2.237 -47.605  1.00  0.00     0.028 C 
BRANCH   7   8
ATOM      8  C   UNL     1      17.396   1.722 -46.176  1.00  0.00     0.156 C 
BRANCH   8   9
ATOM      9  O   UNL     1      18.755   1.521 -45.909  1.00  0.00    -0.396 OA
ATOM     10  H   UNL     1      18.990   2.154 -45.183  1.00  0.00     0.210 HD
ENDBRANCH   8   9
ENDBRANCH   7   8
ENDBRANCH   6   7
ENDBRANCH   1   6
TORSDOF 7
ENDMDL
MODEL 3
REMARK VINA RESULT:    -3.892      3.056      5.261
REMARK INTER + INTRA:          -5.659
REMARK INTER:                  -5.499
REMARK INTRA:                  -0.160
REMARK UNBOUND:                -0.288
REMARK SMILES CCCCCCCCO
REMARK SMILES IDX 5 1 4 2 3 3 2 4 1 5 6 6 7 7 8 8 9 9
REMARK H PARENT 9 10
REMARK Flexibility Score: inf
ROOT
ATOM      1  C   UNL     1      21.987 -12.697 -49.712  1.00  0.00     0.000 C 
ENDROOT
BRANCH   1   2
ATOM      2  C   UNL     1      21.063 -12.494 -48.494  1.00  0.00    -0.000 C 
BRANCH   2   3
ATOM      3  C   UNL     1      20.650 -11.033 -48.222  1.00  0.00    -0.000 C 
BRANCH   3   4
ATOM      4  C   UNL     1      21.046 -10.498 -46.834  1.00  0.00    -0.003 C 
ATOM      5  C   UNL     1      20.007  -9.547 -46.243  1.00  0.00     0.004 C 
ENDBRANCH   3   4
ENDBRANCH   2   3
ENDBRANCH   1   2
BRANCH   1   6
ATOM      6  C   UNL     1      22.879 -13.950 -49.650  1.00  0.00     0.002 C 
BRANCH   6   7
ATOM      7  C   UNL     1      22.875 -14.616 -48.266  1.00  0.00     0.028 C 
BRANCH   7   8
ATOM      8  C   UNL     1      23.868 -15.777 -48.211  1.00  0.00     0.156 C 
BRANCH   8   9
ATOM      9  O   UNL     1      24.675 -15.648 -47.075  1.00  0.00    -0.396 OA
ATOM     10  H   UNL     1      24.069 -15.385 -46.335  1.00  0.00     0.210 HD
ENDBRANCH   8   9
ENDBRANCH   7   8
ENDBRANCH   6   7
ENDBRANCH   1   6
TORSDOF 7
ENDMDL
MODEL 4
REMARK VINA RESULT:    -3.874     11.203     13.848
REMARK INTER + INTRA:          -5.633
REMARK INTER:                  -5.364
REMARK INTRA:                  -0.270
REMARK UNBOUND:                -0.288
REMARK SMILES CCCCCCCCO
REMARK SMILES IDX 5 1 4 2 3 3 2 4 1 5 6 6 7 7 8 8 9 9
REMARK H PARENT 9 10
REMARK Flexibility Score: inf
ROOT
ATOM      1  C   UNL     1      15.201   1.826 -47.817  1.00  0.00     0.000 C 
ENDROOT
BRANCH   1   2
ATOM      2  C   UNL     1      14.650   0.669 -48.674  1.00  0.00    -0.000 C 
BRANCH   2   3
ATOM      3  C   UNL     1      15.700  -0.362 -49.136  1.00  0.00    -0.000 C 
BRANCH   3   4
ATOM      4  C   UNL     1      15.309  -1.832 -48.900  1.00  0.00    -0.003 C 
ATOM      5  C   UNL     1      16.174  -2.812 -49.690  1.00  0.00     0.004 C 
ENDBRANCH   3   4
ENDBRANCH   2   3
ENDBRANCH   1   2
BRANCH   1   6
ATOM      6  C   UNL     1      16.696   2.130 -48.018  1.00  0.00     0.002 C 
BRANCH   6   7
ATOM      7  C   UNL     1      17.527   1.905 -46.745  1.00  0.00     0.028 C 
BRANCH   7   8
ATOM      8  C   UNL     1      16.632   1.554 -45.558  1.00  0.00     0.156 C 
BRANCH   8   9
ATOM      9  O   UNL     1      17.091   0.375 -44.959  1.00  0.00    -0.396 OA
ATOM     10  H   UNL     1      18.030   0.550 -44.690  1.00  0.00     0.210 HD
ENDBRANCH   8   9
ENDBRANCH   7   8
ENDBRANCH   6   7
ENDBRANCH   1   6
TORSDOF 7
ENDMDL
MODEL 5
REMARK VINA RESULT:    -3.844     11.121     14.020
REMARK INTER + INTRA:          -5.592
REMARK INTER:                  -5.307
REMARK INTRA:                  -0.285
REMARK UNBOUND:                -0.288
REMARK SMILES CCCCCCCCO
REMARK SMILES IDX 5 1 4 2 3 3 2 4 1 5 6 6 7 7 8 8 9 9
REMARK H PARENT 9 10
REMARK Flexibility Score: inf
ROOT
ATOM      1  C   UNL     1      14.661   0.861 -48.587  1.00  0.00     0.000 C 
ENDROOT
BRANCH   1   2
ATOM      2  C   UNL     1      15.335   2.102 -47.968  1.00  0.00    -0.000 C 
BRANCH   2   3
ATOM      3  C   UNL     1      16.877   2.074 -47.959  1.00  0.00    -0.000 C 
BRANCH   3   4
ATOM      4  C   UNL     1      17.511   1.884 -46.570  1.00  0.00    -0.003 C 
ATOM      5  C   UNL     1      16.475   1.676 -45.466  1.00  0.00     0.004 C 
ENDBRANCH   3   4
ENDBRANCH   2   3
ENDBRANCH   1   2
BRANCH   1   6
ATOM      6  C   UNL     1      15.619  -0.286 -48.952  1.00  0.00     0.002 C 
BRANCH   6   7
ATOM      7  C   UNL     1      14.886  -1.598 -49.266  1.00  0.00     0.028 C 
BRANCH   7   8
ATOM      8  C   UNL     1      15.875  -2.714 -49.603  1.00  0.00     0.156 C 
BRANCH   8   9
ATOM      9  O   UNL     1      17.168  -2.316 -49.247  1.00  0.00    -0.396 OA
ATOM     10  H   UNL     1      17.097  -1.368 -48.964  1.00  0.00     0.210 HD
ENDBRANCH   8   9
ENDBRANCH   7   8
ENDBRANCH   6   7
ENDBRANCH   1   6
TORSDOF 7
ENDMDL
MODEL 6
REMARK VINA RESULT:    -3.822     13.747     15.441
REMARK INTER + INTRA:          -5.562
REMARK INTER:                  -5.067
REMARK INTRA:                  -0.494
REMARK UNBOUND:                -0.288
REMARK SMILES CCCCCCCCO
REMARK SMILES IDX 5 1 4 2 3 3 2 4 1 5 6 6 7 7 8 8 9 9
REMARK H PARENT 9 10
REMARK Flexibility Score: inf
ROOT
ATOM      1  C   UNL     1      15.822   0.267 -48.559  1.00  0.00     0.000 C 
ENDROOT
BRANCH   1   2
ATOM      2  C   UNL     1      14.294   0.276 -48.348  1.00  0.00    -0.000 C 
BRANCH   2   3
ATOM      3  C   UNL     1      13.499   1.137 -49.351  1.00  0.00    -0.000 C 
BRANCH   3   4
ATOM      4  C   UNL     1      13.010   2.487 -48.796  1.00  0.00    -0.003 C 
ATOM      5  C   UNL     1      13.823   3.673 -49.312  1.00  0.00     0.004 C 
ENDBRANCH   3   4
ENDBRANCH   2   3
ENDBRANCH   1   2
BRANCH   1   6
ATOM      6  C   UNL     1      16.580   1.416 -47.871  1.00  0.00     0.002 C 
BRANCH   6   7
ATOM      7  C   UNL     1      15.930   1.852 -46.550  1.00  0.00     0.028 C 
BRANCH   7   8
ATOM      8  C   UNL     1      16.934   1.803 -45.399  1.00  0.00     0.156 C 
BRANCH   8   9
ATOM      9  O   UNL     1      17.477   0.516 -45.307  1.00  0.00    -0.396 OA
ATOM     10  H   UNL     1      18.291   0.599 -44.746  1.00  0.00     0.210 HD
ENDBRANCH   8   9
ENDBRANCH   7   8
ENDBRANCH   6   7
ENDBRANCH   1   6
TORSDOF 7
ENDMDL
MODEL 7
REMARK VINA RESULT:    -3.793     17.308     19.107
REMARK INTER + INTRA:          -5.522
REMARK INTER:                  -5.431
REMARK INTRA:                  -0.092
REMARK UNBOUND:                -0.288
REMARK SMILES CCCCCCCCO
REMARK SMILES IDX 5 1 4 2 3 3 2 4 1 5 6 6 7 7 8 8 9 9
REMARK H PARENT 9 10
REMARK Flexibility Score: inf
ROOT
ATOM      1  C   UNL     1      16.820  -4.757 -32.541  1.00  0.00     0.000 C 
ENDROOT
BRANCH   1   2
ATOM      2  C   UNL     1      17.486  -4.510 -31.172  1.00  0.00    -0.000 C 
BRANCH   2   3
ATOM      3  C   UNL     1      18.825  -3.746 -31.223  1.00  0.00    -0.000 C 
BRANCH   3   4
ATOM      4  C   UNL     1      19.261  -3.119 -29.887  1.00  0.00    -0.003 C 
ATOM      5  C   UNL     1      20.504  -2.241 -30.019  1.00  0.00     0.004 C 
ENDBRANCH   3   4
ENDBRANCH   2   3
ENDBRANCH   1   2
BRANCH   1   6
ATOM      6  C   UNL     1      15.680  -5.790 -32.533  1.00  0.00     0.002 C 
BRANCH   6   7
ATOM      7  C   UNL     1      15.040  -5.983 -33.916  1.00  0.00     0.028 C 
BRANCH   7   8
ATOM      8  C   UNL     1      15.301  -7.390 -34.452  1.00  0.00     0.156 C 
BRANCH   8   9
ATOM      9  O   UNL     1      16.669  -7.548 -34.704  1.00  0.00    -0.396 OA
ATOM     10  H   UNL     1      16.738  -8.183 -35.462  1.00  0.00     0.210 HD
ENDBRANCH   8   9
ENDBRANCH   7   8
ENDBRANCH   6   7
ENDBRANCH   1   6
TORSDOF 7
ENDMDL
MODEL 8
REMARK VINA RESULT:    -3.782     13.984     15.282
REMARK INTER + INTRA:          -5.507
REMARK INTER:                  -5.066
REMARK INTRA:                  -0.441
REMARK UNBOUND:                -0.288
REMARK SMILES CCCCCCCCO
REMARK SMILES IDX 5 1 4 2 3 3 2 4 1 5 6 6 7 7 8 8 9 9
REMARK H PARENT 9 10
REMARK Flexibility Score: inf
ROOT
ATOM      1  C   UNL     1      16.179   0.681 -48.251  1.00  0.00     0.000 C 
ENDROOT
BRANCH   1   2
ATOM      2  C   UNL     1      14.676   0.787 -48.579  1.00  0.00    -0.000 C 
BRANCH   2   3
ATOM      3  C   UNL     1      14.049   2.175 -48.341  1.00  0.00    -0.000 C 
BRANCH   3   4
ATOM      4  C   UNL     1      13.440   2.378 -46.942  1.00  0.00    -0.003 C 
ATOM      5  C   UNL     1      13.066   1.063 -46.259  1.00  0.00     0.004 C 
ENDBRANCH   3   4
ENDBRANCH   2   3
ENDBRANCH   1   2
BRANCH   1   6
ATOM      6  C   UNL     1      16.872   2.020 -47.941  1.00  0.00     0.002 C 
BRANCH   6   7
ATOM      7  C   UNL     1      17.692   1.980 -46.643  1.00  0.00     0.028 C 
BRANCH   7   8
ATOM      8  C   UNL     1      16.805   1.658 -45.441  1.00  0.00     0.156 C 
BRANCH   8   9
ATOM      9  O   UNL     1      17.120   0.383 -44.957  1.00  0.00    -0.396 OA
ATOM     10  H   UNL     1      17.840   0.035 -45.544  1.00  0.00     0.210 HD
ENDBRANCH   8   9
ENDBRANCH   7   8
ENDBRANCH   6   7
ENDBRANCH   1   6
TORSDOF 7
ENDMDL
MODEL 9
REMARK VINA RESULT:    -3.773     17.439     19.039
REMARK INTER + INTRA:          -5.494
REMARK INTER:                  -5.359
REMARK INTRA:                  -0.135
REMARK UNBOUND:                -0.288
REMARK SMILES CCCCCCCCO
REMARK SMILES IDX 5 1 4 2 3 3 2 4 1 5 6 6 7 7 8 8 9 9
REMARK H PARENT 9 10
REMARK Flexibility Score: inf
ROOT
ATOM      1  C   UNL     1      16.784  -4.897 -32.259  1.00  0.00     0.000 C 
ENDROOT
BRANCH   1   2
ATOM      2  C   UNL     1      16.310  -4.905 -33.726  1.00  0.00    -0.000 C 
BRANCH   2   3
ATOM      3  C   UNL     1      15.695  -6.235 -34.209  1.00  0.00    -0.000 C 
BRANCH   3   4
ATOM      4  C   UNL     1      14.160  -6.232 -34.325  1.00  0.00    -0.003 C 
ATOM      5  C   UNL     1      13.462  -6.488 -32.991  1.00  0.00     0.004 C 
ENDBRANCH   3   4
ENDBRANCH   2   3
ENDBRANCH   1   2
BRANCH   1   6
ATOM      6  C   UNL     1      17.965  -3.956 -31.962  1.00  0.00     0.002 C 
BRANCH   6   7
ATOM      7  C   UNL     1      18.705  -4.318 -30.666  1.00  0.00     0.028 C 
BRANCH   7   8
ATOM      8  C   UNL     1      19.298  -3.075 -30.004  1.00  0.00     0.156 C 
BRANCH   8   9
ATOM      9  O   UNL     1      20.390  -2.623 -30.755  1.00  0.00    -0.396 OA
ATOM     10  H   UNL     1      21.200  -2.857 -30.232  1.00  0.00     0.210 HD
ENDBRANCH   8   9
ENDBRANCH   7   8
ENDBRANCH   6   7
ENDBRANCH   1   6
TORSDOF 7
ENDMDL
