MODEL 1
REMARK VINA RESULT:    -2.261      0.000      0.000
REMARK INTER + INTRA:          -2.669
REMARK INTER:                  -2.657
REMARK INTRA:                  -0.011
REMARK UNBOUND:                -0.011
REMARK SMILES CCCCC(=O)[O-]
REMARK SMILES IDX 4 1 5 2 6 3 7 4 3 5 2 6 1 7
REMARK H PARENT
REMARK Flexibility Score: inf
ROOT
ATOM      1  C   UNL     1      -7.521   4.221 -21.388  1.00  0.00     0.053 C 
ENDROOT
BRANCH   1   2
ATOM      2  C   UNL     1      -6.646   4.020 -22.588  1.00  0.00     0.041 C 
ATOM      3  O   UNL     1      -6.521   2.875 -23.096  1.00  0.00    -0.550 OA
ATOM      4  O   UNL     1      -5.942   5.091 -23.124  1.00  0.00    -0.550 OA
ENDBRANCH   1   2
BRANCH   1   5
ATOM      5  C   UNL     1      -9.001   3.988 -21.718  1.00  0.00     0.006 C 
BRANCH   5   6
ATOM      6  C   UNL     1      -9.369   4.483 -23.124  1.00  0.00    -0.003 C 
ATOM      7  C   UNL     1      -9.889   5.916 -23.083  1.00  0.00     0.004 C 
ENDBRANCH   5   6
ENDBRANCH   1   5
TORSDOF 3
ENDMDL
MODEL 2
REMARK VINA RESULT:    -1.886     22.189     22.773
REMARK INTER + INTRA:          -2.229
REMARK INTER:                  -2.193
REMARK INTRA:                  -0.036
REMARK UNBOUND:                -0.011
REMARK SMILES CCCCC(=O)[O-]
REMARK SMILES IDX 4 1 5 2 6 3 7 4 3 5 2 6 1 7
REMARK H PARENT
REMARK Flexibility Score: inf
ROOT
ATOM      1  C   UNL     1     -19.381   5.350  -2.875  1.00  0.00     0.053 C 
ENDROOT
BRANCH   1   2
ATOM      2  C   UNL     1     -19.766   3.902  -2.892  1.00  0.00     0.041 C 
ATOM      3  O   UNL     1     -20.981   3.570  -2.877  1.00  0.00    -0.550 OA
ATOM      4  O   UNL     1     -18.785   2.919  -2.891  1.00  0.00    -0.550 OA
ENDBRANCH   1   2
BRANCH   1   5
ATOM      5  C   UNL     1     -17.876   5.541  -3.106  1.00  0.00     0.006 C 
BRANCH   5   6
ATOM      6  C   UNL     1     -17.467   7.021  -3.080  1.00  0.00    -0.003 C 
ATOM      7  C   UNL     1     -18.688   7.926  -2.949  1.00  0.00     0.004 C 
ENDBRANCH   5   6
ENDBRANCH   1   5
TORSDOF 3
ENDMDL
MODEL 3
REMARK VINA RESULT:    -1.860      1.102      1.961
REMARK INTER + INTRA:          -2.198
REMARK INTER:                  -2.093
REMARK INTRA:                  -0.105
REMARK UNBOUND:                -0.011
REMARK SMILES CCCCC(=O)[O-]
REMARK SMILES IDX 4 1 5 2 6 3 7 4 3 5 2 6 1 7
REMARK H PARENT
REMARK Flexibility Score: inf
ROOT
ATOM      1  C   UNL     1      -8.271   3.953 -23.125  1.00  0.00     0.053 C 
ENDROOT
BRANCH   1   2
ATOM      2  C   UNL     1      -6.780   3.946 -22.978  1.00  0.00     0.041 C 
ATOM      3  O   UNL     1      -6.176   2.878 -22.697  1.00  0.00    -0.550 OA
ATOM      4  O   UNL     1      -6.061   5.126 -23.119  1.00  0.00    -0.550 OA
ENDBRANCH   1   2
BRANCH   1   5
ATOM      5  C   UNL     1      -8.952   4.725 -21.987  1.00  0.00     0.006 C 
BRANCH   5   6
ATOM      6  C   UNL     1      -8.541   4.202 -20.603  1.00  0.00    -0.003 C 
ATOM      7  C   UNL     1      -8.082   5.341 -19.699  1.00  0.00     0.004 C 
ENDBRANCH   5   6
ENDBRANCH   1   5
TORSDOF 3
ENDMDL
MODEL 4
REMARK VINA RESULT:    -1.726      1.961      2.881
REMARK INTER + INTRA:          -2.041
REMARK INTER:                  -2.547
REMARK INTRA:                   0.506
REMARK UNBOUND:                -0.011
REMARK SMILES CCCCC(=O)[O-]
REMARK SMILES IDX 4 1 5 2 6 3 7 4 3 5 2 6 1 7
REMARK H PARENT
REMARK Flexibility Score: inf
ROOT
ATOM      1  C   UNL     1      -8.186   4.337 -21.260  1.00  0.00     0.053 C 
ENDROOT
BRANCH   1   2
ATOM      2  C   UNL     1      -9.050   4.600 -22.456  1.00  0.00     0.041 C 
ATOM      3  O   UNL     1      -9.516   3.641 -23.125  1.00  0.00    -0.550 OA
ATOM      4  O   UNL     1      -9.313   5.906 -22.852  1.00  0.00    -0.550 OA
ENDBRANCH   1   2
BRANCH   1   5
ATOM      5  C   UNL     1      -7.131   3.261 -21.546  1.00  0.00     0.006 C 
BRANCH   5   6
ATOM      6  C   UNL     1      -6.481   3.436 -22.926  1.00  0.00    -0.003 C 
ATOM      7  C   UNL     1      -5.988   4.866 -23.124  1.00  0.00     0.004 C 
ENDBRANCH   5   6
ENDBRANCH   1   5
TORSDOF 3
ENDMDL
MODEL 5
REMARK VINA RESULT:    -1.650     18.972     19.817
REMARK INTER + INTRA:          -1.951
REMARK INTER:                  -1.933
REMARK INTRA:                  -0.018
REMARK UNBOUND:                -0.011
REMARK SMILES CCCCC(=O)[O-]
REMARK SMILES IDX 4 1 5 2 6 3 7 4 3 5 2 6 1 7
REMARK H PARENT
REMARK Flexibility Score: inf
ROOT
ATOM      1  C   UNL     1     -13.536  19.416 -10.365  1.00  0.00     0.053 C 
ENDROOT
BRANCH   1   2
ATOM      2  C   UNL     1     -12.903  19.053  -9.056  1.00  0.00     0.041 C 
ATOM      3  O   UNL     1     -12.465  17.889  -8.865  1.00  0.00    -0.550 OA
ATOM      4  O   UNL     1     -12.828  19.993  -8.035  1.00  0.00    -0.550 OA
ENDBRANCH   1   2
BRANCH   1   5
ATOM      5  C   UNL     1     -12.858  18.701 -11.542  1.00  0.00     0.006 C 
BRANCH   5   6
ATOM      6  C   UNL     1     -13.063  19.446 -12.870  1.00  0.00    -0.003 C 
ATOM      7  C   UNL     1     -11.789  19.434 -13.708  1.00  0.00     0.004 C 
ENDBRANCH   5   6
ENDBRANCH   1   5
TORSDOF 3
ENDMDL
MODEL 6
REMARK VINA RESULT:    -0.899      2.666      3.300
REMARK INTER + INTRA:          -1.068
REMARK INTER:                  -1.161
REMARK INTRA:                   0.093
REMARK UNBOUND:                -0.011
REMARK SMILES CCCCC(=O)[O-]
REMARK SMILES IDX 4 1 5 2 6 3 7 4 3 5 2 6 1 7
REMARK H PARENT
REMARK Flexibility Score: inf
ROOT
ATOM      1  C   UNL     1      -6.901   4.029 -20.694  1.00  0.00     0.053 C 
ENDROOT
BRANCH   1   2
ATOM      2  C   UNL     1      -8.304   4.521 -20.508  1.00  0.00     0.041 C 
ATOM      3  O   UNL     1      -8.613   5.180 -19.481  1.00  0.00    -0.550 OA
ATOM      4  O   UNL     1      -9.278   4.224 -21.453  1.00  0.00    -0.550 OA
ENDBRANCH   1   2
BRANCH   1   5
ATOM      5  C   UNL     1      -6.832   2.876 -21.703  1.00  0.00     0.006 C 
BRANCH   5   6
ATOM      6  C   UNL     1      -6.506   3.364 -23.123  1.00  0.00    -0.003 C 
ATOM      7  C   UNL     1      -6.146   4.846 -23.125  1.00  0.00     0.004 C 
ENDBRANCH   5   6
ENDBRANCH   1   5
TORSDOF 3
ENDMDL
MODEL 7
REMARK VINA RESULT:    -0.885     18.564     19.453
REMARK INTER + INTRA:          -1.052
REMARK INTER:                  -1.032
REMARK INTRA:                  -0.019
REMARK UNBOUND:                -0.011
REMARK SMILES CCCCC(=O)[O-]
REMARK SMILES IDX 4 1 5 2 6 3 7 4 3 5 2 6 1 7
REMARK H PARENT
REMARK Flexibility Score: inf
ROOT
ATOM      1  C   UNL     1     -13.006  18.572 -11.839  1.00  0.00     0.053 C 
ENDROOT
BRANCH   1   2
ATOM      2  C   UNL     1     -12.662  19.300 -13.103  1.00  0.00     0.041 C 
ATOM      3  O   UNL     1     -13.339  19.112 -14.147  1.00  0.00    -0.550 OA
ATOM      4  O   UNL     1     -11.573  20.162 -13.135  1.00  0.00    -0.550 OA
ENDBRANCH   1   2
BRANCH   1   5
ATOM      5  C   UNL     1     -13.094  19.523 -10.639  1.00  0.00     0.006 C 
BRANCH   5   6
ATOM      6  C   UNL     1     -12.939  18.786  -9.301  1.00  0.00    -0.003 C 
ATOM      7  C   UNL     1     -12.829  19.771  -8.141  1.00  0.00     0.004 C 
ENDBRANCH   5   6
ENDBRANCH   1   5
TORSDOF 3
ENDMDL
MODEL 8
REMARK VINA RESULT:    -0.633     20.138     20.926
REMARK INTER + INTRA:          -0.755
REMARK INTER:                  -0.738
REMARK INTRA:                  -0.017
REMARK UNBOUND:                -0.011
REMARK SMILES CCCCC(=O)[O-]
REMARK SMILES IDX 4 1 5 2 6 3 7 4 3 5 2 6 1 7
REMARK H PARENT
REMARK Flexibility Score: inf
ROOT
ATOM      1  C   UNL     1     -12.724  18.999  -8.952  1.00  0.00     0.053 C 
ENDROOT
BRANCH   1   2
ATOM      2  C   UNL     1     -12.629  20.091  -7.930  1.00  0.00     0.041 C 
ATOM      3  O   UNL     1     -13.208  19.971  -6.819  1.00  0.00    -0.550 OA
ATOM      4  O   UNL     1     -11.928  21.255  -8.219  1.00  0.00    -0.550 OA
ENDBRANCH   1   2
BRANCH   1   5
ATOM      5  C   UNL     1     -13.356  19.496 -10.259  1.00  0.00     0.006 C 
BRANCH   5   6
ATOM      6  C   UNL     1     -13.066  18.556 -11.439  1.00  0.00    -0.003 C 
ATOM      7  C   UNL     1     -12.672  19.342 -12.685  1.00  0.00     0.004 C 
ENDBRANCH   5   6
ENDBRANCH   1   5
TORSDOF 3
ENDMDL
