MODEL 1
REMARK VINA RESULT:    -3.842      0.000      0.000
REMARK INTER + INTRA:          -3.842
REMARK INTER:                  -3.842
REMARK INTRA:                   0.000
REMARK UNBOUND:                 0.000
REMARK SMILES CC1(C)[C@@H]2CC[C@@]1(C)C(=O)C2
REMARK SMILES IDX 1 1 2 2 4 3 5 4 6 5 7 6 9 7 10 8 11 9 8 10 3 11
REMARK H PARENT
REMARK Flexibility Score: inf
ROOT
ATOM      1  C   UNL     1      51.294 -40.669 -30.311  1.00  0.00     0.012 C 
ATOM      2  C   UNL     1      51.077 -41.730 -29.191  1.00  0.00    -0.020 C 
ATOM      3  C   UNL     1      51.564 -43.149 -29.570  1.00  0.00     0.003 C 
ATOM      4  C   UNL     1      50.628 -43.527 -30.750  1.00  0.00     0.005 C 
ATOM      5  C   UNL     1      49.281 -42.877 -30.349  1.00  0.00     0.015 C 
ATOM      6  C   UNL     1      49.620 -42.203 -28.997  1.00  0.00     0.032 C 
ATOM      7  C   UNL     1      49.823 -43.347 -28.036  1.00  0.00     0.139 C 
ATOM      8  O   UNL     1      49.029 -43.722 -27.187  1.00  0.00    -0.299 OA
ATOM      9  C   UNL     1      51.120 -44.022 -28.362  1.00  0.00     0.080 C 
ATOM     10  C   UNL     1      48.613 -41.143 -28.537  1.00  0.00     0.020 C 
ATOM     11  C   UNL     1      51.753 -41.160 -27.904  1.00  0.00     0.012 C 
ENDROOT
TORSDOF 0
ENDMDL
MODEL 2
REMARK VINA RESULT:    -3.829     13.552     15.156
REMARK INTER + INTRA:          -3.829
REMARK INTER:                  -3.829
REMARK INTRA:                   0.000
REMARK UNBOUND:                 0.000
REMARK SMILES CC1(C)[C@@H]2CC[C@@]1(C)C(=O)C2
REMARK SMILES IDX 1 1 2 2 4 3 5 4 6 5 7 6 9 7 10 8 11 9 8 10 3 11
REMARK H PARENT
REMARK Flexibility Score: inf
ROOT
ATOM      1  C   UNL     1      48.966 -26.976 -28.830  1.00  0.00     0.012 C 
ATOM      2  C   UNL     1      48.620 -27.232 -30.327  1.00  0.00    -0.020 C 
ATOM      3  C   UNL     1      47.815 -28.530 -30.571  1.00  0.00     0.003 C 
ATOM      4  C   UNL     1      48.812 -29.638 -30.134  1.00  0.00     0.005 C 
ATOM      5  C   UNL     1      50.182 -29.070 -30.583  1.00  0.00     0.015 C 
ATOM      6  C   UNL     1      49.794 -27.708 -31.209  1.00  0.00     0.032 C 
ATOM      7  C   UNL     1      49.064 -28.062 -32.480  1.00  0.00     0.139 C 
ATOM      8  O   UNL     1      49.518 -27.995 -33.612  1.00  0.00    -0.299 OA
ATOM      9  C   UNL     1      47.719 -28.614 -32.121  1.00  0.00     0.080 C 
ATOM     10  C   UNL     1      50.960 -26.727 -31.384  1.00  0.00     0.020 C 
ATOM     11  C   UNL     1      47.901 -25.945 -30.841  1.00  0.00     0.012 C 
ENDROOT
TORSDOF 0
ENDMDL
MODEL 3
REMARK VINA RESULT:    -3.746     13.653     15.287
REMARK INTER + INTRA:          -3.746
REMARK INTER:                  -3.746
REMARK INTRA:                   0.000
REMARK UNBOUND:                 0.000
REMARK SMILES CC1(C)[C@@H]2CC[C@@]1(C)C(=O)C2
REMARK SMILES IDX 1 1 2 2 4 3 5 4 6 5 7 6 9 7 10 8 11 9 8 10 3 11
REMARK H PARENT
REMARK Flexibility Score: inf
ROOT
ATOM      1  C   UNL     1      48.826 -28.261 -28.762  1.00  0.00     0.012 C 
ATOM      2  C   UNL     1      49.610 -28.205 -30.108  1.00  0.00    -0.020 C 
ATOM      3  C   UNL     1      50.490 -26.943 -30.269  1.00  0.00     0.003 C 
ATOM      4  C   UNL     1      49.441 -25.798 -30.301  1.00  0.00     0.005 C 
ATOM      5  C   UNL     1      48.251 -26.437 -31.060  1.00  0.00     0.015 C 
ATOM      6  C   UNL     1      48.766 -27.866 -31.355  1.00  0.00     0.032 C 
ATOM      7  C   UNL     1      49.852 -27.679 -32.385  1.00  0.00     0.139 C 
ATOM      8  O   UNL     1      49.754 -27.903 -33.582  1.00  0.00    -0.299 OA
ATOM      9  C   UNL     1      51.045 -27.068 -31.716  1.00  0.00     0.080 C 
ATOM     10  C   UNL     1      47.678 -28.875 -31.740  1.00  0.00     0.020 C 
ATOM     11  C   UNL     1      50.411 -29.542 -30.208  1.00  0.00     0.012 C 
ENDROOT
TORSDOF 0
ENDMDL
MODEL 4
REMARK VINA RESULT:    -3.731      1.504      2.810
REMARK INTER + INTRA:          -3.731
REMARK INTER:                  -3.731
REMARK INTRA:                   0.000
REMARK UNBOUND:                 0.000
REMARK SMILES CC1(C)[C@@H]2CC[C@@]1(C)C(=O)C2
REMARK SMILES IDX 1 1 2 2 4 3 5 4 6 5 7 6 9 7 10 8 11 9 8 10 3 11
REMARK H PARENT
REMARK Flexibility Score: inf
ROOT
ATOM      1  C   UNL     1      49.132 -43.381 -30.631  1.00  0.00     0.012 C 
ATOM      2  C   UNL     1      50.172 -43.139 -29.496  1.00  0.00    -0.020 C 
ATOM      3  C   UNL     1      49.639 -43.458 -28.079  1.00  0.00     0.003 C 
ATOM      4  C   UNL     1      48.508 -42.411 -27.896  1.00  0.00     0.005 C 
ATOM      5  C   UNL     1      49.065 -41.164 -28.626  1.00  0.00     0.015 C 
ATOM      6  C   UNL     1      50.438 -41.660 -29.142  1.00  0.00     0.032 C 
ATOM      7  C   UNL     1      51.282 -41.817 -27.902  1.00  0.00     0.139 C 
ATOM      8  O   UNL     1      52.155 -41.050 -27.526  1.00  0.00    -0.299 OA
ATOM      9  C   UNL     1      50.801 -43.016 -27.145  1.00  0.00     0.080 C 
ATOM     10  C   UNL     1      51.061 -40.795 -30.243  1.00  0.00     0.020 C 
ATOM     11  C   UNL     1      51.446 -43.954 -29.884  1.00  0.00     0.012 C 
ENDROOT
TORSDOF 0
ENDMDL
MODEL 5
REMARK VINA RESULT:    -3.692      7.326      9.023
REMARK INTER + INTRA:          -3.692
REMARK INTER:                  -3.692
REMARK INTRA:                   0.000
REMARK UNBOUND:                 0.000
REMARK SMILES CC1(C)[C@@H]2CC[C@@]1(C)C(=O)C2
REMARK SMILES IDX 1 1 2 2 4 3 5 4 6 5 7 6 9 7 10 8 11 9 8 10 3 11
REMARK H PARENT
REMARK Flexibility Score: inf
ROOT
ATOM      1  C   UNL     1      56.585 -38.541 -26.887  1.00  0.00     0.012 C 
ATOM      2  C   UNL     1      56.009 -38.193 -25.481  1.00  0.00    -0.020 C 
ATOM      3  C   UNL     1      56.623 -36.920 -24.851  1.00  0.00     0.003 C 
ATOM      4  C   UNL     1      58.110 -37.320 -24.651  1.00  0.00     0.005 C 
ATOM      5  C   UNL     1      58.020 -38.821 -24.279  1.00  0.00     0.015 C 
ATOM      6  C   UNL     1      56.496 -39.090 -24.322  1.00  0.00     0.032 C 
ATOM      7  C   UNL     1      55.939 -38.341 -23.137  1.00  0.00     0.139 C 
ATOM      8  O   UNL     1      55.586 -38.835 -22.077  1.00  0.00    -0.299 OA
ATOM      9  C   UNL     1      55.987 -36.874 -23.432  1.00  0.00     0.080 C 
ATOM     10  C   UNL     1      56.107 -40.570 -24.394  1.00  0.00     0.020 C 
ATOM     11  C   UNL     1      54.458 -38.125 -25.644  1.00  0.00     0.012 C 
ENDROOT
TORSDOF 0
ENDMDL
MODEL 6
REMARK VINA RESULT:    -3.686      2.643      3.831
REMARK INTER + INTRA:          -3.686
REMARK INTER:                  -3.686
REMARK INTRA:                   0.000
REMARK UNBOUND:                 0.000
REMARK SMILES CC1(C)[C@@H]2CC[C@@]1(C)C(=O)C2
REMARK SMILES IDX 1 1 2 2 4 3 5 4 6 5 7 6 9 7 10 8 11 9 8 10 3 11
REMARK H PARENT
REMARK Flexibility Score: inf
ROOT
ATOM      1  C   UNL     1      51.029 -41.518 -27.856  1.00  0.00     0.012 C 
ATOM      2  C   UNL     1      52.083 -41.243 -28.970  1.00  0.00    -0.020 C 
ATOM      3  C   UNL     1      51.485 -41.172 -30.395  1.00  0.00     0.003 C 
ATOM      4  C   UNL     1      50.951 -42.614 -30.613  1.00  0.00     0.005 C 
ATOM      5  C   UNL     1      52.000 -43.489 -29.883  1.00  0.00     0.015 C 
ATOM      6  C   UNL     1      52.993 -42.436 -29.332  1.00  0.00     0.032 C 
ATOM      7  C   UNL     1      53.694 -41.893 -30.552  1.00  0.00     0.139 C 
ATOM      8  O   UNL     1      54.825 -42.176 -30.917  1.00  0.00    -0.299 OA
ATOM      9  C   UNL     1      52.735 -41.025 -31.308  1.00  0.00     0.080 C 
ATOM     10  C   UNL     1      53.923 -42.948 -28.226  1.00  0.00     0.020 C 
ATOM     11  C   UNL     1      52.845 -39.948 -28.546  1.00  0.00     0.012 C 
ENDROOT
TORSDOF 0
ENDMDL
MODEL 7
REMARK VINA RESULT:    -3.674      7.344      8.557
REMARK INTER + INTRA:          -3.674
REMARK INTER:                  -3.674
REMARK INTRA:                   0.000
REMARK UNBOUND:                 0.000
REMARK SMILES CC1(C)[C@@H]2CC[C@@]1(C)C(=O)C2
REMARK SMILES IDX 1 1 2 2 4 3 5 4 6 5 7 6 9 7 10 8 11 9 8 10 3 11
REMARK H PARENT
REMARK Flexibility Score: inf
ROOT
ATOM      1  C   UNL     1      53.455 -37.702 -24.315  1.00  0.00     0.012 C 
ATOM      2  C   UNL     1      54.745 -38.500 -24.673  1.00  0.00    -0.020 C 
ATOM      3  C   UNL     1      54.679 -39.999 -24.295  1.00  0.00     0.003 C 
ATOM      4  C   UNL     1      54.581 -39.956 -22.746  1.00  0.00     0.005 C 
ATOM      5  C   UNL     1      55.474 -38.747 -22.373  1.00  0.00     0.015 C 
ATOM      6  C   UNL     1      55.960 -38.246 -23.755  1.00  0.00     0.032 C 
ATOM      7  C   UNL     1      56.905 -39.317 -24.242  1.00  0.00     0.139 C 
ATOM      8  O   UNL     1      58.125 -39.252 -24.241  1.00  0.00    -0.299 OA
ATOM      9  C   UNL     1      56.105 -40.522 -24.630  1.00  0.00     0.080 C 
ATOM     10  C   UNL     1      56.535 -36.826 -23.758  1.00  0.00     0.020 C 
ATOM     11  C   UNL     1      55.012 -38.249 -26.191  1.00  0.00     0.012 C 
ENDROOT
TORSDOF 0
ENDMDL
MODEL 8
REMARK VINA RESULT:    -3.628      2.446      3.822
REMARK INTER + INTRA:          -3.628
REMARK INTER:                  -3.628
REMARK INTRA:                   0.000
REMARK UNBOUND:                 0.000
REMARK SMILES CC1(C)[C@@H]2CC[C@@]1(C)C(=O)C2
REMARK SMILES IDX 1 1 2 2 4 3 5 4 6 5 7 6 9 7 10 8 11 9 8 10 3 11
REMARK H PARENT
REMARK Flexibility Score: inf
ROOT
ATOM      1  C   UNL     1      50.081 -41.158 -29.899  1.00  0.00     0.012 C 
ATOM      2  C   UNL     1      51.333 -42.081 -29.821  1.00  0.00    -0.020 C 
ATOM      3  C   UNL     1      51.797 -42.387 -28.377  1.00  0.00     0.003 C 
ATOM      4  C   UNL     1      52.223 -40.989 -27.852  1.00  0.00     0.005 C 
ATOM      5  C   UNL     1      52.838 -40.318 -29.106  1.00  0.00     0.015 C 
ATOM      6  C   UNL     1      52.676 -41.413 -30.189  1.00  0.00     0.032 C 
ATOM      7  C   UNL     1      53.646 -42.496 -29.789  1.00  0.00     0.139 C 
ATOM      8  O   UNL     1      54.731 -42.715 -30.307  1.00  0.00    -0.299 OA
ATOM      9  C   UNL     1      53.109 -43.198 -28.580  1.00  0.00     0.080 C 
ATOM     10  C   UNL     1      52.820 -40.915 -31.631  1.00  0.00     0.020 C 
ATOM     11  C   UNL     1      50.993 -43.358 -30.652  1.00  0.00     0.012 C 
ENDROOT
TORSDOF 0
ENDMDL
MODEL 9
REMARK VINA RESULT:    -3.612      6.823      8.153
REMARK INTER + INTRA:          -3.612
REMARK INTER:                  -3.612
REMARK INTRA:                   0.000
REMARK UNBOUND:                 0.000
REMARK SMILES CC1(C)[C@@H]2CC[C@@]1(C)C(=O)C2
REMARK SMILES IDX 1 1 2 2 4 3 5 4 6 5 7 6 9 7 10 8 11 9 8 10 3 11
REMARK H PARENT
REMARK Flexibility Score: inf
ROOT
ATOM      1  C   UNL     1      55.504 -38.466 -22.152  1.00  0.00     0.012 C 
ATOM      2  C   UNL     1      55.321 -39.277 -23.470  1.00  0.00    -0.020 C 
ATOM      3  C   UNL     1      56.602 -40.007 -23.939  1.00  0.00     0.003 C 
ATOM      4  C   UNL     1      57.568 -38.832 -24.253  1.00  0.00     0.005 C 
ATOM      5  C   UNL     1      56.623 -37.749 -24.829  1.00  0.00     0.015 C 
ATOM      6  C   UNL     1      55.238 -38.437 -24.762  1.00  0.00     0.032 C 
ATOM      7  C   UNL     1      55.297 -39.523 -25.806  1.00  0.00     0.139 C 
ATOM      8  O   UNL     1      54.774 -39.488 -26.910  1.00  0.00    -0.299 OA
ATOM      9  C   UNL     1      56.192 -40.616 -25.310  1.00  0.00     0.080 C 
ATOM     10  C   UNL     1      54.042 -37.486 -24.884  1.00  0.00     0.020 C 
ATOM     11  C   UNL     1      54.108 -40.232 -23.236  1.00  0.00     0.012 C 
ENDROOT
TORSDOF 0
ENDMDL
