MODEL 1
REMARK VINA RESULT:    -7.075      0.000      0.000
REMARK INTER + INTRA:         -18.595
REMARK INTER:                 -16.175
REMARK INTRA:                  -2.420
REMARK UNBOUND:                -2.420
REMARK SMILES CCCCCCCCCCCCCCCCCCCCCCCC(=O)[O-]
REMARK SMILES IDX 13 1 14 2 15 3 16 4 17 5 18 6 19 7 20 8 21 9 22 10 23 11
REMARK SMILES IDX 24 12 25 13 26 14 12 15 11 16 10 17 9 18 8 19 7 20 6 21 5 22
REMARK SMILES IDX 4 23 3 24 2 25 1 26
REMARK H PARENT
REMARK Flexibility Score: inf
ROOT
ATOM      1  C   UNL     1      -4.442   2.280   3.739  1.00  0.00     0.000 C 
ENDROOT
BRANCH   1   2
ATOM      2  C   UNL     1      -3.319   2.843   4.617  1.00  0.00     0.000 C 
BRANCH   2   3
ATOM      3  C   UNL     1      -3.448   4.363   4.770  1.00  0.00     0.000 C 
BRANCH   3   4
ATOM      4  C   UNL     1      -4.690   4.729   5.598  1.00  0.00     0.000 C 
BRANCH   4   5
ATOM      5  C   UNL     1      -5.738   5.501   4.782  1.00  0.00     0.000 C 
BRANCH   5   6
ATOM      6  C   UNL     1      -5.102   6.459   3.758  1.00  0.00     0.000 C 
BRANCH   6   7
ATOM      7  C   UNL     1      -6.013   6.696   2.540  1.00  0.00     0.000 C 
BRANCH   7   8
ATOM      8  C   UNL     1      -7.283   5.814   2.538  1.00  0.00     0.000 C 
BRANCH   8   9
ATOM      9  C   UNL     1      -8.256   6.135   1.388  1.00  0.00     0.000 C 
BRANCH   9  10
ATOM     10  C   UNL     1      -9.710   5.685   1.632  1.00  0.00     0.006 C 
BRANCH  10  11
ATOM     11  C   UNL     1     -10.376   6.335   2.857  1.00  0.00     0.053 C 
BRANCH  11  12
ATOM     12  C   UNL     1     -10.718   5.328   3.911  1.00  0.00     0.041 C 
ATOM     13  O   UNL     1     -10.972   4.137   3.591  1.00  0.00    -0.550 OA
ATOM     14  O   UNL     1     -10.722   5.697   5.250  1.00  0.00    -0.550 OA
ENDBRANCH  11  12
ENDBRANCH  10  11
ENDBRANCH   9  10
ENDBRANCH   8   9
ENDBRANCH   7   8
ENDBRANCH   6   7
ENDBRANCH   5   6
ENDBRANCH   4   5
ENDBRANCH   3   4
ENDBRANCH   2   3
ENDBRANCH   1   2
BRANCH   1  15
ATOM     15  C   UNL     1      -3.998   0.990   3.038  1.00  0.00     0.000 C 
BRANCH  15  16
ATOM     16  C   UNL     1      -5.159   0.360   2.256  1.00  0.00     0.000 C 
BRANCH  16  17
ATOM     17  C   UNL     1      -6.428   0.171   3.108  1.00  0.00     0.000 C 
BRANCH  17  18
ATOM     18  C   UNL     1      -6.687  -1.268   3.593  1.00  0.00    -0.000 C 
BRANCH  18  19
ATOM     19  C   UNL     1      -6.255  -1.498   5.050  1.00  0.00    -0.000 C 
BRANCH  19  20
ATOM     20  C   UNL     1      -4.900  -2.220   5.168  1.00  0.00    -0.000 C 
BRANCH  20  21
ATOM     21  C   UNL     1      -3.725  -1.341   5.631  1.00  0.00    -0.000 C 
BRANCH  21  22
ATOM     22  C   UNL     1      -2.803  -2.050   6.633  1.00  0.00    -0.000 C 
BRANCH  22  23
ATOM     23  C   UNL     1      -2.254  -1.062   7.671  1.00  0.00    -0.000 C 
BRANCH  23  24
ATOM     24  C   UNL     1      -2.749   0.363   7.390  1.00  0.00    -0.000 C 
BRANCH  24  25
ATOM     25  C   UNL     1      -2.232   1.381   8.418  1.00  0.00    -0.003 C 
ATOM     26  C   UNL     1      -2.935   2.735   8.316  1.00  0.00     0.004 C 
ENDBRANCH  24  25
ENDBRANCH  23  24
ENDBRANCH  22  23
ENDBRANCH  21  22
ENDBRANCH  20  21
ENDBRANCH  19  20
ENDBRANCH  18  19
ENDBRANCH  17  18
ENDBRANCH  16  17
ENDBRANCH  15  16
ENDBRANCH   1  15
TORSDOF 22
ENDMDL
MODEL 2
REMARK VINA RESULT:    -6.908      3.414      8.779
REMARK INTER + INTRA:         -18.211
REMARK INTER:                 -16.054
REMARK INTRA:                  -2.158
REMARK UNBOUND:                -2.420
REMARK SMILES CCCCCCCCCCCCCCCCCCCCCCCC(=O)[O-]
REMARK SMILES IDX 13 1 14 2 15 3 16 4 17 5 18 6 19 7 20 8 21 9 22 10 23 11
REMARK SMILES IDX 24 12 25 13 26 14 12 15 11 16 10 17 9 18 8 19 7 20 6 21 5 22
REMARK SMILES IDX 4 23 3 24 2 25 1 26
REMARK H PARENT
REMARK Flexibility Score: inf
ROOT
ATOM      1  C   UNL     1      -3.944   1.055   4.065  1.00  0.00     0.000 C 
ENDROOT
BRANCH   1   2
ATOM      2  C   UNL     1      -4.048   0.462   2.656  1.00  0.00     0.000 C 
BRANCH   2   3
ATOM      3  C   UNL     1      -5.505   0.425   2.178  1.00  0.00     0.000 C 
BRANCH   3   4
ATOM      4  C   UNL     1      -6.463   0.196   3.358  1.00  0.00     0.000 C 
BRANCH   4   5
ATOM      5  C   UNL     1      -6.668  -1.293   3.674  1.00  0.00     0.000 C 
BRANCH   5   6
ATOM      6  C   UNL     1      -5.979  -1.720   4.983  1.00  0.00     0.000 C 
BRANCH   6   7
ATOM      7  C   UNL     1      -4.669  -2.487   4.728  1.00  0.00     0.000 C 
BRANCH   7   8
ATOM      8  C   UNL     1      -3.701  -2.471   5.934  1.00  0.00     0.000 C 
BRANCH   8   9
ATOM      9  C   UNL     1      -3.697  -1.138   6.705  1.00  0.00     0.000 C 
BRANCH   9  10
ATOM     10  C   UNL     1      -2.366  -0.806   7.408  1.00  0.00     0.006 C 
BRANCH  10  11
ATOM     11  C   UNL     1      -2.314   0.598   8.034  1.00  0.00     0.053 C 
BRANCH  11  12
ATOM     12  C   UNL     1      -1.210   0.726   9.038  1.00  0.00     0.041 C 
ATOM     13  O   UNL     1      -0.985  -0.207   9.853  1.00  0.00    -0.550 OA
ATOM     14  O   UNL     1      -0.408   1.860   9.049  1.00  0.00    -0.550 OA
ENDBRANCH  11  12
ENDBRANCH  10  11
ENDBRANCH   9  10
ENDBRANCH   8   9
ENDBRANCH   7   8
ENDBRANCH   6   7
ENDBRANCH   5   6
ENDBRANCH   4   5
ENDBRANCH   3   4
ENDBRANCH   2   3
ENDBRANCH   1   2
BRANCH   1  15
ATOM     15  C   UNL     1      -3.693   2.567   4.009  1.00  0.00     0.000 C 
BRANCH  15  16
ATOM     16  C   UNL     1      -3.071   3.072   5.319  1.00  0.00     0.000 C 
BRANCH  16  17
ATOM     17  C   UNL     1      -3.915   4.163   6.005  1.00  0.00     0.000 C 
BRANCH  17  18
ATOM     18  C   UNL     1      -5.007   4.801   5.126  1.00  0.00    -0.000 C 
BRANCH  18  19
ATOM     19  C   UNL     1      -4.517   6.042   4.362  1.00  0.00    -0.000 C 
BRANCH  19  20
ATOM     20  C   UNL     1      -5.661   6.826   3.694  1.00  0.00    -0.000 C 
BRANCH  20  21
ATOM     21  C   UNL     1      -6.869   5.980   3.256  1.00  0.00    -0.000 C 
BRANCH  21  22
ATOM     22  C   UNL     1      -7.195   6.127   1.762  1.00  0.00    -0.000 C 
BRANCH  22  23
ATOM     23  C   UNL     1      -8.709   6.064   1.519  1.00  0.00    -0.000 C 
BRANCH  23  24
ATOM     24  C   UNL     1      -9.433   5.442   2.722  1.00  0.00    -0.000 C 
BRANCH  24  25
ATOM     25  C   UNL     1     -10.556   6.340   3.264  1.00  0.00    -0.003 C 
ATOM     26  C   UNL     1     -10.493   6.516   4.781  1.00  0.00     0.004 C 
ENDBRANCH  24  25
ENDBRANCH  23  24
ENDBRANCH  22  23
ENDBRANCH  21  22
ENDBRANCH  20  21
ENDBRANCH  19  20
ENDBRANCH  18  19
ENDBRANCH  17  18
ENDBRANCH  16  17
ENDBRANCH  15  16
ENDBRANCH   1  15
TORSDOF 22
ENDMDL
MODEL 3
REMARK VINA RESULT:    -6.710      4.187      8.028
REMARK INTER + INTRA:         -17.760
REMARK INTER:                 -16.166
REMARK INTRA:                  -1.595
REMARK UNBOUND:                -2.420
REMARK SMILES CCCCCCCCCCCCCCCCCCCCCCCC(=O)[O-]
REMARK SMILES IDX 13 1 14 2 15 3 16 4 17 5 18 6 19 7 20 8 21 9 22 10 23 11
REMARK SMILES IDX 24 12 25 13 26 14 12 15 11 16 10 17 9 18 8 19 7 20 6 21 5 22
REMARK SMILES IDX 4 23 3 24 2 25 1 26
REMARK H PARENT
REMARK Flexibility Score: inf
ROOT
ATOM      1  C   UNL     1      -3.251  -0.668   6.942  1.00  0.00     0.000 C 
ENDROOT
BRANCH   1   2
ATOM      2  C   UNL     1      -3.387  -1.782   5.898  1.00  0.00     0.000 C 
BRANCH   2   3
ATOM      3  C   UNL     1      -4.851  -1.975   5.483  1.00  0.00     0.000 C 
BRANCH   3   4
ATOM      4  C   UNL     1      -5.183  -1.137   4.238  1.00  0.00     0.000 C 
BRANCH   4   5
ATOM      5  C   UNL     1      -3.952  -0.423   3.659  1.00  0.00     0.000 C 
BRANCH   5   6
ATOM      6  C   UNL     1      -4.328   0.788   2.787  1.00  0.00     0.000 C 
BRANCH   6   7
ATOM      7  C   UNL     1      -5.101   0.377   1.521  1.00  0.00     0.000 C 
BRANCH   7   8
ATOM      8  C   UNL     1      -4.253   0.446   0.230  1.00  0.00     0.000 C 
BRANCH   8   9
ATOM      9  C   UNL     1      -5.039   0.087  -1.045  1.00  0.00     0.000 C 
BRANCH   9  10
ATOM     10  C   UNL     1      -4.165  -0.156  -2.292  1.00  0.00     0.006 C 
BRANCH  10  11
ATOM     11  C   UNL     1      -4.578  -1.381  -3.125  1.00  0.00     0.053 C 
BRANCH  11  12
ATOM     12  C   UNL     1      -3.430  -2.313  -3.361  1.00  0.00     0.041 C 
ATOM     13  O   UNL     1      -3.455  -3.481  -2.889  1.00  0.00    -0.550 OA
ATOM     14  O   UNL     1      -2.348  -1.904  -4.130  1.00  0.00    -0.550 OA
ENDBRANCH  11  12
ENDBRANCH  10  11
ENDBRANCH   9  10
ENDBRANCH   8   9
ENDBRANCH   7   8
ENDBRANCH   6   7
ENDBRANCH   5   6
ENDBRANCH   4   5
ENDBRANCH   3   4
ENDBRANCH   2   3
ENDBRANCH   1   2
BRANCH   1  15
ATOM     15  C   UNL     1      -2.100  -0.961   7.912  1.00  0.00     0.000 C 
BRANCH  15  16
ATOM     16  C   UNL     1      -1.773   0.271   8.768  1.00  0.00     0.000 C 
BRANCH  16  17
ATOM     17  C   UNL     1      -1.831   1.590   7.973  1.00  0.00     0.000 C 
BRANCH  17  18
ATOM     18  C   UNL     1      -2.900   2.595   8.442  1.00  0.00    -0.000 C 
BRANCH  18  19
ATOM     19  C   UNL     1      -3.554   3.362   7.281  1.00  0.00    -0.000 C 
BRANCH  19  20
ATOM     20  C   UNL     1      -3.195   2.782   5.900  1.00  0.00    -0.000 C 
BRANCH  20  21
ATOM     21  C   UNL     1      -3.022   3.819   4.776  1.00  0.00    -0.000 C 
BRANCH  21  22
ATOM     22  C   UNL     1      -3.845   5.096   5.006  1.00  0.00    -0.000 C 
BRANCH  22  23
ATOM     23  C   UNL     1      -5.247   4.965   4.397  1.00  0.00    -0.000 C 
BRANCH  23  24
ATOM     24  C   UNL     1      -5.732   6.310   3.838  1.00  0.00    -0.000 C 
BRANCH  24  25
ATOM     25  C   UNL     1      -6.518   6.155   2.527  1.00  0.00    -0.003 C 
ATOM     26  C   UNL     1      -5.962   7.022   1.398  1.00  0.00     0.004 C 
ENDBRANCH  24  25
ENDBRANCH  23  24
ENDBRANCH  22  23
ENDBRANCH  21  22
ENDBRANCH  20  21
ENDBRANCH  19  20
ENDBRANCH  18  19
ENDBRANCH  17  18
ENDBRANCH  16  17
ENDBRANCH  15  16
ENDBRANCH   1  15
TORSDOF 22
ENDMDL
MODEL 4
REMARK VINA RESULT:    -6.684      4.375      9.719
REMARK INTER + INTRA:         -17.700
REMARK INTER:                 -15.798
REMARK INTRA:                  -1.902
REMARK UNBOUND:                -2.420
REMARK SMILES CCCCCCCCCCCCCCCCCCCCCCCC(=O)[O-]
REMARK SMILES IDX 13 1 14 2 15 3 16 4 17 5 18 6 19 7 20 8 21 9 22 10 23 11
REMARK SMILES IDX 24 12 25 13 26 14 12 15 11 16 10 17 9 18 8 19 7 20 6 21 5 22
REMARK SMILES IDX 4 23 3 24 2 25 1 26
REMARK H PARENT
REMARK Flexibility Score: inf
ROOT
ATOM      1  C   UNL     1      -4.725   1.859   3.247  1.00  0.00     0.000 C 
ENDROOT
BRANCH   1   2
ATOM      2  C   UNL     1      -5.040   0.432   2.787  1.00  0.00     0.000 C 
BRANCH   2   3
ATOM      3  C   UNL     1      -6.412  -0.024   3.298  1.00  0.00     0.000 C 
BRANCH   3   4
ATOM      4  C   UNL     1      -6.359  -1.479   3.790  1.00  0.00     0.000 C 
BRANCH   4   5
ATOM      5  C   UNL     1      -5.837  -1.599   5.230  1.00  0.00     0.000 C 
BRANCH   5   6
ATOM      6  C   UNL     1      -4.339  -1.947   5.288  1.00  0.00     0.000 C 
BRANCH   6   7
ATOM      7  C   UNL     1      -3.593  -1.134   6.361  1.00  0.00     0.000 C 
BRANCH   7   8
ATOM      8  C   UNL     1      -2.475  -1.930   7.073  1.00  0.00     0.000 C 
BRANCH   8   9
ATOM      9  C   UNL     1      -2.362  -3.392   6.601  1.00  0.00     0.000 C 
BRANCH   9  10
ATOM     10  C   UNL     1      -2.828  -4.439   7.632  1.00  0.00     0.006 C 
BRANCH  10  11
ATOM     11  C   UNL     1      -3.666  -5.583   7.037  1.00  0.00     0.053 C 
BRANCH  11  12
ATOM     12  C   UNL     1      -3.063  -6.926   7.317  1.00  0.00     0.041 C 
ATOM     13  O   UNL     1      -2.468  -7.138   8.406  1.00  0.00    -0.550 OA
ATOM     14  O   UNL     1      -3.189  -7.952   6.389  1.00  0.00    -0.550 OA
ENDBRANCH  11  12
ENDBRANCH  10  11
ENDBRANCH   9  10
ENDBRANCH   8   9
ENDBRANCH   7   8
ENDBRANCH   6   7
ENDBRANCH   5   6
ENDBRANCH   4   5
ENDBRANCH   3   4
ENDBRANCH   2   3
ENDBRANCH   1   2
BRANCH   1  15
ATOM     15  C   UNL     1      -3.608   1.865   4.298  1.00  0.00     0.000 C 
BRANCH  15  16
ATOM     16  C   UNL     1      -3.108   3.292   4.563  1.00  0.00     0.000 C 
BRANCH  16  17
ATOM     17  C   UNL     1      -3.870   3.996   5.702  1.00  0.00     0.000 C 
BRANCH  17  18
ATOM     18  C   UNL     1      -4.990   4.952   5.252  1.00  0.00    -0.000 C 
BRANCH  18  19
ATOM     19  C   UNL     1      -4.498   6.044   4.289  1.00  0.00    -0.000 C 
BRANCH  19  20
ATOM     20  C   UNL     1      -5.638   6.691   3.480  1.00  0.00    -0.000 C 
BRANCH  20  21
ATOM     21  C   UNL     1      -6.635   5.704   2.846  1.00  0.00    -0.000 C 
BRANCH  21  22
ATOM     22  C   UNL     1      -7.367   6.290   1.629  1.00  0.00    -0.000 C 
BRANCH  22  23
ATOM     23  C   UNL     1      -8.838   5.856   1.611  1.00  0.00    -0.000 C 
BRANCH  23  24
ATOM     24  C   UNL     1      -9.333   5.528   3.026  1.00  0.00    -0.000 C 
BRANCH  24  25
ATOM     25  C   UNL     1     -10.192   6.652   3.627  1.00  0.00    -0.003 C 
ATOM     26  C   UNL     1     -10.401   6.497   5.133  1.00  0.00     0.004 C 
ENDBRANCH  24  25
ENDBRANCH  23  24
ENDBRANCH  22  23
ENDBRANCH  21  22
ENDBRANCH  20  21
ENDBRANCH  19  20
ENDBRANCH  18  19
ENDBRANCH  17  18
ENDBRANCH  16  17
ENDBRANCH  15  16
ENDBRANCH   1  15
TORSDOF 22
ENDMDL
MODEL 5
REMARK VINA RESULT:    -6.677      0.926      3.834
REMARK INTER + INTRA:         -17.683
REMARK INTER:                 -15.918
REMARK INTRA:                  -1.765
REMARK UNBOUND:                -2.420
REMARK SMILES CCCCCCCCCCCCCCCCCCCCCCCC(=O)[O-]
REMARK SMILES IDX 13 1 14 2 15 3 16 4 17 5 18 6 19 7 20 8 21 9 22 10 23 11
REMARK SMILES IDX 24 12 25 13 26 14 12 15 11 16 10 17 9 18 8 19 7 20 6 21 5 22
REMARK SMILES IDX 4 23 3 24 2 25 1 26
REMARK H PARENT
REMARK Flexibility Score: inf
ROOT
ATOM      1  C   UNL     1      -3.566   3.410   7.477  1.00  0.00     0.000 C 
ENDROOT
BRANCH   1   2
ATOM      2  C   UNL     1      -2.966   2.862   6.177  1.00  0.00     0.000 C 
BRANCH   2   3
ATOM      3  C   UNL     1      -3.214   3.822   5.007  1.00  0.00     0.000 C 
BRANCH   3   4
ATOM      4  C   UNL     1      -4.566   4.536   5.159  1.00  0.00     0.000 C 
BRANCH   4   5
ATOM      5  C   UNL     1      -4.540   5.975   4.623  1.00  0.00     0.000 C 
BRANCH   5   6
ATOM      6  C   UNL     1      -5.831   6.350   3.872  1.00  0.00     0.000 C 
BRANCH   6   7
ATOM      7  C   UNL     1      -5.565   6.698   2.396  1.00  0.00     0.000 C 
BRANCH   7   8
ATOM      8  C   UNL     1      -6.775   6.426   1.472  1.00  0.00     0.000 C 
BRANCH   8   9
ATOM      9  C   UNL     1      -8.035   5.961   2.225  1.00  0.00     0.000 C 
BRANCH   9  10
ATOM     10  C   UNL     1      -9.332   5.995   1.392  1.00  0.00     0.006 C 
BRANCH  10  11
ATOM     11  C   UNL     1     -10.606   6.252   2.214  1.00  0.00     0.053 C 
BRANCH  11  12
ATOM     12  C   UNL     1     -10.614   5.477   3.496  1.00  0.00     0.041 C 
ATOM     13  O   UNL     1     -10.468   6.071   4.597  1.00  0.00    -0.550 OA
ATOM     14  O   UNL     1     -10.818   4.103   3.476  1.00  0.00    -0.550 OA
ENDBRANCH  11  12
ENDBRANCH  10  11
ENDBRANCH   9  10
ENDBRANCH   8   9
ENDBRANCH   7   8
ENDBRANCH   6   7
ENDBRANCH   5   6
ENDBRANCH   4   5
ENDBRANCH   3   4
ENDBRANCH   2   3
ENDBRANCH   1   2
BRANCH   1  15
ATOM     15  C   UNL     1      -3.069   2.614   8.690  1.00  0.00     0.000 C 
BRANCH  15  16
ATOM     16  C   UNL     1      -1.745   1.902   8.378  1.00  0.00     0.000 C 
BRANCH  16  17
ATOM     17  C   UNL     1      -1.810   0.380   8.607  1.00  0.00     0.000 C 
BRANCH  17  18
ATOM     18  C   UNL     1      -2.575  -0.415   7.533  1.00  0.00    -0.000 C 
BRANCH  18  19
ATOM     19  C   UNL     1      -1.960  -1.797   7.255  1.00  0.00    -0.000 C 
BRANCH  19  20
ATOM     20  C   UNL     1      -2.840  -2.674   6.346  1.00  0.00    -0.000 C 
BRANCH  20  21
ATOM     21  C   UNL     1      -4.326  -2.277   6.288  1.00  0.00    -0.000 C 
BRANCH  21  22
ATOM     22  C   UNL     1      -4.943  -2.465   4.894  1.00  0.00    -0.000 C 
BRANCH  22  23
ATOM     23  C   UNL     1      -5.543  -1.151   4.376  1.00  0.00    -0.000 C 
BRANCH  23  24
ATOM     24  C   UNL     1      -4.458  -0.254   3.762  1.00  0.00    -0.000 C 
BRANCH  24  25
ATOM     25  C   UNL     1      -5.016   0.702   2.698  1.00  0.00    -0.003 C 
ATOM     26  C   UNL     1      -4.443   0.437   1.305  1.00  0.00     0.004 C 
ENDBRANCH  24  25
ENDBRANCH  23  24
ENDBRANCH  22  23
ENDBRANCH  21  22
ENDBRANCH  20  21
ENDBRANCH  19  20
ENDBRANCH  18  19
ENDBRANCH  17  18
ENDBRANCH  16  17
ENDBRANCH  15  16
ENDBRANCH   1  15
TORSDOF 22
ENDMDL
MODEL 6
REMARK VINA RESULT:    -6.600      1.306      2.441
REMARK INTER + INTRA:         -17.507
REMARK INTER:                 -15.973
REMARK INTRA:                  -1.534
REMARK UNBOUND:                -2.420
REMARK SMILES CCCCCCCCCCCCCCCCCCCCCCCC(=O)[O-]
REMARK SMILES IDX 13 1 14 2 15 3 16 4 17 5 18 6 19 7 20 8 21 9 22 10 23 11
REMARK SMILES IDX 24 12 25 13 26 14 12 15 11 16 10 17 9 18 8 19 7 20 6 21 5 22
REMARK SMILES IDX 4 23 3 24 2 25 1 26
REMARK H PARENT
REMARK Flexibility Score: inf
ROOT
ATOM      1  C   UNL     1      -3.637   2.510   4.043  1.00  0.00     0.000 C 
ENDROOT
BRANCH   1   2
ATOM      2  C   UNL     1      -3.241   2.816   5.491  1.00  0.00     0.000 C 
BRANCH   2   3
ATOM      3  C   UNL     1      -3.856   4.138   5.965  1.00  0.00     0.000 C 
BRANCH   3   4
ATOM      4  C   UNL     1      -3.810   5.195   4.849  1.00  0.00     0.000 C 
BRANCH   4   5
ATOM      5  C   UNL     1      -5.118   5.994   4.737  1.00  0.00     0.000 C 
BRANCH   5   6
ATOM      6  C   UNL     1      -5.998   5.524   3.564  1.00  0.00     0.000 C 
BRANCH   6   7
ATOM      7  C   UNL     1      -6.066   6.568   2.434  1.00  0.00     0.000 C 
BRANCH   7   8
ATOM      8  C   UNL     1      -7.199   6.300   1.415  1.00  0.00     0.000 C 
BRANCH   8   9
ATOM      9  C   UNL     1      -8.544   5.934   2.070  1.00  0.00     0.000 C 
BRANCH   9  10
ATOM     10  C   UNL     1      -9.744   5.907   1.102  1.00  0.00     0.006 C 
BRANCH  10  11
ATOM     11  C   UNL     1     -11.114   5.819   1.796  1.00  0.00     0.053 C 
BRANCH  11  12
ATOM     12  C   UNL     1     -11.001   5.314   3.202  1.00  0.00     0.041 C 
ATOM     13  O   UNL     1     -10.813   4.088   3.421  1.00  0.00    -0.550 OA
ATOM     14  O   UNL     1     -11.069   6.202   4.267  1.00  0.00    -0.550 OA
ENDBRANCH  11  12
ENDBRANCH  10  11
ENDBRANCH   9  10
ENDBRANCH   8   9
ENDBRANCH   7   8
ENDBRANCH   6   7
ENDBRANCH   5   6
ENDBRANCH   4   5
ENDBRANCH   3   4
ENDBRANCH   2   3
ENDBRANCH   1   2
BRANCH   1  15
ATOM     15  C   UNL     1      -3.961   1.022   3.863  1.00  0.00     0.000 C 
BRANCH  15  16
ATOM     16  C   UNL     1      -4.164   0.677   2.381  1.00  0.00     0.000 C 
BRANCH  16  17
ATOM     17  C   UNL     1      -5.587   0.177   2.068  1.00  0.00     0.000 C 
BRANCH  17  18
ATOM     18  C   UNL     1      -6.499  -0.024   3.293  1.00  0.00    -0.000 C 
BRANCH  18  19
ATOM     19  C   UNL     1      -6.510  -1.475   3.801  1.00  0.00    -0.000 C 
BRANCH  19  20
ATOM     20  C   UNL     1      -5.906  -1.622   5.211  1.00  0.00    -0.000 C 
BRANCH  20  21
ATOM     21  C   UNL     1      -4.509  -2.264   5.263  1.00  0.00    -0.000 C 
BRANCH  21  22
ATOM     22  C   UNL     1      -3.691  -1.824   6.486  1.00  0.00    -0.000 C 
BRANCH  22  23
ATOM     23  C   UNL     1      -2.324  -2.520   6.514  1.00  0.00    -0.000 C 
BRANCH  23  24
ATOM     24  C   UNL     1      -2.481  -4.034   6.713  1.00  0.00    -0.000 C 
BRANCH  24  25
ATOM     25  C   UNL     1      -3.082  -4.390   8.081  1.00  0.00    -0.003 C 
ATOM     26  C   UNL     1      -2.767  -5.823   8.511  1.00  0.00     0.004 C 
ENDBRANCH  24  25
ENDBRANCH  23  24
ENDBRANCH  22  23
ENDBRANCH  21  22
ENDBRANCH  20  21
ENDBRANCH  19  20
ENDBRANCH  18  19
ENDBRANCH  17  18
ENDBRANCH  16  17
ENDBRANCH  15  16
ENDBRANCH   1  15
TORSDOF 22
ENDMDL
MODEL 7
REMARK VINA RESULT:    -6.543      6.464     10.573
REMARK INTER + INTRA:         -17.378
REMARK INTER:                 -16.042
REMARK INTRA:                  -1.335
REMARK UNBOUND:                -2.420
REMARK SMILES CCCCCCCCCCCCCCCCCCCCCCCC(=O)[O-]
REMARK SMILES IDX 13 1 14 2 15 3 16 4 17 5 18 6 19 7 20 8 21 9 22 10 23 11
REMARK SMILES IDX 24 12 25 13 26 14 12 15 11 16 10 17 9 18 8 19 7 20 6 21 5 22
REMARK SMILES IDX 4 23 3 24 2 25 1 26
REMARK H PARENT
REMARK Flexibility Score: inf
ROOT
ATOM      1  C   UNL     1      -5.209   0.815   3.067  1.00  0.00     0.000 C 
ENDROOT
BRANCH   1   2
ATOM      2  C   UNL     1      -4.349   0.391   1.871  1.00  0.00     0.000 C 
BRANCH   2   3
ATOM      3  C   UNL     1      -5.155   0.438   0.568  1.00  0.00     0.000 C 
BRANCH   3   4
ATOM      4  C   UNL     1      -4.269   0.091  -0.639  1.00  0.00     0.000 C 
BRANCH   4   5
ATOM      5  C   UNL     1      -5.071  -0.057  -1.940  1.00  0.00     0.000 C 
BRANCH   5   6
ATOM      6  C   UNL     1      -4.212  -0.570  -3.110  1.00  0.00     0.000 C 
BRANCH   6   7
ATOM      7  C   UNL     1      -4.666  -1.957  -3.600  1.00  0.00     0.000 C 
BRANCH   7   8
ATOM      8  C   UNL     1      -3.606  -3.063  -3.388  1.00  0.00     0.000 C 
BRANCH   8   9
ATOM      9  C   UNL     1      -2.165  -2.527  -3.291  1.00  0.00     0.000 C 
BRANCH   9  10
ATOM     10  C   UNL     1      -1.108  -3.391  -4.006  1.00  0.00     0.006 C 
BRANCH  10  11
ATOM     11  C   UNL     1      -0.517  -2.749  -5.273  1.00  0.00     0.053 C 
BRANCH  11  12
ATOM     12  C   UNL     1       0.084  -3.769  -6.192  1.00  0.00     0.041 C 
ATOM     13  O   UNL     1       0.821  -3.405  -7.146  1.00  0.00    -0.550 OA
ATOM     14  O   UNL     1      -0.140  -5.122  -5.971  1.00  0.00    -0.550 OA
ENDBRANCH  11  12
ENDBRANCH  10  11
ENDBRANCH   9  10
ENDBRANCH   8   9
ENDBRANCH   7   8
ENDBRANCH   6   7
ENDBRANCH   5   6
ENDBRANCH   4   5
ENDBRANCH   3   4
ENDBRANCH   2   3
ENDBRANCH   1   2
BRANCH   1  15
ATOM     15  C   UNL     1      -4.770   2.184   3.602  1.00  0.00     0.000 C 
BRANCH  15  16
ATOM     16  C   UNL     1      -3.419   2.085   4.326  1.00  0.00     0.000 C 
BRANCH  16  17
ATOM     17  C   UNL     1      -2.928   3.440   4.872  1.00  0.00     0.000 C 
BRANCH  17  18
ATOM     18  C   UNL     1      -4.037   4.449   5.223  1.00  0.00    -0.000 C 
BRANCH  18  19
ATOM     19  C   UNL     1      -3.908   5.774   4.453  1.00  0.00    -0.000 C 
BRANCH  19  20
ATOM     20  C   UNL     1      -5.218   6.585   4.431  1.00  0.00    -0.000 C 
BRANCH  20  21
ATOM     21  C   UNL     1      -6.371   5.949   3.635  1.00  0.00    -0.000 C 
BRANCH  21  22
ATOM     22  C   UNL     1      -6.406   6.398   2.166  1.00  0.00    -0.000 C 
BRANCH  22  23
ATOM     23  C   UNL     1      -7.777   6.119   1.537  1.00  0.00    -0.000 C 
BRANCH  23  24
ATOM     24  C   UNL     1      -8.791   5.676   2.601  1.00  0.00    -0.000 C 
BRANCH  24  25
ATOM     25  C   UNL     1     -10.234   5.672   2.077  1.00  0.00    -0.003 C 
ATOM     26  C   UNL     1     -10.314   5.862   0.562  1.00  0.00     0.004 C 
ENDBRANCH  24  25
ENDBRANCH  23  24
ENDBRANCH  22  23
ENDBRANCH  21  22
ENDBRANCH  20  21
ENDBRANCH  19  20
ENDBRANCH  18  19
ENDBRANCH  17  18
ENDBRANCH  16  17
ENDBRANCH  15  16
ENDBRANCH   1  15
TORSDOF 22
ENDMDL
MODEL 8
REMARK VINA RESULT:    -6.504      1.915      3.380
REMARK INTER + INTRA:         -17.289
REMARK INTER:                 -15.738
REMARK INTRA:                  -1.551
REMARK UNBOUND:                -2.420
REMARK SMILES CCCCCCCCCCCCCCCCCCCCCCCC(=O)[O-]
REMARK SMILES IDX 13 1 14 2 15 3 16 4 17 5 18 6 19 7 20 8 21 9 22 10 23 11
REMARK SMILES IDX 24 12 25 13 26 14 12 15 11 16 10 17 9 18 8 19 7 20 6 21 5 22
REMARK SMILES IDX 4 23 3 24 2 25 1 26
REMARK H PARENT
REMARK Flexibility Score: inf
ROOT
ATOM      1  C   UNL     1      -4.096   0.617   2.712  1.00  0.00     0.000 C 
ENDROOT
BRANCH   1   2
ATOM      2  C   UNL     1      -4.237   1.424   4.007  1.00  0.00     0.000 C 
BRANCH   2   3
ATOM      3  C   UNL     1      -3.265   2.609   4.028  1.00  0.00     0.000 C 
BRANCH   3   4
ATOM      4  C   UNL     1      -3.826   3.764   4.873  1.00  0.00     0.000 C 
BRANCH   4   5
ATOM      5  C   UNL     1      -3.001   5.053   4.734  1.00  0.00     0.000 C 
BRANCH   5   6
ATOM      6  C   UNL     1      -3.840   6.240   4.227  1.00  0.00     0.000 C 
BRANCH   6   7
ATOM      7  C   UNL     1      -5.352   5.956   4.297  1.00  0.00     0.000 C 
BRANCH   7   8
ATOM      8  C   UNL     1      -6.126   6.428   3.045  1.00  0.00     0.000 C 
BRANCH   8   9
ATOM      9  C   UNL     1      -7.586   5.940   3.001  1.00  0.00     0.000 C 
BRANCH   9  10
ATOM     10  C   UNL     1      -8.239   5.988   1.605  1.00  0.00     0.006 C 
BRANCH  10  11
ATOM     11  C   UNL     1      -9.776   5.940   1.624  1.00  0.00     0.053 C 
BRANCH  11  12
ATOM     12  C   UNL     1     -10.310   5.555   2.969  1.00  0.00     0.041 C 
ATOM     13  O   UNL     1     -10.333   4.346   3.320  1.00  0.00    -0.550 OA
ATOM     14  O   UNL     1     -10.751   6.536   3.849  1.00  0.00    -0.550 OA
ENDBRANCH  11  12
ENDBRANCH  10  11
ENDBRANCH   9  10
ENDBRANCH   8   9
ENDBRANCH   7   8
ENDBRANCH   6   7
ENDBRANCH   5   6
ENDBRANCH   4   5
ENDBRANCH   3   4
ENDBRANCH   2   3
ENDBRANCH   1   2
BRANCH   1  15
ATOM     15  C   UNL     1      -5.471   0.255   2.136  1.00  0.00     0.000 C 
BRANCH  15  16
ATOM     16  C   UNL     1      -6.498   0.038   3.257  1.00  0.00     0.000 C 
BRANCH  16  17
ATOM     17  C   UNL     1      -6.551  -1.420   3.752  1.00  0.00     0.000 C 
BRANCH  17  18
ATOM     18  C   UNL     1      -5.988  -1.656   5.165  1.00  0.00    -0.000 C 
BRANCH  18  19
ATOM     19  C   UNL     1      -4.585  -2.285   5.156  1.00  0.00    -0.000 C 
BRANCH  19  20
ATOM     20  C   UNL     1      -3.560  -1.477   5.974  1.00  0.00    -0.000 C 
BRANCH  20  21
ATOM     21  C   UNL     1      -2.748  -2.290   6.997  1.00  0.00    -0.000 C 
BRANCH  21  22
ATOM     22  C   UNL     1      -2.979  -3.804   6.880  1.00  0.00    -0.000 C 
BRANCH  22  23
ATOM     23  C   UNL     1      -2.848  -4.489   8.247  1.00  0.00    -0.000 C 
BRANCH  23  24
ATOM     24  C   UNL     1      -3.632  -5.808   8.280  1.00  0.00    -0.000 C 
BRANCH  24  25
ATOM     25  C   UNL     1      -2.784  -7.011   7.841  1.00  0.00    -0.003 C 
ATOM     26  C   UNL     1      -3.099  -7.470   6.418  1.00  0.00     0.004 C 
ENDBRANCH  24  25
ENDBRANCH  23  24
ENDBRANCH  22  23
ENDBRANCH  21  22
ENDBRANCH  20  21
ENDBRANCH  19  20
ENDBRANCH  18  19
ENDBRANCH  17  18
ENDBRANCH  16  17
ENDBRANCH  15  16
ENDBRANCH   1  15
TORSDOF 22
ENDMDL
MODEL 9
REMARK VINA RESULT:    -6.490      8.837     12.184
REMARK INTER + INTRA:         -17.257
REMARK INTER:                 -16.280
REMARK INTRA:                  -0.977
REMARK UNBOUND:                -2.420
REMARK SMILES CCCCCCCCCCCCCCCCCCCCCCCC(=O)[O-]
REMARK SMILES IDX 13 1 14 2 15 3 16 4 17 5 18 6 19 7 20 8 21 9 22 10 23 11
REMARK SMILES IDX 24 12 25 13 26 14 12 15 11 16 10 17 9 18 8 19 7 20 6 21 5 22
REMARK SMILES IDX 4 23 3 24 2 25 1 26
REMARK H PARENT
REMARK Flexibility Score: inf
ROOT
ATOM      1  C   UNL     1      -4.982   0.034  -1.222  1.00  0.00     0.000 C 
ENDROOT
BRANCH   1   2
ATOM      2  C   UNL     1      -4.140   0.332  -2.467  1.00  0.00     0.000 C 
BRANCH   2   3
ATOM      3  C   UNL     1      -3.778  -0.959  -3.211  1.00  0.00     0.000 C 
BRANCH   3   4
ATOM      4  C   UNL     1      -2.411  -0.829  -3.902  1.00  0.00     0.000 C 
BRANCH   4   5
ATOM      5  C   UNL     1      -1.681  -2.175  -4.028  1.00  0.00     0.000 C 
BRANCH   5   6
ATOM      6  C   UNL     1      -0.733  -2.223  -5.240  1.00  0.00     0.000 C 
BRANCH   6   7
ATOM      7  C   UNL     1      -0.280  -3.657  -5.568  1.00  0.00     0.000 C 
BRANCH   7   8
ATOM      8  C   UNL     1      -0.166  -3.936  -7.085  1.00  0.00     0.000 C 
BRANCH   8   9
ATOM      9  C   UNL     1       1.219  -4.452  -7.516  1.00  0.00     0.000 C 
BRANCH   9  10
ATOM     10  C   UNL     1       2.148  -3.378  -8.115  1.00  0.00     0.006 C 
BRANCH  10  11
ATOM     11  C   UNL     1       3.644  -3.731  -8.058  1.00  0.00     0.053 C 
BRANCH  11  12
ATOM     12  C   UNL     1       4.422  -2.751  -7.235  1.00  0.00     0.041 C 
ATOM     13  O   UNL     1       3.889  -1.673  -6.862  1.00  0.00    -0.550 OA
ATOM     14  O   UNL     1       5.725  -3.044  -6.852  1.00  0.00    -0.550 OA
ENDBRANCH  11  12
ENDBRANCH  10  11
ENDBRANCH   9  10
ENDBRANCH   8   9
ENDBRANCH   7   8
ENDBRANCH   6   7
ENDBRANCH   5   6
ENDBRANCH   4   5
ENDBRANCH   3   4
ENDBRANCH   2   3
ENDBRANCH   1   2
BRANCH   1  15
ATOM     15  C   UNL     1      -4.131   0.117   0.051  1.00  0.00     0.000 C 
BRANCH  15  16
ATOM     16  C   UNL     1      -5.012   0.337   1.289  1.00  0.00     0.000 C 
BRANCH  16  17
ATOM     17  C   UNL     1      -4.198   0.638   2.562  1.00  0.00     0.000 C 
BRANCH  17  18
ATOM     18  C   UNL     1      -4.602   1.919   3.314  1.00  0.00    -0.000 C 
BRANCH  18  19
ATOM     19  C   UNL     1      -3.581   2.333   4.387  1.00  0.00    -0.000 C 
BRANCH  19  20
ATOM     20  C   UNL     1      -3.191   3.821   4.302  1.00  0.00    -0.000 C 
BRANCH  20  21
ATOM     21  C   UNL     1      -3.831   4.730   5.367  1.00  0.00    -0.000 C 
BRANCH  21  22
ATOM     22  C   UNL     1      -5.312   5.027   5.091  1.00  0.00    -0.000 C 
BRANCH  22  23
ATOM     23  C   UNL     1      -5.467   6.048   3.956  1.00  0.00    -0.000 C 
BRANCH  23  24
ATOM     24  C   UNL     1      -6.805   5.863   3.228  1.00  0.00    -0.000 C 
BRANCH  24  25
ATOM     25  C   UNL     1      -6.752   6.330   1.765  1.00  0.00    -0.003 C 
ATOM     26  C   UNL     1      -5.468   7.092   1.434  1.00  0.00     0.004 C 
ENDBRANCH  24  25
ENDBRANCH  23  24
ENDBRANCH  22  23
ENDBRANCH  21  22
ENDBRANCH  20  21
ENDBRANCH  19  20
ENDBRANCH  18  19
ENDBRANCH  17  18
ENDBRANCH  16  17
ENDBRANCH  15  16
ENDBRANCH   1  15
TORSDOF 22
ENDMDL
