MODEL 1
REMARK VINA RESULT:    -5.286      0.000      0.000
REMARK INTER + INTRA:         -12.189
REMARK INTER:                  -9.921
REMARK INTRA:                  -2.268
REMARK UNBOUND:                -2.268
REMARK SMILES O=C([O-])CCCCCCCCCCCCCCC(=O)[O-]
REMARK SMILES IDX 10 1 9 2 8 3 7 4 6 5 5 6 4 7 2 8 1 9 3 10 11 11 12 12 13 13
REMARK SMILES IDX 14 14 15 15 16 16 17 17 18 18 19 19 20 20
REMARK H PARENT
REMARK Flexibility Score: inf
ROOT
ATOM      1  C   UNL     1      61.703   1.722  19.969  1.00  0.00     0.000 C 
ENDROOT
BRANCH   1   2
ATOM      2  C   UNL     1      61.269   3.186  19.748  1.00  0.00     0.000 C 
BRANCH   2   3
ATOM      3  C   UNL     1      60.879   3.954  21.026  1.00  0.00     0.000 C 
BRANCH   3   4
ATOM      4  C   UNL     1      62.064   4.519  21.831  1.00  0.00     0.000 C 
BRANCH   4   5
ATOM      5  C   UNL     1      62.347   3.723  23.113  1.00  0.00     0.000 C 
BRANCH   5   6
ATOM      6  C   UNL     1      63.729   3.057  23.051  1.00  0.00     0.006 C 
BRANCH   6   7
ATOM      7  C   UNL     1      64.866   4.050  23.331  1.00  0.00     0.053 C 
BRANCH   7   8
ATOM      8  C   UNL     1      66.040   3.383  23.979  1.00  0.00     0.041 C 
ATOM      9  O   UNL     1      66.603   2.407  23.418  1.00  0.00    -0.550 OA
ATOM     10  O   UNL     1      66.491   3.818  25.218  1.00  0.00    -0.550 OA
ENDBRANCH   7   8
ENDBRANCH   6   7
ENDBRANCH   5   6
ENDBRANCH   4   5
ENDBRANCH   3   4
ENDBRANCH   2   3
ENDBRANCH   1   2
BRANCH   1  11
ATOM     11  C   UNL     1      63.129   1.383  19.497  1.00  0.00     0.000 C 
BRANCH  11  12
ATOM     12  C   UNL     1      63.934   2.629  19.092  1.00  0.00     0.000 C 
BRANCH  12  13
ATOM     13  C   UNL     1      65.286   2.729  19.822  1.00  0.00     0.000 C 
BRANCH  13  14
ATOM     14  C   UNL     1      65.969   4.110  19.752  1.00  0.00     0.000 C 
BRANCH  14  15
ATOM     15  C   UNL     1      65.020   5.298  19.502  1.00  0.00     0.000 C 
BRANCH  15  16
ATOM     16  C   UNL     1      65.142   6.454  20.516  1.00  0.00     0.006 C 
BRANCH  16  17
ATOM     17  C   UNL     1      66.251   7.467  20.192  1.00  0.00     0.053 C 
BRANCH  17  18
ATOM     18  C   UNL     1      65.702   8.725  19.595  1.00  0.00     0.041 C 
ATOM     19  O   UNL     1      66.443   9.478  18.910  1.00  0.00    -0.550 OA
ATOM     20  O   UNL     1      64.379   9.084  19.823  1.00  0.00    -0.550 OA
ENDBRANCH  17  18
ENDBRANCH  16  17
ENDBRANCH  15  16
ENDBRANCH  14  15
ENDBRANCH  13  14
ENDBRANCH  12  13
ENDBRANCH  11  12
ENDBRANCH   1  11
TORSDOF 15
ENDMDL
MODEL 2
REMARK VINA RESULT:    -5.082     11.307     13.372
REMARK INTER + INTRA:         -11.807
REMARK INTER:                  -9.985
REMARK INTRA:                  -1.822
REMARK UNBOUND:                -2.268
REMARK SMILES O=C([O-])CCCCCCCCCCCCCCC(=O)[O-]
REMARK SMILES IDX 10 1 9 2 8 3 7 4 6 5 5 6 4 7 2 8 1 9 3 10 11 11 12 12 13 13
REMARK SMILES IDX 14 14 15 15 16 16 17 17 18 18 19 19 20 20
REMARK H PARENT
REMARK Flexibility Score: inf
ROOT
ATOM      1  C   UNL     1      75.643   6.709  21.101  1.00  0.00     0.000 C 
ENDROOT
BRANCH   1   2
ATOM      2  C   UNL     1      74.546   5.858  20.427  1.00  0.00     0.000 C 
BRANCH   2   3
ATOM      3  C   UNL     1      73.630   5.084  21.395  1.00  0.00     0.000 C 
BRANCH   3   4
ATOM      4  C   UNL     1      74.308   3.919  22.139  1.00  0.00     0.000 C 
BRANCH   4   5
ATOM      5  C   UNL     1      74.769   2.798  21.197  1.00  0.00     0.000 C 
BRANCH   5   6
ATOM      6  C   UNL     1      76.281   2.561  21.325  1.00  0.00     0.006 C 
BRANCH   6   7
ATOM      7  C   UNL     1      76.911   3.411  22.436  1.00  0.00     0.053 C 
BRANCH   7   8
ATOM      8  C   UNL     1      78.337   3.755  22.133  1.00  0.00     0.041 C 
ATOM      9  O   UNL     1      79.273   3.140  22.707  1.00  0.00    -0.550 OA
ATOM     10  O   UNL     1      78.630   4.779  21.242  1.00  0.00    -0.550 OA
ENDBRANCH   7   8
ENDBRANCH   6   7
ENDBRANCH   5   6
ENDBRANCH   4   5
ENDBRANCH   3   4
ENDBRANCH   2   3
ENDBRANCH   1   2
BRANCH   1  11
ATOM     11  C   UNL     1      75.159   8.039  21.708  1.00  0.00     0.000 C 
BRANCH  11  12
ATOM     12  C   UNL     1      76.181   8.658  22.676  1.00  0.00     0.000 C 
BRANCH  12  13
ATOM     13  C   UNL     1      77.368   7.721  22.972  1.00  0.00     0.000 C 
BRANCH  13  14
ATOM     14  C   UNL     1      77.274   6.942  24.299  1.00  0.00     0.000 C 
BRANCH  14  15
ATOM     15  C   UNL     1      76.256   7.498  25.315  1.00  0.00     0.000 C 
BRANCH  15  16
ATOM     16  C   UNL     1      76.873   8.266  26.501  1.00  0.00     0.006 C 
BRANCH  16  17
ATOM     17  C   UNL     1      77.188   9.741  26.207  1.00  0.00     0.053 C 
BRANCH  17  18
ATOM     18  C   UNL     1      78.631   9.946  25.861  1.00  0.00     0.041 C 
ATOM     19  O   UNL     1      79.534   9.498  26.616  1.00  0.00    -0.550 OA
ATOM     20  O   UNL     1      78.978  10.662  24.722  1.00  0.00    -0.550 OA
ENDBRANCH  17  18
ENDBRANCH  16  17
ENDBRANCH  15  16
ENDBRANCH  14  15
ENDBRANCH  13  14
ENDBRANCH  12  13
ENDBRANCH  11  12
ENDBRANCH   1  11
TORSDOF 15
ENDMDL
MODEL 3
REMARK VINA RESULT:    -5.066      2.201      3.506
REMARK INTER + INTRA:         -11.777
REMARK INTER:                 -10.008
REMARK INTRA:                  -1.769
REMARK UNBOUND:                -2.268
REMARK SMILES O=C([O-])CCCCCCCCCCCCCCC(=O)[O-]
REMARK SMILES IDX 10 1 9 2 8 3 7 4 6 5 5 6 4 7 2 8 1 9 3 10 11 11 12 12 13 13
REMARK SMILES IDX 14 14 15 15 16 16 17 17 18 18 19 19 20 20
REMARK H PARENT
REMARK Flexibility Score: inf
ROOT
ATOM      1  C   UNL     1      61.208   2.945  21.869  1.00  0.00     0.000 C 
ENDROOT
BRANCH   1   2
ATOM      2  C   UNL     1      62.155   3.698  22.827  1.00  0.00     0.000 C 
BRANCH   2   3
ATOM      3  C   UNL     1      63.130   2.807  23.621  1.00  0.00     0.000 C 
BRANCH   3   4
ATOM      4  C   UNL     1      64.232   2.140  22.778  1.00  0.00     0.000 C 
BRANCH   4   5
ATOM      5  C   UNL     1      65.461   1.745  23.609  1.00  0.00     0.000 C 
BRANCH   5   6
ATOM      6  C   UNL     1      66.411   2.939  23.787  1.00  0.00     0.006 C 
BRANCH   6   7
ATOM      7  C   UNL     1      66.471   3.421  25.243  1.00  0.00     0.053 C 
BRANCH   7   8
ATOM      8  C   UNL     1      67.181   4.734  25.365  1.00  0.00     0.041 C 
ATOM      9  O   UNL     1      67.652   5.099  26.473  1.00  0.00    -0.550 OA
ATOM     10  O   UNL     1      67.292   5.570  24.261  1.00  0.00    -0.550 OA
ENDBRANCH   7   8
ENDBRANCH   6   7
ENDBRANCH   5   6
ENDBRANCH   4   5
ENDBRANCH   3   4
ENDBRANCH   2   3
ENDBRANCH   1   2
BRANCH   1  11
ATOM     11  C   UNL     1      61.009   3.606  20.493  1.00  0.00     0.000 C 
BRANCH  11  12
ATOM     12  C   UNL     1      61.381   2.675  19.326  1.00  0.00     0.000 C 
BRANCH  12  13
ATOM     13  C   UNL     1      62.130   1.411  19.786  1.00  0.00     0.000 C 
BRANCH  13  14
ATOM     14  C   UNL     1      63.495   1.173  19.110  1.00  0.00     0.000 C 
BRANCH  14  15
ATOM     15  C   UNL     1      64.630   2.104  19.580  1.00  0.00     0.000 C 
BRANCH  15  16
ATOM     16  C   UNL     1      65.053   3.181  18.561  1.00  0.00     0.006 C 
BRANCH  16  17
ATOM     17  C   UNL     1      64.915   4.625  19.070  1.00  0.00     0.053 C 
BRANCH  17  18
ATOM     18  C   UNL     1      65.561   4.810  20.408  1.00  0.00     0.041 C 
ATOM     19  O   UNL     1      64.908   5.302  21.365  1.00  0.00    -0.550 OA
ATOM     20  O   UNL     1      66.896   4.470  20.589  1.00  0.00    -0.550 OA
ENDBRANCH  17  18
ENDBRANCH  16  17
ENDBRANCH  15  16
ENDBRANCH  14  15
ENDBRANCH  13  14
ENDBRANCH  12  13
ENDBRANCH  11  12
ENDBRANCH   1  11
TORSDOF 15
ENDMDL
MODEL 4
REMARK VINA RESULT:    -5.018     11.273     13.708
REMARK INTER + INTRA:         -11.686
REMARK INTER:                 -10.325
REMARK INTRA:                  -1.361
REMARK UNBOUND:                -2.268
REMARK SMILES O=C([O-])CCCCCCCCCCCCCCC(=O)[O-]
REMARK SMILES IDX 10 1 9 2 8 3 7 4 6 5 5 6 4 7 2 8 1 9 3 10 11 11 12 12 13 13
REMARK SMILES IDX 14 14 15 15 16 16 17 17 18 18 19 19 20 20
REMARK H PARENT
REMARK Flexibility Score: inf
ROOT
ATOM      1  C   UNL     1      77.172   6.521  21.196  1.00  0.00     0.000 C 
ENDROOT
BRANCH   1   2
ATOM      2  C   UNL     1      78.189   5.723  22.038  1.00  0.00     0.000 C 
BRANCH   2   3
ATOM      3  C   UNL     1      78.906   4.581  21.292  1.00  0.00     0.000 C 
BRANCH   3   4
ATOM      4  C   UNL     1      78.577   3.166  21.800  1.00  0.00     0.000 C 
BRANCH   4   5
ATOM      5  C   UNL     1      77.236   3.097  22.545  1.00  0.00     0.000 C 
BRANCH   5   6
ATOM      6  C   UNL     1      76.126   2.562  21.629  1.00  0.00     0.006 C 
BRANCH   6   7
ATOM      7  C   UNL     1      74.869   3.442  21.663  1.00  0.00     0.053 C 
BRANCH   7   8
ATOM      8  C   UNL     1      73.630   2.654  21.370  1.00  0.00     0.041 C 
ATOM      9  O   UNL     1      72.814   2.389  22.292  1.00  0.00    -0.550 OA
ATOM     10  O   UNL     1      73.394   2.183  20.085  1.00  0.00    -0.550 OA
ENDBRANCH   7   8
ENDBRANCH   6   7
ENDBRANCH   5   6
ENDBRANCH   4   5
ENDBRANCH   3   4
ENDBRANCH   2   3
ENDBRANCH   1   2
BRANCH   1  11
ATOM     11  C   UNL     1      76.053   7.209  21.999  1.00  0.00     0.000 C 
BRANCH  11  12
ATOM     12  C   UNL     1      76.551   8.438  22.780  1.00  0.00     0.000 C 
BRANCH  12  13
ATOM     13  C   UNL     1      75.403   9.352  23.249  1.00  0.00     0.000 C 
BRANCH  13  14
ATOM     14  C   UNL     1      75.368   9.636  24.764  1.00  0.00     0.000 C 
BRANCH  14  15
ATOM     15  C   UNL     1      75.423   8.387  25.666  1.00  0.00     0.000 C 
BRANCH  15  16
ATOM     16  C   UNL     1      76.748   8.194  26.430  1.00  0.00     0.006 C 
BRANCH  16  17
ATOM     17  C   UNL     1      77.509   9.496  26.721  1.00  0.00     0.053 C 
BRANCH  17  18
ATOM     18  C   UNL     1      78.923   9.439  26.231  1.00  0.00     0.041 C 
ATOM     19  O   UNL     1      79.168   9.137  25.034  1.00  0.00    -0.550 OA
ATOM     20  O   UNL     1      79.973   9.688  27.107  1.00  0.00    -0.550 OA
ENDBRANCH  17  18
ENDBRANCH  16  17
ENDBRANCH  15  16
ENDBRANCH  14  15
ENDBRANCH  13  14
ENDBRANCH  12  13
ENDBRANCH  11  12
ENDBRANCH   1  11
TORSDOF 15
ENDMDL
MODEL 5
REMARK VINA RESULT:    -5.017     10.458     12.375
REMARK INTER + INTRA:         -11.684
REMARK INTER:                  -9.585
REMARK INTRA:                  -2.099
REMARK UNBOUND:                -2.268
REMARK SMILES O=C([O-])CCCCCCCCCCCCCCC(=O)[O-]
REMARK SMILES IDX 10 1 9 2 8 3 7 4 6 5 5 6 4 7 2 8 1 9 3 10 11 11 12 12 13 13
REMARK SMILES IDX 14 14 15 15 16 16 17 17 18 18 19 19 20 20
REMARK H PARENT
REMARK Flexibility Score: inf
ROOT
ATOM      1  C   UNL     1      72.165   4.093  21.810  1.00  0.00     0.000 C 
ENDROOT
BRANCH   1   2
ATOM      2  C   UNL     1      73.329   3.161  22.207  1.00  0.00     0.000 C 
BRANCH   2   3
ATOM      3  C   UNL     1      74.137   2.581  21.030  1.00  0.00     0.000 C 
BRANCH   3   4
ATOM      4  C   UNL     1      75.664   2.739  21.150  1.00  0.00     0.000 C 
BRANCH   4   5
ATOM      5  C   UNL     1      76.097   3.336  22.496  1.00  0.00     0.000 C 
BRANCH   5   6
ATOM      6  C   UNL     1      77.618   3.231  22.679  1.00  0.00     0.006 C 
BRANCH   6   7
ATOM      7  C   UNL     1      78.381   3.520  21.379  1.00  0.00     0.053 C 
BRANCH   7   8
ATOM      8  C   UNL     1      79.012   4.879  21.395  1.00  0.00     0.041 C 
ATOM      9  O   UNL     1      80.020   5.100  22.115  1.00  0.00    -0.550 OA
ATOM     10  O   UNL     1      78.464   5.908  20.641  1.00  0.00    -0.550 OA
ENDBRANCH   7   8
ENDBRANCH   6   7
ENDBRANCH   5   6
ENDBRANCH   4   5
ENDBRANCH   3   4
ENDBRANCH   2   3
ENDBRANCH   1   2
BRANCH   1  11
ATOM     11  C   UNL     1      72.506   5.594  21.788  1.00  0.00     0.000 C 
BRANCH  11  12
ATOM     12  C   UNL     1      72.915   6.092  20.392  1.00  0.00     0.000 C 
BRANCH  12  13
ATOM     13  C   UNL     1      74.439   6.260  20.241  1.00  0.00     0.000 C 
BRANCH  13  14
ATOM     14  C   UNL     1      75.176   6.726  21.512  1.00  0.00     0.000 C 
BRANCH  14  15
ATOM     15  C   UNL     1      75.022   8.222  21.848  1.00  0.00     0.000 C 
BRANCH  15  16
ATOM     16  C   UNL     1      76.039   8.768  22.871  1.00  0.00     0.006 C 
BRANCH  16  17
ATOM     17  C   UNL     1      76.338   7.815  24.038  1.00  0.00     0.053 C 
BRANCH  17  18
ATOM     18  C   UNL     1      77.764   7.358  24.035  1.00  0.00     0.041 C 
ATOM     19  O   UNL     1      78.083   6.271  24.583  1.00  0.00    -0.550 OA
ATOM     20  O   UNL     1      78.747   8.151  23.455  1.00  0.00    -0.550 OA
ENDBRANCH  17  18
ENDBRANCH  16  17
ENDBRANCH  15  16
ENDBRANCH  14  15
ENDBRANCH  13  14
ENDBRANCH  12  13
ENDBRANCH  11  12
ENDBRANCH   1  11
TORSDOF 15
ENDMDL
MODEL 6
REMARK VINA RESULT:    -4.980      9.101     11.321
REMARK INTER + INTRA:         -11.615
REMARK INTER:                  -9.750
REMARK INTRA:                  -1.866
REMARK UNBOUND:                -2.268
REMARK SMILES O=C([O-])CCCCCCCCCCCCCCC(=O)[O-]
REMARK SMILES IDX 10 1 9 2 8 3 7 4 6 5 5 6 4 7 2 8 1 9 3 10 11 11 12 12 13 13
REMARK SMILES IDX 14 14 15 15 16 16 17 17 18 18 19 19 20 20
REMARK H PARENT
REMARK Flexibility Score: inf
ROOT
ATOM      1  C   UNL     1      70.405   5.273  21.201  1.00  0.00     0.000 C 
ENDROOT
BRANCH   1   2
ATOM      2  C   UNL     1      71.344   5.690  20.049  1.00  0.00     0.000 C 
BRANCH   2   3
ATOM      3  C   UNL     1      71.759   7.174  20.046  1.00  0.00     0.000 C 
BRANCH   3   4
ATOM      4  C   UNL     1      73.206   7.444  20.497  1.00  0.00     0.000 C 
BRANCH   4   5
ATOM      5  C   UNL     1      74.142   6.254  20.244  1.00  0.00     0.000 C 
BRANCH   5   6
ATOM      6  C   UNL     1      75.486   6.449  20.962  1.00  0.00     0.006 C 
BRANCH   6   7
ATOM      7  C   UNL     1      75.504   7.718  21.825  1.00  0.00     0.053 C 
BRANCH   7   8
ATOM      8  C   UNL     1      76.549   7.648  22.895  1.00  0.00     0.041 C 
ATOM      9  O   UNL     1      77.537   8.427  22.869  1.00  0.00    -0.550 OA
ATOM     10  O   UNL     1      76.449   6.697  23.903  1.00  0.00    -0.550 OA
ENDBRANCH   7   8
ENDBRANCH   6   7
ENDBRANCH   5   6
ENDBRANCH   4   5
ENDBRANCH   3   4
ENDBRANCH   2   3
ENDBRANCH   1   2
BRANCH   1  11
ATOM     11  C   UNL     1      71.113   4.821  22.491  1.00  0.00     0.000 C 
BRANCH  11  12
ATOM     12  C   UNL     1      71.426   3.315  22.501  1.00  0.00     0.000 C 
BRANCH  12  13
ATOM     13  C   UNL     1      72.920   3.014  22.278  1.00  0.00     0.000 C 
BRANCH  13  14
ATOM     14  C   UNL     1      73.316   2.708  20.819  1.00  0.00     0.000 C 
BRANCH  14  15
ATOM     15  C   UNL     1      74.726   2.113  20.634  1.00  0.00     0.000 C 
BRANCH  15  16
ATOM     16  C   UNL     1      75.784   2.624  21.633  1.00  0.00     0.006 C 
BRANCH  16  17
ATOM     17  C   UNL     1      77.188   2.803  21.034  1.00  0.00     0.053 C 
BRANCH  17  18
ATOM     18  C   UNL     1      78.126   3.464  21.996  1.00  0.00     0.041 C 
ATOM     19  O   UNL     1      78.435   4.676  21.849  1.00  0.00    -0.550 OA
ATOM     20  O   UNL     1      78.685   2.733  23.036  1.00  0.00    -0.550 OA
ENDBRANCH  17  18
ENDBRANCH  16  17
ENDBRANCH  15  16
ENDBRANCH  14  15
ENDBRANCH  13  14
ENDBRANCH  12  13
ENDBRANCH  11  12
ENDBRANCH   1  11
TORSDOF 15
ENDMDL
MODEL 7
REMARK VINA RESULT:    -4.971     11.724     14.455
REMARK INTER + INTRA:         -11.599
REMARK INTER:                  -9.103
REMARK INTRA:                  -2.496
REMARK UNBOUND:                -2.268
REMARK SMILES O=C([O-])CCCCCCCCCCCCCCC(=O)[O-]
REMARK SMILES IDX 10 1 9 2 8 3 7 4 6 5 5 6 4 7 2 8 1 9 3 10 11 11 12 12 13 13
REMARK SMILES IDX 14 14 15 15 16 16 17 17 18 18 19 19 20 20
REMARK H PARENT
REMARK Flexibility Score: inf
ROOT
ATOM      1  C   UNL     1      78.147  10.998  24.440  1.00  0.00     0.000 C 
ENDROOT
BRANCH   1   2
ATOM      2  C   UNL     1      79.364  10.050  24.437  1.00  0.00     0.000 C 
BRANCH   2   3
ATOM      3  C   UNL     1      79.225   8.807  23.537  1.00  0.00     0.000 C 
BRANCH   3   4
ATOM      4  C   UNL     1      79.719   7.492  24.167  1.00  0.00     0.000 C 
BRANCH   4   5
ATOM      5  C   UNL     1      79.185   6.247  23.444  1.00  0.00     0.000 C 
BRANCH   5   6
ATOM      6  C   UNL     1      78.652   6.608  22.050  1.00  0.00     0.006 C 
BRANCH   6   7
ATOM      7  C   UNL     1      78.772   5.439  21.062  1.00  0.00     0.053 C 
BRANCH   7   8
ATOM      8  C   UNL     1      77.912   4.281  21.463  1.00  0.00     0.041 C 
ATOM      9  O   UNL     1      76.676   4.442  21.640  1.00  0.00    -0.550 OA
ATOM     10  O   UNL     1      78.481   3.032  21.674  1.00  0.00    -0.550 OA
ENDBRANCH   7   8
ENDBRANCH   6   7
ENDBRANCH   5   6
ENDBRANCH   4   5
ENDBRANCH   3   4
ENDBRANCH   2   3
ENDBRANCH   1   2
BRANCH   1  11
ATOM     11  C   UNL     1      77.164  10.798  25.608  1.00  0.00     0.000 C 
BRANCH  11  12
ATOM     12  C   UNL     1      77.674   9.788  26.649  1.00  0.00     0.000 C 
BRANCH  12  13
ATOM     13  C   UNL     1      76.857   8.482  26.665  1.00  0.00     0.000 C 
BRANCH  13  14
ATOM     14  C   UNL     1      75.728   8.402  25.618  1.00  0.00     0.000 C 
BRANCH  14  15
ATOM     15  C   UNL     1      75.880   7.278  24.574  1.00  0.00     0.000 C 
BRANCH  15  16
ATOM     16  C   UNL     1      75.357   7.622  23.165  1.00  0.00     0.006 C 
BRANCH  16  17
ATOM     17  C   UNL     1      75.462   9.109  22.795  1.00  0.00     0.053 C 
BRANCH  17  18
ATOM     18  C   UNL     1      74.140   9.675  22.376  1.00  0.00     0.041 C 
ATOM     19  O   UNL     1      73.351   8.990  21.674  1.00  0.00    -0.550 OA
ATOM     20  O   UNL     1      73.795  10.973  22.731  1.00  0.00    -0.550 OA
ENDBRANCH  17  18
ENDBRANCH  16  17
ENDBRANCH  15  16
ENDBRANCH  14  15
ENDBRANCH  13  14
ENDBRANCH  12  13
ENDBRANCH  11  12
ENDBRANCH   1  11
TORSDOF 15
ENDMDL
MODEL 8
REMARK VINA RESULT:    -4.963     11.580     13.734
REMARK INTER + INTRA:         -11.584
REMARK INTER:                 -10.084
REMARK INTRA:                  -1.500
REMARK UNBOUND:                -2.268
REMARK SMILES O=C([O-])CCCCCCCCCCCCCCC(=O)[O-]
REMARK SMILES IDX 10 1 9 2 8 3 7 4 6 5 5 6 4 7 2 8 1 9 3 10 11 11 12 12 13 13
REMARK SMILES IDX 14 14 15 15 16 16 17 17 18 18 19 19 20 20
REMARK H PARENT
REMARK Flexibility Score: inf
ROOT
ATOM      1  C   UNL     1      76.198   7.551  21.755  1.00  0.00     0.000 C 
ENDROOT
BRANCH   1   2
ATOM      2  C   UNL     1      76.080   8.623  22.859  1.00  0.00     0.000 C 
BRANCH   2   3
ATOM      3  C   UNL     1      74.797   8.551  23.709  1.00  0.00     0.000 C 
BRANCH   3   4
ATOM      4  C   UNL     1      75.026   8.297  25.210  1.00  0.00     0.000 C 
BRANCH   4   5
ATOM      5  C   UNL     1      76.493   7.999  25.547  1.00  0.00     0.000 C 
BRANCH   5   6
ATOM      6  C   UNL     1      77.024   8.980  26.602  1.00  0.00     0.006 C 
BRANCH   6   7
ATOM      7  C   UNL     1      78.433   9.489  26.266  1.00  0.00     0.053 C 
BRANCH   7   8
ATOM      8  C   UNL     1      78.403  10.549  25.208  1.00  0.00     0.041 C 
ATOM      9  O   UNL     1      77.489  11.414  25.203  1.00  0.00    -0.550 OA
ATOM     10  O   UNL     1      79.367  10.560  24.207  1.00  0.00    -0.550 OA
ENDBRANCH   7   8
ENDBRANCH   6   7
ENDBRANCH   5   6
ENDBRANCH   4   5
ENDBRANCH   3   4
ENDBRANCH   2   3
ENDBRANCH   1   2
BRANCH   1  11
ATOM     11  C   UNL     1      74.863   7.103  21.133  1.00  0.00     0.000 C 
BRANCH  11  12
ATOM     12  C   UNL     1      74.915   5.668  20.582  1.00  0.00     0.000 C 
BRANCH  12  13
ATOM     13  C   UNL     1      74.705   4.601  21.672  1.00  0.00     0.000 C 
BRANCH  13  14
ATOM     14  C   UNL     1      74.888   3.142  21.207  1.00  0.00     0.000 C 
BRANCH  14  15
ATOM     15  C   UNL     1      76.327   2.600  21.303  1.00  0.00     0.000 C 
BRANCH  15  16
ATOM     16  C   UNL     1      77.149   3.139  22.491  1.00  0.00     0.006 C 
BRANCH  16  17
ATOM     17  C   UNL     1      78.619   3.439  22.161  1.00  0.00     0.053 C 
BRANCH  17  18
ATOM     18  C   UNL     1      78.853   4.900  21.929  1.00  0.00     0.041 C 
ATOM     19  O   UNL     1      79.019   5.678  22.904  1.00  0.00    -0.550 OA
ATOM     20  O   UNL     1      78.855   5.407  20.635  1.00  0.00    -0.550 OA
ENDBRANCH  17  18
ENDBRANCH  16  17
ENDBRANCH  15  16
ENDBRANCH  14  15
ENDBRANCH  13  14
ENDBRANCH  12  13
ENDBRANCH  11  12
ENDBRANCH   1  11
TORSDOF 15
ENDMDL
MODEL 9
REMARK VINA RESULT:    -4.912     11.092     13.880
REMARK INTER + INTRA:         -11.487
REMARK INTER:                  -9.074
REMARK INTRA:                  -2.413
REMARK UNBOUND:                -2.268
REMARK SMILES O=C([O-])CCCCCCCCCCCCCCC(=O)[O-]
REMARK SMILES IDX 10 1 9 2 8 3 7 4 6 5 5 6 4 7 2 8 1 9 3 10 11 11 12 12 13 13
REMARK SMILES IDX 14 14 15 15 16 16 17 17 18 18 19 19 20 20
REMARK H PARENT
REMARK Flexibility Score: inf
ROOT
ATOM      1  C   UNL     1      77.462   9.844  26.331  1.00  0.00     0.000 C 
ENDROOT
BRANCH   1   2
ATOM      2  C   UNL     1      78.851   9.818  25.660  1.00  0.00     0.000 C 
BRANCH   2   3
ATOM      3  C   UNL     1      78.836   9.700  24.124  1.00  0.00     0.000 C 
BRANCH   3   4
ATOM      4  C   UNL     1      79.638   8.514  23.556  1.00  0.00     0.000 C 
BRANCH   4   5
ATOM      5  C   UNL     1      78.747   7.451  22.900  1.00  0.00     0.000 C 
BRANCH   5   6
ATOM      6  C   UNL     1      78.472   6.291  23.868  1.00  0.00     0.006 C 
BRANCH   6   7
ATOM      7  C   UNL     1      77.205   5.509  23.493  1.00  0.00     0.053 C 
BRANCH   7   8
ATOM      8  C   UNL     1      77.517   4.327  22.629  1.00  0.00     0.041 C 
ATOM      9  O   UNL     1      77.752   4.483  21.402  1.00  0.00    -0.550 OA
ATOM     10  O   UNL     1      77.514   3.048  23.172  1.00  0.00    -0.550 OA
ENDBRANCH   7   8
ENDBRANCH   6   7
ENDBRANCH   5   6
ENDBRANCH   4   5
ENDBRANCH   3   4
ENDBRANCH   2   3
ENDBRANCH   1   2
BRANCH   1  11
ATOM     11  C   UNL     1      76.741   8.485  26.397  1.00  0.00     0.000 C 
BRANCH  11  12
ATOM     12  C   UNL     1      75.535   8.403  25.446  1.00  0.00     0.000 C 
BRANCH  12  13
ATOM     13  C   UNL     1      75.209   9.752  24.778  1.00  0.00     0.000 C 
BRANCH  13  14
ATOM     14  C   UNL     1      74.900   9.680  23.269  1.00  0.00     0.000 C 
BRANCH  14  15
ATOM     15  C   UNL     1      75.333   8.374  22.574  1.00  0.00     0.000 C 
BRANCH  15  16
ATOM     16  C   UNL     1      74.413   7.912  21.425  1.00  0.00     0.006 C 
BRANCH  16  17
ATOM     17  C   UNL     1      74.886   6.640  20.706  1.00  0.00     0.053 C 
BRANCH  17  18
ATOM     18  C   UNL     1      74.126   5.429  21.153  1.00  0.00     0.041 C 
ATOM     19  O   UNL     1      73.151   5.547  21.940  1.00  0.00    -0.550 OA
ATOM     20  O   UNL     1      74.516   4.166  20.726  1.00  0.00    -0.550 OA
ENDBRANCH  17  18
ENDBRANCH  16  17
ENDBRANCH  15  16
ENDBRANCH  14  15
ENDBRANCH  13  14
ENDBRANCH  12  13
ENDBRANCH  11  12
ENDBRANCH   1  11
TORSDOF 15
ENDMDL
