MODEL 1
REMARK VINA RESULT:    -3.818      0.000      0.000
REMARK INTER + INTRA:          -4.827
REMARK INTER:                  -4.711
REMARK INTRA:                  -0.117
REMARK UNBOUND:                -0.117
REMARK SMILES CCCCCC=O
REMARK SMILES IDX 4 1 3 2 2 3 1 4 5 5 6 6 7 7
REMARK H PARENT
REMARK Flexibility Score: inf
ROOT
ATOM      1  C   UNL     1      16.063  36.040  12.240  1.00  0.00     0.008 C 
ENDROOT
BRANCH   1   2
ATOM      2  C   UNL     1      17.102  34.934  12.463  1.00  0.00     0.000 C 
BRANCH   2   3
ATOM      3  C   UNL     1      16.519  33.792  13.303  1.00  0.00    -0.003 C 
ATOM      4  C   UNL     1      15.729  34.330  14.493  1.00  0.00     0.004 C 
ENDBRANCH   2   3
ENDBRANCH   1   2
BRANCH   1   5
ATOM      5  C   UNL     1      16.224  36.674  10.855  1.00  0.00     0.072 C 
BRANCH   5   6
ATOM      6  C   UNL     1      17.330  36.021  10.082  1.00  0.00     0.224 C 
ATOM      7  O   UNL     1      17.382  36.146   8.869  1.00  0.00    -0.303 OA
ENDBRANCH   5   6
ENDBRANCH   1   5
TORSDOF 4
ENDMDL
MODEL 2
REMARK VINA RESULT:    -3.771      2.650      4.360
REMARK INTER + INTRA:          -4.770
REMARK INTER:                  -4.657
REMARK INTRA:                  -0.113
REMARK UNBOUND:                -0.117
REMARK SMILES CCCCCC=O
REMARK SMILES IDX 4 1 3 2 2 3 1 4 5 5 6 6 7 7
REMARK H PARENT
REMARK Flexibility Score: inf
ROOT
ATOM      1  C   UNL     1      17.152  34.988  12.446  1.00  0.00     0.008 C 
ENDROOT
BRANCH   1   2
ATOM      2  C   UNL     1      15.994  35.965  12.212  1.00  0.00     0.000 C 
BRANCH   2   3
ATOM      3  C   UNL     1      16.372  37.027  11.173  1.00  0.00    -0.003 C 
ATOM      4  C   UNL     1      17.077  36.400   9.974  1.00  0.00     0.004 C 
ENDBRANCH   2   3
ENDBRANCH   1   2
BRANCH   1   5
ATOM      5  C   UNL     1      16.745  33.876  13.418  1.00  0.00     0.072 C 
BRANCH   5   6
ATOM      6  C   UNL     1      15.609  34.309  14.296  1.00  0.00     0.224 C 
ATOM      7  O   UNL     1      15.812  34.570  15.471  1.00  0.00    -0.303 OA
ENDBRANCH   5   6
ENDBRANCH   1   5
TORSDOF 4
ENDMDL
MODEL 3
REMARK VINA RESULT:    -3.729     12.535     13.772
REMARK INTER + INTRA:          -4.718
REMARK INTER:                  -4.595
REMARK INTRA:                  -0.123
REMARK UNBOUND:                -0.117
REMARK SMILES CCCCCC=O
REMARK SMILES IDX 4 1 3 2 2 3 1 4 5 5 6 6 7 7
REMARK H PARENT
REMARK Flexibility Score: inf
ROOT
ATOM      1  C   UNL     1      16.604  34.281  25.815  1.00  0.00     0.008 C 
ENDROOT
BRANCH   1   2
ATOM      2  C   UNL     1      15.407  34.979  25.158  1.00  0.00     0.000 C 
BRANCH   2   3
ATOM      3  C   UNL     1      14.256  35.153  26.156  1.00  0.00    -0.003 C 
ATOM      4  C   UNL     1      14.644  34.643  27.540  1.00  0.00     0.004 C 
ENDBRANCH   2   3
ENDBRANCH   1   2
BRANCH   1   5
ATOM      5  C   UNL     1      17.862  34.417  24.953  1.00  0.00     0.072 C 
BRANCH   5   6
ATOM      6  C   UNL     1      17.782  35.620  24.060  1.00  0.00     0.224 C 
ATOM      7  O   UNL     1      18.736  36.376  23.970  1.00  0.00    -0.303 OA
ENDBRANCH   5   6
ENDBRANCH   1   5
TORSDOF 4
ENDMDL
MODEL 4
REMARK VINA RESULT:    -3.626     13.000     14.463
REMARK INTER + INTRA:          -4.590
REMARK INTER:                  -4.457
REMARK INTRA:                  -0.134
REMARK UNBOUND:                -0.117
REMARK SMILES CCCCCC=O
REMARK SMILES IDX 4 1 3 2 2 3 1 4 5 5 6 6 7 7
REMARK H PARENT
REMARK Flexibility Score: inf
ROOT
ATOM      1  C   UNL     1      15.299  35.340  24.868  1.00  0.00     0.008 C 
ENDROOT
BRANCH   1   2
ATOM      2  C   UNL     1      16.514  34.466  25.199  1.00  0.00     0.000 C 
BRANCH   2   3
ATOM      3  C   UNL     1      17.791  35.039  24.573  1.00  0.00    -0.003 C 
ATOM      4  C   UNL     1      17.465  36.122  23.548  1.00  0.00     0.004 C 
ENDBRANCH   2   3
ENDBRANCH   1   2
BRANCH   1   5
ATOM      5  C   UNL     1      14.265  35.295  25.997  1.00  0.00     0.072 C 
BRANCH   5   6
ATOM      6  C   UNL     1      14.851  34.714  27.249  1.00  0.00     0.224 C 
ATOM      7  O   UNL     1      14.116  34.288  28.125  1.00  0.00    -0.303 OA
ENDBRANCH   5   6
ENDBRANCH   1   5
TORSDOF 4
ENDMDL
MODEL 5
REMARK VINA RESULT:    -3.598      2.240      4.123
REMARK INTER + INTRA:          -4.556
REMARK INTER:                  -4.457
REMARK INTRA:                  -0.099
REMARK UNBOUND:                -0.117
REMARK SMILES CCCCCC=O
REMARK SMILES IDX 4 1 3 2 2 3 1 4 5 5 6 6 7 7
REMARK H PARENT
REMARK Flexibility Score: inf
ROOT
ATOM      1  C   UNL     1      15.989  36.256  12.020  1.00  0.00     0.008 C 
ENDROOT
BRANCH   1   2
ATOM      2  C   UNL     1      16.395  36.703  10.612  1.00  0.00     0.000 C 
BRANCH   2   3
ATOM      3  C   UNL     1      17.531  35.830  10.063  1.00  0.00    -0.003 C 
ATOM      4  C   UNL     1      17.791  36.126   8.589  1.00  0.00     0.004 C 
ENDBRANCH   2   3
ENDBRANCH   1   2
BRANCH   1   5
ATOM      5  C   UNL     1      16.964  35.209  12.568  1.00  0.00     0.072 C 
BRANCH   5   6
ATOM      6  C   UNL     1      16.322  34.374  13.636  1.00  0.00     0.224 C 
ATOM      7  O   UNL     1      16.307  33.158  13.531  1.00  0.00    -0.303 OA
ENDBRANCH   5   6
ENDBRANCH   1   5
TORSDOF 4
ENDMDL
MODEL 6
REMARK VINA RESULT:    -3.564      1.696      1.975
REMARK INTER + INTRA:          -4.514
REMARK INTER:                  -4.378
REMARK INTRA:                  -0.136
REMARK UNBOUND:                -0.117
REMARK SMILES CCCCCC=O
REMARK SMILES IDX 4 1 3 2 2 3 1 4 5 5 6 6 7 7
REMARK H PARENT
REMARK Flexibility Score: inf
ROOT
ATOM      1  C   UNL     1      17.539  35.277  11.031  1.00  0.00     0.008 C 
ENDROOT
BRANCH   1   2
ATOM      2  C   UNL     1      17.667  35.204  12.557  1.00  0.00     0.000 C 
BRANCH   2   3
ATOM      3  C   UNL     1      17.015  33.928  13.104  1.00  0.00    -0.003 C 
ATOM      4  C   UNL     1      15.947  34.257  14.143  1.00  0.00     0.004 C 
ENDBRANCH   2   3
ENDBRANCH   1   2
BRANCH   1   5
ATOM      5  C   UNL     1      16.795  36.544  10.601  1.00  0.00     0.072 C 
BRANCH   5   6
ATOM      6  C   UNL     1      15.483  36.675  11.318  1.00  0.00     0.224 C 
ATOM      7  O   UNL     1      15.221  37.701  11.925  1.00  0.00    -0.303 OA
ENDBRANCH   5   6
ENDBRANCH   1   5
TORSDOF 4
ENDMDL
MODEL 7
REMARK VINA RESULT:    -3.555      1.574      1.959
REMARK INTER + INTRA:          -4.503
REMARK INTER:                  -4.472
REMARK INTRA:                  -0.032
REMARK UNBOUND:                -0.117
REMARK SMILES CCCCCC=O
REMARK SMILES IDX 4 1 3 2 2 3 1 4 5 5 6 6 7 7
REMARK H PARENT
REMARK Flexibility Score: inf
ROOT
ATOM      1  C   UNL     1      18.184  34.740  12.003  1.00  0.00     0.008 C 
ENDROOT
BRANCH   1   2
ATOM      2  C   UNL     1      16.830  35.060  12.647  1.00  0.00     0.000 C 
BRANCH   2   3
ATOM      3  C   UNL     1      16.358  33.906  13.539  1.00  0.00    -0.003 C 
ATOM      4  C   UNL     1      15.644  34.427  14.783  1.00  0.00     0.004 C 
ENDBRANCH   2   3
ENDBRANCH   1   2
BRANCH   1   5
ATOM      5  C   UNL     1      18.167  35.050  10.503  1.00  0.00     0.072 C 
BRANCH   5   6
ATOM      6  C   UNL     1      19.265  34.324   9.784  1.00  0.00     0.224 C 
ATOM      7  O   UNL     1      19.566  34.648   8.647  1.00  0.00    -0.303 OA
ENDBRANCH   5   6
ENDBRANCH   1   5
TORSDOF 4
ENDMDL
MODEL 8
REMARK VINA RESULT:    -3.487      2.206      3.206
REMARK INTER + INTRA:          -4.419
REMARK INTER:                  -4.328
REMARK INTRA:                  -0.091
REMARK UNBOUND:                -0.117
REMARK SMILES CCCCCC=O
REMARK SMILES IDX 4 1 3 2 2 3 1 4 5 5 6 6 7 7
REMARK H PARENT
REMARK Flexibility Score: inf
ROOT
ATOM      1  C   UNL     1      18.565  34.776  11.633  1.00  0.00     0.008 C 
ENDROOT
BRANCH   1   2
ATOM      2  C   UNL     1      17.340  35.511  12.190  1.00  0.00     0.000 C 
BRANCH   2   3
ATOM      3  C   UNL     1      16.716  36.423  11.127  1.00  0.00    -0.003 C 
ATOM      4  C   UNL     1      15.548  37.219  11.701  1.00  0.00     0.004 C 
ENDBRANCH   2   3
ENDBRANCH   1   2
BRANCH   1   5
ATOM      5  C   UNL     1      18.557  34.773  10.102  1.00  0.00     0.072 C 
BRANCH   5   6
ATOM      6  C   UNL     1      19.632  33.883   9.553  1.00  0.00     0.224 C 
ATOM      7  O   UNL     1      20.792  34.265   9.542  1.00  0.00    -0.303 OA
ENDBRANCH   5   6
ENDBRANCH   1   5
TORSDOF 4
ENDMDL
MODEL 9
REMARK VINA RESULT:    -3.376      2.302      3.700
REMARK INTER + INTRA:          -4.283
REMARK INTER:                  -4.172
REMARK INTRA:                  -0.111
REMARK UNBOUND:                -0.117
REMARK SMILES CCCCCC=O
REMARK SMILES IDX 4 1 3 2 2 3 1 4 5 5 6 6 7 7
REMARK H PARENT
REMARK Flexibility Score: inf
ROOT
ATOM      1  C   UNL     1      18.203  34.793  11.601  1.00  0.00     0.008 C 
ENDROOT
BRANCH   1   2
ATOM      2  C   UNL     1      18.289  35.119  10.105  1.00  0.00     0.000 C 
BRANCH   2   3
ATOM      3  C   UNL     1      19.209  34.130   9.379  1.00  0.00    -0.003 C 
ATOM      4  C   UNL     1      20.540  33.978  10.107  1.00  0.00     0.004 C 
ENDBRANCH   2   3
ENDBRANCH   1   2
BRANCH   1   5
ATOM      5  C   UNL     1      17.116  35.627  12.284  1.00  0.00     0.072 C 
BRANCH   5   6
ATOM      6  C   UNL     1      16.540  36.646  11.345  1.00  0.00     0.224 C 
ATOM      7  O   UNL     1      15.331  36.802  11.282  1.00  0.00    -0.303 OA
ENDBRANCH   5   6
ENDBRANCH   1   5
TORSDOF 4
ENDMDL
