MODEL 1
REMARK VINA RESULT:    -7.626      0.000      0.000
REMARK INTER + INTRA:          -9.684
REMARK INTER:                  -9.409
REMARK INTRA:                  -0.275
REMARK UNBOUND:                -0.275
REMARK SMILES Oc1cc(O)c2cc(O)c(-c3cc(O)c(O)c(O)c3)[o+]c2c1
REMARK SMILES IDX 10 1 20 2 21 3 22 4 2 5 3 6 4 7 6 8 7 9 8 10 11 11 12 12
REMARK SMILES IDX 13 13 19 14 15 15 17 16 14 17 16 19 18 21 9 23 1 25 5 27
REMARK H PARENT 14 18 16 20 18 22 9 24 1 26 5 28
REMARK Flexibility Score: inf
ROOT
ATOM      1  C   UNL     1      21.718  -5.189 -27.586  1.00  0.00     0.402 A 
ATOM      2  O   UNL     1      21.776  -5.989 -28.650  1.00  0.00    -0.202 OA
ATOM      3  C   UNL     1      20.828  -6.870 -28.950  1.00  0.00     0.368 A 
ATOM      4  C   UNL     1      20.963  -7.671 -30.088  1.00  0.00     0.162 A 
ATOM      5  C   UNL     1      19.968  -8.602 -30.417  1.00  0.00     0.128 A 
ATOM      6  C   UNL     1      18.838  -8.731 -29.604  1.00  0.00     0.093 A 
ATOM      7  C   UNL     1      18.689  -7.936 -28.458  1.00  0.00     0.136 A 
ATOM      8  C   UNL     1      19.688  -7.000 -28.127  1.00  0.00     0.125 A 
ATOM      9  C   UNL     1      19.597  -6.186 -26.993  1.00  0.00     0.078 A 
ATOM     10  C   UNL     1      20.620  -5.278 -26.706  1.00  0.00     0.223 A 
ENDROOT
BRANCH   1  11
ATOM     11  C   UNL     1      22.831  -4.239 -27.361  1.00  0.00     0.091 A 
ATOM     12  C   UNL     1      22.600  -2.863 -27.491  1.00  0.00     0.068 A 
ATOM     13  C   UNL     1      23.624  -1.934 -27.267  1.00  0.00     0.162 A 
ATOM     14  C   UNL     1      24.102  -4.682 -26.966  1.00  0.00     0.068 A 
ATOM     15  C   UNL     1      24.909  -2.391 -26.890  1.00  0.00     0.200 A 
ATOM     16  C   UNL     1      25.136  -3.766 -26.737  1.00  0.00     0.162 A 
BRANCH  13  17
ATOM     17  O   UNL     1      23.320  -0.581 -27.427  1.00  0.00    -0.504 OA
ATOM     18  H   UNL     1      22.465  -0.239 -27.843  1.00  0.00     0.293 HD
ENDBRANCH  13  17
BRANCH  15  19
ATOM     19  O   UNL     1      25.976  -1.520 -26.657  1.00  0.00    -0.502 OA
ATOM     20  H   UNL     1      26.053  -0.922 -25.847  1.00  0.00     0.293 HD
ENDBRANCH  15  19
BRANCH  16  21
ATOM     21  O   UNL     1      26.398  -4.215 -26.351  1.00  0.00    -0.504 OA
ATOM     22  H   UNL     1      26.933  -3.743 -25.633  1.00  0.00     0.293 HD
ENDBRANCH  16  21
ENDBRANCH   1  11
BRANCH  10  23
ATOM     23  O   UNL     1      20.559  -4.499 -25.549  1.00  0.00    -0.500 OA
ATOM     24  H   UNL     1      20.097  -4.829 -24.711  1.00  0.00     0.294 HD
ENDBRANCH  10  23
BRANCH   5  25
ATOM     25  O   UNL     1      20.095  -9.403 -31.550  1.00  0.00    -0.507 OA
ATOM     26  H   UNL     1      19.504 -10.214 -31.694  1.00  0.00     0.293 HD
ENDBRANCH   5  25
BRANCH   7  27
ATOM     27  O   UNL     1      17.557  -8.076 -27.654  1.00  0.00    -0.507 OA
ATOM     28  H   UNL     1      17.436  -8.873 -27.040  1.00  0.00     0.293 HD
ENDBRANCH   7  27
TORSDOF 7
ENDMDL
MODEL 2
REMARK VINA RESULT:    -7.537      1.422      7.374
REMARK INTER + INTRA:          -9.574
REMARK INTER:                  -9.272
REMARK INTRA:                  -0.302
REMARK UNBOUND:                -0.275
REMARK SMILES Oc1cc(O)c2cc(O)c(-c3cc(O)c(O)c(O)c3)[o+]c2c1
REMARK SMILES IDX 10 1 20 2 21 3 22 4 2 5 3 6 4 7 6 8 7 9 8 10 11 11 12 12
REMARK SMILES IDX 13 13 19 14 15 15 17 16 14 17 16 19 18 21 9 23 1 25 5 27
REMARK H PARENT 14 18 16 20 18 22 9 24 1 26 5 28
REMARK Flexibility Score: inf
ROOT
ATOM      1  C   UNL     1      21.401  -6.538 -28.247  1.00  0.00     0.402 A 
ATOM      2  O   UNL     1      20.978  -5.347 -27.824  1.00  0.00    -0.202 OA
ATOM      3  C   UNL     1      21.790  -4.422 -27.325  1.00  0.00     0.368 A 
ATOM      4  C   UNL     1      21.267  -3.194 -26.907  1.00  0.00     0.162 A 
ATOM      5  C   UNL     1      22.114  -2.209 -26.382  1.00  0.00     0.128 A 
ATOM      6  C   UNL     1      23.486  -2.454 -26.275  1.00  0.00     0.093 A 
ATOM      7  C   UNL     1      24.026  -3.680 -26.690  1.00  0.00     0.136 A 
ATOM      8  C   UNL     1      23.176  -4.671 -27.218  1.00  0.00     0.125 A 
ATOM      9  C   UNL     1      23.657  -5.915 -27.639  1.00  0.00     0.078 A 
ATOM     10  C   UNL     1      22.769  -6.867 -28.150  1.00  0.00     0.223 A 
ENDROOT
BRANCH   1  11
ATOM     11  C   UNL     1      20.402  -7.483 -28.794  1.00  0.00     0.091 A 
ATOM     12  C   UNL     1      19.420  -8.015 -27.945  1.00  0.00     0.068 A 
ATOM     13  C   UNL     1      18.447  -8.897 -28.431  1.00  0.00     0.162 A 
ATOM     14  C   UNL     1      20.379  -7.818 -30.156  1.00  0.00     0.068 A 
ATOM     15  C   UNL     1      18.445  -9.247 -29.801  1.00  0.00     0.200 A 
ATOM     16  C   UNL     1      19.412  -8.697 -30.656  1.00  0.00     0.162 A 
BRANCH  13  17
ATOM     17  O   UNL     1      17.510  -9.394 -27.523  1.00  0.00    -0.504 OA
ATOM     18  H   UNL     1      16.712  -9.956 -27.784  1.00  0.00     0.293 HD
ENDBRANCH  13  17
BRANCH  15  19
ATOM     19  O   UNL     1      17.507 -10.125 -30.350  1.00  0.00    -0.502 OA
ATOM     20  H   UNL     1      17.740 -11.016 -30.764  1.00  0.00     0.293 HD
ENDBRANCH  15  19
BRANCH  16  21
ATOM     21  O   UNL     1      19.400  -9.030 -32.010  1.00  0.00    -0.504 OA
ATOM     22  H   UNL     1      18.813  -9.773 -32.370  1.00  0.00     0.293 HD
ENDBRANCH  16  21
ENDBRANCH   1  11
BRANCH  10  23
ATOM     23  O   UNL     1      23.235  -8.127 -28.525  1.00  0.00    -0.500 OA
ATOM     24  H   UNL     1      23.712  -8.277 -29.405  1.00  0.00     0.294 HD
ENDBRANCH  10  23
BRANCH   5  25
ATOM     25  O   UNL     1      21.600  -0.983 -25.963  1.00  0.00    -0.507 OA
ATOM     26  H   UNL     1      21.846  -0.585 -25.065  1.00  0.00     0.293 HD
ENDBRANCH   5  25
BRANCH   7  27
ATOM     27  O   UNL     1      25.398  -3.913 -26.577  1.00  0.00    -0.507 OA
ATOM     28  H   UNL     1      25.950  -4.230 -27.366  1.00  0.00     0.293 HD
ENDBRANCH   7  27
TORSDOF 7
ENDMDL
MODEL 3
REMARK VINA RESULT:    -7.296      3.864      5.112
REMARK INTER + INTRA:          -9.277
REMARK INTER:                  -8.907
REMARK INTRA:                  -0.370
REMARK UNBOUND:                -0.275
REMARK SMILES Oc1cc(O)c2cc(O)c(-c3cc(O)c(O)c(O)c3)[o+]c2c1
REMARK SMILES IDX 10 1 20 2 21 3 22 4 2 5 3 6 4 7 6 8 7 9 8 10 11 11 12 12
REMARK SMILES IDX 13 13 19 14 15 15 17 16 14 17 16 19 18 21 9 23 1 25 5 27
REMARK H PARENT 14 18 16 20 18 22 9 24 1 26 5 28
REMARK Flexibility Score: inf
ROOT
ATOM      1  C   UNL     1      24.730  -3.630 -27.266  1.00  0.00     0.402 A 
ATOM      2  O   UNL     1      25.026  -4.558 -26.358  1.00  0.00    -0.202 OA
ATOM      3  C   UNL     1      24.976  -5.862 -26.607  1.00  0.00     0.368 A 
ATOM      4  C   UNL     1      25.306  -6.773 -25.599  1.00  0.00     0.162 A 
ATOM      5  C   UNL     1      25.259  -8.151 -25.851  1.00  0.00     0.128 A 
ATOM      6  C   UNL     1      24.880  -8.617 -27.113  1.00  0.00     0.093 A 
ATOM      7  C   UNL     1      24.544  -7.715 -28.135  1.00  0.00     0.136 A 
ATOM      8  C   UNL     1      24.591  -6.331 -27.882  1.00  0.00     0.125 A 
ATOM      9  C   UNL     1      24.259  -5.386 -28.860  1.00  0.00     0.078 A 
ATOM     10  C   UNL     1      24.316  -4.023 -28.556  1.00  0.00     0.223 A 
ENDROOT
BRANCH   1  11
ATOM     11  C   UNL     1      24.833  -2.206 -26.873  1.00  0.00     0.091 A 
ATOM     12  C   UNL     1      26.064  -1.545 -26.996  1.00  0.00     0.068 A 
ATOM     13  C   UNL     1      26.194  -0.194 -26.652  1.00  0.00     0.162 A 
ATOM     14  C   UNL     1      23.713  -1.485 -26.433  1.00  0.00     0.068 A 
ATOM     15  C   UNL     1      25.065   0.520 -26.188  1.00  0.00     0.200 A 
ATOM     16  C   UNL     1      23.828  -0.134 -26.087  1.00  0.00     0.162 A 
BRANCH  13  17
ATOM     17  O   UNL     1      27.455   0.392 -26.790  1.00  0.00    -0.504 OA
ATOM     18  H   UNL     1      28.035   0.672 -26.012  1.00  0.00     0.293 HD
ENDBRANCH  13  17
BRANCH  15  19
ATOM     19  O   UNL     1      25.127   1.867 -25.822  1.00  0.00    -0.502 OA
ATOM     20  H   UNL     1      24.609   2.603 -26.281  1.00  0.00     0.293 HD
ENDBRANCH  15  19
BRANCH  16  21
ATOM     21  O   UNL     1      22.712   0.573 -25.643  1.00  0.00    -0.504 OA
ATOM     22  H   UNL     1      22.761   1.561 -25.421  1.00  0.00     0.293 HD
ENDBRANCH  16  21
ENDBRANCH   1  11
BRANCH  10  23
ATOM     23  O   UNL     1      23.938  -3.078 -29.510  1.00  0.00    -0.500 OA
ATOM     24  H   UNL     1      24.389  -3.026 -30.415  1.00  0.00     0.294 HD
ENDBRANCH  10  23
BRANCH   5  25
ATOM     25  O   UNL     1      25.588  -9.065 -24.852  1.00  0.00    -0.507 OA
ATOM     26  H   UNL     1      24.957  -9.813 -24.589  1.00  0.00     0.293 HD
ENDBRANCH   5  25
BRANCH   7  27
ATOM     27  O   UNL     1      24.166  -8.193 -29.390  1.00  0.00    -0.507 OA
ATOM     28  H   UNL     1      24.827  -8.253 -30.157  1.00  0.00     0.293 HD
ENDBRANCH   7  27
TORSDOF 7
ENDMDL
MODEL 4
REMARK VINA RESULT:    -7.232      2.075      4.033
REMARK INTER + INTRA:          -9.198
REMARK INTER:                  -9.327
REMARK INTRA:                   0.130
REMARK UNBOUND:                -0.275
REMARK SMILES Oc1cc(O)c2cc(O)c(-c3cc(O)c(O)c(O)c3)[o+]c2c1
REMARK SMILES IDX 10 1 20 2 21 3 22 4 2 5 3 6 4 7 6 8 7 9 8 10 11 11 12 12
REMARK SMILES IDX 13 13 19 14 15 15 17 16 14 17 16 19 18 21 9 23 1 25 5 27
REMARK H PARENT 14 18 16 20 18 22 9 24 1 26 5 28
REMARK Flexibility Score: inf
ROOT
ATOM      1  C   UNL     1      24.062  -3.448 -27.163  1.00  0.00     0.402 A 
ATOM      2  O   UNL     1      22.894  -3.776 -27.713  1.00  0.00    -0.202 OA
ATOM      3  C   UNL     1      22.571  -5.021 -28.048  1.00  0.00     0.368 A 
ATOM      4  C   UNL     1      21.321  -5.283 -28.617  1.00  0.00     0.162 A 
ATOM      5  C   UNL     1      20.969  -6.592 -28.972  1.00  0.00     0.128 A 
ATOM      6  C   UNL     1      21.869  -7.640 -28.755  1.00  0.00     0.093 A 
ATOM      7  C   UNL     1      23.127  -7.393 -28.186  1.00  0.00     0.136 A 
ATOM      8  C   UNL     1      23.482  -6.077 -27.830  1.00  0.00     0.125 A 
ATOM      9  C   UNL     1      24.725  -5.770 -27.265  1.00  0.00     0.078 A 
ATOM     10  C   UNL     1      25.031  -4.447 -26.936  1.00  0.00     0.223 A 
ENDROOT
BRANCH   1  11
ATOM     11  C   UNL     1      24.302  -2.027 -26.824  1.00  0.00     0.091 A 
ATOM     12  C   UNL     1      25.566  -1.467 -27.060  1.00  0.00     0.068 A 
ATOM     13  C   UNL     1      25.824  -0.121 -26.770  1.00  0.00     0.162 A 
ATOM     14  C   UNL     1      23.277  -1.211 -26.323  1.00  0.00     0.068 A 
ATOM     15  C   UNL     1      24.791   0.689 -26.244  1.00  0.00     0.200 A 
ATOM     16  C   UNL     1      23.520   0.137 -26.029  1.00  0.00     0.162 A 
BRANCH  13  17
ATOM     17  O   UNL     1      27.110   0.362 -27.021  1.00  0.00    -0.504 OA
ATOM     18  H   UNL     1      27.584   0.272 -27.908  1.00  0.00     0.293 HD
ENDBRANCH  13  17
BRANCH  15  19
ATOM     19  O   UNL     1      24.982   2.037 -25.927  1.00  0.00    -0.502 OA
ATOM     20  H   UNL     1      24.596   2.804 -26.458  1.00  0.00     0.293 HD
ENDBRANCH  15  19
BRANCH  16  21
ATOM     21  O   UNL     1      22.498   0.939 -25.524  1.00  0.00    -0.504 OA
ATOM     22  H   UNL     1      22.683   1.680 -24.858  1.00  0.00     0.293 HD
ENDBRANCH  16  21
ENDBRANCH   1  11
BRANCH  10  23
ATOM     23  O   UNL     1      26.287  -4.127 -26.420  1.00  0.00    -0.500 OA
ATOM     24  H   UNL     1      26.433  -3.978 -25.429  1.00  0.00     0.294 HD
ENDBRANCH  10  23
BRANCH   5  25
ATOM     25  O   UNL     1      19.725  -6.861 -29.540  1.00  0.00    -0.507 OA
ATOM     26  H   UNL     1      19.244  -6.177 -30.111  1.00  0.00     0.293 HD
ENDBRANCH   5  25
BRANCH   7  27
ATOM     27  O   UNL     1      24.017  -8.446 -27.976  1.00  0.00    -0.507 OA
ATOM     28  H   UNL     1      23.778  -9.401 -28.221  1.00  0.00     0.293 HD
ENDBRANCH   7  27
TORSDOF 7
ENDMDL
MODEL 5
REMARK VINA RESULT:    -7.171      3.524      7.437
REMARK INTER + INTRA:          -9.123
REMARK INTER:                  -8.758
REMARK INTRA:                  -0.365
REMARK UNBOUND:                -0.275
REMARK SMILES Oc1cc(O)c2cc(O)c(-c3cc(O)c(O)c(O)c3)[o+]c2c1
REMARK SMILES IDX 10 1 20 2 21 3 22 4 2 5 3 6 4 7 6 8 7 9 8 10 11 11 12 12
REMARK SMILES IDX 13 13 19 14 15 15 17 16 14 17 16 19 18 21 9 23 1 25 5 27
REMARK H PARENT 14 18 16 20 18 22 9 24 1 26 5 28
REMARK Flexibility Score: inf
ROOT
ATOM      1  C   UNL     1      24.567  -4.166 -26.681  1.00  0.00     0.402 A 
ATOM      2  O   UNL     1      25.652  -3.422 -26.889  1.00  0.00    -0.202 OA
ATOM      3  C   UNL     1      25.659  -2.098 -26.780  1.00  0.00     0.368 A 
ATOM      4  C   UNL     1      26.842  -1.390 -27.012  1.00  0.00     0.162 A 
ATOM      5  C   UNL     1      26.862   0.006 -26.897  1.00  0.00     0.128 A 
ATOM      6  C   UNL     1      25.696   0.695 -26.551  1.00  0.00     0.093 A 
ATOM      7  C   UNL     1      24.500  -0.001 -26.316  1.00  0.00     0.136 A 
ATOM      8  C   UNL     1      24.479  -1.404 -26.432  1.00  0.00     0.125 A 
ATOM      9  C   UNL     1      23.315  -2.150 -26.217  1.00  0.00     0.078 A 
ATOM     10  C   UNL     1      23.346  -3.541 -26.351  1.00  0.00     0.223 A 
ENDROOT
BRANCH   1  11
ATOM     11  C   UNL     1      24.686  -5.634 -26.822  1.00  0.00     0.091 A 
ATOM     12  C   UNL     1      24.349  -6.239 -28.042  1.00  0.00     0.068 A 
ATOM     13  C   UNL     1      24.468  -7.623 -28.219  1.00  0.00     0.162 A 
ATOM     14  C   UNL     1      25.182  -6.432 -25.781  1.00  0.00     0.068 A 
ATOM     15  C   UNL     1      24.947  -8.423 -27.156  1.00  0.00     0.200 A 
ATOM     16  C   UNL     1      25.307  -7.817 -25.943  1.00  0.00     0.162 A 
BRANCH  13  17
ATOM     17  O   UNL     1      24.101  -8.153 -29.458  1.00  0.00    -0.504 OA
ATOM     18  H   UNL     1      23.898  -7.594 -30.274  1.00  0.00     0.293 HD
ENDBRANCH  13  17
BRANCH  15  19
ATOM     19  O   UNL     1      25.084  -9.809 -27.262  1.00  0.00    -0.502 OA
ATOM     20  H   UNL     1      24.971 -10.325 -28.123  1.00  0.00     0.293 HD
ENDBRANCH  15  19
BRANCH  16  21
ATOM     21  O   UNL     1      25.794  -8.604 -24.900  1.00  0.00    -0.504 OA
ATOM     22  H   UNL     1      25.252  -8.769 -24.061  1.00  0.00     0.293 HD
ENDBRANCH  16  21
ENDBRANCH   1  11
BRANCH  10  23
ATOM     23  O   UNL     1      22.177  -4.285 -26.189  1.00  0.00    -0.500 OA
ATOM     24  H   UNL     1      21.280  -3.840 -26.042  1.00  0.00     0.294 HD
ENDBRANCH  10  23
BRANCH   5  25
ATOM     25  O   UNL     1      28.038   0.719 -27.126  1.00  0.00    -0.507 OA
ATOM     26  H   UNL     1      28.865   0.572 -26.560  1.00  0.00     0.293 HD
ENDBRANCH   5  25
BRANCH   7  27
ATOM     27  O   UNL     1      23.343   0.698 -25.972  1.00  0.00    -0.507 OA
ATOM     28  H   UNL     1      23.306   1.298 -25.156  1.00  0.00     0.293 HD
ENDBRANCH   7  27
TORSDOF 7
ENDMDL
MODEL 6
REMARK VINA RESULT:    -7.150      3.832      4.919
REMARK INTER + INTRA:          -9.096
REMARK INTER:                  -8.720
REMARK INTRA:                  -0.377
REMARK UNBOUND:                -0.275
REMARK SMILES Oc1cc(O)c2cc(O)c(-c3cc(O)c(O)c(O)c3)[o+]c2c1
REMARK SMILES IDX 10 1 20 2 21 3 22 4 2 5 3 6 4 7 6 8 7 9 8 10 11 11 12 12
REMARK SMILES IDX 13 13 19 14 15 15 17 16 14 17 16 19 18 21 9 23 1 25 5 27
REMARK H PARENT 14 18 16 20 18 22 9 24 1 26 5 28
REMARK Flexibility Score: inf
ROOT
ATOM      1  C   UNL     1      24.696  -3.655 -27.322  1.00  0.00     0.402 A 
ATOM      2  O   UNL     1      25.026  -4.557 -26.400  1.00  0.00    -0.202 OA
ATOM      3  C   UNL     1      24.978  -5.868 -26.614  1.00  0.00     0.368 A 
ATOM      4  C   UNL     1      25.346  -6.750 -25.594  1.00  0.00     0.162 A 
ATOM      5  C   UNL     1      25.302  -8.134 -25.809  1.00  0.00     0.128 A 
ATOM      6  C   UNL     1      24.889  -8.635 -27.047  1.00  0.00     0.093 A 
ATOM      7  C   UNL     1      24.516  -7.762 -28.081  1.00  0.00     0.136 A 
ATOM      8  C   UNL     1      24.559  -6.371 -27.865  1.00  0.00     0.125 A 
ATOM      9  C   UNL     1      24.192  -5.454 -28.856  1.00  0.00     0.078 A 
ATOM     10  C   UNL     1      24.247  -4.083 -28.588  1.00  0.00     0.223 A 
ENDROOT
BRANCH   1  11
ATOM     11  C   UNL     1      24.800  -2.221 -26.969  1.00  0.00     0.091 A 
ATOM     12  C   UNL     1      23.682  -1.557 -26.444  1.00  0.00     0.068 A 
ATOM     13  C   UNL     1      23.749  -0.207 -26.080  1.00  0.00     0.162 A 
ATOM     14  C   UNL     1      26.011  -1.522 -27.093  1.00  0.00     0.068 A 
ATOM     15  C   UNL     1      24.967   0.496 -26.231  1.00  0.00     0.200 A 
ATOM     16  C   UNL     1      26.093  -0.172 -26.733  1.00  0.00     0.162 A 
BRANCH  13  17
ATOM     17  O   UNL     1      22.590   0.388 -25.577  1.00  0.00    -0.504 OA
ATOM     18  H   UNL     1      22.122   1.171 -26.012  1.00  0.00     0.293 HD
ENDBRANCH  13  17
BRANCH  15  19
ATOM     19  O   UNL     1      25.102   1.845 -25.893  1.00  0.00    -0.502 OA
ATOM     20  H   UNL     1      24.397   2.546 -26.069  1.00  0.00     0.293 HD
ENDBRANCH  15  19
BRANCH  16  21
ATOM     21  O   UNL     1      27.298   0.516 -26.867  1.00  0.00    -0.504 OA
ATOM     22  H   UNL     1      27.665   1.096 -26.121  1.00  0.00     0.293 HD
ENDBRANCH  16  21
ENDBRANCH   1  11
BRANCH  10  23
ATOM     23  O   UNL     1      23.833  -3.165 -29.554  1.00  0.00    -0.500 OA
ATOM     24  H   UNL     1      24.235  -2.238 -29.612  1.00  0.00     0.294 HD
ENDBRANCH  10  23
BRANCH   5  25
ATOM     25  O   UNL     1      25.667  -9.020 -24.797  1.00  0.00    -0.507 OA
ATOM     26  H   UNL     1      26.566  -9.487 -24.800  1.00  0.00     0.293 HD
ENDBRANCH   5  25
BRANCH   7  27
ATOM     27  O   UNL     1      24.104  -8.274 -29.311  1.00  0.00    -0.507 OA
ATOM     28  H   UNL     1      23.355  -7.844 -29.843  1.00  0.00     0.293 HD
ENDBRANCH   7  27
TORSDOF 7
ENDMDL
MODEL 7
REMARK VINA RESULT:    -6.981      2.245      3.564
REMARK INTER + INTRA:          -8.888
REMARK INTER:                  -8.657
REMARK INTRA:                  -0.230
REMARK UNBOUND:                -0.275
REMARK SMILES Oc1cc(O)c2cc(O)c(-c3cc(O)c(O)c(O)c3)[o+]c2c1
REMARK SMILES IDX 10 1 20 2 21 3 22 4 2 5 3 6 4 7 6 8 7 9 8 10 11 11 12 12
REMARK SMILES IDX 13 13 19 14 15 15 17 16 14 17 16 19 18 21 9 23 1 25 5 27
REMARK H PARENT 14 18 16 20 18 22 9 24 1 26 5 28
REMARK Flexibility Score: inf
ROOT
ATOM      1  C   UNL     1      22.644  -2.382 -27.433  1.00  0.00     0.402 A 
ATOM      2  O   UNL     1      22.985  -3.429 -28.183  1.00  0.00    -0.202 OA
ATOM      3  C   UNL     1      22.320  -4.580 -28.171  1.00  0.00     0.368 A 
ATOM      4  C   UNL     1      22.741  -5.631 -28.991  1.00  0.00     0.162 A 
ATOM      5  C   UNL     1      22.046  -6.848 -28.989  1.00  0.00     0.128 A 
ATOM      6  C   UNL     1      20.928  -7.012 -28.165  1.00  0.00     0.093 A 
ATOM      7  C   UNL     1      20.495  -5.966 -27.336  1.00  0.00     0.136 A 
ATOM      8  C   UNL     1      21.193  -4.744 -27.337  1.00  0.00     0.125 A 
ATOM      9  C   UNL     1      20.811  -3.670 -26.525  1.00  0.00     0.078 A 
ATOM     10  C   UNL     1      21.542  -2.479 -26.559  1.00  0.00     0.223 A 
ENDROOT
BRANCH   1  11
ATOM     11  C   UNL     1      23.457  -1.149 -27.540  1.00  0.00     0.091 A 
ATOM     12  C   UNL     1      24.236  -0.740 -26.448  1.00  0.00     0.068 A 
ATOM     13  C   UNL     1      25.032   0.409 -26.520  1.00  0.00     0.162 A 
ATOM     14  C   UNL     1      23.511  -0.409 -28.731  1.00  0.00     0.068 A 
ATOM     15  C   UNL     1      25.063   1.163 -27.717  1.00  0.00     0.200 A 
ATOM     16  C   UNL     1      24.303   0.742 -28.818  1.00  0.00     0.162 A 
BRANCH  13  17
ATOM     17  O   UNL     1      25.770   0.759 -25.388  1.00  0.00    -0.504 OA
ATOM     18  H   UNL     1      25.362   0.957 -24.485  1.00  0.00     0.293 HD
ENDBRANCH  13  17
BRANCH  15  19
ATOM     19  O   UNL     1      25.831   2.322 -27.854  1.00  0.00    -0.502 OA
ATOM     20  H   UNL     1      25.783   3.111 -27.225  1.00  0.00     0.293 HD
ENDBRANCH  15  19
BRANCH  16  21
ATOM     21  O   UNL     1      24.345   1.476 -30.003  1.00  0.00    -0.504 OA
ATOM     22  H   UNL     1      25.157   2.024 -30.260  1.00  0.00     0.293 HD
ENDBRANCH  16  21
ENDBRANCH   1  11
BRANCH  10  23
ATOM     23  O   UNL     1      21.197  -1.423 -25.715  1.00  0.00    -0.500 OA
ATOM     24  H   UNL     1      21.847  -0.674 -25.508  1.00  0.00     0.294 HD
ENDBRANCH  10  23
BRANCH   5  25
ATOM     25  O   UNL     1      22.459  -7.900 -29.804  1.00  0.00    -0.507 OA
ATOM     26  H   UNL     1      21.950  -8.775 -29.838  1.00  0.00     0.293 HD
ENDBRANCH   5  25
BRANCH   7  27
ATOM     27  O   UNL     1      19.379  -6.143 -26.517  1.00  0.00    -0.507 OA
ATOM     28  H   UNL     1      19.444  -6.077 -25.507  1.00  0.00     0.293 HD
ENDBRANCH   7  27
TORSDOF 7
ENDMDL
MODEL 8
REMARK VINA RESULT:    -6.964      5.100     10.270
REMARK INTER + INTRA:          -8.867
REMARK INTER:                  -8.916
REMARK INTRA:                   0.050
REMARK UNBOUND:                -0.275
REMARK SMILES Oc1cc(O)c2cc(O)c(-c3cc(O)c(O)c(O)c3)[o+]c2c1
REMARK SMILES IDX 10 1 20 2 21 3 22 4 2 5 3 6 4 7 6 8 7 9 8 10 11 11 12 12
REMARK SMILES IDX 13 13 19 14 15 15 17 16 14 17 16 19 18 21 9 23 1 25 5 27
REMARK H PARENT 14 18 16 20 18 22 9 24 1 26 5 28
REMARK Flexibility Score: inf
ROOT
ATOM      1  C   UNL     1      24.457   1.644 -27.431  1.00  0.00     0.402 A 
ATOM      2  O   UNL     1      24.013   2.659 -26.692  1.00  0.00    -0.202 OA
ATOM      3  C   UNL     1      24.275   3.932 -26.971  1.00  0.00     0.368 A 
ATOM      4  C   UNL     1      23.768   4.941 -26.147  1.00  0.00     0.162 A 
ATOM      5  C   UNL     1      24.035   6.286 -26.433  1.00  0.00     0.128 A 
ATOM      6  C   UNL     1      24.813   6.621 -27.546  1.00  0.00     0.093 A 
ATOM      7  C   UNL     1      25.330   5.620 -28.381  1.00  0.00     0.136 A 
ATOM      8  C   UNL     1      25.062   4.268 -28.094  1.00  0.00     0.125 A 
ATOM      9  C   UNL     1      25.557   3.228 -28.888  1.00  0.00     0.078 A 
ATOM     10  C   UNL     1      25.267   1.902 -28.556  1.00  0.00     0.223 A 
ENDROOT
BRANCH   1  11
ATOM     11  C   UNL     1      24.090   0.268 -27.024  1.00  0.00     0.091 A 
ATOM     12  C   UNL     1      22.765  -0.012 -26.658  1.00  0.00     0.068 A 
ATOM     13  C   UNL     1      22.378  -1.305 -26.287  1.00  0.00     0.162 A 
ATOM     14  C   UNL     1      25.025  -0.777 -27.051  1.00  0.00     0.068 A 
ATOM     15  C   UNL     1      23.332  -2.349 -26.295  1.00  0.00     0.200 A 
ATOM     16  C   UNL     1      24.652  -2.075 -26.684  1.00  0.00     0.162 A 
BRANCH  13  17
ATOM     17  O   UNL     1      21.044  -1.503 -25.923  1.00  0.00    -0.504 OA
ATOM     18  H   UNL     1      20.446  -0.779 -25.552  1.00  0.00     0.293 HD
ENDBRANCH  13  17
BRANCH  15  19
ATOM     19  O   UNL     1      23.014  -3.660 -25.931  1.00  0.00    -0.502 OA
ATOM     20  H   UNL     1      22.503  -3.907 -25.096  1.00  0.00     0.293 HD
ENDBRANCH  15  19
BRANCH  16  21
ATOM     21  O   UNL     1      25.589  -3.107 -26.707  1.00  0.00    -0.504 OA
ATOM     22  H   UNL     1      26.569  -2.931 -26.893  1.00  0.00     0.293 HD
ENDBRANCH  16  21
ENDBRANCH   1  11
BRANCH  10  23
ATOM     23  O   UNL     1      25.801   0.858 -29.313  1.00  0.00    -0.500 OA
ATOM     24  H   UNL     1      25.302  -0.014 -29.442  1.00  0.00     0.294 HD
ENDBRANCH  10  23
BRANCH   5  25
ATOM     25  O   UNL     1      23.532   7.297 -25.616  1.00  0.00    -0.507 OA
ATOM     26  H   UNL     1      23.591   8.272 -25.883  1.00  0.00     0.293 HD
ENDBRANCH   5  25
BRANCH   7  27
ATOM     27  O   UNL     1      26.105   5.968 -29.488  1.00  0.00    -0.507 OA
ATOM     28  H   UNL     1      26.359   6.931 -29.678  1.00  0.00     0.293 HD
ENDBRANCH   7  27
TORSDOF 7
ENDMDL
MODEL 9
REMARK VINA RESULT:    -6.918      3.788      6.967
REMARK INTER + INTRA:          -8.810
REMARK INTER:                  -9.109
REMARK INTRA:                   0.299
REMARK UNBOUND:                -0.275
REMARK SMILES Oc1cc(O)c2cc(O)c(-c3cc(O)c(O)c(O)c3)[o+]c2c1
REMARK SMILES IDX 10 1 20 2 21 3 22 4 2 5 3 6 4 7 6 8 7 9 8 10 11 11 12 12
REMARK SMILES IDX 13 13 19 14 15 15 17 16 14 17 16 19 18 21 9 23 1 25 5 27
REMARK H PARENT 14 18 16 20 18 22 9 24 1 26 5 28
REMARK Flexibility Score: inf
ROOT
ATOM      1  C   UNL     1      23.811   0.328 -26.458  1.00  0.00     0.402 A 
ATOM      2  O   UNL     1      22.741  -0.456 -26.326  1.00  0.00    -0.202 OA
ATOM      3  C   UNL     1      22.804  -1.783 -26.359  1.00  0.00     0.368 A 
ATOM      4  C   UNL     1      21.634  -2.535 -26.209  1.00  0.00     0.162 A 
ATOM      5  C   UNL     1      21.688  -3.934 -26.239  1.00  0.00     0.128 A 
ATOM      6  C   UNL     1      22.914  -4.582 -26.420  1.00  0.00     0.093 A 
ATOM      7  C   UNL     1      24.096  -3.841 -26.572  1.00  0.00     0.136 A 
ATOM      8  C   UNL     1      24.043  -2.435 -26.543  1.00  0.00     0.125 A 
ATOM      9  C   UNL     1      25.187  -1.645 -26.698  1.00  0.00     0.078 A 
ATOM     10  C   UNL     1      25.079  -0.252 -26.667  1.00  0.00     0.223 A 
ENDROOT
BRANCH   1  11
ATOM     11  C   UNL     1      23.617   1.794 -26.394  1.00  0.00     0.091 A 
ATOM     12  C   UNL     1      22.497   2.313 -25.728  1.00  0.00     0.068 A 
ATOM     13  C   UNL     1      22.291   3.695 -25.631  1.00  0.00     0.162 A 
ATOM     14  C   UNL     1      24.558   2.681 -26.937  1.00  0.00     0.068 A 
ATOM     15  C   UNL     1      23.234   4.582 -26.201  1.00  0.00     0.200 A 
ATOM     16  C   UNL     1      24.367   4.065 -26.847  1.00  0.00     0.162 A 
BRANCH  13  17
ATOM     17  O   UNL     1      21.147   4.135 -24.963  1.00  0.00    -0.504 OA
ATOM     18  H   UNL     1      21.004   5.086 -24.653  1.00  0.00     0.293 HD
ENDBRANCH  13  17
BRANCH  15  19
ATOM     19  O   UNL     1      23.087   5.970 -26.146  1.00  0.00    -0.502 OA
ATOM     20  H   UNL     1      23.745   6.626 -26.542  1.00  0.00     0.293 HD
ENDBRANCH  15  19
BRANCH  16  21
ATOM     21  O   UNL     1      25.303   4.940 -27.396  1.00  0.00    -0.504 OA
ATOM     22  H   UNL     1      25.120   5.445 -28.255  1.00  0.00     0.293 HD
ENDBRANCH  16  21
ENDBRANCH   1  11
BRANCH  10  23
ATOM     23  O   UNL     1      26.208   0.542 -26.872  1.00  0.00    -0.500 OA
ATOM     24  H   UNL     1      26.143   1.550 -26.948  1.00  0.00     0.294 HD
ENDBRANCH  10  23
BRANCH   5  25
ATOM     25  O   UNL     1      20.527  -4.691 -26.090  1.00  0.00    -0.507 OA
ATOM     26  H   UNL     1      20.310  -5.164 -25.221  1.00  0.00     0.293 HD
ENDBRANCH   5  25
BRANCH   7  27
ATOM     27  O   UNL     1      25.313  -4.500 -26.753  1.00  0.00    -0.507 OA
ATOM     28  H   UNL     1      25.632  -4.784 -27.673  1.00  0.00     0.293 HD
ENDBRANCH   7  27
TORSDOF 7
ENDMDL
