MODEL 1
REMARK VINA RESULT:    -2.972      0.000      0.000
REMARK INTER + INTRA:          -3.333
REMARK INTER:                  -3.320
REMARK INTRA:                  -0.014
REMARK UNBOUND:                -0.014
REMARK SMILES CCCC(=O)[O-]
REMARK SMILES IDX 3 1 4 2 5 3 6 4 2 5 1 6
REMARK H PARENT
REMARK Flexibility Score: inf
ROOT
ATOM      1  C   UNL     1     100.068  84.117  83.109  1.00  0.00     0.052 C 
ENDROOT
BRANCH   1   2
ATOM      2  C   UNL     1     101.547  84.292  82.947  1.00  0.00     0.041 C 
ATOM      3  O   UNL     1     102.168  83.645  82.064  1.00  0.00    -0.550 OA
ATOM      4  O   UNL     1     102.233  85.195  83.749  1.00  0.00    -0.550 OA
ENDBRANCH   1   2
BRANCH   1   5
ATOM      5  C   UNL     1      99.393  83.724  81.789  1.00  0.00     0.003 C 
ATOM      6  C   UNL     1      98.049  83.028  82.008  1.00  0.00     0.004 C 
ENDBRANCH   1   5
TORSDOF 2
ENDMDL
MODEL 2
REMARK VINA RESULT:    -2.849      5.651      6.531
REMARK INTER + INTRA:          -3.196
REMARK INTER:                  -3.159
REMARK INTRA:                  -0.037
REMARK UNBOUND:                -0.014
REMARK SMILES CCCC(=O)[O-]
REMARK SMILES IDX 3 1 4 2 5 3 6 4 2 5 1 6
REMARK H PARENT
REMARK Flexibility Score: inf
ROOT
ATOM      1  C   UNL     1      95.068  84.797  80.257  1.00  0.00     0.052 C 
ENDROOT
BRANCH   1   2
ATOM      2  C   UNL     1      95.991  85.766  79.586  1.00  0.00     0.041 C 
ATOM      3  O   UNL     1      97.185  85.875  79.971  1.00  0.00    -0.550 OA
ATOM      4  O   UNL     1      95.544  86.525  78.512  1.00  0.00    -0.550 OA
ENDBRANCH   1   2
BRANCH   1   5
ATOM      5  C   UNL     1      94.285  83.958  79.240  1.00  0.00     0.003 C 
ATOM      6  C   UNL     1      92.808  84.348  79.177  1.00  0.00     0.004 C 
ENDBRANCH   1   5
TORSDOF 2
ENDMDL
MODEL 3
REMARK VINA RESULT:    -2.829     16.781     17.307
REMARK INTER + INTRA:          -3.173
REMARK INTER:                  -3.117
REMARK INTRA:                  -0.056
REMARK UNBOUND:                -0.014
REMARK SMILES CCCC(=O)[O-]
REMARK SMILES IDX 3 1 4 2 5 3 6 4 2 5 1 6
REMARK H PARENT
REMARK Flexibility Score: inf
ROOT
ATOM      1  C   UNL     1      89.191  77.537  73.039  1.00  0.00     0.052 C 
ENDROOT
BRANCH   1   2
ATOM      2  C   UNL     1      88.822  76.258  72.354  1.00  0.00     0.041 C 
ATOM      3  O   UNL     1      87.782  75.635  72.693  1.00  0.00    -0.550 OA
ATOM      4  O   UNL     1      89.608  75.771  71.317  1.00  0.00    -0.550 OA
ENDBRANCH   1   2
BRANCH   1   5
ATOM      5  C   UNL     1      89.758  78.569  72.054  1.00  0.00     0.003 C 
ATOM      6  C   UNL     1      88.669  79.207  71.190  1.00  0.00     0.004 C 
ENDBRANCH   1   5
TORSDOF 2
ENDMDL
MODEL 4
REMARK VINA RESULT:    -2.828     17.006     17.664
REMARK INTER + INTRA:          -3.172
REMARK INTER:                  -3.110
REMARK INTRA:                  -0.062
REMARK UNBOUND:                -0.014
REMARK SMILES CCCC(=O)[O-]
REMARK SMILES IDX 3 1 4 2 5 3 6 4 2 5 1 6
REMARK H PARENT
REMARK Flexibility Score: inf
ROOT
ATOM      1  C   UNL     1      87.488  78.096  71.749  1.00  0.00     0.052 C 
ENDROOT
BRANCH   1   2
ATOM      2  C   UNL     1      88.177  77.102  72.631  1.00  0.00     0.041 C 
ATOM      3  O   UNL     1      89.001  77.491  73.500  1.00  0.00    -0.550 OA
ATOM      4  O   UNL     1      87.885  75.749  72.519  1.00  0.00    -0.550 OA
ENDBRANCH   1   2
BRANCH   1   5
ATOM      5  C   UNL     1      88.490  78.989  71.005  1.00  0.00     0.003 C 
ATOM      6  C   UNL     1      89.203  78.248  69.875  1.00  0.00     0.004 C 
ENDBRANCH   1   5
TORSDOF 2
ENDMDL
MODEL 5
REMARK VINA RESULT:    -2.807      6.128      7.170
REMARK INTER + INTRA:          -3.149
REMARK INTER:                  -3.109
REMARK INTRA:                  -0.040
REMARK UNBOUND:                -0.014
REMARK SMILES CCCC(=O)[O-]
REMARK SMILES IDX 3 1 4 2 5 3 6 4 2 5 1 6
REMARK H PARENT
REMARK Flexibility Score: inf
ROOT
ATOM      1  C   UNL     1      94.315  83.890  79.214  1.00  0.00     0.052 C 
ENDROOT
BRANCH   1   2
ATOM      2  C   UNL     1      95.267  84.971  79.622  1.00  0.00     0.041 C 
ATOM      3  O   UNL     1      95.842  84.919  80.741  1.00  0.00    -0.550 OA
ATOM      4  O   UNL     1      95.545  86.019  78.754  1.00  0.00    -0.550 OA
ENDBRANCH   1   2
BRANCH   1   5
ATOM      5  C   UNL     1      92.928  84.084  79.841  1.00  0.00     0.003 C 
ATOM      6  C   UNL     1      91.974  84.844  78.920  1.00  0.00     0.004 C 
ENDBRANCH   1   5
TORSDOF 2
ENDMDL
MODEL 6
REMARK VINA RESULT:    -2.805      7.633      8.467
REMARK INTER + INTRA:          -3.146
REMARK INTER:                  -3.093
REMARK INTRA:                  -0.054
REMARK UNBOUND:                -0.014
REMARK SMILES CCCC(=O)[O-]
REMARK SMILES IDX 3 1 4 2 5 3 6 4 2 5 1 6
REMARK H PARENT
REMARK Flexibility Score: inf
ROOT
ATOM      1  C   UNL     1      93.843  83.731  79.269  1.00  0.00     0.052 C 
ENDROOT
BRANCH   1   2
ATOM      2  C   UNL     1      92.534  84.421  79.498  1.00  0.00     0.041 C 
ATOM      3  O   UNL     1      91.929  84.285  80.594  1.00  0.00    -0.550 OA
ATOM      4  O   UNL     1      91.997  85.242  78.514  1.00  0.00    -0.550 OA
ENDBRANCH   1   2
BRANCH   1   5
ATOM      5  C   UNL     1      94.988  84.417  80.025  1.00  0.00     0.003 C 
ATOM      6  C   UNL     1      95.495  85.667  79.305  1.00  0.00     0.004 C 
ENDBRANCH   1   5
TORSDOF 2
ENDMDL
MODEL 7
REMARK VINA RESULT:    -2.796     16.861     17.545
REMARK INTER + INTRA:          -3.137
REMARK INTER:                  -3.128
REMARK INTRA:                  -0.009
REMARK UNBOUND:                -0.014
REMARK SMILES CCCC(=O)[O-]
REMARK SMILES IDX 3 1 4 2 5 3 6 4 2 5 1 6
REMARK H PARENT
REMARK Flexibility Score: inf
ROOT
ATOM      1  C   UNL     1      88.866  77.196  72.634  1.00  0.00     0.052 C 
ENDROOT
BRANCH   1   2
ATOM      2  C   UNL     1      88.213  76.046  73.335  1.00  0.00     0.041 C 
ATOM      3  O   UNL     1      87.258  75.431  72.791  1.00  0.00    -0.550 OA
ATOM      4  O   UNL     1      88.681  75.629  74.575  1.00  0.00    -0.550 OA
ENDBRANCH   1   2
BRANCH   1   5
ATOM      5  C   UNL     1      87.860  77.999  71.798  1.00  0.00     0.003 C 
ATOM      6  C   UNL     1      88.511  79.185  71.086  1.00  0.00     0.004 C 
ENDBRANCH   1   5
TORSDOF 2
ENDMDL
MODEL 8
REMARK VINA RESULT:    -2.794      8.114      9.223
REMARK INTER + INTRA:          -3.134
REMARK INTER:                  -3.096
REMARK INTRA:                  -0.038
REMARK UNBOUND:                -0.014
REMARK SMILES CCCC(=O)[O-]
REMARK SMILES IDX 3 1 4 2 5 3 6 4 2 5 1 6
REMARK H PARENT
REMARK Flexibility Score: inf
ROOT
ATOM      1  C   UNL     1      92.535  84.015  80.305  1.00  0.00     0.052 C 
ENDROOT
BRANCH   1   2
ATOM      2  C   UNL     1      91.566  84.695  79.389  1.00  0.00     0.041 C 
ATOM      3  O   UNL     1      91.986  85.419  78.448  1.00  0.00    -0.550 OA
ATOM      4  O   UNL     1      90.201  84.503  79.552  1.00  0.00    -0.550 OA
ENDBRANCH   1   2
BRANCH   1   5
ATOM      5  C   UNL     1      93.845  83.662  79.589  1.00  0.00     0.003 C 
ATOM      6  C   UNL     1      95.025  84.495  80.090  1.00  0.00     0.004 C 
ENDBRANCH   1   5
TORSDOF 2
ENDMDL
MODEL 9
REMARK VINA RESULT:    -2.737     16.728     17.117
REMARK INTER + INTRA:          -3.071
REMARK INTER:                  -3.043
REMARK INTRA:                  -0.028
REMARK UNBOUND:                -0.014
REMARK SMILES CCCC(=O)[O-]
REMARK SMILES IDX 3 1 4 2 5 3 6 4 2 5 1 6
REMARK H PARENT
REMARK Flexibility Score: inf
ROOT
ATOM      1  C   UNL     1      88.327  76.923  75.171  1.00  0.00     0.052 C 
ENDROOT
BRANCH   1   2
ATOM      2  C   UNL     1      86.982  76.267  75.208  1.00  0.00     0.041 C 
ATOM      3  O   UNL     1      86.816  75.132  74.688  1.00  0.00    -0.550 OA
ATOM      4  O   UNL     1      85.919  76.892  75.847  1.00  0.00    -0.550 OA
ENDBRANCH   1   2
BRANCH   1   5
ATOM      5  C   UNL     1      89.130  76.507  73.931  1.00  0.00     0.003 C 
ATOM      6  C   UNL     1      89.236  77.633  72.902  1.00  0.00     0.004 C 
ENDBRANCH   1   5
TORSDOF 2
ENDMDL
