MODEL 1
REMARK VINA RESULT:    -3.514      0.000      0.000
REMARK INTER + INTRA:          -4.097
REMARK INTER:                  -4.028
REMARK INTRA:                  -0.069
REMARK UNBOUND:                -0.069
REMARK SMILES CC(C)[C@H]([NH3+])C(=O)[O-]
REMARK SMILES IDX 4 1 5 2 6 6 7 7 8 8 2 9 1 10 3 11
REMARK H PARENT 5 3 5 4 5 5
REMARK Flexibility Score: inf
ROOT
ATOM      1  C   UNL     1     139.344 134.572 118.207  1.00  0.00     0.230 C 
ENDROOT
BRANCH   1   2
ATOM      2  N   UNL     1     137.881 134.708 118.251  1.00  0.00    -0.350 N 
ATOM      3  H   UNL     1     137.575 135.589 117.776  1.00  0.00     0.345 HD
ATOM      4  H   UNL     1     137.551 134.725 119.245  1.00  0.00     0.345 HD
ATOM      5  H   UNL     1     137.427 133.886 117.792  1.00  0.00     0.345 HD
ENDBRANCH   1   2
BRANCH   1   6
ATOM      6  C   UNL     1     139.762 133.413 119.076  1.00  0.00     0.099 C 
ATOM      7  O   UNL     1     139.782 133.534 120.330  1.00  0.00    -0.544 OA
ATOM      8  O   UNL     1     140.126 132.201 118.500  1.00  0.00    -0.544 OA
ENDBRANCH   1   6
BRANCH   1   9
ATOM      9  C   UNL     1     140.062 135.883 118.652  1.00  0.00     0.047 C 
ATOM     10  C   UNL     1     141.555 135.855 118.281  1.00  0.00     0.014 C 
ATOM     11  C   UNL     1     139.413 137.132 118.032  1.00  0.00     0.014 C 
ENDBRANCH   1   9
TORSDOF 3
ENDMDL
MODEL 2
REMARK VINA RESULT:    -3.464     12.384     12.941
REMARK INTER + INTRA:          -4.039
REMARK INTER:                  -3.986
REMARK INTRA:                  -0.053
REMARK UNBOUND:                -0.069
REMARK SMILES CC(C)[C@H]([NH3+])C(=O)[O-]
REMARK SMILES IDX 4 1 5 2 6 6 7 7 8 8 2 9 1 10 3 11
REMARK H PARENT 5 3 5 4 5 5
REMARK Flexibility Score: inf
ROOT
ATOM      1  C   UNL     1     128.114 137.628 119.353  1.00  0.00     0.230 C 
ENDROOT
BRANCH   1   2
ATOM      2  N   UNL     1     129.155 138.595 118.979  1.00  0.00    -0.350 N 
ATOM      3  H   UNL     1     128.928 139.547 119.350  1.00  0.00     0.345 HD
ATOM      4  H   UNL     1     129.240 138.648 117.936  1.00  0.00     0.345 HD
ATOM      5  H   UNL     1     130.084 138.287 119.347  1.00  0.00     0.345 HD
ENDBRANCH   1   2
BRANCH   1   6
ATOM      6  C   UNL     1     126.894 137.852 118.494  1.00  0.00     0.099 C 
ATOM      7  O   UNL     1     126.520 139.023 118.218  1.00  0.00    -0.544 OA
ATOM      8  O   UNL     1     126.178 136.769 117.999  1.00  0.00    -0.544 OA
ENDBRANCH   1   6
BRANCH   1   9
ATOM      9  C   UNL     1     127.747 137.725 120.866  1.00  0.00     0.047 C 
ATOM     10  C   UNL     1     127.225 136.381 121.401  1.00  0.00     0.014 C 
ATOM     11  C   UNL     1     128.947 138.175 121.719  1.00  0.00     0.014 C 
ENDBRANCH   1   9
TORSDOF 3
ENDMDL
MODEL 3
REMARK VINA RESULT:    -3.461      1.245      1.762
REMARK INTER + INTRA:          -4.035
REMARK INTER:                  -3.990
REMARK INTRA:                  -0.046
REMARK UNBOUND:                -0.069
REMARK SMILES CC(C)[C@H]([NH3+])C(=O)[O-]
REMARK SMILES IDX 4 1 5 2 6 6 7 7 8 8 2 9 1 10 3 11
REMARK H PARENT 5 3 5 4 5 5
REMARK Flexibility Score: inf
ROOT
ATOM      1  C   UNL     1     139.260 134.881 119.407  1.00  0.00     0.230 C 
ENDROOT
BRANCH   1   2
ATOM      2  N   UNL     1     139.551 135.612 120.649  1.00  0.00    -0.350 N 
ATOM      3  H   UNL     1     140.425 135.249 121.097  1.00  0.00     0.345 HD
ATOM      4  H   UNL     1     138.756 135.509 121.322  1.00  0.00     0.345 HD
ATOM      5  H   UNL     1     139.656 136.633 120.451  1.00  0.00     0.345 HD
ENDBRANCH   1   2
BRANCH   1   6
ATOM      6  C   UNL     1     139.745 133.459 119.543  1.00  0.00     0.099 C 
ATOM      7  O   UNL     1     139.936 132.959 120.683  1.00  0.00    -0.544 OA
ATOM      8  O   UNL     1     139.980 132.689 118.409  1.00  0.00    -0.544 OA
ENDBRANCH   1   6
BRANCH   1   9
ATOM      9  C   UNL     1     139.906 135.567 118.164  1.00  0.00     0.047 C 
ATOM     10  C   UNL     1     139.196 136.889 117.826  1.00  0.00     0.014 C 
ATOM     11  C   UNL     1     141.405 135.840 118.374  1.00  0.00     0.014 C 
ENDBRANCH   1   9
TORSDOF 3
ENDMDL
MODEL 4
REMARK VINA RESULT:    -3.423     11.174     11.929
REMARK INTER + INTRA:          -3.992
REMARK INTER:                  -3.941
REMARK INTRA:                  -0.052
REMARK UNBOUND:                -0.069
REMARK SMILES CC(C)[C@H]([NH3+])C(=O)[O-]
REMARK SMILES IDX 4 1 5 2 6 6 7 7 8 8 2 9 1 10 3 11
REMARK H PARENT 5 3 5 4 5 5
REMARK Flexibility Score: inf
ROOT
ATOM      1  C   UNL     1     131.747 126.535 119.407  1.00  0.00     0.230 C 
ENDROOT
BRANCH   1   2
ATOM      2  N   UNL     1     130.375 126.930 119.061  1.00  0.00    -0.350 N 
ATOM      3  H   UNL     1     129.805 126.096 118.788  1.00  0.00     0.345 HD
ATOM      4  H   UNL     1     130.386 127.610 118.264  1.00  0.00     0.345 HD
ATOM      5  H   UNL     1     129.923 127.414 119.870  1.00  0.00     0.345 HD
ENDBRANCH   1   2
BRANCH   1   6
ATOM      6  C   UNL     1     132.160 125.367 118.546  1.00  0.00     0.099 C 
ATOM      7  O   UNL     1     131.325 124.473 118.246  1.00  0.00    -0.544 OA
ATOM      8  O   UNL     1     133.464 125.272 118.075  1.00  0.00    -0.544 OA
ENDBRANCH   1   6
BRANCH   1   9
ATOM      9  C   UNL     1     131.885 126.180 120.920  1.00  0.00     0.047 C 
ATOM     10  C   UNL     1     133.289 126.522 121.446  1.00  0.00     0.014 C 
ATOM     11  C   UNL     1     130.835 126.907 121.777  1.00  0.00     0.014 C 
ENDBRANCH   1   9
TORSDOF 3
ENDMDL
MODEL 5
REMARK VINA RESULT:    -3.409     11.455     12.148
REMARK INTER + INTRA:          -3.976
REMARK INTER:                  -3.931
REMARK INTRA:                  -0.046
REMARK UNBOUND:                -0.069
REMARK SMILES CC(C)[C@H]([NH3+])C(=O)[O-]
REMARK SMILES IDX 4 1 5 2 6 6 7 7 8 8 2 9 1 10 3 11
REMARK H PARENT 5 3 5 4 5 5
REMARK Flexibility Score: inf
ROOT
ATOM      1  C   UNL     1     131.695 127.009 119.339  1.00  0.00     0.230 C 
ENDROOT
BRANCH   1   2
ATOM      2  N   UNL     1     132.209 126.447 120.596  1.00  0.00    -0.350 N 
ATOM      3  H   UNL     1     133.025 127.002 120.944  1.00  0.00     0.345 HD
ATOM      4  H   UNL     1     132.510 125.455 120.450  1.00  0.00     0.345 HD
ATOM      5  H   UNL     1     131.457 126.436 121.321  1.00  0.00     0.345 HD
ENDBRANCH   1   2
BRANCH   1   6
ATOM      6  C   UNL     1     130.218 127.281 119.483  1.00  0.00     0.099 C 
ATOM      7  O   UNL     1     129.508 127.485 118.462  1.00  0.00    -0.544 OA
ATOM      8  O   UNL     1     129.631 127.303 120.742  1.00  0.00    -0.544 OA
ENDBRANCH   1   6
BRANCH   1   9
ATOM      9  C   UNL     1     131.967 126.067 118.126  1.00  0.00     0.047 C 
ATOM     10  C   UNL     1     133.465 126.019 117.781  1.00  0.00     0.014 C 
ATOM     11  C   UNL     1     131.465 124.636 118.389  1.00  0.00     0.014 C 
ENDBRANCH   1   9
TORSDOF 3
ENDMDL
MODEL 6
REMARK VINA RESULT:    -3.401     11.373     12.198
REMARK INTER + INTRA:          -3.967
REMARK INTER:                  -3.905
REMARK INTRA:                  -0.062
REMARK UNBOUND:                -0.069
REMARK SMILES CC(C)[C@H]([NH3+])C(=O)[O-]
REMARK SMILES IDX 4 1 5 2 6 6 7 7 8 8 2 9 1 10 3 11
REMARK H PARENT 5 3 5 4 5 5
REMARK Flexibility Score: inf
ROOT
ATOM      1  C   UNL     1     131.143 126.910 118.124  1.00  0.00     0.230 C 
ENDROOT
BRANCH   1   2
ATOM      2  N   UNL     1     131.984 128.094 117.892  1.00  0.00    -0.350 N 
ATOM      3  H   UNL     1     131.897 128.422 116.902  1.00  0.00     0.345 HD
ATOM      4  H   UNL     1     132.987 127.867 118.089  1.00  0.00     0.345 HD
ATOM      5  H   UNL     1     131.710 128.865 118.542  1.00  0.00     0.345 HD
ENDBRANCH   1   2
BRANCH   1   6
ATOM      6  C   UNL     1     130.067 127.253 119.124  1.00  0.00     0.099 C 
ATOM      7  O   UNL     1     128.940 127.656 118.730  1.00  0.00    -0.544 OA
ATOM      8  O   UNL     1     130.311 127.124 120.486  1.00  0.00    -0.544 OA
ENDBRANCH   1   6
BRANCH   1   9
ATOM      9  C   UNL     1     131.981 125.689 118.613  1.00  0.00     0.047 C 
ATOM     10  C   UNL     1     131.301 124.361 118.240  1.00  0.00     0.014 C 
ATOM     11  C   UNL     1     133.407 125.705 118.036  1.00  0.00     0.014 C 
ENDBRANCH   1   9
TORSDOF 3
ENDMDL
MODEL 7
REMARK VINA RESULT:    -3.396     11.265     12.064
REMARK INTER + INTRA:          -3.961
REMARK INTER:                  -3.895
REMARK INTRA:                  -0.066
REMARK UNBOUND:                -0.069
REMARK SMILES CC(C)[C@H]([NH3+])C(=O)[O-]
REMARK SMILES IDX 4 1 5 2 6 6 7 7 8 8 2 9 1 10 3 11
REMARK H PARENT 5 3 5 4 5 5
REMARK Flexibility Score: inf
ROOT
ATOM      1  C   UNL     1     128.870 137.729 118.086  1.00  0.00     0.230 C 
ENDROOT
BRANCH   1   2
ATOM      2  N   UNL     1     129.532 136.418 118.021  1.00  0.00    -0.350 N 
ATOM      3  H   UNL     1     129.646 136.012 118.979  1.00  0.00     0.345 HD
ATOM      4  H   UNL     1     130.476 136.513 117.577  1.00  0.00     0.345 HD
ATOM      5  H   UNL     1     128.978 135.762 117.425  1.00  0.00     0.345 HD
ENDBRANCH   1   2
BRANCH   1   6
ATOM      6  C   UNL     1     129.645 138.632 119.012  1.00  0.00     0.099 C 
ATOM      7  O   UNL     1     130.485 139.448 118.547  1.00  0.00    -0.544 OA
ATOM      8  O   UNL     1     129.436 138.573 120.385  1.00  0.00    -0.544 OA
ENDBRANCH   1   6
BRANCH   1   9
ATOM      9  C   UNL     1     127.386 137.607 118.549  1.00  0.00     0.047 C 
ATOM     10  C   UNL     1     126.606 138.903 118.269  1.00  0.00     0.014 C 
ATOM     11  C   UNL     1     126.667 136.430 117.868  1.00  0.00     0.014 C 
ENDBRANCH   1   9
TORSDOF 3
ENDMDL
MODEL 8
REMARK VINA RESULT:    -3.384     12.140     12.767
REMARK INTER + INTRA:          -3.948
REMARK INTER:                  -3.881
REMARK INTRA:                  -0.067
REMARK UNBOUND:                -0.069
REMARK SMILES CC(C)[C@H]([NH3+])C(=O)[O-]
REMARK SMILES IDX 4 1 5 2 6 6 7 7 8 8 2 9 1 10 3 11
REMARK H PARENT 5 3 5 4 5 5
REMARK Flexibility Score: inf
ROOT
ATOM      1  C   UNL     1     127.992 136.363 119.646  1.00  0.00     0.230 C 
ENDROOT
BRANCH   1   2
ATOM      2  N   UNL     1     128.256 134.917 119.616  1.00  0.00    -0.350 N 
ATOM      3  H   UNL     1     128.832 134.628 120.440  1.00  0.00     0.345 HD
ATOM      4  H   UNL     1     128.765 134.662 118.737  1.00  0.00     0.345 HD
ATOM      5  H   UNL     1     127.356 134.386 119.614  1.00  0.00     0.345 HD
ENDBRANCH   1   2
BRANCH   1   6
ATOM      6  C   UNL     1     127.682 136.782 121.061  1.00  0.00     0.099 C 
ATOM      7  O   UNL     1     126.795 136.179 121.722  1.00  0.00    -0.544 OA
ATOM      8  O   UNL     1     128.375 137.835 121.647  1.00  0.00    -0.544 OA
ENDBRANCH   1   6
BRANCH   1   9
ATOM      9  C   UNL     1     126.830 136.762 118.685  1.00  0.00     0.047 C 
ATOM     10  C   UNL     1     126.841 138.272 118.394  1.00  0.00     0.014 C 
ATOM     11  C   UNL     1     126.895 135.991 117.355  1.00  0.00     0.014 C 
ENDBRANCH   1   9
TORSDOF 3
ENDMDL
MODEL 9
REMARK VINA RESULT:    -3.368     10.353     11.059
REMARK INTER + INTRA:          -3.929
REMARK INTER:                  -3.862
REMARK INTRA:                  -0.067
REMARK UNBOUND:                -0.069
REMARK SMILES CC(C)[C@H]([NH3+])C(=O)[O-]
REMARK SMILES IDX 4 1 5 2 6 6 7 7 8 8 2 9 1 10 3 11
REMARK H PARENT 5 3 5 4 5 5
REMARK Flexibility Score: inf
ROOT
ATOM      1  C   UNL     1     132.907 127.087 119.645  1.00  0.00     0.230 C 
ENDROOT
BRANCH   1   2
ATOM      2  N   UNL     1     134.029 128.034 119.578  1.00  0.00    -0.350 N 
ATOM      3  H   UNL     1     133.954 128.639 118.728  1.00  0.00     0.345 HD
ATOM      4  H   UNL     1     134.938 127.514 119.547  1.00  0.00     0.345 HD
ATOM      5  H   UNL     1     134.048 128.633 120.435  1.00  0.00     0.345 HD
ENDBRANCH   1   2
BRANCH   1   6
ATOM      6  C   UNL     1     132.699 126.662 121.078  1.00  0.00     0.099 C 
ATOM      7  O   UNL     1     133.669 126.236 121.759  1.00  0.00    -0.544 OA
ATOM      8  O   UNL     1     131.438 126.741 121.655  1.00  0.00    -0.544 OA
ENDBRANCH   1   6
BRANCH   1   9
ATOM      9  C   UNL     1     133.139 125.846 118.730  1.00  0.00     0.047 C 
ATOM     10  C   UNL     1     131.825 125.088 118.475  1.00  0.00     0.014 C 
ATOM     11  C   UNL     1     133.764 126.238 117.380  1.00  0.00     0.014 C 
ENDBRANCH   1   9
TORSDOF 3
ENDMDL
