MODEL 1
REMARK VINA RESULT:    -3.884      0.000      0.000
REMARK INTER + INTRA:          -5.253
REMARK INTER:                  -5.019
REMARK INTRA:                  -0.234
REMARK UNBOUND:                -0.234
REMARK SMILES C=CC(=O)CCCCC
REMARK SMILES IDX 6 1 7 2 8 3 9 4 5 5 3 6 4 7 2 8 1 9
REMARK H PARENT
REMARK Flexibility Score: inf
ROOT
ATOM      1  C   UNL     1       0.568   5.752  62.786  1.00  0.00     0.008 C 
ENDROOT
BRANCH   1   2
ATOM      2  C   UNL     1      -0.298   4.722  63.527  1.00  0.00     0.000 C 
BRANCH   2   3
ATOM      3  C   UNL     1      -1.670   5.309  63.876  1.00  0.00    -0.003 C 
ATOM      4  C   UNL     1      -2.796   4.387  63.420  1.00  0.00     0.004 C 
ENDBRANCH   2   3
ENDBRANCH   1   2
BRANCH   1   5
ATOM      5  C   UNL     1       1.332   5.126  61.606  1.00  0.00     0.080 C 
BRANCH   5   6
ATOM      6  C   UNL     1       2.820   5.401  61.630  1.00  0.00     0.155 C 
ATOM      7  O   UNL     1       3.251   6.548  61.331  1.00  0.00    -0.295 OA
BRANCH   6   8
ATOM      8  C   UNL     1       3.808   4.348  61.939  1.00  0.00     0.039 C 
ATOM      9  C   UNL     1       3.537   3.273  62.678  1.00  0.00     0.012 C 
ENDBRANCH   6   8
ENDBRANCH   5   6
ENDBRANCH   1   5
TORSDOF 5
ENDMDL
MODEL 2
REMARK VINA RESULT:    -3.772      1.599      2.362
REMARK INTER + INTRA:          -5.108
REMARK INTER:                  -4.956
REMARK INTRA:                  -0.152
REMARK UNBOUND:                -0.234
REMARK SMILES C=CC(=O)CCCCC
REMARK SMILES IDX 6 1 7 2 8 3 9 4 5 5 3 6 4 7 2 8 1 9
REMARK H PARENT
REMARK Flexibility Score: inf
ROOT
ATOM      1  C   UNL     1      -0.717   4.890  63.186  1.00  0.00     0.008 C 
ENDROOT
BRANCH   1   2
ATOM      2  C   UNL     1      -1.804   4.445  64.176  1.00  0.00     0.000 C 
BRANCH   2   3
ATOM      3  C   UNL     1      -3.170   4.357  63.488  1.00  0.00    -0.003 C 
ATOM      4  C   UNL     1      -4.201   5.231  64.196  1.00  0.00     0.004 C 
ENDBRANCH   2   3
ENDBRANCH   1   2
BRANCH   1   5
ATOM      5  C   UNL     1       0.689   4.851  63.810  1.00  0.00     0.080 C 
BRANCH   5   6
ATOM      6  C   UNL     1       1.806   4.805  62.791  1.00  0.00     0.155 C 
ATOM      7  O   UNL     1       2.958   4.428  63.140  1.00  0.00    -0.295 OA
BRANCH   6   8
ATOM      8  C   UNL     1       1.614   5.245  61.394  1.00  0.00     0.039 C 
ATOM      9  C   UNL     1       1.763   6.505  60.989  1.00  0.00     0.012 C 
ENDBRANCH   6   8
ENDBRANCH   5   6
ENDBRANCH   1   5
TORSDOF 5
ENDMDL
MODEL 3
REMARK VINA RESULT:    -3.769      2.238      5.022
REMARK INTER + INTRA:          -5.104
REMARK INTER:                  -4.867
REMARK INTRA:                  -0.237
REMARK UNBOUND:                -0.234
REMARK SMILES C=CC(=O)CCCCC
REMARK SMILES IDX 6 1 7 2 8 3 9 4 5 5 3 6 4 7 2 8 1 9
REMARK H PARENT
REMARK Flexibility Score: inf
ROOT
ATOM      1  C   UNL     1       0.760   5.083  62.327  1.00  0.00     0.008 C 
ENDROOT
BRANCH   1   2
ATOM      2  C   UNL     1       2.154   5.035  61.682  1.00  0.00     0.000 C 
BRANCH   2   3
ATOM      3  C   UNL     1       3.197   4.498  62.668  1.00  0.00    -0.003 C 
ATOM      4  C   UNL     1       3.881   3.249  62.120  1.00  0.00     0.004 C 
ENDBRANCH   2   3
ENDBRANCH   1   2
BRANCH   1   5
ATOM      5  C   UNL     1       0.797   4.705  63.818  1.00  0.00     0.080 C 
BRANCH   5   6
ATOM      6  C   UNL     1      -0.574   4.545  64.438  1.00  0.00     0.155 C 
ATOM      7  O   UNL     1      -0.707   3.878  65.501  1.00  0.00    -0.295 OA
BRANCH   6   8
ATOM      8  C   UNL     1      -1.791   5.098  63.810  1.00  0.00     0.039 C 
ATOM      9  C   UNL     1      -2.830   4.356  63.431  1.00  0.00     0.012 C 
ENDBRANCH   6   8
ENDBRANCH   5   6
ENDBRANCH   1   5
TORSDOF 5
ENDMDL
MODEL 4
REMARK VINA RESULT:    -3.730      2.087      5.242
REMARK INTER + INTRA:          -5.054
REMARK INTER:                  -4.897
REMARK INTRA:                  -0.157
REMARK UNBOUND:                -0.234
REMARK SMILES C=CC(=O)CCCCC
REMARK SMILES IDX 6 1 7 2 8 3 9 4 5 5 3 6 4 7 2 8 1 9
REMARK H PARENT
REMARK Flexibility Score: inf
ROOT
ATOM      1  C   UNL     1       0.566   5.709  62.829  1.00  0.00     0.008 C 
ENDROOT
BRANCH   1   2
ATOM      2  C   UNL     1       1.185   5.106  61.559  1.00  0.00     0.000 C 
BRANCH   2   3
ATOM      3  C   UNL     1       2.714   5.192  61.599  1.00  0.00    -0.003 C 
ATOM      4  C   UNL     1       3.324   3.919  62.177  1.00  0.00     0.004 C 
ENDBRANCH   2   3
ENDBRANCH   1   2
BRANCH   1   5
ATOM      5  C   UNL     1      -0.306   4.695  63.589  1.00  0.00     0.080 C 
BRANCH   5   6
ATOM      6  C   UNL     1      -1.734   5.153  63.793  1.00  0.00     0.155 C 
ATOM      7  O   UNL     1      -1.964   6.243  64.385  1.00  0.00    -0.295 OA
BRANCH   6   8
ATOM      8  C   UNL     1      -2.890   4.335  63.372  1.00  0.00     0.039 C 
ATOM      9  C   UNL     1      -4.127   4.509  63.834  1.00  0.00     0.012 C 
ENDBRANCH   6   8
ENDBRANCH   5   6
ENDBRANCH   1   5
TORSDOF 5
ENDMDL
MODEL 5
REMARK VINA RESULT:    -3.706      1.722      2.312
REMARK INTER + INTRA:          -5.023
REMARK INTER:                  -4.691
REMARK INTRA:                  -0.331
REMARK UNBOUND:                -0.234
REMARK SMILES C=CC(=O)CCCCC
REMARK SMILES IDX 6 1 7 2 8 3 9 4 5 5 3 6 4 7 2 8 1 9
REMARK H PARENT
REMARK Flexibility Score: inf
ROOT
ATOM      1  C   UNL     1       0.819   3.997  64.911  1.00  0.00     0.008 C 
ENDROOT
BRANCH   1   2
ATOM      2  C   UNL     1      -0.670   4.370  64.969  1.00  0.00     0.000 C 
BRANCH   2   3
ATOM      3  C   UNL     1      -1.195   4.752  63.581  1.00  0.00    -0.003 C 
ATOM      4  C   UNL     1      -2.669   4.389  63.430  1.00  0.00     0.004 C 
ENDBRANCH   2   3
ENDBRANCH   1   2
BRANCH   1   5
ATOM      5  C   UNL     1       1.650   5.043  64.149  1.00  0.00     0.080 C 
BRANCH   5   6
ATOM      6  C   UNL     1       2.430   4.470  62.986  1.00  0.00     0.155 C 
ATOM      7  O   UNL     1       3.134   3.437  63.151  1.00  0.00    -0.295 OA
BRANCH   6   8
ATOM      8  C   UNL     1       2.446   5.115  61.657  1.00  0.00     0.039 C 
ATOM      9  C   UNL     1       1.347   5.480  60.998  1.00  0.00     0.012 C 
ENDBRANCH   6   8
ENDBRANCH   5   6
ENDBRANCH   1   5
TORSDOF 5
ENDMDL
MODEL 6
REMARK VINA RESULT:    -3.624      2.527      5.056
REMARK INTER + INTRA:          -4.916
REMARK INTER:                  -4.711
REMARK INTRA:                  -0.205
REMARK UNBOUND:                -0.234
REMARK SMILES C=CC(=O)CCCCC
REMARK SMILES IDX 6 1 7 2 8 3 9 4 5 5 3 6 4 7 2 8 1 9
REMARK H PARENT
REMARK Flexibility Score: inf
ROOT
ATOM      1  C   UNL     1       0.632   5.132  62.610  1.00  0.00     0.008 C 
ENDROOT
BRANCH   1   2
ATOM      2  C   UNL     1       2.078   4.779  62.230  1.00  0.00     0.000 C 
BRANCH   2   3
ATOM      3  C   UNL     1       2.677   5.842  61.303  1.00  0.00    -0.003 C 
ATOM      4  C   UNL     1       1.663   6.937  60.991  1.00  0.00     0.004 C 
ENDBRANCH   2   3
ENDBRANCH   1   2
BRANCH   1   5
ATOM      5  C   UNL     1       0.335   4.847  64.092  1.00  0.00     0.080 C 
BRANCH   5   6
ATOM      6  C   UNL     1      -1.094   4.426  64.357  1.00  0.00     0.155 C 
ATOM      7  O   UNL     1      -1.384   3.829  65.429  1.00  0.00    -0.295 OA
BRANCH   6   8
ATOM      8  C   UNL     1      -2.172   4.640  63.369  1.00  0.00     0.039 C 
ATOM      9  C   UNL     1      -3.408   4.162  63.508  1.00  0.00     0.012 C 
ENDBRANCH   6   8
ENDBRANCH   5   6
ENDBRANCH   1   5
TORSDOF 5
ENDMDL
MODEL 7
REMARK VINA RESULT:    -3.545      1.907      2.713
REMARK INTER + INTRA:          -4.815
REMARK INTER:                  -4.600
REMARK INTRA:                  -0.215
REMARK UNBOUND:                -0.234
REMARK SMILES C=CC(=O)CCCCC
REMARK SMILES IDX 6 1 7 2 8 3 9 4 5 5 3 6 4 7 2 8 1 9
REMARK H PARENT
REMARK Flexibility Score: inf
ROOT
ATOM      1  C   UNL     1       2.482   5.167  61.602  1.00  0.00     0.008 C 
ENDROOT
BRANCH   1   2
ATOM      2  C   UNL     1       0.950   5.144  61.723  1.00  0.00     0.000 C 
BRANCH   2   3
ATOM      3  C   UNL     1       0.516   5.060  63.190  1.00  0.00    -0.003 C 
ATOM      4  C   UNL     1      -0.950   4.658  63.309  1.00  0.00     0.004 C 
ENDBRANCH   2   3
ENDBRANCH   1   2
BRANCH   1   5
ATOM      5  C   UNL     1       3.128   3.888  62.159  1.00  0.00     0.080 C 
BRANCH   5   6
ATOM      6  C   UNL     1       4.599   4.039  62.480  1.00  0.00     0.155 C 
ATOM      7  O   UNL     1       5.268   3.033  62.842  1.00  0.00    -0.295 OA
BRANCH   6   8
ATOM      8  C   UNL     1       5.280   5.349  62.443  1.00  0.00     0.039 C 
ATOM      9  C   UNL     1       6.108   5.725  61.469  1.00  0.00     0.012 C 
ENDBRANCH   6   8
ENDBRANCH   5   6
ENDBRANCH   1   5
TORSDOF 5
ENDMDL
MODEL 8
REMARK VINA RESULT:    -3.467      1.506      2.417
REMARK INTER + INTRA:          -4.714
REMARK INTER:                  -4.278
REMARK INTRA:                  -0.436
REMARK UNBOUND:                -0.234
REMARK SMILES C=CC(=O)CCCCC
REMARK SMILES IDX 6 1 7 2 8 3 9 4 5 5 3 6 4 7 2 8 1 9
REMARK H PARENT
REMARK Flexibility Score: inf
ROOT
ATOM      1  C   UNL     1       2.119   4.562  63.321  1.00  0.00     0.008 C 
ENDROOT
BRANCH   1   2
ATOM      2  C   UNL     1       0.781   4.841  64.022  1.00  0.00     0.000 C 
BRANCH   2   3
ATOM      3  C   UNL     1      -0.352   4.998  63.001  1.00  0.00    -0.003 C 
ATOM      4  C   UNL     1      -1.678   4.504  63.569  1.00  0.00     0.004 C 
ENDBRANCH   2   3
ENDBRANCH   1   2
BRANCH   1   5
ATOM      5  C   UNL     1       2.078   4.922  61.826  1.00  0.00     0.080 C 
BRANCH   5   6
ATOM      6  C   UNL     1       2.924   6.124  61.466  1.00  0.00     0.155 C 
ATOM      7  O   UNL     1       4.176   6.074  61.611  1.00  0.00    -0.295 OA
BRANCH   6   8
ATOM      8  C   UNL     1       2.330   7.393  60.999  1.00  0.00     0.039 C 
ATOM      9  C   UNL     1       1.330   8.015  61.622  1.00  0.00     0.012 C 
ENDBRANCH   6   8
ENDBRANCH   5   6
ENDBRANCH   1   5
TORSDOF 5
ENDMDL
MODEL 9
REMARK VINA RESULT:    -3.293      1.949      2.875
REMARK INTER + INTRA:          -4.489
REMARK INTER:                  -3.953
REMARK INTRA:                  -0.536
REMARK UNBOUND:                -0.234
REMARK SMILES C=CC(=O)CCCCC
REMARK SMILES IDX 6 1 7 2 8 3 9 4 5 5 3 6 4 7 2 8 1 9
REMARK H PARENT
REMARK Flexibility Score: inf
ROOT
ATOM      1  C   UNL     1       2.831   6.805  62.020  1.00  0.00     0.008 C 
ENDROOT
BRANCH   1   2
ATOM      2  C   UNL     1       1.735   6.440  61.008  1.00  0.00     0.000 C 
BRANCH   2   3
ATOM      3  C   UNL     1       1.060   5.116  61.382  1.00  0.00    -0.003 C 
ATOM      4  C   UNL     1       0.544   5.147  62.817  1.00  0.00     0.004 C 
ENDBRANCH   2   3
ENDBRANCH   1   2
BRANCH   1   5
ATOM      5  C   UNL     1       4.235   6.776  61.392  1.00  0.00     0.080 C 
BRANCH   5   6
ATOM      6  C   UNL     1       5.068   5.588  61.820  1.00  0.00     0.155 C 
ATOM      7  O   UNL     1       6.280   5.516  61.477  1.00  0.00    -0.295 OA
BRANCH   6   8
ATOM      8  C   UNL     1       4.497   4.463  62.587  1.00  0.00     0.039 C 
ATOM      9  C   UNL     1       4.227   3.269  62.059  1.00  0.00     0.012 C 
ENDBRANCH   6   8
ENDBRANCH   5   6
ENDBRANCH   1   5
TORSDOF 5
ENDMDL
