MODEL 1
REMARK VINA RESULT:    -3.511      0.000      0.000
REMARK INTER + INTRA:          -4.926
REMARK INTER:                  -4.742
REMARK INTRA:                  -0.184
REMARK UNBOUND:                -0.184
REMARK SMILES CCCCCCCC(=O)[O-]
REMARK SMILES IDX 5 1 6 2 7 3 8 4 9 5 10 6 4 7 3 8 2 9 1 10
REMARK H PARENT
REMARK Flexibility Score: inf
ROOT
ATOM      1  C   UNL     1     121.021  70.259  -0.016  1.00  0.00     0.000 C 
ENDROOT
BRANCH   1   2
ATOM      2  C   UNL     1     120.133  69.136  -0.589  1.00  0.00     0.006 C 
BRANCH   2   3
ATOM      3  C   UNL     1     119.935  67.936   0.350  1.00  0.00     0.053 C 
BRANCH   3   4
ATOM      4  C   UNL     1     120.278  66.639  -0.316  1.00  0.00     0.041 C 
ATOM      5  O   UNL     1     120.623  65.645   0.375  1.00  0.00    -0.550 OA
ATOM      6  O   UNL     1     120.183  66.519  -1.697  1.00  0.00    -0.550 OA
ENDBRANCH   3   4
ENDBRANCH   2   3
ENDBRANCH   1   2
BRANCH   1   7
ATOM      7  C   UNL     1     120.281  71.315   0.826  1.00  0.00     0.000 C 
BRANCH   7   8
ATOM      8  C   UNL     1     121.042  71.698   2.108  1.00  0.00    -0.000 C 
BRANCH   8   9
ATOM      9  C   UNL     1     120.988  73.207   2.395  1.00  0.00    -0.003 C 
ATOM     10  C   UNL     1     119.967  73.940   1.522  1.00  0.00     0.004 C 
ENDBRANCH   8   9
ENDBRANCH   7   8
ENDBRANCH   1   7
TORSDOF 6
ENDMDL
MODEL 2
REMARK VINA RESULT:    -3.488      3.306      5.815
REMARK INTER + INTRA:          -4.895
REMARK INTER:                  -4.748
REMARK INTRA:                  -0.147
REMARK UNBOUND:                -0.184
REMARK SMILES CCCCCCCC(=O)[O-]
REMARK SMILES IDX 5 1 6 2 7 3 8 4 9 5 10 6 4 7 3 8 2 9 1 10
REMARK H PARENT
REMARK Flexibility Score: inf
ROOT
ATOM      1  C   UNL     1     120.919  70.236   0.210  1.00  0.00     0.000 C 
ENDROOT
BRANCH   1   2
ATOM      2  C   UNL     1     120.195  71.409   0.899  1.00  0.00     0.006 C 
BRANCH   2   3
ATOM      3  C   UNL     1     121.042  72.160   1.938  1.00  0.00     0.053 C 
BRANCH   3   4
ATOM      4  C   UNL     1     120.630  71.834   3.340  1.00  0.00     0.041 C 
ATOM      5  O   UNL     1     120.687  70.648   3.758  1.00  0.00    -0.550 OA
ATOM      6  O   UNL     1     120.215  72.846   4.198  1.00  0.00    -0.550 OA
ENDBRANCH   3   4
ENDBRANCH   2   3
ENDBRANCH   1   2
BRANCH   1   7
ATOM      7  C   UNL     1     120.068  68.969   0.003  1.00  0.00     0.000 C 
BRANCH   7   8
ATOM      8  C   UNL     1     120.884  67.782  -0.538  1.00  0.00    -0.000 C 
BRANCH   8   9
ATOM      9  C   UNL     1     120.016  66.541  -0.798  1.00  0.00    -0.003 C 
ATOM     10  C   UNL     1     120.166  65.474   0.287  1.00  0.00     0.004 C 
ENDBRANCH   8   9
ENDBRANCH   7   8
ENDBRANCH   1   7
TORSDOF 6
ENDMDL
MODEL 3
REMARK VINA RESULT:    -3.486      6.054      7.601
REMARK INTER + INTRA:          -4.893
REMARK INTER:                  -4.737
REMARK INTRA:                  -0.156
REMARK UNBOUND:                -0.184
REMARK SMILES CCCCCCCC(=O)[O-]
REMARK SMILES IDX 5 1 6 2 7 3 8 4 9 5 10 6 4 7 3 8 2 9 1 10
REMARK H PARENT
REMARK Flexibility Score: inf
ROOT
ATOM      1  C   UNL     1     120.979  71.097   5.095  1.00  0.00     0.000 C 
ENDROOT
BRANCH   1   2
ATOM      2  C   UNL     1     120.261  71.607   6.362  1.00  0.00     0.006 C 
BRANCH   2   3
ATOM      3  C   UNL     1     121.040  71.391   7.668  1.00  0.00     0.053 C 
BRANCH   3   4
ATOM      4  C   UNL     1     120.730  72.444   8.687  1.00  0.00     0.041 C 
ATOM      5  O   UNL     1     120.963  73.656   8.438  1.00  0.00    -0.550 OA
ATOM      6  O   UNL     1     120.151  72.090   9.899  1.00  0.00    -0.550 OA
ENDBRANCH   3   4
ENDBRANCH   2   3
ENDBRANCH   1   2
BRANCH   1   7
ATOM      7  C   UNL     1     120.321  71.496   3.762  1.00  0.00     0.000 C 
BRANCH   7   8
ATOM      8  C   UNL     1     121.089  72.607   3.025  1.00  0.00    -0.000 C 
BRANCH   8   9
ATOM      9  C   UNL     1     120.837  72.591   1.509  1.00  0.00    -0.003 C 
ATOM     10  C   UNL     1     120.742  71.175   0.940  1.00  0.00     0.004 C 
ENDBRANCH   8   9
ENDBRANCH   7   8
ENDBRANCH   1   7
TORSDOF 6
ENDMDL
MODEL 4
REMARK VINA RESULT:    -3.364      3.455      5.789
REMARK INTER + INTRA:          -4.727
REMARK INTER:                  -4.595
REMARK INTRA:                  -0.133
REMARK UNBOUND:                -0.184
REMARK SMILES CCCCCCCC(=O)[O-]
REMARK SMILES IDX 5 1 6 2 7 3 8 4 9 5 10 6 4 7 3 8 2 9 1 10
REMARK H PARENT
REMARK Flexibility Score: inf
ROOT
ATOM      1  C   UNL     1     120.130  71.390   0.849  1.00  0.00     0.000 C 
ENDROOT
BRANCH   1   2
ATOM      2  C   UNL     1     120.977  72.380   1.674  1.00  0.00     0.006 C 
BRANCH   2   3
ATOM      3  C   UNL     1     120.271  72.945   2.916  1.00  0.00     0.053 C 
BRANCH   3   4
ATOM      4  C   UNL     1     120.465  72.074   4.118  1.00  0.00     0.041 C 
ATOM      5  O   UNL     1     119.875  72.343   5.197  1.00  0.00    -0.550 OA
ATOM      6  O   UNL     1     121.272  70.946   4.038  1.00  0.00    -0.550 OA
ENDBRANCH   3   4
ENDBRANCH   2   3
ENDBRANCH   1   2
BRANCH   1   7
ATOM      7  C   UNL     1     120.914  70.234   0.202  1.00  0.00     0.000 C 
BRANCH   7   8
ATOM      8  C   UNL     1     120.173  68.888   0.287  1.00  0.00    -0.000 C 
BRANCH   8   9
ATOM      9  C   UNL     1     120.540  67.942  -0.867  1.00  0.00    -0.003 C 
ATOM     10  C   UNL     1     120.518  66.469  -0.456  1.00  0.00     0.004 C 
ENDBRANCH   8   9
ENDBRANCH   7   8
ENDBRANCH   1   7
TORSDOF 6
ENDMDL
MODEL 5
REMARK VINA RESULT:    -3.353      1.264      2.083
REMARK INTER + INTRA:          -4.713
REMARK INTER:                  -4.526
REMARK INTRA:                  -0.187
REMARK UNBOUND:                -0.184
REMARK SMILES CCCCCCCC(=O)[O-]
REMARK SMILES IDX 5 1 6 2 7 3 8 4 9 5 10 6 4 7 3 8 2 9 1 10
REMARK H PARENT
REMARK Flexibility Score: inf
ROOT
ATOM      1  C   UNL     1     120.292  70.605   1.056  1.00  0.00     0.000 C 
ENDROOT
BRANCH   1   2
ATOM      2  C   UNL     1     121.056  69.997  -0.138  1.00  0.00     0.006 C 
BRANCH   2   3
ATOM      3  C   UNL     1     120.168  69.276  -1.164  1.00  0.00     0.053 C 
BRANCH   3   4
ATOM      4  C   UNL     1     120.271  67.787  -1.048  1.00  0.00     0.041 C 
ATOM      5  O   UNL     1     120.167  67.063  -2.073  1.00  0.00    -0.550 OA
ATOM      6  O   UNL     1     120.517  67.200   0.187  1.00  0.00    -0.550 OA
ENDBRANCH   3   4
ENDBRANCH   2   3
ENDBRANCH   1   2
BRANCH   1   7
ATOM      7  C   UNL     1     120.351  72.140   1.161  1.00  0.00     0.000 C 
BRANCH   7   8
ATOM      8  C   UNL     1     121.102  72.625   2.413  1.00  0.00    -0.000 C 
BRANCH   8   9
ATOM      9  C   UNL     1     120.279  72.445   3.698  1.00  0.00    -0.003 C 
ATOM     10  C   UNL     1     120.786  71.296   4.570  1.00  0.00     0.004 C 
ENDBRANCH   8   9
ENDBRANCH   7   8
ENDBRANCH   1   7
TORSDOF 6
ENDMDL
MODEL 6
REMARK VINA RESULT:    -3.320      1.906      2.962
REMARK INTER + INTRA:          -4.668
REMARK INTER:                  -4.397
REMARK INTRA:                  -0.272
REMARK UNBOUND:                -0.184
REMARK SMILES CCCCCCCC(=O)[O-]
REMARK SMILES IDX 5 1 6 2 7 3 8 4 9 5 10 6 4 7 3 8 2 9 1 10
REMARK H PARENT
REMARK Flexibility Score: inf
ROOT
ATOM      1  C   UNL     1     120.549  72.474   1.115  1.00  0.00     0.000 C 
ENDROOT
BRANCH   1   2
ATOM      2  C   UNL     1     120.280  70.957   1.047  1.00  0.00     0.006 C 
BRANCH   2   3
ATOM      3  C   UNL     1     121.226  70.182   0.117  1.00  0.00     0.053 C 
BRANCH   3   4
ATOM      4  C   UNL     1     120.571  68.967  -0.464  1.00  0.00     0.041 C 
ATOM      5  O   UNL     1     119.912  69.054  -1.534  1.00  0.00    -0.550 OA
ATOM      6  O   UNL     1     120.717  67.733   0.156  1.00  0.00    -0.550 OA
ENDBRANCH   3   4
ENDBRANCH   2   3
ENDBRANCH   1   2
BRANCH   1   7
ATOM      7  C   UNL     1     120.929  73.012   2.507  1.00  0.00     0.000 C 
BRANCH   7   8
ATOM      8  C   UNL     1     121.103  71.897   3.553  1.00  0.00    -0.000 C 
BRANCH   8   9
ATOM      9  C   UNL     1     120.097  72.013   4.708  1.00  0.00    -0.003 C 
ATOM     10  C   UNL     1     119.954  70.713   5.501  1.00  0.00     0.004 C 
ENDBRANCH   8   9
ENDBRANCH   7   8
ENDBRANCH   1   7
TORSDOF 6
ENDMDL
MODEL 7
REMARK VINA RESULT:    -3.199      4.516      6.397
REMARK INTER + INTRA:          -4.505
REMARK INTER:                  -4.336
REMARK INTRA:                  -0.168
REMARK UNBOUND:                -0.184
REMARK SMILES CCCCCCCC(=O)[O-]
REMARK SMILES IDX 5 1 6 2 7 3 8 4 9 5 10 6 4 7 3 8 2 9 1 10
REMARK H PARENT
REMARK Flexibility Score: inf
ROOT
ATOM      1  C   UNL     1     121.121  72.406   2.475  1.00  0.00     0.000 C 
ENDROOT
BRANCH   1   2
ATOM      2  C   UNL     1     120.277  71.919   3.670  1.00  0.00     0.006 C 
BRANCH   2   3
ATOM      3  C   UNL     1     119.883  73.022   4.665  1.00  0.00     0.053 C 
BRANCH   3   4
ATOM      4  C   UNL     1     120.051  72.582   6.087  1.00  0.00     0.041 C 
ATOM      5  O   UNL     1     120.382  71.396   6.348  1.00  0.00    -0.550 OA
ATOM      6  O   UNL     1     119.875  73.491   7.123  1.00  0.00    -0.550 OA
ENDBRANCH   3   4
ENDBRANCH   2   3
ENDBRANCH   1   2
BRANCH   1   7
ATOM      7  C   UNL     1     120.558  72.053   1.086  1.00  0.00     0.000 C 
BRANCH   7   8
ATOM      8  C   UNL     1     120.191  70.565   0.950  1.00  0.00    -0.000 C 
BRANCH   8   9
ATOM      9  C   UNL     1     121.025  69.849  -0.124  1.00  0.00    -0.003 C 
ATOM     10  C   UNL     1     120.652  68.375  -0.279  1.00  0.00     0.004 C 
ENDBRANCH   8   9
ENDBRANCH   7   8
ENDBRANCH   1   7
TORSDOF 6
ENDMDL
MODEL 8
REMARK VINA RESULT:    -3.172      2.644      3.352
REMARK INTER + INTRA:          -4.468
REMARK INTER:                  -4.335
REMARK INTRA:                  -0.133
REMARK UNBOUND:                -0.184
REMARK SMILES CCCCCCCC(=O)[O-]
REMARK SMILES IDX 5 1 6 2 7 3 8 4 9 5 10 6 4 7 3 8 2 9 1 10
REMARK H PARENT
REMARK Flexibility Score: inf
ROOT
ATOM      1  C   UNL     1     120.780  69.470  -0.959  1.00  0.00     0.000 C 
ENDROOT
BRANCH   1   2
ATOM      2  C   UNL     1     119.906  68.985  -2.133  1.00  0.00     0.006 C 
BRANCH   2   3
ATOM      3  C   UNL     1     119.882  69.931  -3.344  1.00  0.00     0.053 C 
BRANCH   3   4
ATOM      4  C   UNL     1     120.370  69.260  -4.590  1.00  0.00     0.041 C 
ATOM      5  O   UNL     1     120.228  68.018  -4.739  1.00  0.00    -0.550 OA
ATOM      6  O   UNL     1     120.953  70.012  -5.604  1.00  0.00    -0.550 OA
ENDBRANCH   3   4
ENDBRANCH   2   3
ENDBRANCH   1   2
BRANCH   1   7
ATOM      7  C   UNL     1     120.164  70.590  -0.101  1.00  0.00     0.000 C 
BRANCH   7   8
ATOM      8  C   UNL     1     121.003  70.918   1.147  1.00  0.00    -0.000 C 
BRANCH   8   9
ATOM      9  C   UNL     1     120.370  72.021   2.008  1.00  0.00    -0.003 C 
ATOM     10  C   UNL     1     120.571  73.419   1.423  1.00  0.00     0.004 C 
ENDBRANCH   8   9
ENDBRANCH   7   8
ENDBRANCH   1   7
TORSDOF 6
ENDMDL
