MODEL 1
REMARK VINA RESULT:    -4.247      0.000      0.000
REMARK INTER + INTRA:          -5.449
REMARK INTER:                  -5.240
REMARK INTRA:                  -0.209
REMARK UNBOUND:                -0.209
REMARK SMILES C=CC[C@H](C)C(=O)CC
REMARK SMILES IDX 4 1 5 2 6 3 7 4 8 5 9 6 3 7 2 8 1 9
REMARK H PARENT
REMARK Flexibility Score: inf
ROOT
ATOM      1  C   UNL     1      47.820  21.880  20.200  1.00  0.00     0.057 C 
ATOM      2  C   UNL     1      48.109  20.492  20.788  1.00  0.00     0.016 C 
ENDROOT
BRANCH   1   3
ATOM      3  C   UNL     1      48.157  22.950  21.214  1.00  0.00     0.135 C 
ATOM      4  O   UNL     1      47.329  23.809  21.487  1.00  0.00    -0.299 OA
BRANCH   3   5
ATOM      5  C   UNL     1      49.514  22.950  21.878  1.00  0.00     0.072 C 
ATOM      6  C   UNL     1      50.568  23.735  21.097  1.00  0.00     0.012 C 
ENDBRANCH   3   5
ENDBRANCH   1   3
BRANCH   1   7
ATOM      7  C   UNL     1      46.351  22.018  19.755  1.00  0.00     0.038 C 
BRANCH   7   8
ATOM      8  C   UNL     1      45.431  21.198  20.621  1.00  0.00    -0.034 C 
ATOM      9  C   UNL     1      44.208  21.623  20.954  1.00  0.00     0.004 C 
ENDBRANCH   7   8
ENDBRANCH   1   7
TORSDOF 4
ENDMDL
MODEL 2
REMARK VINA RESULT:    -4.243      1.310      4.044
REMARK INTER + INTRA:          -5.444
REMARK INTER:                  -5.274
REMARK INTRA:                  -0.170
REMARK UNBOUND:                -0.209
REMARK SMILES C=CC[C@H](C)C(=O)CC
REMARK SMILES IDX 4 1 5 2 6 3 7 4 8 5 9 6 3 7 2 8 1 9
REMARK H PARENT
REMARK Flexibility Score: inf
ROOT
ATOM      1  C   UNL     1      47.712  21.070  20.786  1.00  0.00     0.057 C 
ATOM      2  C   UNL     1      48.076  19.626  20.411  1.00  0.00     0.016 C 
ENDROOT
BRANCH   1   3
ATOM      3  C   UNL     1      46.446  21.484  20.072  1.00  0.00     0.135 C 
ATOM      4  O   UNL     1      46.512  21.940  18.937  1.00  0.00    -0.299 OA
BRANCH   3   5
ATOM      5  C   UNL     1      45.112  21.333  20.765  1.00  0.00     0.072 C 
ATOM      6  C   UNL     1      44.415  22.668  21.027  1.00  0.00     0.012 C 
ENDBRANCH   3   5
ENDBRANCH   1   3
BRANCH   1   7
ATOM      7  C   UNL     1      48.852  22.052  20.453  1.00  0.00     0.038 C 
BRANCH   7   8
ATOM      8  C   UNL     1      49.168  22.949  21.621  1.00  0.00    -0.034 C 
ATOM      9  C   UNL     1      50.220  23.774  21.615  1.00  0.00     0.004 C 
ENDBRANCH   7   8
ENDBRANCH   1   7
TORSDOF 4
ENDMDL
MODEL 3
REMARK VINA RESULT:    -4.190      1.724      4.192
REMARK INTER + INTRA:          -5.379
REMARK INTER:                  -5.090
REMARK INTRA:                  -0.289
REMARK UNBOUND:                -0.209
REMARK SMILES C=CC[C@H](C)C(=O)CC
REMARK SMILES IDX 4 1 5 2 6 3 7 4 8 5 9 6 3 7 2 8 1 9
REMARK H PARENT
REMARK Flexibility Score: inf
ROOT
ATOM      1  C   UNL     1      47.962  22.719  20.903  1.00  0.00     0.057 C 
ATOM      2  C   UNL     1      46.907  23.635  21.539  1.00  0.00     0.016 C 
ENDROOT
BRANCH   1   3
ATOM      3  C   UNL     1      47.376  21.345  20.670  1.00  0.00     0.135 C 
ATOM      4  O   UNL     1      46.172  21.168  20.808  1.00  0.00    -0.299 OA
BRANCH   3   5
ATOM      5  C   UNL     1      48.281  20.202  20.274  1.00  0.00     0.072 C 
ATOM      6  C   UNL     1      47.996  18.912  21.043  1.00  0.00     0.012 C 
ENDBRANCH   3   5
ENDBRANCH   1   3
BRANCH   1   7
ATOM      7  C   UNL     1      49.228  22.613  21.774  1.00  0.00     0.038 C 
BRANCH   7   8
ATOM      8  C   UNL     1      50.268  23.622  21.362  1.00  0.00    -0.034 C 
ATOM      9  C   UNL     1      50.865  23.573  20.166  1.00  0.00     0.004 C 
ENDBRANCH   7   8
ENDBRANCH   1   7
TORSDOF 4
ENDMDL
MODEL 4
REMARK VINA RESULT:    -4.175      0.966      3.385
REMARK INTER + INTRA:          -5.361
REMARK INTER:                  -4.956
REMARK INTRA:                  -0.405
REMARK UNBOUND:                -0.209
REMARK SMILES C=CC[C@H](C)C(=O)CC
REMARK SMILES IDX 4 1 5 2 6 3 7 4 8 5 9 6 3 7 2 8 1 9
REMARK H PARENT
REMARK Flexibility Score: inf
ROOT
ATOM      1  C   UNL     1      48.183  22.573  20.504  1.00  0.00     0.057 C 
ATOM      2  C   UNL     1      49.105  22.748  21.719  1.00  0.00     0.016 C 
ENDROOT
BRANCH   1   3
ATOM      3  C   UNL     1      46.766  22.946  20.876  1.00  0.00     0.135 C 
ATOM      4  O   UNL     1      46.568  23.743  21.785  1.00  0.00    -0.299 OA
BRANCH   3   5
ATOM      5  C   UNL     1      45.608  22.329  20.126  1.00  0.00     0.072 C 
ATOM      6  C   UNL     1      44.702  21.476  21.013  1.00  0.00     0.012 C 
ENDBRANCH   3   5
ENDBRANCH   1   3
BRANCH   1   7
ATOM      7  C   UNL     1      48.225  21.133  19.956  1.00  0.00     0.038 C 
BRANCH   7   8
ATOM      8  C   UNL     1      48.293  20.120  21.069  1.00  0.00    -0.034 C 
ATOM      9  C   UNL     1      47.826  18.876  20.922  1.00  0.00     0.004 C 
ENDBRANCH   7   8
ENDBRANCH   1   7
TORSDOF 4
ENDMDL
MODEL 5
REMARK VINA RESULT:    -4.119      2.146      3.027
REMARK INTER + INTRA:          -5.292
REMARK INTER:                  -5.058
REMARK INTRA:                  -0.234
REMARK UNBOUND:                -0.209
REMARK SMILES C=CC[C@H](C)C(=O)CC
REMARK SMILES IDX 4 1 5 2 6 3 7 4 8 5 9 6 3 7 2 8 1 9
REMARK H PARENT
REMARK Flexibility Score: inf
ROOT
ATOM      1  C   UNL     1      49.099  22.645  21.235  1.00  0.00     0.057 C 
ATOM      2  C   UNL     1      48.098  23.683  21.761  1.00  0.00     0.016 C 
ENDROOT
BRANCH   1   3
ATOM      3  C   UNL     1      50.297  23.344  20.635  1.00  0.00     0.135 C 
ATOM      4  O   UNL     1      50.850  24.242  21.258  1.00  0.00    -0.299 OA
BRANCH   3   5
ATOM      5  C   UNL     1      50.799  22.931  19.271  1.00  0.00     0.072 C 
ATOM      6  C   UNL     1      50.993  24.111  18.318  1.00  0.00     0.012 C 
ENDBRANCH   3   5
ENDBRANCH   1   3
BRANCH   1   7
ATOM      7  C   UNL     1      48.458  21.707  20.195  1.00  0.00     0.038 C 
BRANCH   7   8
ATOM      8  C   UNL     1      47.897  20.466  20.840  1.00  0.00    -0.034 C 
ATOM      9  C   UNL     1      48.274  19.240  20.460  1.00  0.00     0.004 C 
ENDBRANCH   7   8
ENDBRANCH   1   7
TORSDOF 4
ENDMDL
MODEL 6
REMARK VINA RESULT:    -4.044      1.189      4.101
REMARK INTER + INTRA:          -5.199
REMARK INTER:                  -4.934
REMARK INTRA:                  -0.266
REMARK UNBOUND:                -0.209
REMARK SMILES C=CC[C@H](C)C(=O)CC
REMARK SMILES IDX 4 1 5 2 6 3 7 4 8 5 9 6 3 7 2 8 1 9
REMARK H PARENT
REMARK Flexibility Score: inf
ROOT
ATOM      1  C   UNL     1      48.301  21.891  21.138  1.00  0.00     0.057 C 
ATOM      2  C   UNL     1      48.482  20.702  20.184  1.00  0.00     0.016 C 
ENDROOT
BRANCH   1   3
ATOM      3  C   UNL     1      46.958  22.542  20.899  1.00  0.00     0.135 C 
ATOM      4  O   UNL     1      46.690  23.600  21.454  1.00  0.00    -0.299 OA
BRANCH   3   5
ATOM      5  C   UNL     1      45.958  21.879  19.980  1.00  0.00     0.072 C 
ATOM      6  C   UNL     1      44.684  21.433  20.697  1.00  0.00     0.012 C 
ENDBRANCH   3   5
ENDBRANCH   1   3
BRANCH   1   7
ATOM      7  C   UNL     1      49.428  22.930  20.979  1.00  0.00     0.038 C 
BRANCH   7   8
ATOM      8  C   UNL     1      49.883  23.037  19.547  1.00  0.00    -0.034 C 
ATOM      9  C   UNL     1      51.174  23.163  19.223  1.00  0.00     0.004 C 
ENDBRANCH   7   8
ENDBRANCH   1   7
TORSDOF 4
ENDMDL
MODEL 7
REMARK VINA RESULT:    -3.973      1.637      2.689
REMARK INTER + INTRA:          -5.112
REMARK INTER:                  -4.799
REMARK INTRA:                  -0.312
REMARK UNBOUND:                -0.209
REMARK SMILES C=CC[C@H](C)C(=O)CC
REMARK SMILES IDX 4 1 5 2 6 3 7 4 8 5 9 6 3 7 2 8 1 9
REMARK H PARENT
REMARK Flexibility Score: inf
ROOT
ATOM      1  C   UNL     1      47.285  22.232  21.082  1.00  0.00     0.057 C 
ATOM      2  C   UNL     1      47.740  23.634  21.510  1.00  0.00     0.016 C 
ENDROOT
BRANCH   1   3
ATOM      3  C   UNL     1      48.388  21.547  20.308  1.00  0.00     0.135 C 
ATOM      4  O   UNL     1      49.342  22.201  19.906  1.00  0.00    -0.299 OA
BRANCH   3   5
ATOM      5  C   UNL     1      48.302  20.064  20.035  1.00  0.00     0.072 C 
ATOM      6  C   UNL     1      47.943  19.243  21.274  1.00  0.00     0.012 C 
ENDBRANCH   3   5
ENDBRANCH   1   3
BRANCH   1   7
ATOM      7  C   UNL     1      45.997  22.280  20.237  1.00  0.00     0.038 C 
BRANCH   7   8
ATOM      8  C   UNL     1      44.924  21.394  20.812  1.00  0.00    -0.034 C 
ATOM      9  C   UNL     1      43.692  21.847  21.063  1.00  0.00     0.004 C 
ENDBRANCH   7   8
ENDBRANCH   1   7
TORSDOF 4
ENDMDL
MODEL 8
REMARK VINA RESULT:    -3.968      1.873      4.388
REMARK INTER + INTRA:          -5.105
REMARK INTER:                  -4.885
REMARK INTRA:                  -0.220
REMARK UNBOUND:                -0.209
REMARK SMILES C=CC[C@H](C)C(=O)CC
REMARK SMILES IDX 4 1 5 2 6 3 7 4 8 5 9 6 3 7 2 8 1 9
REMARK H PARENT
REMARK Flexibility Score: inf
ROOT
ATOM      1  C   UNL     1      49.044  22.953  20.516  1.00  0.00     0.057 C 
ATOM      2  C   UNL     1      49.583  23.094  21.946  1.00  0.00     0.016 C 
ENDROOT
BRANCH   1   3
ATOM      3  C   UNL     1      47.949  21.911  20.479  1.00  0.00     0.135 C 
ATOM      4  O   UNL     1      46.802  22.228  20.765  1.00  0.00    -0.299 OA
BRANCH   3   5
ATOM      5  C   UNL     1      48.282  20.489  20.093  1.00  0.00     0.072 C 
ATOM      6  C   UNL     1      47.766  19.456  21.096  1.00  0.00     0.012 C 
ENDBRANCH   3   5
ENDBRANCH   1   3
BRANCH   1   7
ATOM      7  C   UNL     1      50.158  22.584  19.517  1.00  0.00     0.038 C 
BRANCH   7   8
ATOM      8  C   UNL     1      51.052  23.762  19.227  1.00  0.00    -0.034 C 
ATOM      9  C   UNL     1      51.097  24.334  18.019  1.00  0.00     0.004 C 
ENDBRANCH   7   8
ENDBRANCH   1   7
TORSDOF 4
ENDMDL
MODEL 9
REMARK VINA RESULT:    -3.817      2.028      3.143
REMARK INTER + INTRA:          -4.919
REMARK INTER:                  -4.671
REMARK INTRA:                  -0.249
REMARK UNBOUND:                -0.209
REMARK SMILES C=CC[C@H](C)C(=O)CC
REMARK SMILES IDX 4 1 5 2 6 3 7 4 8 5 9 6 3 7 2 8 1 9
REMARK H PARENT
REMARK Flexibility Score: inf
ROOT
ATOM      1  C   UNL     1      45.779  22.097  20.948  1.00  0.00     0.057 C 
ATOM      2  C   UNL     1      44.370  21.514  20.772  1.00  0.00     0.016 C 
ENDROOT
BRANCH   1   3
ATOM      3  C   UNL     1      45.692  23.582  21.214  1.00  0.00     0.135 C 
ATOM      4  O   UNL     1      44.680  24.196  20.901  1.00  0.00    -0.299 OA
BRANCH   3   5
ATOM      5  C   UNL     1      46.856  24.296  21.862  1.00  0.00     0.072 C 
ATOM      6  C   UNL     1      46.425  25.343  22.889  1.00  0.00     0.012 C 
ENDBRANCH   3   5
ENDBRANCH   1   3
BRANCH   1   7
ATOM      7  C   UNL     1      46.666  21.831  19.716  1.00  0.00     0.038 C 
BRANCH   7   8
ATOM      8  C   UNL     1      47.946  21.133  20.097  1.00  0.00    -0.034 C 
ATOM      9  C   UNL     1      47.951  20.031  20.855  1.00  0.00     0.004 C 
ENDBRANCH   7   8
ENDBRANCH   1   7
TORSDOF 4
ENDMDL
