MODEL 1
REMARK VINA RESULT:    -3.403      0.000      0.000
REMARK INTER + INTRA:          -4.376
REMARK INTER:                  -4.099
REMARK INTRA:                  -0.276
REMARK UNBOUND:                -0.276
REMARK SMILES NC(=O)C[C@H]([NH3+])C(=O)[O-]
REMARK SMILES IDX 4 1 5 2 6 3 7 7 8 8 9 9 2 10 3 11 1 12
REMARK H PARENT 6 4 6 5 6 6 1 13 1 14
REMARK Flexibility Score: inf
ROOT
ATOM      1  C   UNL     1      45.263  18.164  77.336  1.00  0.00     0.171 C 
ENDROOT
BRANCH   1   2
ATOM      2  C   UNL     1      45.908  19.329  76.552  1.00  0.00     0.237 C 
BRANCH   2   3
ATOM      3  N   UNL     1      46.282  18.926  75.189  1.00  0.00    -0.350 N 
ATOM      4  H   UNL     1      46.612  17.934  75.163  1.00  0.00     0.345 HD
ATOM      5  H   UNL     1      47.047  19.546  74.838  1.00  0.00     0.345 HD
ATOM      6  H   UNL     1      45.459  19.029  74.551  1.00  0.00     0.345 HD
ENDBRANCH   2   3
BRANCH   2   7
ATOM      7  C   UNL     1      47.087  19.905  77.292  1.00  0.00     0.100 C 
ATOM      8  O   UNL     1      47.235  19.667  78.520  1.00  0.00    -0.544 OA
ATOM      9  O   UNL     1      48.045  20.657  76.623  1.00  0.00    -0.544 OA
ENDBRANCH   2   7
ENDBRANCH   1   2
BRANCH   1  10
ATOM     10  C   UNL     1      45.867  16.825  77.015  1.00  0.00     0.223 C 
ATOM     11  O   UNL     1      45.690  16.314  75.877  1.00  0.00    -0.275 OA
ATOM     12  N   UNL     1      46.657  16.135  77.985  1.00  0.00    -0.369 N 
ATOM     13  H   UNL     1      47.084  15.211  77.754  1.00  0.00     0.159 HD
ATOM     14  H   UNL     1      46.816  16.544  78.932  1.00  0.00     0.159 HD
ENDBRANCH   1  10
TORSDOF 4
ENDMDL
MODEL 2
REMARK VINA RESULT:    -3.336      1.967      2.275
REMARK INTER + INTRA:          -4.295
REMARK INTER:                  -4.209
REMARK INTRA:                  -0.086
REMARK UNBOUND:                -0.276
REMARK SMILES NC(=O)C[C@H]([NH3+])C(=O)[O-]
REMARK SMILES IDX 4 1 5 2 6 3 7 7 8 8 9 9 2 10 3 11 1 12
REMARK H PARENT 6 4 6 5 6 6 1 13 1 14
REMARK Flexibility Score: inf
ROOT
ATOM      1  C   UNL     1      45.488  18.915  77.771  1.00  0.00     0.171 C 
ENDROOT
BRANCH   1   2
ATOM      2  C   UNL     1      46.881  19.396  78.232  1.00  0.00     0.237 C 
BRANCH   2   3
ATOM      3  N   UNL     1      47.548  18.399  79.081  1.00  0.00    -0.350 N 
ATOM      4  H   UNL     1      48.055  18.854  79.874  1.00  0.00     0.345 HD
ATOM      5  H   UNL     1      48.233  17.854  78.510  1.00  0.00     0.345 HD
ATOM      6  H   UNL     1      46.839  17.732  79.467  1.00  0.00     0.345 HD
ENDBRANCH   2   3
BRANCH   2   7
ATOM      7  C   UNL     1      46.802  20.733  78.922  1.00  0.00     0.100 C 
ATOM      8  O   UNL     1      47.549  20.978  79.906  1.00  0.00    -0.544 OA
ATOM      9  O   UNL     1      45.947  21.724  78.453  1.00  0.00    -0.544 OA
ENDBRANCH   2   7
ENDBRANCH   1   2
BRANCH   1  10
ATOM     10  C   UNL     1      45.544  17.918  76.647  1.00  0.00     0.223 C 
ATOM     11  O   UNL     1      45.881  18.293  75.492  1.00  0.00    -0.275 OA
ATOM     12  N   UNL     1      45.238  16.543  76.881  1.00  0.00    -0.369 N 
ATOM     13  H   UNL     1      45.290  15.852  76.101  1.00  0.00     0.159 HD
ATOM     14  H   UNL     1      44.960  16.212  77.832  1.00  0.00     0.159 HD
ENDBRANCH   1  10
TORSDOF 4
ENDMDL
MODEL 3
REMARK VINA RESULT:    -3.296      1.380      1.888
REMARK INTER + INTRA:          -4.247
REMARK INTER:                  -3.801
REMARK INTRA:                  -0.445
REMARK UNBOUND:                -0.276
REMARK SMILES NC(=O)C[C@H]([NH3+])C(=O)[O-]
REMARK SMILES IDX 4 1 5 2 6 3 7 7 8 8 9 9 2 10 3 11 1 12
REMARK H PARENT 6 4 6 5 6 6 1 13 1 14
REMARK Flexibility Score: inf
ROOT
ATOM      1  C   UNL     1      45.278  19.245  76.777  1.00  0.00     0.171 C 
ENDROOT
BRANCH   1   2
ATOM      2  C   UNL     1      45.913  19.555  75.403  1.00  0.00     0.237 C 
BRANCH   2   3
ATOM      3  N   UNL     1      46.108  18.336  74.606  1.00  0.00    -0.350 N 
ATOM      4  H   UNL     1      46.793  17.690  75.060  1.00  0.00     0.345 HD
ATOM      5  H   UNL     1      46.463  18.592  73.656  1.00  0.00     0.345 HD
ATOM      6  H   UNL     1      45.194  17.839  74.491  1.00  0.00     0.345 HD
ENDBRANCH   2   3
BRANCH   2   7
ATOM      7  C   UNL     1      47.203  20.320  75.553  1.00  0.00     0.100 C 
ATOM      8  O   UNL     1      47.881  20.614  74.533  1.00  0.00    -0.544 OA
ATOM      9  O   UNL     1      47.630  20.751  76.804  1.00  0.00    -0.544 OA
ENDBRANCH   2   7
ENDBRANCH   1   2
BRANCH   1  10
ATOM     10  C   UNL     1      45.871  18.036  77.447  1.00  0.00     0.223 C 
ATOM     11  O   UNL     1      45.555  16.882  77.051  1.00  0.00    -0.275 OA
ATOM     12  N   UNL     1      46.805  18.185  78.516  1.00  0.00    -0.369 N 
ATOM     13  H   UNL     1      47.224  17.343  78.970  1.00  0.00     0.159 HD
ATOM     14  H   UNL     1      47.082  19.133  78.856  1.00  0.00     0.159 HD
ENDBRANCH   1  10
TORSDOF 4
ENDMDL
MODEL 4
REMARK VINA RESULT:    -3.213     15.630     16.511
REMARK INTER + INTRA:          -4.147
REMARK INTER:                  -3.692
REMARK INTRA:                  -0.455
REMARK UNBOUND:                -0.276
REMARK SMILES NC(=O)C[C@H]([NH3+])C(=O)[O-]
REMARK SMILES IDX 4 1 5 2 6 3 7 7 8 8 9 9 2 10 3 11 1 12
REMARK H PARENT 6 4 6 5 6 6 1 13 1 14
REMARK Flexibility Score: inf
ROOT
ATOM      1  C   UNL     1      44.013  33.484  80.834  1.00  0.00     0.171 C 
ENDROOT
BRANCH   1   2
ATOM      2  C   UNL     1      43.020  34.078  79.811  1.00  0.00     0.237 C 
BRANCH   2   3
ATOM      3  N   UNL     1      42.528  35.397  80.232  1.00  0.00    -0.350 N 
ATOM      4  H   UNL     1      43.229  36.145  80.033  1.00  0.00     0.345 HD
ATOM      5  H   UNL     1      42.328  35.385  81.259  1.00  0.00     0.345 HD
ATOM      6  H   UNL     1      41.638  35.619  79.729  1.00  0.00     0.345 HD
ENDBRANCH   2   3
BRANCH   2   7
ATOM      7  C   UNL     1      41.879  33.132  79.539  1.00  0.00     0.100 C 
ATOM      8  O   UNL     1      41.152  33.300  78.525  1.00  0.00    -0.544 OA
ATOM      9  O   UNL     1      41.648  32.041  80.370  1.00  0.00    -0.544 OA
ENDBRANCH   2   7
ENDBRANCH   1   2
BRANCH   1  10
ATOM     10  C   UNL     1      43.701  33.864  82.256  1.00  0.00     0.223 C 
ATOM     11  O   UNL     1      44.013  35.008  82.682  1.00  0.00    -0.275 OA
ATOM     12  N   UNL     1      43.036  32.944  83.122  1.00  0.00    -0.369 N 
ATOM     13  H   UNL     1      42.810  33.216  84.105  1.00  0.00     0.159 HD
ATOM     14  H   UNL     1      42.768  31.992  82.786  1.00  0.00     0.159 HD
ENDBRANCH   1  10
TORSDOF 4
ENDMDL
MODEL 5
REMARK VINA RESULT:    -3.208      2.077      2.305
REMARK INTER + INTRA:          -4.141
REMARK INTER:                  -4.026
REMARK INTRA:                  -0.115
REMARK UNBOUND:                -0.276
REMARK SMILES NC(=O)C[C@H]([NH3+])C(=O)[O-]
REMARK SMILES IDX 4 1 5 2 6 3 7 7 8 8 9 9 2 10 3 11 1 12
REMARK H PARENT 6 4 6 5 6 6 1 13 1 14
REMARK Flexibility Score: inf
ROOT
ATOM      1  C   UNL     1      45.470  18.045  77.330  1.00  0.00     0.171 C 
ENDROOT
BRANCH   1   2
ATOM      2  C   UNL     1      46.282  19.157  76.628  1.00  0.00     0.237 C 
BRANCH   2   3
ATOM      3  N   UNL     1      46.579  20.272  77.538  1.00  0.00    -0.350 N 
ATOM      4  H   UNL     1      46.329  21.191  77.106  1.00  0.00     0.345 HD
ATOM      5  H   UNL     1      47.599  20.273  77.769  1.00  0.00     0.345 HD
ATOM      6  H   UNL     1      46.042  20.154  78.428  1.00  0.00     0.345 HD
ENDBRANCH   2   3
BRANCH   2   7
ATOM      7  C   UNL     1      45.587  19.641  75.382  1.00  0.00     0.100 C 
ATOM      8  O   UNL     1      45.986  19.258  74.250  1.00  0.00    -0.544 OA
ATOM      9  O   UNL     1      44.473  20.470  75.467  1.00  0.00    -0.544 OA
ENDBRANCH   2   7
ENDBRANCH   1   2
BRANCH   1  10
ATOM     10  C   UNL     1      45.939  16.659  76.985  1.00  0.00     0.223 C 
ATOM     11  O   UNL     1      45.713  16.187  75.839  1.00  0.00    -0.275 OA
ATOM     12  N   UNL     1      46.657  15.877  77.941  1.00  0.00    -0.369 N 
ATOM     13  H   UNL     1      46.992  14.920  77.694  1.00  0.00     0.159 HD
ATOM     14  H   UNL     1      46.856  16.252  78.896  1.00  0.00     0.159 HD
ENDBRANCH   1  10
TORSDOF 4
ENDMDL
MODEL 6
REMARK VINA RESULT:    -3.185      2.204      3.903
REMARK INTER + INTRA:          -4.113
REMARK INTER:                  -3.870
REMARK INTRA:                  -0.243
REMARK UNBOUND:                -0.276
REMARK SMILES NC(=O)C[C@H]([NH3+])C(=O)[O-]
REMARK SMILES IDX 4 1 5 2 6 3 7 7 8 8 9 9 2 10 3 11 1 12
REMARK H PARENT 6 4 6 5 6 6 1 13 1 14
REMARK Flexibility Score: inf
ROOT
ATOM      1  C   UNL     1      47.052  19.939  77.917  1.00  0.00     0.171 C 
ENDROOT
BRANCH   1   2
ATOM      2  C   UNL     1      46.248  18.635  78.114  1.00  0.00     0.237 C 
BRANCH   2   3
ATOM      3  N   UNL     1      47.005  17.640  78.886  1.00  0.00    -0.350 N 
ATOM      4  H   UNL     1      46.374  17.068  79.492  1.00  0.00     0.345 HD
ATOM      5  H   UNL     1      47.707  18.125  79.490  1.00  0.00     0.345 HD
ATOM      6  H   UNL     1      47.520  17.004  78.233  1.00  0.00     0.345 HD
ENDBRANCH   2   3
BRANCH   2   7
ATOM      7  C   UNL     1      45.788  18.067  76.796  1.00  0.00     0.100 C 
ATOM      8  O   UNL     1      45.482  16.849  76.710  1.00  0.00    -0.544 OA
ATOM      9  O   UNL     1      45.647  18.886  75.682  1.00  0.00    -0.544 OA
ENDBRANCH   2   7
ENDBRANCH   1   2
BRANCH   1  10
ATOM     10  C   UNL     1      48.157  20.115  78.922  1.00  0.00     0.223 C 
ATOM     11  O   UNL     1      47.879  20.417  80.113  1.00  0.00    -0.275 OA
ATOM     12  N   UNL     1      49.520  19.922  78.541  1.00  0.00    -0.369 N 
ATOM     13  H   UNL     1      50.283  20.033  79.245  1.00  0.00     0.159 HD
ATOM     14  H   UNL     1      49.769  19.668  77.559  1.00  0.00     0.159 HD
ENDBRANCH   1  10
TORSDOF 4
ENDMDL
MODEL 7
REMARK VINA RESULT:    -3.075      7.735      8.074
REMARK INTER + INTRA:          -3.981
REMARK INTER:                  -3.850
REMARK INTRA:                  -0.131
REMARK UNBOUND:                -0.276
REMARK SMILES NC(=O)C[C@H]([NH3+])C(=O)[O-]
REMARK SMILES IDX 4 1 5 2 6 3 7 7 8 8 9 9 2 10 3 11 1 12
REMARK H PARENT 6 4 6 5 6 6 1 13 1 14
REMARK Flexibility Score: inf
ROOT
ATOM      1  C   UNL     1      39.377  19.162  80.376  1.00  0.00     0.171 C 
ENDROOT
BRANCH   1   2
ATOM      2  C   UNL     1      40.034  19.960  79.227  1.00  0.00     0.237 C 
BRANCH   2   3
ATOM      3  N   UNL     1      41.499  19.972  79.340  1.00  0.00    -0.350 N 
ATOM      4  H   UNL     1      41.849  20.909  79.642  1.00  0.00     0.345 HD
ATOM      5  H   UNL     1      41.923  19.734  78.415  1.00  0.00     0.345 HD
ATOM      6  H   UNL     1      41.806  19.252  80.035  1.00  0.00     0.345 HD
ENDBRANCH   2   3
BRANCH   2   7
ATOM      7  C   UNL     1      39.483  21.360  79.145  1.00  0.00     0.100 C 
ATOM      8  O   UNL     1      38.890  21.861  80.136  1.00  0.00    -0.544 OA
ATOM      9  O   UNL     1      39.667  22.128  78.001  1.00  0.00    -0.544 OA
ENDBRANCH   2   7
ENDBRANCH   1   2
BRANCH   1  10
ATOM     10  C   UNL     1      38.155  18.399  79.946  1.00  0.00     0.223 C 
ATOM     11  O   UNL     1      37.009  18.849  80.213  1.00  0.00    -0.275 OA
ATOM     12  N   UNL     1      38.282  17.175  79.221  1.00  0.00    -0.369 N 
ATOM     13  H   UNL     1      37.431  16.655  78.914  1.00  0.00     0.159 HD
ATOM     14  H   UNL     1      39.223  16.788  78.988  1.00  0.00     0.159 HD
ENDBRANCH   1  10
TORSDOF 4
ENDMDL
MODEL 8
REMARK VINA RESULT:    -3.035     17.781     19.065
REMARK INTER + INTRA:          -3.933
REMARK INTER:                  -3.407
REMARK INTRA:                  -0.525
REMARK UNBOUND:                -0.276
REMARK SMILES NC(=O)C[C@H]([NH3+])C(=O)[O-]
REMARK SMILES IDX 4 1 5 2 6 3 7 7 8 8 9 9 2 10 3 11 1 12
REMARK H PARENT 6 4 6 5 6 6 1 13 1 14
REMARK Flexibility Score: inf
ROOT
ATOM      1  C   UNL     1      50.161  34.593  84.788  1.00  0.00     0.171 C 
ENDROOT
BRANCH   1   2
ATOM      2  C   UNL     1      50.307  34.184  86.270  1.00  0.00     0.237 C 
BRANCH   2   3
ATOM      3  N   UNL     1      49.249  33.251  86.684  1.00  0.00    -0.350 N 
ATOM      4  H   UNL     1      48.330  33.504  86.254  1.00  0.00     0.345 HD
ATOM      5  H   UNL     1      49.153  33.271  87.724  1.00  0.00     0.345 HD
ATOM      6  H   UNL     1      49.504  32.277  86.397  1.00  0.00     0.345 HD
ENDBRANCH   2   3
BRANCH   2   7
ATOM      7  C   UNL     1      50.353  35.390  87.172  1.00  0.00     0.100 C 
ATOM      8  O   UNL     1      51.451  35.769  87.659  1.00  0.00    -0.544 OA
ATOM      9  O   UNL     1      49.202  36.124  87.434  1.00  0.00    -0.544 OA
ENDBRANCH   2   7
ENDBRANCH   1   2
BRANCH   1  10
ATOM     10  C   UNL     1      48.734  34.616  84.315  1.00  0.00     0.223 C 
ATOM     11  O   UNL     1      48.250  33.609  83.733  1.00  0.00    -0.275 OA
ATOM     12  N   UNL     1      47.915  35.765  84.536  1.00  0.00    -0.369 N 
ATOM     13  H   UNL     1      46.921  35.773  84.218  1.00  0.00     0.159 HD
ATOM     14  H   UNL     1      48.298  36.609  85.019  1.00  0.00     0.159 HD
ENDBRANCH   1  10
TORSDOF 4
ENDMDL
MODEL 9
REMARK VINA RESULT:    -2.965     19.094     19.690
REMARK INTER + INTRA:          -3.848
REMARK INTER:                  -3.563
REMARK INTRA:                  -0.286
REMARK UNBOUND:                -0.276
REMARK SMILES NC(=O)C[C@H]([NH3+])C(=O)[O-]
REMARK SMILES IDX 4 1 5 2 6 3 7 7 8 8 9 9 2 10 3 11 1 12
REMARK H PARENT 6 4 6 5 6 6 1 13 1 14
REMARK Flexibility Score: inf
ROOT
ATOM      1  C   UNL     1      50.108  34.615  85.575  1.00  0.00     0.171 C 
ENDROOT
BRANCH   1   2
ATOM      2  C   UNL     1      51.129  34.848  86.711  1.00  0.00     0.237 C 
BRANCH   2   3
ATOM      3  N   UNL     1      50.896  36.125  87.400  1.00  0.00    -0.350 N 
ATOM      4  H   UNL     1      49.883  36.260  87.617  1.00  0.00     0.345 HD
ATOM      5  H   UNL     1      51.221  36.913  86.795  1.00  0.00     0.345 HD
ATOM      6  H   UNL     1      51.443  36.151  88.292  1.00  0.00     0.345 HD
ENDBRANCH   2   3
BRANCH   2   7
ATOM      7  C   UNL     1      52.546  34.752  86.206  1.00  0.00     0.100 C 
ATOM      8  O   UNL     1      52.803  35.016  85.002  1.00  0.00    -0.544 OA
ATOM      9  O   UNL     1      53.585  34.423  87.069  1.00  0.00    -0.544 OA
ENDBRANCH   2   7
ENDBRANCH   1   2
BRANCH   1  10
ATOM     10  C   UNL     1      48.702  34.992  85.953  1.00  0.00     0.223 C 
ATOM     11  O   UNL     1      48.255  34.686  87.091  1.00  0.00    -0.275 OA
ATOM     12  N   UNL     1      47.873  35.711  85.039  1.00  0.00    -0.369 N 
ATOM     13  H   UNL     1      46.902  35.981  85.310  1.00  0.00     0.159 HD
ATOM     14  H   UNL     1      48.227  35.975  84.093  1.00  0.00     0.159 HD
ENDBRANCH   1  10
TORSDOF 4
ENDMDL
