MODEL 1
REMARK VINA RESULT:    -5.036      0.000      0.000
REMARK INTER + INTRA:          -5.036
REMARK INTER:                  -5.036
REMARK INTRA:                   0.000
REMARK UNBOUND:                 0.000
REMARK SMILES C=C1CCCC(C)(C)[C@@]12CC=C(C)CC2
REMARK SMILES IDX 13 1 12 2 11 3 10 4 9 5 15 6 14 7 2 8 1 9 3 10 4 11 5 12
REMARK SMILES IDX 6 13 7 14 8 15
REMARK H PARENT
REMARK Flexibility Score: inf
ROOT
ATOM      1  C   UNL     1       7.453  18.371  27.368  1.00  0.00     0.039 C 
ATOM      2  C   UNL     1       8.582  19.199  26.820  1.00  0.00    -0.077 C 
ATOM      3  C   UNL     1       8.356  20.085  25.840  1.00  0.00    -0.027 C 
ATOM      4  C   UNL     1       9.499  20.905  25.299  1.00  0.00     0.039 C 
ATOM      5  C   UNL     1      10.814  20.059  25.033  1.00  0.00    -0.000 C 
ATOM      6  C   UNL     1      10.904  18.845  26.048  1.00  0.00     0.017 C 
ATOM      7  C   UNL     1      10.002  18.994  27.282  1.00  0.00     0.031 C 
ATOM      8  C   UNL     1      10.793  19.436  23.611  1.00  0.00    -0.070 C 
ATOM      9  C   UNL     1       9.655  19.184  22.930  1.00  0.00     0.008 C 
ATOM     10  C   UNL     1      12.071  18.822  23.076  1.00  0.00     0.031 C 
ATOM     11  C   UNL     1      13.239  19.792  23.186  1.00  0.00     0.005 C 
ATOM     12  C   UNL     1      13.384  20.315  24.615  1.00  0.00     0.008 C 
ATOM     13  C   UNL     1      12.096  21.021  25.142  1.00  0.00    -0.026 C 
ATOM     14  C   UNL     1      12.398  21.458  26.604  1.00  0.00     0.012 C 
ATOM     15  C   UNL     1      11.884  22.322  24.314  1.00  0.00     0.012 C 
ENDROOT
TORSDOF 0
ENDMDL
MODEL 2
REMARK VINA RESULT:    -4.975     11.058     13.034
REMARK INTER + INTRA:          -4.975
REMARK INTER:                  -4.975
REMARK INTRA:                   0.000
REMARK UNBOUND:                 0.000
REMARK SMILES C=C1CCCC(C)(C)[C@@]12CC=C(C)CC2
REMARK SMILES IDX 13 1 12 2 11 3 10 4 9 5 15 6 14 7 2 8 1 9 3 10 4 11 5 12
REMARK SMILES IDX 6 13 7 14 8 15
REMARK H PARENT
REMARK Flexibility Score: inf
ROOT
ATOM      1  C   UNL     1      10.474  14.163  40.000  1.00  0.00     0.039 C 
ATOM      2  C   UNL     1      11.580  14.904  39.303  1.00  0.00    -0.077 C 
ATOM      3  C   UNL     1      11.857  16.173  39.635  1.00  0.00    -0.027 C 
ATOM      4  C   UNL     1      12.968  16.903  38.923  1.00  0.00     0.039 C 
ATOM      5  C   UNL     1      12.956  16.697  37.352  1.00  0.00    -0.000 C 
ATOM      6  C   UNL     1      12.359  15.276  36.986  1.00  0.00     0.017 C 
ATOM      7  C   UNL     1      12.341  14.285  38.159  1.00  0.00     0.031 C 
ATOM      8  C   UNL     1      12.038  17.745  36.663  1.00  0.00    -0.070 C 
ATOM      9  C   UNL     1      11.013  18.357  37.293  1.00  0.00     0.008 C 
ATOM     10  C   UNL     1      12.107  17.880  35.155  1.00  0.00     0.031 C 
ATOM     11  C   UNL     1      13.540  18.075  34.682  1.00  0.00     0.005 C 
ATOM     12  C   UNL     1      14.450  16.972  35.221  1.00  0.00     0.008 C 
ATOM     13  C   UNL     1      14.446  16.881  36.779  1.00  0.00    -0.026 C 
ATOM     14  C   UNL     1      15.384  15.699  37.156  1.00  0.00     0.012 C 
ATOM     15  C   UNL     1      15.099  18.177  37.341  1.00  0.00     0.012 C 
ENDROOT
TORSDOF 0
ENDMDL
MODEL 3
REMARK VINA RESULT:    -4.693      1.063      4.650
REMARK INTER + INTRA:          -4.693
REMARK INTER:                  -4.693
REMARK INTRA:                   0.000
REMARK UNBOUND:                 0.000
REMARK SMILES C=C1CCCC(C)(C)[C@@]12CC=C(C)CC2
REMARK SMILES IDX 13 1 12 2 11 3 10 4 9 5 15 6 14 7 2 8 1 9 3 10 4 11 5 12
REMARK SMILES IDX 6 13 7 14 8 15
REMARK H PARENT
REMARK Flexibility Score: inf
ROOT
ATOM      1  C   UNL     1      14.630  19.798  23.592  1.00  0.00     0.039 C 
ATOM      2  C   UNL     1      13.200  20.129  23.917  1.00  0.00    -0.077 C 
ATOM      3  C   UNL     1      12.915  21.080  24.818  1.00  0.00    -0.027 C 
ATOM      4  C   UNL     1      11.476  21.398  25.134  1.00  0.00     0.039 C 
ATOM      5  C   UNL     1      10.573  20.110  25.336  1.00  0.00    -0.000 C 
ATOM      6  C   UNL     1      11.115  18.912  24.451  1.00  0.00     0.017 C 
ATOM      7  C   UNL     1      12.058  19.348  23.320  1.00  0.00     0.031 C 
ATOM      8  C   UNL     1      10.626  19.621  26.809  1.00  0.00    -0.070 C 
ATOM      9  C   UNL     1      11.659  19.884  27.638  1.00  0.00     0.008 C 
ATOM     10  C   UNL     1       9.626  18.573  27.256  1.00  0.00     0.031 C 
ATOM     11  C   UNL     1       8.202  18.985  26.910  1.00  0.00     0.005 C 
ATOM     12  C   UNL     1       8.076  19.332  25.427  1.00  0.00     0.008 C 
ATOM     13  C   UNL     1       9.048  20.468  24.979  1.00  0.00    -0.026 C 
ATOM     14  C   UNL     1       8.818  20.671  23.455  1.00  0.00     0.012 C 
ATOM     15  C   UNL     1       8.609  21.786  25.685  1.00  0.00     0.012 C 
ENDROOT
TORSDOF 0
ENDMDL
MODEL 4
REMARK VINA RESULT:    -4.636      1.694      3.413
REMARK INTER + INTRA:          -4.636
REMARK INTER:                  -4.636
REMARK INTRA:                   0.000
REMARK UNBOUND:                 0.000
REMARK SMILES C=C1CCCC(C)(C)[C@@]12CC=C(C)CC2
REMARK SMILES IDX 13 1 12 2 11 3 10 4 9 5 15 6 14 7 2 8 1 9 3 10 4 11 5 12
REMARK SMILES IDX 6 13 7 14 8 15
REMARK H PARENT
REMARK Flexibility Score: inf
ROOT
ATOM      1  C   UNL     1       6.951  18.134  22.498  1.00  0.00     0.039 C 
ATOM      2  C   UNL     1       7.620  19.143  23.388  1.00  0.00    -0.077 C 
ATOM      3  C   UNL     1       8.715  19.793  22.969  1.00  0.00    -0.027 C 
ATOM      4  C   UNL     1       9.376  20.800  23.876  1.00  0.00     0.039 C 
ATOM      5  C   UNL     1       9.529  20.299  25.372  1.00  0.00    -0.000 C 
ATOM      6  C   UNL     1       8.351  19.305  25.745  1.00  0.00     0.017 C 
ATOM      7  C   UNL     1       7.145  19.384  24.798  1.00  0.00     0.031 C 
ATOM      8  C   UNL     1      10.847  19.500  25.557  1.00  0.00    -0.070 C 
ATOM      9  C   UNL     1      11.476  18.867  24.544  1.00  0.00     0.008 C 
ATOM     10  C   UNL     1      11.299  19.173  26.967  1.00  0.00     0.031 C 
ATOM     11  C   UNL     1      11.337  20.421  27.838  1.00  0.00     0.005 C 
ATOM     12  C   UNL     1       9.999  21.158  27.799  1.00  0.00     0.008 C 
ATOM     13  C   UNL     1       9.568  21.568  26.357  1.00  0.00    -0.026 C 
ATOM     14  C   UNL     1       8.185  22.269  26.491  1.00  0.00     0.012 C 
ATOM     15  C   UNL     1      10.572  22.640  25.839  1.00  0.00     0.012 C 
ENDROOT
TORSDOF 0
ENDMDL
MODEL 5
REMARK VINA RESULT:    -4.622     11.263     13.455
REMARK INTER + INTRA:          -4.622
REMARK INTER:                  -4.622
REMARK INTRA:                   0.000
REMARK UNBOUND:                 0.000
REMARK SMILES C=C1CCCC(C)(C)[C@@]12CC=C(C)CC2
REMARK SMILES IDX 13 1 12 2 11 3 10 4 9 5 15 6 14 7 2 8 1 9 3 10 4 11 5 12
REMARK SMILES IDX 6 13 7 14 8 15
REMARK H PARENT
REMARK Flexibility Score: inf
ROOT
ATOM      1  C   UNL     1      14.746  12.875  36.732  1.00  0.00     0.039 C 
ATOM      2  C   UNL     1      14.389  14.328  36.582  1.00  0.00    -0.077 C 
ATOM      3  C   UNL     1      15.265  15.187  36.043  1.00  0.00    -0.027 C 
ATOM      4  C   UNL     1      14.891  16.641  35.903  1.00  0.00     0.039 C 
ATOM      5  C   UNL     1      14.199  17.244  37.195  1.00  0.00    -0.000 C 
ATOM      6  C   UNL     1      13.389  16.119  37.963  1.00  0.00     0.017 C 
ATOM      7  C   UNL     1      13.089  14.875  37.114  1.00  0.00     0.031 C 
ATOM      8  C   UNL     1      15.261  17.774  38.196  1.00  0.00    -0.070 C 
ATOM      9  C   UNL     1      16.532  17.320  38.236  1.00  0.00     0.008 C 
ATOM     10  C   UNL     1      14.791  18.624  39.360  1.00  0.00     0.031 C 
ATOM     11  C   UNL     1      13.922  19.780  38.886  1.00  0.00     0.005 C 
ATOM     12  C   UNL     1      12.771  19.278  38.014  1.00  0.00     0.008 C 
ATOM     13  C   UNL     1      13.253  18.470  36.769  1.00  0.00    -0.026 C 
ATOM     14  C   UNL     1      11.971  18.009  36.018  1.00  0.00     0.012 C 
ATOM     15  C   UNL     1      14.007  19.448  35.821  1.00  0.00     0.012 C 
ENDROOT
TORSDOF 0
ENDMDL
MODEL 6
REMARK VINA RESULT:    -4.567      1.862      4.900
REMARK INTER + INTRA:          -4.567
REMARK INTER:                  -4.567
REMARK INTRA:                   0.000
REMARK UNBOUND:                 0.000
REMARK SMILES C=C1CCCC(C)(C)[C@@]12CC=C(C)CC2
REMARK SMILES IDX 13 1 12 2 11 3 10 4 9 5 15 6 14 7 2 8 1 9 3 10 4 11 5 12
REMARK SMILES IDX 6 13 7 14 8 15
REMARK H PARENT
REMARK Flexibility Score: inf
ROOT
ATOM      1  C   UNL     1      12.928  20.479  21.988  1.00  0.00     0.039 C 
ATOM      2  C   UNL     1      11.737  20.416  22.904  1.00  0.00    -0.077 C 
ATOM      3  C   UNL     1      11.340  19.243  23.417  1.00  0.00    -0.027 C 
ATOM      4  C   UNL     1      10.142  19.197  24.331  1.00  0.00     0.039 C 
ATOM      5  C   UNL     1       8.914  20.052  23.807  1.00  0.00    -0.000 C 
ATOM      6  C   UNL     1       9.425  21.292  22.962  1.00  0.00     0.017 C 
ATOM      7  C   UNL     1      10.903  21.638  23.193  1.00  0.00     0.031 C 
ATOM      8  C   UNL     1       8.022  19.213  22.852  1.00  0.00    -0.070 C 
ATOM      9  C   UNL     1       8.481  18.154  22.152  1.00  0.00     0.008 C 
ATOM     10  C   UNL     1       6.665  19.765  22.464  1.00  0.00     0.031 C 
ATOM     11  C   UNL     1       5.858  20.160  23.692  1.00  0.00     0.005 C 
ATOM     12  C   UNL     1       6.652  21.111  24.588  1.00  0.00     0.008 C 
ATOM     13  C   UNL     1       8.016  20.515  25.056  1.00  0.00    -0.026 C 
ATOM     14  C   UNL     1       8.705  21.610  25.919  1.00  0.00     0.012 C 
ATOM     15  C   UNL     1       7.719  19.312  26.000  1.00  0.00     0.012 C 
ENDROOT
TORSDOF 0
ENDMDL
MODEL 7
REMARK VINA RESULT:    -4.539      1.666      3.851
REMARK INTER + INTRA:          -4.539
REMARK INTER:                  -4.539
REMARK INTRA:                   0.000
REMARK UNBOUND:                 0.000
REMARK SMILES C=C1CCCC(C)(C)[C@@]12CC=C(C)CC2
REMARK SMILES IDX 13 1 12 2 11 3 10 4 9 5 15 6 14 7 2 8 1 9 3 10 4 11 5 12
REMARK SMILES IDX 6 13 7 14 8 15
REMARK H PARENT
REMARK Flexibility Score: inf
ROOT
ATOM      1  C   UNL     1      12.858  19.930  28.927  1.00  0.00     0.039 C 
ATOM      2  C   UNL     1      11.570  19.939  28.151  1.00  0.00    -0.077 C 
ATOM      3  C   UNL     1      11.176  18.847  27.482  1.00  0.00    -0.027 C 
ATOM      4  C   UNL     1       9.884  18.874  26.706  1.00  0.00     0.039 C 
ATOM      5  C   UNL     1       9.691  20.190  25.845  1.00  0.00    -0.000 C 
ATOM      6  C   UNL     1      10.413  21.417  26.542  1.00  0.00     0.017 C 
ATOM      7  C   UNL     1      10.738  21.190  28.025  1.00  0.00     0.031 C 
ATOM      8  C   UNL     1      10.346  20.038  24.445  1.00  0.00    -0.070 C 
ATOM      9  C   UNL     1      11.361  19.185  24.193  1.00  0.00     0.008 C 
ATOM     10  C   UNL     1      10.037  21.080  23.388  1.00  0.00     0.031 C 
ATOM     11  C   UNL     1       8.536  21.273  23.226  1.00  0.00     0.005 C 
ATOM     12  C   UNL     1       7.873  21.576  24.569  1.00  0.00     0.008 C 
ATOM     13  C   UNL     1       8.121  20.465  25.638  1.00  0.00    -0.026 C 
ATOM     14  C   UNL     1       7.417  20.940  26.941  1.00  0.00     0.012 C 
ATOM     15  C   UNL     1       7.389  19.173  25.171  1.00  0.00     0.012 C 
ENDROOT
TORSDOF 0
ENDMDL
MODEL 8
REMARK VINA RESULT:    -4.529      1.870      3.537
REMARK INTER + INTRA:          -4.529
REMARK INTER:                  -4.529
REMARK INTRA:                   0.000
REMARK UNBOUND:                 0.000
REMARK SMILES C=C1CCCC(C)(C)[C@@]12CC=C(C)CC2
REMARK SMILES IDX 13 1 12 2 11 3 10 4 9 5 15 6 14 7 2 8 1 9 3 10 4 11 5 12
REMARK SMILES IDX 6 13 7 14 8 15
REMARK H PARENT
REMARK Flexibility Score: inf
ROOT
ATOM      1  C   UNL     1       5.732  18.415  22.486  1.00  0.00     0.039 C 
ATOM      2  C   UNL     1       7.116  18.725  22.984  1.00  0.00    -0.077 C 
ATOM      3  C   UNL     1       7.299  19.177  24.232  1.00  0.00    -0.027 C 
ATOM      4  C   UNL     1       8.694  19.485  24.715  1.00  0.00     0.039 C 
ATOM      5  C   UNL     1       9.562  20.296  23.665  1.00  0.00    -0.000 C 
ATOM      6  C   UNL     1       9.121  19.932  22.187  1.00  0.00     0.017 C 
ATOM      7  C   UNL     1       8.316  18.629  22.077  1.00  0.00     0.031 C 
ATOM      8  C   UNL     1       9.338  21.824  23.823  1.00  0.00    -0.070 C 
ATOM      9  C   UNL     1       8.217  22.356  24.357  1.00  0.00     0.008 C 
ATOM     10  C   UNL     1      10.275  22.768  23.096  1.00  0.00     0.031 C 
ATOM     11  C   UNL     1      11.731  22.437  23.393  1.00  0.00     0.005 C 
ATOM     12  C   UNL     1      12.029  20.966  23.105  1.00  0.00     0.008 C 
ATOM     13  C   UNL     1      11.119  19.988  23.913  1.00  0.00    -0.026 C 
ATOM     14  C   UNL     1      11.525  18.550  23.481  1.00  0.00     0.012 C 
ATOM     15  C   UNL     1      11.479  20.129  25.421  1.00  0.00     0.012 C 
ENDROOT
TORSDOF 0
ENDMDL
MODEL 9
REMARK VINA RESULT:    -4.505      2.277      3.804
REMARK INTER + INTRA:          -4.505
REMARK INTER:                  -4.505
REMARK INTRA:                   0.000
REMARK UNBOUND:                 0.000
REMARK SMILES C=C1CCCC(C)(C)[C@@]12CC=C(C)CC2
REMARK SMILES IDX 13 1 12 2 11 3 10 4 9 5 15 6 14 7 2 8 1 9 3 10 4 11 5 12
REMARK SMILES IDX 6 13 7 14 8 15
REMARK H PARENT
REMARK Flexibility Score: inf
ROOT
ATOM      1  C   UNL     1       5.280  20.123  21.648  1.00  0.00     0.039 C 
ATOM      2  C   UNL     1       6.115  20.135  22.899  1.00  0.00    -0.077 C 
ATOM      3  C   UNL     1       6.527  21.298  23.424  1.00  0.00    -0.027 C 
ATOM      4  C   UNL     1       7.366  21.292  24.676  1.00  0.00     0.039 C 
ATOM      5  C   UNL     1       8.528  20.214  24.655  1.00  0.00    -0.000 C 
ATOM      6  C   UNL     1       8.101  18.960  23.785  1.00  0.00     0.017 C 
ATOM      7  C   UNL     1       6.589  18.856  23.539  1.00  0.00     0.031 C 
ATOM      8  C   UNL     1       9.806  20.791  23.988  1.00  0.00    -0.070 C 
ATOM      9  C   UNL     1       9.782  21.806  23.098  1.00  0.00     0.008 C 
ATOM     10  C   UNL     1      11.099  20.010  24.115  1.00  0.00     0.031 C 
ATOM     11  C   UNL     1      11.398  19.667  25.567  1.00  0.00     0.005 C 
ATOM     12  C   UNL     1      10.210  18.959  26.218  1.00  0.00     0.008 C 
ATOM     13  C   UNL     1       8.893  19.795  26.162  1.00  0.00    -0.026 C 
ATOM     14  C   UNL     1       7.789  18.926  26.829  1.00  0.00     0.012 C 
ATOM     15  C   UNL     1       9.082  21.055  27.057  1.00  0.00     0.012 C 
ENDROOT
TORSDOF 0
ENDMDL
