MODEL 1
REMARK VINA RESULT:    -6.163      0.000      0.000
REMARK INTER + INTRA:          -7.635
REMARK INTER:                  -7.604
REMARK INTRA:                  -0.031
REMARK UNBOUND:                -0.031
REMARK SMILES O=c1c(O)c(-c2cc(O)c(O)c(O)c2)oc2cc(O)cc(O)c12
REMARK SMILES IDX 5 1 3 2 2 3 1 4 23 5 21 6 20 7 18 8 17 9 16 10 15 11 6 12
REMARK SMILES IDX 7 13 8 14 14 15 10 16 12 17 9 18 11 20 13 22 4 24 22 26
REMARK SMILES IDX 19 28
REMARK H PARENT 9 19 11 21 13 23 4 25 22 27 19 29
REMARK Flexibility Score: inf
ROOT
ATOM      1  C   UNL     1     141.406 153.473 120.313  1.00  0.00     0.180 A 
ATOM      2  C   UNL     1     142.499 152.613 120.114  1.00  0.00     0.208 A 
ATOM      3  C   UNL     1     142.259 151.253 119.863  1.00  0.00     0.238 A 
ATOM      4  O   UNL     1     143.240 150.498 119.631  1.00  0.00    -0.285 OA
ATOM      5  C   UNL     1     140.929 150.766 119.831  1.00  0.00     0.111 A 
ATOM      6  C   UNL     1     140.572 149.400 119.625  1.00  0.00     0.134 A 
ATOM      7  C   UNL     1     139.222 149.053 119.482  1.00  0.00     0.093 A 
ATOM      8  C   UNL     1     138.216 150.015 119.603  1.00  0.00     0.123 A 
ATOM      9  C   UNL     1     138.552 151.341 119.862  1.00  0.00     0.094 A 
ATOM     10  C   UNL     1     139.892 151.723 119.974  1.00  0.00     0.146 A 
ATOM     11  O   UNL     1     140.169 152.999 120.211  1.00  0.00    -0.452 OA
ENDROOT
BRANCH   1  12
ATOM     12  C   UNL     1     141.580 154.914 120.607  1.00  0.00     0.029 A 
ATOM     13  C   UNL     1     142.476 155.356 121.592  1.00  0.00     0.062 A 
ATOM     14  C   UNL     1     142.609 156.721 121.872  1.00  0.00     0.162 A 
ATOM     15  C   UNL     1     140.793 155.857 119.930  1.00  0.00     0.062 A 
ATOM     16  C   UNL     1     141.839 157.665 121.177  1.00  0.00     0.200 A 
ATOM     17  C   UNL     1     140.916 157.225 120.198  1.00  0.00     0.162 A 
BRANCH  14  18
ATOM     18  O   UNL     1     143.509 157.152 122.846  1.00  0.00    -0.504 OA
ATOM     19  H   UNL     1     144.446 156.771 122.910  1.00  0.00     0.293 HD
ENDBRANCH  14  18
BRANCH  16  20
ATOM     20  O   UNL     1     142.016 159.015 121.489  1.00  0.00    -0.502 OA
ATOM     21  H   UNL     1     141.268 159.691 121.523  1.00  0.00     0.293 HD
ENDBRANCH  16  20
BRANCH  17  22
ATOM     22  O   UNL     1     140.108 158.105 119.475  1.00  0.00    -0.504 OA
ATOM     23  H   UNL     1     140.333 159.075 119.310  1.00  0.00     0.293 HD
ENDBRANCH  17  22
ENDBRANCH   1  12
BRANCH   2  24
ATOM     24  O   UNL     1     143.802 153.118 120.128  1.00  0.00    -0.502 OA
ATOM     25  H   UNL     1     144.330 153.236 120.984  1.00  0.00     0.293 HD
ENDBRANCH   2  24
BRANCH   6  26
ATOM     26  O   UNL     1     141.493 148.350 119.582  1.00  0.00    -0.507 OA
ATOM     27  H   UNL     1     142.014 148.075 118.763  1.00  0.00     0.293 HD
ENDBRANCH   6  26
BRANCH   8  28
ATOM     28  O   UNL     1     136.875 149.658 119.475  1.00  0.00    -0.508 OA
ATOM     29  H   UNL     1     136.431 149.023 120.127  1.00  0.00     0.293 HD
ENDBRANCH   8  28
TORSDOF 7
ENDMDL
MODEL 2
REMARK VINA RESULT:    -6.138      2.300      7.991
REMARK INTER + INTRA:          -7.603
REMARK INTER:                  -7.339
REMARK INTRA:                  -0.264
REMARK UNBOUND:                -0.031
REMARK SMILES O=c1c(O)c(-c2cc(O)c(O)c(O)c2)oc2cc(O)cc(O)c12
REMARK SMILES IDX 5 1 3 2 2 3 1 4 23 5 21 6 20 7 18 8 17 9 16 10 15 11 6 12
REMARK SMILES IDX 7 13 8 14 14 15 10 16 12 17 9 18 11 20 13 22 4 24 22 26
REMARK SMILES IDX 19 28
REMARK H PARENT 9 19 11 21 13 23 4 25 22 27 19 29
REMARK Flexibility Score: inf
ROOT
ATOM      1  C   UNL     1     139.205 150.294 120.056  1.00  0.00     0.180 A 
ATOM      2  C   UNL     1     138.250 151.206 119.575  1.00  0.00     0.208 A 
ATOM      3  C   UNL     1     138.618 152.550 119.403  1.00  0.00     0.238 A 
ATOM      4  O   UNL     1     137.775 153.351 118.922  1.00  0.00    -0.285 OA
ATOM      5  C   UNL     1     139.931 152.968 119.729  1.00  0.00     0.111 A 
ATOM      6  C   UNL     1     140.400 154.312 119.632  1.00  0.00     0.134 A 
ATOM      7  C   UNL     1     141.755 154.589 119.856  1.00  0.00     0.093 A 
ATOM      8  C   UNL     1     142.642 153.579 120.238  1.00  0.00     0.123 A 
ATOM      9  C   UNL     1     142.181 152.275 120.392  1.00  0.00     0.094 A 
ATOM     10  C   UNL     1     140.842 151.961 120.141  1.00  0.00     0.146 A 
ATOM     11  O   UNL     1     140.447 150.704 120.290  1.00  0.00    -0.452 OA
ENDROOT
BRANCH   1  12
ATOM     12  C   UNL     1     138.885 148.867 120.286  1.00  0.00     0.029 A 
ATOM     13  C   UNL     1     138.017 148.469 121.314  1.00  0.00     0.062 A 
ATOM     14  C   UNL     1     137.745 147.113 121.532  1.00  0.00     0.162 A 
ATOM     15  C   UNL     1     139.505 147.884 119.500  1.00  0.00     0.062 A 
ATOM     16  C   UNL     1     138.347 146.133 120.729  1.00  0.00     0.200 A 
ATOM     17  C   UNL     1     139.242 146.525 119.704  1.00  0.00     0.162 A 
BRANCH  14  18
ATOM     18  O   UNL     1     136.875 146.727 122.550  1.00  0.00    -0.504 OA
ATOM     19  H   UNL     1     136.237 147.386 122.981  1.00  0.00     0.293 HD
ENDBRANCH  14  18
BRANCH  16  20
ATOM     20  O   UNL     1     138.037 144.795 120.983  1.00  0.00    -0.502 OA
ATOM     21  H   UNL     1     138.007 144.076 120.275  1.00  0.00     0.293 HD
ENDBRANCH  16  20
BRANCH  17  22
ATOM     22  O   UNL     1     139.887 145.606 118.875  1.00  0.00    -0.504 OA
ATOM     23  H   UNL     1     140.854 145.333 118.976  1.00  0.00     0.293 HD
ENDBRANCH  17  22
ENDBRANCH   1  12
BRANCH   2  24
ATOM     24  O   UNL     1     136.966 150.768 119.239  1.00  0.00    -0.502 OA
ATOM     25  H   UNL     1     136.129 151.194 119.619  1.00  0.00     0.293 HD
ENDBRANCH   2  24
BRANCH   6  26
ATOM     26  O   UNL     1     139.579 155.408 119.350  1.00  0.00    -0.507 OA
ATOM     27  H   UNL     1     139.889 156.259 118.906  1.00  0.00     0.293 HD
ENDBRANCH   6  26
BRANCH   8  28
ATOM     28  O   UNL     1     143.985 153.866 120.473  1.00  0.00    -0.508 OA
ATOM     29  H   UNL     1     144.367 153.882 121.411  1.00  0.00     0.293 HD
ENDBRANCH   8  28
TORSDOF 7
ENDMDL
MODEL 3
REMARK VINA RESULT:    -5.970      1.221      6.793
REMARK INTER + INTRA:          -7.396
REMARK INTER:                  -7.482
REMARK INTRA:                   0.085
REMARK UNBOUND:                -0.031
REMARK SMILES O=c1c(O)c(-c2cc(O)c(O)c(O)c2)oc2cc(O)cc(O)c12
REMARK SMILES IDX 5 1 3 2 2 3 1 4 23 5 21 6 20 7 18 8 17 9 16 10 15 11 6 12
REMARK SMILES IDX 7 13 8 14 14 15 10 16 12 17 9 18 11 20 13 22 4 24 22 26
REMARK SMILES IDX 19 28
REMARK H PARENT 9 19 11 21 13 23 4 25 22 27 19 29
REMARK Flexibility Score: inf
ROOT
ATOM      1  C   UNL     1     141.132 153.587 120.392  1.00  0.00     0.180 A 
ATOM      2  C   UNL     1     142.096 154.041 121.308  1.00  0.00     0.208 A 
ATOM      3  C   UNL     1     142.185 155.417 121.576  1.00  0.00     0.238 A 
ATOM      4  O   UNL     1     143.013 155.813 122.438  1.00  0.00    -0.285 OA
ATOM      5  C   UNL     1     141.321 156.321 120.912  1.00  0.00     0.111 A 
ATOM      6  C   UNL     1     141.351 157.738 121.078  1.00  0.00     0.134 A 
ATOM      7  C   UNL     1     140.363 158.526 120.471  1.00  0.00     0.093 A 
ATOM      8  C   UNL     1     139.387 157.951 119.652  1.00  0.00     0.123 A 
ATOM      9  C   UNL     1     139.386 156.576 119.439  1.00  0.00     0.094 A 
ATOM     10  C   UNL     1     140.336 155.760 120.059  1.00  0.00     0.146 A 
ATOM     11  O   UNL     1     140.292 154.453 119.836  1.00  0.00    -0.452 OA
ENDROOT
BRANCH   1  12
ATOM     12  C   UNL     1     140.994 152.155 120.040  1.00  0.00     0.029 A 
ATOM     13  C   UNL     1     142.119 151.335 119.862  1.00  0.00     0.062 A 
ATOM     14  C   UNL     1     141.968 149.989 119.506  1.00  0.00     0.162 A 
ATOM     15  C   UNL     1     139.717 151.618 119.820  1.00  0.00     0.062 A 
ATOM     16  C   UNL     1     140.690 149.446 119.311  1.00  0.00     0.200 A 
ATOM     17  C   UNL     1     139.552 150.274 119.465  1.00  0.00     0.162 A 
BRANCH  14  18
ATOM     18  O   UNL     1     143.091 149.178 119.341  1.00  0.00    -0.504 OA
ATOM     19  H   UNL     1     143.209 148.595 118.520  1.00  0.00     0.293 HD
ENDBRANCH  14  18
BRANCH  16  20
ATOM     20  O   UNL     1     140.595 148.097 118.963  1.00  0.00    -0.502 OA
ATOM     21  H   UNL     1     141.332 147.422 119.107  1.00  0.00     0.293 HD
ENDBRANCH  16  20
BRANCH  17  22
ATOM     22  O   UNL     1     138.250 149.807 119.274  1.00  0.00    -0.504 OA
ATOM     23  H   UNL     1     137.984 148.835 119.325  1.00  0.00     0.293 HD
ENDBRANCH  17  22
ENDBRANCH   1  12
BRANCH   2  24
ATOM     24  O   UNL     1     142.924 153.129 121.968  1.00  0.00    -0.502 OA
ATOM     25  H   UNL     1     143.922 153.273 122.066  1.00  0.00     0.293 HD
ENDBRANCH   2  24
BRANCH   6  26
ATOM     26  O   UNL     1     142.336 158.420 121.797  1.00  0.00    -0.507 OA
ATOM     27  H   UNL     1     142.156 159.039 122.574  1.00  0.00     0.293 HD
ENDBRANCH   6  26
BRANCH   8  28
ATOM     28  O   UNL     1     138.419 158.743 119.040  1.00  0.00    -0.508 OA
ATOM     29  H   UNL     1     138.010 158.487 118.150  1.00  0.00     0.293 HD
ENDBRANCH   8  28
TORSDOF 7
ENDMDL
MODEL 4
REMARK VINA RESULT:    -5.849      2.607      8.396
REMARK INTER + INTRA:          -7.247
REMARK INTER:                  -6.999
REMARK INTRA:                  -0.248
REMARK UNBOUND:                -0.031
REMARK SMILES O=c1c(O)c(-c2cc(O)c(O)c(O)c2)oc2cc(O)cc(O)c12
REMARK SMILES IDX 5 1 3 2 2 3 1 4 23 5 21 6 20 7 18 8 17 9 16 10 15 11 6 12
REMARK SMILES IDX 7 13 8 14 14 15 10 16 12 17 9 18 11 20 13 22 4 24 22 26
REMARK SMILES IDX 19 28
REMARK H PARENT 9 19 11 21 13 23 4 25 22 27 19 29
REMARK Flexibility Score: inf
ROOT
ATOM      1  C   UNL     1     139.115 149.358 120.143  1.00  0.00     0.180 A 
ATOM      2  C   UNL     1     138.099 150.165 119.602  1.00  0.00     0.208 A 
ATOM      3  C   UNL     1     138.346 151.534 119.411  1.00  0.00     0.238 A 
ATOM      4  O   UNL     1     137.452 152.241 118.877  1.00  0.00    -0.285 OA
ATOM      5  C   UNL     1     139.599 152.082 119.779  1.00  0.00     0.111 A 
ATOM      6  C   UNL     1     139.943 153.462 119.668  1.00  0.00     0.134 A 
ATOM      7  C   UNL     1     141.255 153.871 119.939  1.00  0.00     0.093 A 
ATOM      8  C   UNL     1     142.216 152.959 120.380  1.00  0.00     0.123 A 
ATOM      9  C   UNL     1     141.874 151.620 120.548  1.00  0.00     0.094 A 
ATOM     10  C   UNL     1     140.583 151.175 120.251  1.00  0.00     0.146 A 
ATOM     11  O   UNL     1     140.302 149.889 120.416  1.00  0.00    -0.452 OA
ENDROOT
BRANCH   1  12
ATOM     12  C   UNL     1     138.922 147.912 120.395  1.00  0.00     0.029 A 
ATOM     13  C   UNL     1     139.548 146.941 119.599  1.00  0.00     0.062 A 
ATOM     14  C   UNL     1     139.334 145.578 119.838  1.00  0.00     0.162 A 
ATOM     15  C   UNL     1     138.048 147.499 121.412  1.00  0.00     0.062 A 
ATOM     16  C   UNL     1     138.480 145.166 120.871  1.00  0.00     0.200 A 
ATOM     17  C   UNL     1     137.825 146.140 121.663  1.00  0.00     0.162 A 
BRANCH  14  18
ATOM     18  O   UNL     1     139.968 144.620 119.048  1.00  0.00    -0.504 OA
ATOM     19  H   UNL     1     140.144 143.682 119.390  1.00  0.00     0.293 HD
ENDBRANCH  14  18
BRANCH  16  20
ATOM     20  O   UNL     1     138.306 143.795 121.072  1.00  0.00    -0.502 OA
ATOM     21  H   UNL     1     138.130 143.132 120.332  1.00  0.00     0.293 HD
ENDBRANCH  16  20
BRANCH  17  22
ATOM     22  O   UNL     1     136.952 145.805 122.700  1.00  0.00    -0.504 OA
ATOM     23  H   UNL     1     135.976 146.065 122.724  1.00  0.00     0.293 HD
ENDBRANCH  17  22
ENDBRANCH   1  12
BRANCH   2  24
ATOM     24  O   UNL     1     136.878 149.599 119.226  1.00  0.00    -0.502 OA
ATOM     25  H   UNL     1     135.996 150.086 119.336  1.00  0.00     0.293 HD
ENDBRANCH   2  24
BRANCH   6  26
ATOM     26  O   UNL     1     139.034 154.468 119.326  1.00  0.00    -0.507 OA
ATOM     27  H   UNL     1     138.254 154.349 118.698  1.00  0.00     0.293 HD
ENDBRANCH   6  26
BRANCH   8  28
ATOM     28  O   UNL     1     143.515 153.377 120.662  1.00  0.00    -0.508 OA
ATOM     29  H   UNL     1     143.703 154.094 121.353  1.00  0.00     0.293 HD
ENDBRANCH   8  28
TORSDOF 7
ENDMDL
MODEL 5
REMARK VINA RESULT:    -5.521      2.395      6.747
REMARK INTER + INTRA:          -6.842
REMARK INTER:                  -6.826
REMARK INTRA:                  -0.016
REMARK UNBOUND:                -0.031
REMARK SMILES O=c1c(O)c(-c2cc(O)c(O)c(O)c2)oc2cc(O)cc(O)c12
REMARK SMILES IDX 5 1 3 2 2 3 1 4 23 5 21 6 20 7 18 8 17 9 16 10 15 11 6 12
REMARK SMILES IDX 7 13 8 14 14 15 10 16 12 17 9 18 11 20 13 22 4 24 22 26
REMARK SMILES IDX 19 28
REMARK H PARENT 9 19 11 21 13 23 4 25 22 27 19 29
REMARK Flexibility Score: inf
ROOT
ATOM      1  C   UNL     1     140.362 153.947 120.599  1.00  0.00     0.180 A 
ATOM      2  C   UNL     1     141.056 155.022 120.019  1.00  0.00     0.208 A 
ATOM      3  C   UNL     1     140.738 156.331 120.417  1.00  0.00     0.238 A 
ATOM      4  O   UNL     1     141.399 157.288 119.934  1.00  0.00    -0.285 OA
ATOM      5  C   UNL     1     139.719 156.548 121.375  1.00  0.00     0.111 A 
ATOM      6  C   UNL     1     139.287 157.833 121.821  1.00  0.00     0.134 A 
ATOM      7  C   UNL     1     138.362 157.926 122.869  1.00  0.00     0.093 A 
ATOM      8  C   UNL     1     137.806 156.780 123.442  1.00  0.00     0.123 A 
ATOM      9  C   UNL     1     138.178 155.523 122.974  1.00  0.00     0.094 A 
ATOM     10  C   UNL     1     139.125 155.397 121.953  1.00  0.00     0.146 A 
ATOM     11  O   UNL     1     139.458 154.180 121.544  1.00  0.00    -0.452 OA
ENDROOT
BRANCH   1  12
ATOM     12  C   UNL     1     140.625 152.541 120.214  1.00  0.00     0.029 A 
ATOM     13  C   UNL     1     141.928 152.023 120.185  1.00  0.00     0.062 A 
ATOM     14  C   UNL     1     142.159 150.698 119.795  1.00  0.00     0.162 A 
ATOM     15  C   UNL     1     139.557 151.724 119.812  1.00  0.00     0.062 A 
ATOM     16  C   UNL     1     141.088 149.875 119.417  1.00  0.00     0.200 A 
ATOM     17  C   UNL     1     139.772 150.397 119.422  1.00  0.00     0.162 A 
BRANCH  14  18
ATOM     18  O   UNL     1     143.456 150.189 119.778  1.00  0.00    -0.504 OA
ATOM     19  H   UNL     1     143.730 149.454 119.136  1.00  0.00     0.293 HD
ENDBRANCH  14  18
BRANCH  16  20
ATOM     20  O   UNL     1     141.372 148.559 119.044  1.00  0.00    -0.502 OA
ATOM     21  H   UNL     1     141.557 148.267 118.096  1.00  0.00     0.293 HD
ENDBRANCH  16  20
BRANCH  17  22
ATOM     22  O   UNL     1     138.660 149.642 119.046  1.00  0.00    -0.504 OA
ATOM     23  H   UNL     1     138.007 149.914 118.326  1.00  0.00     0.293 HD
ENDBRANCH  17  22
ENDBRANCH   1  12
BRANCH   2  24
ATOM     24  O   UNL     1     142.072 154.785 119.091  1.00  0.00    -0.502 OA
ATOM     25  H   UNL     1     142.061 153.990 118.463  1.00  0.00     0.293 HD
ENDBRANCH   2  24
BRANCH   6  26
ATOM     26  O   UNL     1     139.709 159.040 121.254  1.00  0.00    -0.507 OA
ATOM     27  H   UNL     1     139.750 159.921 121.743  1.00  0.00     0.293 HD
ENDBRANCH   6  26
BRANCH   8  28
ATOM     28  O   UNL     1     136.875 156.882 124.473  1.00  0.00    -0.508 OA
ATOM     29  H   UNL     1     136.794 157.722 125.033  1.00  0.00     0.293 HD
ENDBRANCH   8  28
TORSDOF 7
ENDMDL
MODEL 6
REMARK VINA RESULT:    -5.455      1.892      7.511
REMARK INTER + INTRA:          -6.761
REMARK INTER:                  -6.410
REMARK INTRA:                  -0.351
REMARK UNBOUND:                -0.031
REMARK SMILES O=c1c(O)c(-c2cc(O)c(O)c(O)c2)oc2cc(O)cc(O)c12
REMARK SMILES IDX 5 1 3 2 2 3 1 4 23 5 21 6 20 7 18 8 17 9 16 10 15 11 6 12
REMARK SMILES IDX 7 13 8 14 14 15 10 16 12 17 9 18 11 20 13 22 4 24 22 26
REMARK SMILES IDX 19 28
REMARK H PARENT 9 19 11 21 13 23 4 25 22 27 19 29
REMARK Flexibility Score: inf
ROOT
ATOM      1  C   UNL     1     139.402 152.234 120.423  1.00  0.00     0.180 A 
ATOM      2  C   UNL     1     138.600 153.085 119.644  1.00  0.00     0.208 A 
ATOM      3  C   UNL     1     138.888 154.459 119.621  1.00  0.00     0.238 A 
ATOM      4  O   UNL     1     138.200 155.209 118.878  1.00  0.00    -0.285 OA
ATOM      5  C   UNL     1     139.963 154.967 120.390  1.00  0.00     0.111 A 
ATOM      6  C   UNL     1     140.318 156.347 120.472  1.00  0.00     0.134 A 
ATOM      7  C   UNL     1     141.481 156.720 121.160  1.00  0.00     0.093 A 
ATOM      8  C   UNL     1     142.262 155.770 121.822  1.00  0.00     0.123 A 
ATOM      9  C   UNL     1     141.890 154.429 121.796  1.00  0.00     0.094 A 
ATOM     10  C   UNL     1     140.756 154.021 121.089  1.00  0.00     0.146 A 
ATOM     11  O   UNL     1     140.443 152.731 121.081  1.00  0.00    -0.452 OA
ENDROOT
BRANCH   1  12
ATOM     12  C   UNL     1     139.145 150.779 120.517  1.00  0.00     0.029 A 
ATOM     13  C   UNL     1     139.789 149.867 119.666  1.00  0.00     0.062 A 
ATOM     14  C   UNL     1     139.516 148.497 119.754  1.00  0.00     0.162 A 
ATOM     15  C   UNL     1     138.196 150.302 121.433  1.00  0.00     0.062 A 
ATOM     16  C   UNL     1     138.585 148.019 120.688  1.00  0.00     0.200 A 
ATOM     17  C   UNL     1     137.914 148.935 121.533  1.00  0.00     0.162 A 
BRANCH  14  18
ATOM     18  O   UNL     1     140.167 147.597 118.911  1.00  0.00    -0.504 OA
ATOM     19  H   UNL     1     139.860 146.636 118.822  1.00  0.00     0.293 HD
ENDBRANCH  14  18
BRANCH  16  20
ATOM     20  O   UNL     1     138.354 146.642 120.739  1.00  0.00    -0.502 OA
ATOM     21  H   UNL     1     139.076 145.943 120.646  1.00  0.00     0.293 HD
ENDBRANCH  16  20
BRANCH  17  22
ATOM     22  O   UNL     1     136.966 148.534 122.477  1.00  0.00    -0.504 OA
ATOM     23  H   UNL     1     136.198 149.111 122.788  1.00  0.00     0.293 HD
ENDBRANCH  17  22
ENDBRANCH   1  12
BRANCH   2  24
ATOM     24  O   UNL     1     137.557 152.560 118.875  1.00  0.00    -0.502 OA
ATOM     25  H   UNL     1     137.628 151.670 118.397  1.00  0.00     0.293 HD
ENDBRANCH   2  24
BRANCH   6  26
ATOM     26  O   UNL     1     139.557 157.384 119.927  1.00  0.00    -0.507 OA
ATOM     27  H   UNL     1     138.548 157.419 119.928  1.00  0.00     0.293 HD
ENDBRANCH   6  26
BRANCH   8  28
ATOM     28  O   UNL     1     143.407 156.152 122.516  1.00  0.00    -0.508 OA
ATOM     29  H   UNL     1     143.402 156.938 123.156  1.00  0.00     0.293 HD
ENDBRANCH   8  28
TORSDOF 7
ENDMDL
MODEL 7
REMARK VINA RESULT:    -5.397      2.065      7.365
REMARK INTER + INTRA:          -6.689
REMARK INTER:                  -6.804
REMARK INTRA:                   0.115
REMARK UNBOUND:                -0.031
REMARK SMILES O=c1c(O)c(-c2cc(O)c(O)c(O)c2)oc2cc(O)cc(O)c12
REMARK SMILES IDX 5 1 3 2 2 3 1 4 23 5 21 6 20 7 18 8 17 9 16 10 15 11 6 12
REMARK SMILES IDX 7 13 8 14 14 15 10 16 12 17 9 18 11 20 13 22 4 24 22 26
REMARK SMILES IDX 19 28
REMARK H PARENT 9 19 11 21 13 23 4 25 22 27 19 29
REMARK Flexibility Score: inf
ROOT
ATOM      1  C   UNL     1     139.867 153.495 120.840  1.00  0.00     0.180 A 
ATOM      2  C   UNL     1     138.824 153.697 121.760  1.00  0.00     0.208 A 
ATOM      3  C   UNL     1     138.579 154.995 122.237  1.00  0.00     0.238 A 
ATOM      4  O   UNL     1     137.609 155.178 123.019  1.00  0.00    -0.285 OA
ATOM      5  C   UNL     1     139.389 156.071 121.801  1.00  0.00     0.111 A 
ATOM      6  C   UNL     1     139.256 157.419 122.250  1.00  0.00     0.134 A 
ATOM      7  C   UNL     1     140.026 158.425 121.653  1.00  0.00     0.093 A 
ATOM      8  C   UNL     1     140.972 158.120 120.670  1.00  0.00     0.123 A 
ATOM      9  C   UNL     1     141.150 156.799 120.268  1.00  0.00     0.094 A 
ATOM     10  C   UNL     1     140.371 155.778 120.819  1.00  0.00     0.146 A 
ATOM     11  O   UNL     1     140.566 154.535 120.400  1.00  0.00    -0.452 OA
ENDROOT
BRANCH   1  12
ATOM     12  C   UNL     1     140.201 152.153 120.311  1.00  0.00     0.029 A 
ATOM     13  C   UNL     1     139.199 151.238 119.955  1.00  0.00     0.062 A 
ATOM     14  C   UNL     1     139.535 149.964 119.479  1.00  0.00     0.162 A 
ATOM     15  C   UNL     1     141.545 151.763 120.218  1.00  0.00     0.062 A 
ATOM     16  C   UNL     1     140.880 149.584 119.363  1.00  0.00     0.200 A 
ATOM     17  C   UNL     1     141.896 150.494 119.743  1.00  0.00     0.162 A 
BRANCH  14  18
ATOM     18  O   UNL     1     138.533 149.064 119.118  1.00  0.00    -0.504 OA
ATOM     19  H   UNL     1     137.715 149.361 118.598  1.00  0.00     0.293 HD
ENDBRANCH  14  18
BRANCH  16  20
ATOM     20  O   UNL     1     141.161 148.305 118.876  1.00  0.00    -0.502 OA
ATOM     21  H   UNL     1     141.035 147.457 119.408  1.00  0.00     0.293 HD
ENDBRANCH  16  20
BRANCH  17  22
ATOM     22  O   UNL     1     143.254 150.180 119.667  1.00  0.00    -0.504 OA
ATOM     23  H   UNL     1     143.849 150.042 120.471  1.00  0.00     0.293 HD
ENDBRANCH  17  22
ENDBRANCH   1  12
BRANCH   2  24
ATOM     24  O   UNL     1     138.022 152.625 122.161  1.00  0.00    -0.502 OA
ATOM     25  H   UNL     1     137.102 152.754 122.563  1.00  0.00     0.293 HD
ENDBRANCH   2  24
BRANCH   6  26
ATOM     26  O   UNL     1     138.409 157.816 123.289  1.00  0.00    -0.507 OA
ATOM     27  H   UNL     1     138.528 157.558 124.257  1.00  0.00     0.293 HD
ENDBRANCH   6  26
BRANCH   8  28
ATOM     28  O   UNL     1     141.745 159.125 120.093  1.00  0.00    -0.508 OA
ATOM     29  H   UNL     1     142.702 159.288 120.380  1.00  0.00     0.293 HD
ENDBRANCH   8  28
TORSDOF 7
ENDMDL
MODEL 8
REMARK VINA RESULT:    -5.395      1.773      1.980
REMARK INTER + INTRA:          -6.687
REMARK INTER:                  -6.752
REMARK INTRA:                   0.065
REMARK UNBOUND:                -0.031
REMARK SMILES O=c1c(O)c(-c2cc(O)c(O)c(O)c2)oc2cc(O)cc(O)c12
REMARK SMILES IDX 5 1 3 2 2 3 1 4 23 5 21 6 20 7 18 8 17 9 16 10 15 11 6 12
REMARK SMILES IDX 7 13 8 14 14 15 10 16 12 17 9 18 11 20 13 22 4 24 22 26
REMARK SMILES IDX 19 28
REMARK H PARENT 9 19 11 21 13 23 4 25 22 27 19 29
REMARK Flexibility Score: inf
ROOT
ATOM      1  C   UNL     1     140.316 153.120 120.589  1.00  0.00     0.180 A 
ATOM      2  C   UNL     1     141.598 152.583 120.386  1.00  0.00     0.208 A 
ATOM      3  C   UNL     1     141.718 151.254 119.949  1.00  0.00     0.238 A 
ATOM      4  O   UNL     1     142.868 150.796 119.717  1.00  0.00    -0.285 OA
ATOM      5  C   UNL     1     140.556 150.475 119.736  1.00  0.00     0.111 A 
ATOM      6  C   UNL     1     140.562 149.106 119.332  1.00  0.00     0.134 A 
ATOM      7  C   UNL     1     139.351 148.471 119.025  1.00  0.00     0.093 A 
ATOM      8  C   UNL     1     138.132 149.138 119.171  1.00  0.00     0.123 A 
ATOM      9  C   UNL     1     138.113 150.455 119.620  1.00  0.00     0.094 A 
ATOM     10  C   UNL     1     139.306 151.126 119.901  1.00  0.00     0.146 A 
ATOM     11  O   UNL     1     139.243 152.384 120.317  1.00  0.00    -0.452 OA
ENDROOT
BRANCH   1  12
ATOM     12  C   UNL     1     140.109 154.505 121.072  1.00  0.00     0.029 A 
ATOM     13  C   UNL     1     140.842 155.579 120.546  1.00  0.00     0.062 A 
ATOM     14  C   UNL     1     140.650 156.878 121.033  1.00  0.00     0.162 A 
ATOM     15  C   UNL     1     139.206 154.744 122.118  1.00  0.00     0.062 A 
ATOM     16  C   UNL     1     139.728 157.119 122.062  1.00  0.00     0.200 A 
ATOM     17  C   UNL     1     139.002 156.037 122.614  1.00  0.00     0.162 A 
BRANCH  14  18
ATOM     18  O   UNL     1     141.376 157.941 120.498  1.00  0.00    -0.504 OA
ATOM     19  H   UNL     1     141.232 158.894 120.812  1.00  0.00     0.293 HD
ENDBRANCH  14  18
BRANCH  16  20
ATOM     20  O   UNL     1     139.569 158.434 122.506  1.00  0.00    -0.502 OA
ATOM     21  H   UNL     1     140.331 159.081 122.642  1.00  0.00     0.293 HD
ENDBRANCH  16  20
BRANCH  17  22
ATOM     22  O   UNL     1     138.078 156.199 123.648  1.00  0.00    -0.504 OA
ATOM     23  H   UNL     1     138.251 156.740 124.482  1.00  0.00     0.293 HD
ENDBRANCH  17  22
ENDBRANCH   1  12
BRANCH   2  24
ATOM     24  O   UNL     1     142.732 153.377 120.581  1.00  0.00    -0.502 OA
ATOM     25  H   UNL     1     143.401 153.197 121.319  1.00  0.00     0.293 HD
ENDBRANCH   2  24
BRANCH   6  26
ATOM     26  O   UNL     1     141.716 148.322 119.245  1.00  0.00    -0.507 OA
ATOM     27  H   UNL     1     141.725 147.314 119.220  1.00  0.00     0.293 HD
ENDBRANCH   6  26
BRANCH   8  28
ATOM     28  O   UNL     1     136.932 148.494 118.878  1.00  0.00    -0.508 OA
ATOM     29  H   UNL     1     136.251 148.901 118.248  1.00  0.00     0.293 HD
ENDBRANCH   8  28
TORSDOF 7
ENDMDL
