MODEL 1
REMARK VINA RESULT:    -4.322      0.000      0.000
REMARK INTER + INTRA:          -8.070
REMARK INTER:                  -6.723
REMARK INTRA:                  -1.347
REMARK UNBOUND:                -1.347
REMARK SMILES COc1cc(CNC(=O)CCCCC=CC(C)C)ccc1O
REMARK SMILES IDX 11 1 12 2 13 3 14 4 15 5 16 6 17 7 18 8 10 9 8 10 9 11 7 12
REMARK SMILES IDX 6 14 5 15 4 16 19 17 3 18 20 19 21 20 2 21 1 22 22 23
REMARK H PARENT 7 13 22 24
REMARK Flexibility Score: inf
ROOT
ATOM      1  C   UNL     1     108.928 111.827 101.860  1.00  0.00     0.010 C 
ENDROOT
BRANCH   1   2
ATOM      2  C   UNL     1     109.454 110.501 101.276  1.00  0.00     0.005 C 
BRANCH   2   3
ATOM      3  C   UNL     1     108.987 109.253 102.050  1.00  0.00     0.027 C 
BRANCH   3   4
ATOM      4  C   UNL     1     107.611 109.413 102.644  1.00  0.00    -0.031 C 
ATOM      5  C   UNL     1     107.037 108.551 103.503  1.00  0.00    -0.028 C 
BRANCH   5   6
ATOM      6  C   UNL     1     107.706 107.319 104.077  1.00  0.00     0.005 C 
ATOM      7  C   UNL     1     107.256 106.076 103.302  1.00  0.00     0.012 C 
ATOM      8  C   UNL     1     107.353 107.186 105.561  1.00  0.00     0.012 C 
ENDBRANCH   5   6
ENDBRANCH   3   4
ENDBRANCH   2   3
ENDBRANCH   1   2
BRANCH   1   9
ATOM      9  C   UNL     1     108.573 112.854 100.777  1.00  0.00     0.100 C 
BRANCH   9  10
ATOM     10  C   UNL     1     107.185 113.377 100.990  1.00  0.00     0.220 C 
ATOM     11  O   UNL     1     106.968 114.616 100.909  1.00  0.00    -0.275 OA
ATOM     12  N   UNL     1     106.122 112.474 101.329  1.00  0.00    -0.352 N 
ATOM     13  H   UNL     1     106.339 111.459 101.452  1.00  0.00     0.163 HD
BRANCH  12  14
ATOM     14  C   UNL     1     104.745 112.919 101.521  1.00  0.00     0.151 C 
BRANCH  14  15
ATOM     15  C   UNL     1     103.829 111.734 101.662  1.00  0.00    -0.025 A 
ATOM     16  C   UNL     1     104.345 110.427 101.671  1.00  0.00     0.056 A 
ATOM     17  C   UNL     1     102.451 111.932 101.827  1.00  0.00     0.009 A 
ATOM     18  C   UNL     1     103.487 109.319 101.829  1.00  0.00     0.160 A 
ATOM     19  C   UNL     1     101.597 110.840 101.983  1.00  0.00     0.050 A 
ATOM     20  C   UNL     1     102.106 109.537 101.984  1.00  0.00     0.157 A 
BRANCH  18  21
ATOM     21  O   UNL     1     103.971 108.002 101.842  1.00  0.00    -0.493 OA
ATOM     22  C   UNL     1     104.782 107.429 100.822  1.00  0.00     0.278 C 
ENDBRANCH  18  21
BRANCH  20  23
ATOM     23  O   UNL     1     101.221 108.469 102.140  1.00  0.00    -0.504 OA
ATOM     24  H   UNL     1     101.422 107.545 101.778  1.00  0.00     0.293 HD
ENDBRANCH  20  23
ENDBRANCH  14  15
ENDBRANCH  12  14
ENDBRANCH   9  10
ENDBRANCH   1   9
TORSDOF 10
ENDMDL
MODEL 2
REMARK VINA RESULT:    -4.316      1.165      2.365
REMARK INTER + INTRA:          -8.060
REMARK INTER:                  -6.876
REMARK INTRA:                  -1.184
REMARK UNBOUND:                -1.347
REMARK SMILES COc1cc(CNC(=O)CCCCC=CC(C)C)ccc1O
REMARK SMILES IDX 11 1 12 2 13 3 14 4 15 5 16 6 17 7 18 8 10 9 8 10 9 11 7 12
REMARK SMILES IDX 6 14 5 15 4 16 19 17 3 18 20 19 21 20 2 21 1 22 22 23
REMARK H PARENT 7 13 22 24
REMARK Flexibility Score: inf
ROOT
ATOM      1  C   UNL     1     108.844 111.455 102.280  1.00  0.00     0.010 C 
ENDROOT
BRANCH   1   2
ATOM      2  C   UNL     1     109.578 110.180 101.819  1.00  0.00     0.005 C 
BRANCH   2   3
ATOM      3  C   UNL     1     108.638 108.997 101.517  1.00  0.00     0.027 C 
BRANCH   3   4
ATOM      4  C   UNL     1     109.077 107.716 102.180  1.00  0.00    -0.031 C 
ATOM      5  C   UNL     1     108.525 107.196 103.292  1.00  0.00    -0.028 C 
BRANCH   5   6
ATOM      6  C   UNL     1     107.323 107.765 104.016  1.00  0.00     0.005 C 
ATOM      7  C   UNL     1     107.365 107.355 105.491  1.00  0.00     0.012 C 
ATOM      8  C   UNL     1     106.037 107.264 103.352  1.00  0.00     0.012 C 
ENDBRANCH   5   6
ENDBRANCH   3   4
ENDBRANCH   2   3
ENDBRANCH   1   2
BRANCH   1   9
ATOM      9  C   UNL     1     108.996 112.618 101.291  1.00  0.00     0.100 C 
BRANCH   9  10
ATOM     10  C   UNL     1     107.650 113.141 100.891  1.00  0.00     0.220 C 
ATOM     11  O   UNL     1     107.566 114.021  99.991  1.00  0.00    -0.275 OA
ATOM     12  N   UNL     1     106.470 112.675 101.562  1.00  0.00    -0.352 N 
ATOM     13  H   UNL     1     106.569 111.992 102.347  1.00  0.00     0.163 HD
BRANCH  12  14
ATOM     14  C   UNL     1     105.130 113.126 101.198  1.00  0.00     0.151 C 
BRANCH  14  15
ATOM     15  C   UNL     1     104.116 112.061 101.519  1.00  0.00    -0.025 A 
ATOM     16  C   UNL     1     102.744 112.361 101.543  1.00  0.00     0.056 A 
ATOM     17  C   UNL     1     104.538 110.746 101.760  1.00  0.00     0.009 A 
ATOM     18  C   UNL     1     101.795 111.356 101.819  1.00  0.00     0.160 A 
ATOM     19  C   UNL     1     103.605 109.747 102.036  1.00  0.00     0.050 A 
ATOM     20  C   UNL     1     102.238 110.044 102.067  1.00  0.00     0.157 A 
BRANCH  18  21
ATOM     21  O   UNL     1     100.418 111.623 101.849  1.00  0.00    -0.493 OA
ATOM     22  C   UNL     1      99.587 111.716 100.697  1.00  0.00     0.278 C 
ENDBRANCH  18  21
BRANCH  20  23
ATOM     23  O   UNL     1     101.333 109.019 102.348  1.00  0.00    -0.504 OA
ATOM     24  H   UNL     1     101.633 108.107 102.669  1.00  0.00     0.293 HD
ENDBRANCH  20  23
ENDBRANCH  14  15
ENDBRANCH  12  14
ENDBRANCH   9  10
ENDBRANCH   1   9
TORSDOF 10
ENDMDL
MODEL 3
REMARK VINA RESULT:    -4.314      4.143      6.128
REMARK INTER + INTRA:          -8.058
REMARK INTER:                  -6.664
REMARK INTRA:                  -1.393
REMARK UNBOUND:                -1.347
REMARK SMILES COc1cc(CNC(=O)CCCCC=CC(C)C)ccc1O
REMARK SMILES IDX 11 1 12 2 13 3 14 4 15 5 16 6 17 7 18 8 10 9 8 10 9 11 7 12
REMARK SMILES IDX 6 14 5 15 4 16 19 17 3 18 20 19 21 20 2 21 1 22 22 23
REMARK H PARENT 7 13 22 24
REMARK Flexibility Score: inf
ROOT
ATOM      1  C   UNL     1     103.981 109.081 101.603  1.00  0.00     0.010 C 
ENDROOT
BRANCH   1   2
ATOM      2  C   UNL     1     104.250 107.652 101.092  1.00  0.00     0.005 C 
BRANCH   2   3
ATOM      3  C   UNL     1     104.385 106.606 102.215  1.00  0.00     0.027 C 
BRANCH   3   4
ATOM      4  C   UNL     1     105.749 105.967 102.259  1.00  0.00    -0.031 C 
ATOM      5  C   UNL     1     106.789 106.420 102.984  1.00  0.00    -0.028 C 
BRANCH   5   6
ATOM      6  C   UNL     1     106.740 107.597 103.937  1.00  0.00     0.005 C 
ATOM      7  C   UNL     1     107.448 108.801 103.309  1.00  0.00     0.012 C 
ATOM      8  C   UNL     1     107.401 107.213 105.263  1.00  0.00     0.012 C 
ENDBRANCH   5   6
ENDBRANCH   3   4
ENDBRANCH   2   3
ENDBRANCH   1   2
BRANCH   1   9
ATOM      9  C   UNL     1     102.610 109.224 102.278  1.00  0.00     0.100 C 
BRANCH   9  10
ATOM     10  C   UNL     1     101.543 108.610 101.424  1.00  0.00     0.220 C 
ATOM     11  O   UNL     1     101.370 109.031 100.248  1.00  0.00    -0.275 OA
ATOM     12  N   UNL     1     100.696 107.584 101.960  1.00  0.00    -0.352 N 
ATOM     13  H   UNL     1     100.817 107.295 102.957  1.00  0.00     0.163 HD
BRANCH  12  14
ATOM     14  C   UNL     1      99.658 106.929 101.168  1.00  0.00     0.151 C 
BRANCH  14  15
ATOM     15  C   UNL     1      99.920 105.449 101.087  1.00  0.00    -0.025 A 
ATOM     16  C   UNL     1     101.212 104.938 101.292  1.00  0.00     0.056 A 
ATOM     17  C   UNL     1      98.860 104.565 100.844  1.00  0.00     0.009 A 
ATOM     18  C   UNL     1     101.450 103.550 101.242  1.00  0.00     0.160 A 
ATOM     19  C   UNL     1      99.089 103.190 100.792  1.00  0.00     0.050 A 
ATOM     20  C   UNL     1     100.375 102.678 100.988  1.00  0.00     0.157 A 
BRANCH  18  21
ATOM     21  O   UNL     1     102.729 103.008 101.442  1.00  0.00    -0.493 OA
ATOM     22  C   UNL     1     103.827 103.177 100.552  1.00  0.00     0.278 C 
ENDBRANCH  18  21
BRANCH  20  23
ATOM     23  O   UNL     1     100.567 101.297 100.926  1.00  0.00    -0.504 OA
ATOM     24  H   UNL     1     100.879 100.759 101.726  1.00  0.00     0.293 HD
ENDBRANCH  20  23
ENDBRANCH  14  15
ENDBRANCH  12  14
ENDBRANCH   9  10
ENDBRANCH   1   9
TORSDOF 10
ENDMDL
MODEL 4
REMARK VINA RESULT:    -4.252      5.301      9.201
REMARK INTER + INTRA:          -7.960
REMARK INTER:                  -6.840
REMARK INTRA:                  -1.120
REMARK UNBOUND:                -1.347
REMARK SMILES COc1cc(CNC(=O)CCCCC=CC(C)C)ccc1O
REMARK SMILES IDX 11 1 12 2 13 3 14 4 15 5 16 6 17 7 18 8 10 9 8 10 9 11 7 12
REMARK SMILES IDX 6 14 5 15 4 16 19 17 3 18 20 19 21 20 2 21 1 22 22 23
REMARK H PARENT 7 13 22 24
REMARK Flexibility Score: inf
ROOT
ATOM      1  C   UNL     1     104.067 103.753 101.245  1.00  0.00     0.010 C 
ENDROOT
BRANCH   1   2
ATOM      2  C   UNL     1     103.687 105.164 101.735  1.00  0.00     0.005 C 
BRANCH   2   3
ATOM      3  C   UNL     1     104.835 106.187 101.633  1.00  0.00     0.027 C 
BRANCH   3   4
ATOM      4  C   UNL     1     104.664 107.354 102.571  1.00  0.00    -0.031 C 
ATOM      5  C   UNL     1     105.568 107.743 103.489  1.00  0.00    -0.028 C 
BRANCH   5   6
ATOM      6  C   UNL     1     106.938 107.126 103.680  1.00  0.00     0.005 C 
ATOM      7  C   UNL     1     107.257 107.025 105.174  1.00  0.00     0.012 C 
ATOM      8  C   UNL     1     107.990 107.974 102.959  1.00  0.00     0.012 C 
ENDBRANCH   5   6
ENDBRANCH   3   4
ENDBRANCH   2   3
ENDBRANCH   1   2
BRANCH   1   9
ATOM      9  C   UNL     1     104.888 102.967 102.277  1.00  0.00     0.100 C 
BRANCH   9  10
ATOM     10  C   UNL     1     106.107 102.380 101.634  1.00  0.00     0.220 C 
ATOM     11  O   UNL     1     106.003 101.327 100.948  1.00  0.00    -0.275 OA
ATOM     12  N   UNL     1     107.391 102.989 101.838  1.00  0.00    -0.352 N 
ATOM     13  H   UNL     1     107.462 103.825 102.461  1.00  0.00     0.163 HD
BRANCH  12  14
ATOM     14  C   UNL     1     108.610 102.480 101.215  1.00  0.00     0.151 C 
BRANCH  14  15
ATOM     15  C   UNL     1     109.784 103.344 101.586  1.00  0.00    -0.025 A 
ATOM     16  C   UNL     1     111.039 102.771 101.854  1.00  0.00     0.056 A 
ATOM     17  C   UNL     1     109.640 104.738 101.629  1.00  0.00     0.009 A 
ATOM     18  C   UNL     1     112.144 103.585 102.177  1.00  0.00     0.160 A 
ATOM     19  C   UNL     1     110.729 105.548 101.949  1.00  0.00     0.050 A 
ATOM     20  C   UNL     1     111.978 104.981 102.223  1.00  0.00     0.157 A 
BRANCH  18  21
ATOM     21  O   UNL     1     113.410 103.044 102.449  1.00  0.00    -0.493 OA
ATOM     22  C   UNL     1     114.307 102.550 101.460  1.00  0.00     0.278 C 
ENDBRANCH  18  21
BRANCH  20  23
ATOM     23  O   UNL     1     113.044 105.823 102.542  1.00  0.00    -0.504 OA
ATOM     24  H   UNL     1     112.924 106.658 103.102  1.00  0.00     0.293 HD
ENDBRANCH  20  23
ENDBRANCH  14  15
ENDBRANCH  12  14
ENDBRANCH   9  10
ENDBRANCH   1   9
TORSDOF 10
ENDMDL
MODEL 5
REMARK VINA RESULT:    -4.232      4.586      7.826
REMARK INTER + INTRA:          -7.929
REMARK INTER:                  -6.656
REMARK INTRA:                  -1.273
REMARK UNBOUND:                -1.347
REMARK SMILES COc1cc(CNC(=O)CCCCC=CC(C)C)ccc1O
REMARK SMILES IDX 11 1 12 2 13 3 14 4 15 5 16 6 17 7 18 8 10 9 8 10 9 11 7 12
REMARK SMILES IDX 6 14 5 15 4 16 19 17 3 18 20 19 21 20 2 21 1 22 22 23
REMARK H PARENT 7 13 22 24
REMARK Flexibility Score: inf
ROOT
ATOM      1  C   UNL     1     111.582 105.524 102.285  1.00  0.00     0.010 C 
ENDROOT
BRANCH   1   2
ATOM      2  C   UNL     1     110.386 104.817 101.617  1.00  0.00     0.005 C 
BRANCH   2   3
ATOM      3  C   UNL     1     109.036 105.520 101.858  1.00  0.00     0.027 C 
BRANCH   3   4
ATOM      4  C   UNL     1     109.193 106.950 102.307  1.00  0.00    -0.031 C 
ATOM      5  C   UNL     1     108.393 107.571 103.194  1.00  0.00    -0.028 C 
BRANCH   5   6
ATOM      6  C   UNL     1     107.254 106.915 103.947  1.00  0.00     0.005 C 
ATOM      7  C   UNL     1     105.915 107.359 103.349  1.00  0.00     0.012 C 
ATOM      8  C   UNL     1     107.334 107.291 105.430  1.00  0.00     0.012 C 
ENDBRANCH   5   6
ENDBRANCH   3   4
ENDBRANCH   2   3
ENDBRANCH   1   2
BRANCH   1   9
ATOM      9  C   UNL     1     112.892 105.341 101.505  1.00  0.00     0.100 C 
BRANCH   9  10
ATOM     10  C   UNL     1     113.295 106.629 100.854  1.00  0.00     0.220 C 
ATOM     11  O   UNL     1     113.571 106.644  99.624  1.00  0.00    -0.275 OA
ATOM     12  N   UNL     1     113.410 107.824 101.639  1.00  0.00    -0.352 N 
ATOM     13  H   UNL     1     113.237 107.775 102.669  1.00  0.00     0.163 HD
BRANCH  12  14
ATOM     14  C   UNL     1     113.771 109.114 101.056  1.00  0.00     0.151 C 
BRANCH  14  15
ATOM     15  C   UNL     1     112.725 110.145 101.383  1.00  0.00    -0.025 A 
ATOM     16  C   UNL     1     113.020 111.516 101.302  1.00  0.00     0.056 A 
ATOM     17  C   UNL     1     111.430 109.738 101.736  1.00  0.00     0.009 A 
ATOM     18  C   UNL     1     112.031 112.480 101.584  1.00  0.00     0.160 A 
ATOM     19  C   UNL     1     110.447 110.687 102.017  1.00  0.00     0.050 A 
ATOM     20  C   UNL     1     110.739 112.053 101.945  1.00  0.00     0.157 A 
BRANCH  18  21
ATOM     21  O   UNL     1     112.293 113.857 101.512  1.00  0.00    -0.493 OA
ATOM     22  C   UNL     1     112.965 114.496 100.431  1.00  0.00     0.278 C 
ENDBRANCH  18  21
BRANCH  20  23
ATOM     23  O   UNL     1     109.731 112.973 102.235  1.00  0.00    -0.504 OA
ATOM     24  H   UNL     1     109.866 113.972 102.133  1.00  0.00     0.293 HD
ENDBRANCH  20  23
ENDBRANCH  14  15
ENDBRANCH  12  14
ENDBRANCH   9  10
ENDBRANCH   1   9
TORSDOF 10
ENDMDL
MODEL 6
REMARK VINA RESULT:    -4.216      5.051      8.632
REMARK INTER + INTRA:          -7.905
REMARK INTER:                  -6.734
REMARK INTRA:                  -1.171
REMARK UNBOUND:                -1.347
REMARK SMILES COc1cc(CNC(=O)CCCCC=CC(C)C)ccc1O
REMARK SMILES IDX 11 1 12 2 13 3 14 4 15 5 16 6 17 7 18 8 10 9 8 10 9 11 7 12
REMARK SMILES IDX 6 14 5 15 4 16 19 17 3 18 20 19 21 20 2 21 1 22 22 23
REMARK H PARENT 7 13 22 24
REMARK Flexibility Score: inf
ROOT
ATOM      1  C   UNL     1     111.082 105.237 101.819  1.00  0.00     0.010 C 
ENDROOT
BRANCH   1   2
ATOM      2  C   UNL     1     110.539 106.567 102.378  1.00  0.00     0.005 C 
BRANCH   2   3
ATOM      3  C   UNL     1     109.214 107.016 101.733  1.00  0.00     0.027 C 
BRANCH   3   4
ATOM      4  C   UNL     1     108.712 108.328 102.280  1.00  0.00    -0.031 C 
ATOM      5  C   UNL     1     107.668 108.464 103.119  1.00  0.00    -0.028 C 
BRANCH   5   6
ATOM      6  C   UNL     1     106.875 107.319 103.715  1.00  0.00     0.005 C 
ATOM      7  C   UNL     1     105.398 107.459 103.335  1.00  0.00     0.012 C 
ATOM      8  C   UNL     1     107.042 107.315 105.238  1.00  0.00     0.012 C 
ENDBRANCH   5   6
ENDBRANCH   3   4
ENDBRANCH   2   3
ENDBRANCH   1   2
BRANCH   1   9
ATOM      9  C   UNL     1     112.603 105.102 101.978  1.00  0.00     0.100 C 
BRANCH   9  10
ATOM     10  C   UNL     1     113.306 106.151 101.172  1.00  0.00     0.220 C 
ATOM     11  O   UNL     1     113.262 106.101  99.913  1.00  0.00    -0.275 OA
ATOM     12  N   UNL     1     114.061 107.177 101.832  1.00  0.00    -0.352 N 
ATOM     13  H   UNL     1     114.135 107.162 102.875  1.00  0.00     0.163 HD
BRANCH  12  14
ATOM     14  C   UNL     1     114.744 108.242 101.102  1.00  0.00     0.151 C 
BRANCH  14  15
ATOM     15  C   UNL     1     113.972 109.529 101.216  1.00  0.00    -0.025 A 
ATOM     16  C   UNL     1     114.586 110.760 100.930  1.00  0.00     0.056 A 
ATOM     17  C   UNL     1     112.617 109.501 101.574  1.00  0.00     0.009 A 
ATOM     18  C   UNL     1     113.854 111.962 101.013  1.00  0.00     0.160 A 
ATOM     19  C   UNL     1     111.888 110.687 101.659  1.00  0.00     0.050 A 
ATOM     20  C   UNL     1     112.497 111.915 101.382  1.00  0.00     0.157 A 
BRANCH  18  21
ATOM     21  O   UNL     1     114.438 113.207 100.733  1.00  0.00    -0.493 OA
ATOM     22  C   UNL     1     114.470 113.814  99.445  1.00  0.00     0.278 C 
ENDBRANCH  18  21
BRANCH  20  23
ATOM     23  O   UNL     1     111.737 113.081 101.480  1.00  0.00    -0.504 OA
ATOM     24  H   UNL     1     110.747 113.064 101.695  1.00  0.00     0.293 HD
ENDBRANCH  20  23
ENDBRANCH  14  15
ENDBRANCH  12  14
ENDBRANCH   9  10
ENDBRANCH   1   9
TORSDOF 10
ENDMDL
MODEL 7
REMARK VINA RESULT:    -4.197      5.309      9.282
REMARK INTER + INTRA:          -7.875
REMARK INTER:                  -6.471
REMARK INTRA:                  -1.403
REMARK UNBOUND:                -1.347
REMARK SMILES COc1cc(CNC(=O)CCCCC=CC(C)C)ccc1O
REMARK SMILES IDX 11 1 12 2 13 3 14 4 15 5 16 6 17 7 18 8 10 9 8 10 9 11 7 12
REMARK SMILES IDX 6 14 5 15 4 16 19 17 3 18 20 19 21 20 2 21 1 22 22 23
REMARK H PARENT 7 13 22 24
REMARK Flexibility Score: inf
ROOT
ATOM      1  C   UNL     1     105.860 103.695 100.205  1.00  0.00     0.010 C 
ENDROOT
BRANCH   1   2
ATOM      2  C   UNL     1     104.838 104.662 100.834  1.00  0.00     0.005 C 
BRANCH   2   3
ATOM      3  C   UNL     1     105.476 105.757 101.710  1.00  0.00     0.027 C 
BRANCH   3   4
ATOM      4  C   UNL     1     106.702 105.278 102.445  1.00  0.00    -0.031 C 
ATOM      5  C   UNL     1     107.309 105.943 103.445  1.00  0.00    -0.028 C 
BRANCH   5   6
ATOM      6  C   UNL     1     106.818 107.240 104.053  1.00  0.00     0.005 C 
ATOM      7  C   UNL     1     107.435 108.428 103.307  1.00  0.00     0.012 C 
ATOM      8  C   UNL     1     107.187 107.285 105.539  1.00  0.00     0.012 C 
ENDBRANCH   5   6
ENDBRANCH   3   4
ENDBRANCH   2   3
ENDBRANCH   1   2
BRANCH   1   9
ATOM      9  C   UNL     1     105.638 102.237 100.627  1.00  0.00     0.100 C 
BRANCH   9  10
ATOM     10  C   UNL     1     106.947 101.582 100.947  1.00  0.00     0.220 C 
ATOM     11  O   UNL     1     106.956 100.433 101.467  1.00  0.00    -0.275 OA
ATOM     12  N   UNL     1     108.177 102.279 100.704  1.00  0.00    -0.352 N 
ATOM     13  H   UNL     1     108.142 103.255 100.330  1.00  0.00     0.163 HD
BRANCH  12  14
ATOM     14  C   UNL     1     109.483 101.682 100.969  1.00  0.00     0.151 C 
BRANCH  14  15
ATOM     15  C   UNL     1     110.457 102.738 101.419  1.00  0.00    -0.025 A 
ATOM     16  C   UNL     1     110.039 104.067 101.599  1.00  0.00     0.056 A 
ATOM     17  C   UNL     1     111.785 102.389 101.700  1.00  0.00     0.009 A 
ATOM     18  C   UNL     1     110.947 105.050 102.045  1.00  0.00     0.160 A 
ATOM     19  C   UNL     1     112.688 103.356 102.141  1.00  0.00     0.050 A 
ATOM     20  C   UNL     1     112.278 104.682 102.313  1.00  0.00     0.157 A 
BRANCH  18  21
ATOM     21  O   UNL     1     110.562 106.386 102.234  1.00  0.00    -0.493 OA
ATOM     22  C   UNL     1     110.371 107.329 101.184  1.00  0.00     0.278 C 
ENDBRANCH  18  21
BRANCH  20  23
ATOM     23  O   UNL     1     113.210 105.623 102.753  1.00  0.00    -0.504 OA
ATOM     24  H   UNL     1     114.086 105.354 103.186  1.00  0.00     0.293 HD
ENDBRANCH  20  23
ENDBRANCH  14  15
ENDBRANCH  12  14
ENDBRANCH   9  10
ENDBRANCH   1   9
TORSDOF 10
ENDMDL
MODEL 8
REMARK VINA RESULT:    -4.148      4.390      7.707
REMARK INTER + INTRA:          -7.799
REMARK INTER:                  -6.633
REMARK INTRA:                  -1.166
REMARK UNBOUND:                -1.347
REMARK SMILES COc1cc(CNC(=O)CCCCC=CC(C)C)ccc1O
REMARK SMILES IDX 11 1 12 2 13 3 14 4 15 5 16 6 17 7 18 8 10 9 8 10 9 11 7 12
REMARK SMILES IDX 6 14 5 15 4 16 19 17 3 18 20 19 21 20 2 21 1 22 22 23
REMARK H PARENT 7 13 22 24
REMARK Flexibility Score: inf
ROOT
ATOM      1  C   UNL     1     110.201 106.554 101.264  1.00  0.00     0.010 C 
ENDROOT
BRANCH   1   2
ATOM      2  C   UNL     1     108.981 105.700 100.864  1.00  0.00     0.005 C 
BRANCH   2   3
ATOM      3  C   UNL     1     108.339 104.944 102.043  1.00  0.00     0.027 C 
BRANCH   3   4
ATOM      4  C   UNL     1     106.936 105.408 102.341  1.00  0.00    -0.031 C 
ATOM      5  C   UNL     1     106.618 106.417 103.172  1.00  0.00    -0.028 C 
BRANCH   5   6
ATOM      6  C   UNL     1     107.617 107.305 103.886  1.00  0.00     0.005 C 
ATOM      7  C   UNL     1     107.295 107.349 105.383  1.00  0.00     0.012 C 
ATOM      8  C   UNL     1     107.576 108.713 103.284  1.00  0.00     0.012 C 
ENDBRANCH   5   6
ENDBRANCH   3   4
ENDBRANCH   2   3
ENDBRANCH   1   2
BRANCH   1   9
ATOM      9  C   UNL     1     111.534 105.828 101.039  1.00  0.00     0.100 C 
BRANCH   9  10
ATOM     10  C   UNL     1     112.671 106.802 101.082  1.00  0.00     0.220 C 
ATOM     11  O   UNL     1     113.852 106.387 100.931  1.00  0.00    -0.275 OA
ATOM     12  N   UNL     1     112.418 108.191 101.341  1.00  0.00    -0.352 N 
ATOM     13  H   UNL     1     111.437 108.502 101.525  1.00  0.00     0.163 HD
BRANCH  12  14
ATOM     14  C   UNL     1     113.481 109.191 101.368  1.00  0.00     0.151 C 
BRANCH  14  15
ATOM     15  C   UNL     1     112.893 110.576 101.417  1.00  0.00    -0.025 A 
ATOM     16  C   UNL     1     111.600 110.786 101.923  1.00  0.00     0.056 A 
ATOM     17  C   UNL     1     113.654 111.673 100.991  1.00  0.00     0.009 A 
ATOM     18  C   UNL     1     111.060 112.087 101.992  1.00  0.00     0.160 A 
ATOM     19  C   UNL     1     113.125 112.963 101.054  1.00  0.00     0.050 A 
ATOM     20  C   UNL     1     111.835 113.176 101.551  1.00  0.00     0.157 A 
BRANCH  18  21
ATOM     21  O   UNL     1     109.772 112.332 102.492  1.00  0.00    -0.493 OA
ATOM     22  C   UNL     1     108.583 112.306 101.710  1.00  0.00     0.278 C 
ENDBRANCH  18  21
BRANCH  20  23
ATOM     23  O   UNL     1     111.339 114.479 101.598  1.00  0.00    -0.504 OA
ATOM     24  H   UNL     1     110.830 114.891 100.825  1.00  0.00     0.293 HD
ENDBRANCH  20  23
ENDBRANCH  14  15
ENDBRANCH  12  14
ENDBRANCH   9  10
ENDBRANCH   1   9
TORSDOF 10
ENDMDL
MODEL 9
REMARK VINA RESULT:    -4.146      6.291     10.197
REMARK INTER + INTRA:          -7.796
REMARK INTER:                  -6.665
REMARK INTRA:                  -1.132
REMARK UNBOUND:                -1.347
REMARK SMILES COc1cc(CNC(=O)CCCCC=CC(C)C)ccc1O
REMARK SMILES IDX 11 1 12 2 13 3 14 4 15 5 16 6 17 7 18 8 10 9 8 10 9 11 7 12
REMARK SMILES IDX 6 14 5 15 4 16 19 17 3 18 20 19 21 20 2 21 1 22 22 23
REMARK H PARENT 7 13 22 24
REMARK Flexibility Score: inf
ROOT
ATOM      1  C   UNL     1     104.638 103.148 101.126  1.00  0.00     0.010 C 
ENDROOT
BRANCH   1   2
ATOM      2  C   UNL     1     105.615 104.328 100.949  1.00  0.00     0.005 C 
BRANCH   2   3
ATOM      3  C   UNL     1     105.907 105.093 102.254  1.00  0.00     0.027 C 
BRANCH   3   4
ATOM      4  C   UNL     1     107.378 105.344 102.468  1.00  0.00    -0.031 C 
ATOM      5  C   UNL     1     107.891 106.388 103.144  1.00  0.00    -0.028 C 
BRANCH   5   6
ATOM      6  C   UNL     1     107.078 107.441 103.868  1.00  0.00     0.005 C 
ATOM      7  C   UNL     1     107.460 108.833 103.357  1.00  0.00     0.012 C 
ATOM      8  C   UNL     1     107.323 107.334 105.376  1.00  0.00     0.012 C 
ENDBRANCH   5   6
ENDBRANCH   3   4
ENDBRANCH   2   3
ENDBRANCH   1   2
BRANCH   1   9
ATOM      9  C   UNL     1     105.214 102.027 102.001  1.00  0.00     0.100 C 
BRANCH   9  10
ATOM     10  C   UNL     1     106.305 101.305 101.271  1.00  0.00     0.220 C 
ATOM     11  O   UNL     1     106.010 100.530 100.321  1.00  0.00    -0.275 OA
ATOM     12  N   UNL     1     107.670 101.459 101.686  1.00  0.00    -0.352 N 
ATOM     13  H   UNL     1     107.884 102.057 102.516  1.00  0.00     0.163 HD
BRANCH  12  14
ATOM     14  C   UNL     1     108.779 100.804 100.997  1.00  0.00     0.151 C 
BRANCH  14  15
ATOM     15  C   UNL     1     110.070 101.519 101.290  1.00  0.00    -0.025 A 
ATOM     16  C   UNL     1     111.304 100.928 100.973  1.00  0.00     0.056 A 
ATOM     17  C   UNL     1     110.045 102.804 101.849  1.00  0.00     0.009 A 
ATOM     18  C   UNL     1     112.512 101.610 101.225  1.00  0.00     0.160 A 
ATOM     19  C   UNL     1     111.236 103.485 102.102  1.00  0.00     0.050 A 
ATOM     20  C   UNL     1     112.467 102.896 101.795  1.00  0.00     0.157 A 
BRANCH  18  21
ATOM     21  O   UNL     1     113.760 101.047 100.920  1.00  0.00    -0.493 OA
ATOM     22  C   UNL     1     114.382 101.105  99.640  1.00  0.00     0.278 C 
ENDBRANCH  18  21
BRANCH  20  23
ATOM     23  O   UNL     1     113.638 103.605 102.064  1.00  0.00    -0.504 OA
ATOM     24  H   UNL     1     114.516 103.391 101.607  1.00  0.00     0.293 HD
ENDBRANCH  20  23
ENDBRANCH  14  15
ENDBRANCH  12  14
ENDBRANCH   9  10
ENDBRANCH   1   9
TORSDOF 10
ENDMDL
