MODEL 1
REMARK VINA RESULT:    -5.202      0.000      0.000
REMARK INTER + INTRA:          -5.504
REMARK INTER:                  -7.634
REMARK INTRA:                   2.130
REMARK UNBOUND:                 2.130
REMARK SMILES O=c1c(O[C@@H]2O[C@@H](CO)[C@@H](O)[C@@H](O)[C@H]2O)c(-c2ccc(O)c(O)c2)oc2cc(O)cc(O)c12
REMARK SMILES IDX 4 1 3 2 16 3 25 4 2 5 26 6 1 7 33 8 27 9 31 10 28 11 30 12
REMARK SMILES IDX 17 13 18 14 19 15 20 16 24 17 22 18 21 19 23 21 32 23 29 25
REMARK SMILES IDX 5 27 14 28 6 29 12 30 7 31 10 32 15 33 13 35 8 37 9 38 11 40
REMARK H PARENT 21 20 23 22 32 24 29 26 15 34 13 36 9 39 11 41
REMARK Flexibility Score: inf
ROOT
ATOM      1  O   UNL     1     -11.384  63.238  40.411  1.00  0.00    -0.454 OA
ENDROOT
BRANCH   1   2
ATOM      2  C   UNL     1     -10.523  63.354  41.523  1.00  0.00     0.214 A 
ATOM      3  C   UNL     1      -9.663  64.465  41.699  1.00  0.00     0.180 A 
ATOM      4  O   UNL     1      -9.321  64.791  42.960  1.00  0.00    -0.452 OA
ATOM      5  C   UNL     1     -10.440  62.325  42.434  1.00  0.00     0.239 A 
ATOM      6  C   UNL     1      -9.394  63.893  43.955  1.00  0.00     0.146 A 
ATOM      7  O   UNL     1     -10.950  61.196  42.184  1.00  0.00    -0.285 OA
ATOM      8  C   UNL     1      -9.831  62.566  43.666  1.00  0.00     0.111 A 
ATOM      9  C   UNL     1      -8.907  64.179  45.241  1.00  0.00     0.094 A 
ATOM     10  C   UNL     1      -9.634  61.533  44.617  1.00  0.00     0.134 A 
ATOM     11  C   UNL     1      -8.811  63.192  46.227  1.00  0.00     0.123 A 
ATOM     12  C   UNL     1      -9.100  61.853  45.891  1.00  0.00     0.093 A 
BRANCH   3  13
ATOM     13  C   UNL     1      -8.616  64.708  40.675  1.00  0.00     0.025 A 
ATOM     14  C   UNL     1      -8.890  64.595  39.309  1.00  0.00     0.016 A 
ATOM     15  C   UNL     1      -8.022  65.178  38.378  1.00  0.00     0.051 A 
ATOM     16  C   UNL     1      -6.990  66.044  38.807  1.00  0.00     0.157 A 
ATOM     17  C   UNL     1      -7.510  65.466  41.097  1.00  0.00     0.062 A 
ATOM     18  C   UNL     1      -6.748  66.221  40.175  1.00  0.00     0.158 A 
BRANCH  16  19
ATOM     19  O   UNL     1      -6.310  66.830  37.879  1.00  0.00    -0.504 OA
ATOM     20  H   UNL     1      -5.316  67.006  37.893  1.00  0.00     0.293 HD
ENDBRANCH  16  19
BRANCH  18  21
ATOM     21  O   UNL     1      -5.762  67.125  40.590  1.00  0.00    -0.504 OA
ATOM     22  H   UNL     1      -5.775  68.122  40.309  1.00  0.00     0.293 HD
ENDBRANCH  18  21
ENDBRANCH   3  13
BRANCH  10  23
ATOM     23  O   UNL     1      -9.912  60.219  44.284  1.00  0.00    -0.507 OA
ATOM     24  H   UNL     1     -10.687  59.989  43.634  1.00  0.00     0.293 HD
ENDBRANCH  10  23
BRANCH  11  25
ATOM     25  O   UNL     1      -8.425  63.534  47.526  1.00  0.00    -0.508 OA
ATOM     26  H   UNL     1      -8.426  64.509  47.849  1.00  0.00     0.293 HD
ENDBRANCH  11  25
ENDBRANCH   1   2
BRANCH   1  27
ATOM     27  C   UNL     1     -11.611  62.106  39.550  1.00  0.00     0.339 C 
ATOM     28  C   UNL     1     -11.997  60.866  40.409  1.00  0.00     0.214 C 
ATOM     29  O   UNL     1     -12.553  62.394  38.514  1.00  0.00    -0.332 OA
ATOM     30  C   UNL     1     -13.493  60.812  40.803  1.00  0.00     0.180 C 
ATOM     31  C   UNL     1     -13.873  62.476  39.016  1.00  0.00     0.179 C 
ATOM     32  C   UNL     1     -14.373  61.099  39.562  1.00  0.00     0.177 C 
BRANCH  28  33
ATOM     33  O   UNL     1     -11.580  59.657  39.788  1.00  0.00    -0.384 OA
ATOM     34  H   UNL     1     -10.684  59.816  39.374  1.00  0.00     0.211 HD
ENDBRANCH  28  33
BRANCH  30  35
ATOM     35  O   UNL     1     -13.769  59.553  41.383  1.00  0.00    -0.387 OA
ATOM     36  H   UNL     1     -14.667  59.279  41.094  1.00  0.00     0.211 HD
ENDBRANCH  30  35
BRANCH  31  37
ATOM     37  C   UNL     1     -14.816  63.029  37.935  1.00  0.00     0.191 C 
BRANCH  37  38
ATOM     38  O   UNL     1     -15.155  64.365  38.211  1.00  0.00    -0.394 OA
ATOM     39  H   UNL     1     -14.485  64.668  38.863  1.00  0.00     0.210 HD
ENDBRANCH  37  38
ENDBRANCH  31  37
BRANCH  32  40
ATOM     40  O   UNL     1     -14.405  60.024  38.640  1.00  0.00    -0.387 OA
ATOM     41  H   UNL     1     -14.940  59.274  38.997  1.00  0.00     0.211 HD
ENDBRANCH  32  40
ENDBRANCH   1  27
TORSDOF 12
ENDMDL
MODEL 2
REMARK VINA RESULT:    -4.649      1.145      2.079
REMARK INTER + INTRA:          -4.693
REMARK INTER:                  -3.664
REMARK INTRA:                  -1.029
REMARK UNBOUND:                 2.130
REMARK SMILES O=c1c(O[C@@H]2O[C@@H](CO)[C@@H](O)[C@@H](O)[C@H]2O)c(-c2ccc(O)c(O)c2)oc2cc(O)cc(O)c12
REMARK SMILES IDX 4 1 3 2 16 3 25 4 2 5 26 6 1 7 33 8 27 9 31 10 28 11 30 12
REMARK SMILES IDX 17 13 18 14 19 15 20 16 24 17 22 18 21 19 23 21 32 23 29 25
REMARK SMILES IDX 5 27 14 28 6 29 12 30 7 31 10 32 15 33 13 35 8 37 9 38 11 40
REMARK H PARENT 21 20 23 22 32 24 29 26 15 34 13 36 9 39 11 41
REMARK Flexibility Score: inf
ROOT
ATOM      1  O   UNL     1     -11.034  62.322  40.197  1.00  0.00    -0.454 OA
ENDROOT
BRANCH   1   2
ATOM      2  C   UNL     1     -10.307  62.750  41.327  1.00  0.00     0.214 A 
ATOM      3  C   UNL     1      -9.732  64.041  41.411  1.00  0.00     0.180 A 
ATOM      4  O   UNL     1      -9.565  64.569  42.638  1.00  0.00    -0.452 OA
ATOM      5  C   UNL     1     -10.065  61.870  42.358  1.00  0.00     0.239 A 
ATOM      6  C   UNL     1      -9.511  63.788  43.730  1.00  0.00     0.146 A 
ATOM      7  O   UNL     1     -10.290  60.633  42.221  1.00  0.00    -0.285 OA
ATOM      8  C   UNL     1      -9.618  62.373  43.581  1.00  0.00     0.111 A 
ATOM      9  C   UNL     1      -9.197  64.312  44.995  1.00  0.00     0.094 A 
ATOM     10  C   UNL     1      -9.268  61.520  44.657  1.00  0.00     0.134 A 
ATOM     11  C   UNL     1      -8.957  63.484  46.095  1.00  0.00     0.123 A 
ATOM     12  C   UNL     1      -8.915  62.087  45.908  1.00  0.00     0.093 A 
BRANCH   3  13
ATOM     13  C   UNL     1      -8.691  64.409  40.417  1.00  0.00     0.025 A 
ATOM     14  C   UNL     1      -8.978  64.479  39.051  1.00  0.00     0.016 A 
ATOM     15  C   UNL     1      -8.113  65.173  38.197  1.00  0.00     0.051 A 
ATOM     16  C   UNL     1      -7.069  65.967  38.726  1.00  0.00     0.157 A 
ATOM     17  C   UNL     1      -7.575  65.095  40.925  1.00  0.00     0.062 A 
ATOM     18  C   UNL     1      -6.815  65.959  40.103  1.00  0.00     0.158 A 
BRANCH  16  19
ATOM     19  O   UNL     1      -6.391  66.862  37.902  1.00  0.00    -0.504 OA
ATOM     20  H   UNL     1      -5.530  67.330  38.147  1.00  0.00     0.293 HD
ENDBRANCH  16  19
BRANCH  18  21
ATOM     21  O   UNL     1      -5.817  66.793  40.623  1.00  0.00    -0.504 OA
ATOM     22  H   UNL     1      -5.531  66.757  41.617  1.00  0.00     0.293 HD
ENDBRANCH  18  21
ENDBRANCH   3  13
BRANCH  10  23
ATOM     23  O   UNL     1      -9.220  60.149  44.471  1.00  0.00    -0.507 OA
ATOM     24  H   UNL     1      -9.984  59.655  43.973  1.00  0.00     0.293 HD
ENDBRANCH  10  23
BRANCH  11  25
ATOM     25  O   UNL     1      -8.756  64.041  47.361  1.00  0.00    -0.508 OA
ATOM     26  H   UNL     1      -7.815  64.152  47.757  1.00  0.00     0.293 HD
ENDBRANCH  11  25
ENDBRANCH   1   2
BRANCH   1  27
ATOM     27  C   UNL     1     -12.451  62.395  39.945  1.00  0.00     0.339 C 
ATOM     28  C   UNL     1     -12.804  61.525  38.703  1.00  0.00     0.214 C 
ATOM     29  O   UNL     1     -13.225  62.071  41.103  1.00  0.00    -0.332 OA
ATOM     30  C   UNL     1     -12.981  60.019  39.015  1.00  0.00     0.180 C 
ATOM     31  C   UNL     1     -13.186  60.686  41.386  1.00  0.00     0.179 C 
ATOM     32  C   UNL     1     -13.878  59.845  40.265  1.00  0.00     0.177 C 
BRANCH  28  33
ATOM     33  O   UNL     1     -13.932  62.046  38.011  1.00  0.00    -0.384 OA
ATOM     34  H   UNL     1     -14.755  61.763  38.506  1.00  0.00     0.211 HD
ENDBRANCH  28  33
BRANCH  30  35
ATOM     35  O   UNL     1     -13.509  59.373  37.875  1.00  0.00    -0.387 OA
ATOM     36  H   UNL     1     -14.483  59.507  37.878  1.00  0.00     0.211 HD
ENDBRANCH  30  35
BRANCH  31  37
ATOM     37  C   UNL     1     -13.811  60.411  42.764  1.00  0.00     0.191 C 
BRANCH  37  38
ATOM     38  O   UNL     1     -12.933  60.795  43.791  1.00  0.00    -0.394 OA
ATOM     39  H   UNL     1     -12.405  59.989  43.989  1.00  0.00     0.210 HD
ENDBRANCH  37  38
ENDBRANCH  31  37
BRANCH  32  40
ATOM     40  O   UNL     1     -15.244  60.123  40.014  1.00  0.00    -0.387 OA
ATOM     41  H   UNL     1     -15.361  61.058  39.716  1.00  0.00     0.211 HD
ENDBRANCH  32  40
ENDBRANCH   1  27
TORSDOF 12
ENDMDL
MODEL 3
REMARK VINA RESULT:    -3.580      1.811      5.778
REMARK INTER + INTRA:          -3.124
REMARK INTER:                  -2.313
REMARK INTRA:                  -0.811
REMARK UNBOUND:                 2.130
REMARK SMILES O=c1c(O[C@@H]2O[C@@H](CO)[C@@H](O)[C@@H](O)[C@H]2O)c(-c2ccc(O)c(O)c2)oc2cc(O)cc(O)c12
REMARK SMILES IDX 4 1 3 2 16 3 25 4 2 5 26 6 1 7 33 8 27 9 31 10 28 11 30 12
REMARK SMILES IDX 17 13 18 14 19 15 20 16 24 17 22 18 21 19 23 21 32 23 29 25
REMARK SMILES IDX 5 27 14 28 6 29 12 30 7 31 10 32 15 33 13 35 8 37 9 38 11 40
REMARK H PARENT 21 20 23 22 32 24 29 26 15 34 13 36 9 39 11 41
REMARK Flexibility Score: inf
ROOT
ATOM      1  O   UNL     1      -9.048  63.186  41.903  1.00  0.00    -0.454 OA
ENDROOT
BRANCH   1   2
ATOM      2  C   UNL     1      -9.287  62.841  43.249  1.00  0.00     0.214 A 
ATOM      3  C   UNL     1      -9.638  61.527  43.641  1.00  0.00     0.180 A 
ATOM      4  O   UNL     1      -9.309  61.142  44.889  1.00  0.00    -0.452 OA
ATOM      5  C   UNL     1      -9.268  63.819  44.219  1.00  0.00     0.239 A 
ATOM      6  C   UNL     1      -9.081  62.044  45.858  1.00  0.00     0.146 A 
ATOM      7  O   UNL     1      -9.255  65.043  43.906  1.00  0.00    -0.285 OA
ATOM      8  C   UNL     1      -9.204  63.433  45.559  1.00  0.00     0.111 A 
ATOM      9  C   UNL     1      -8.877  61.655  47.192  1.00  0.00     0.094 A 
ATOM     10  C   UNL     1      -9.266  64.380  46.612  1.00  0.00     0.134 A 
ATOM     11  C   UNL     1      -8.824  62.589  48.230  1.00  0.00     0.123 A 
ATOM     12  C   UNL     1      -9.098  63.944  47.951  1.00  0.00     0.093 A 
BRANCH   3  13
ATOM     13  C   UNL     1     -10.902  60.954  43.114  1.00  0.00     0.025 A 
ATOM     14  C   UNL     1     -12.074  60.946  43.876  1.00  0.00     0.016 A 
ATOM     15  C   UNL     1     -13.308  60.754  43.245  1.00  0.00     0.051 A 
ATOM     16  C   UNL     1     -13.402  60.769  41.835  1.00  0.00     0.157 A 
ATOM     17  C   UNL     1     -10.987  60.839  41.716  1.00  0.00     0.062 A 
ATOM     18  C   UNL     1     -12.239  60.847  41.058  1.00  0.00     0.158 A 
BRANCH  16  19
ATOM     19  O   UNL     1     -14.649  60.853  41.221  1.00  0.00    -0.504 OA
ATOM     20  H   UNL     1     -15.447  61.339  41.603  1.00  0.00     0.293 HD
ENDBRANCH  16  19
BRANCH  18  21
ATOM     21  O   UNL     1     -12.346  60.920  39.663  1.00  0.00    -0.504 OA
ATOM     22  H   UNL     1     -13.157  60.529  39.151  1.00  0.00     0.293 HD
ENDBRANCH  18  21
ENDBRANCH   3  13
BRANCH  10  23
ATOM     23  O   UNL     1      -9.541  65.709  46.338  1.00  0.00    -0.507 OA
ATOM     24  H   UNL     1     -10.451  65.987  45.924  1.00  0.00     0.293 HD
ENDBRANCH  10  23
BRANCH  11  25
ATOM     25  O   UNL     1      -8.511  62.177  49.528  1.00  0.00    -0.508 OA
ATOM     26  H   UNL     1      -9.158  62.328  50.313  1.00  0.00     0.293 HD
ENDBRANCH  11  25
ENDBRANCH   1   2
BRANCH   1  27
ATOM     27  C   UNL     1      -9.423  64.380  41.188  1.00  0.00     0.339 C 
ATOM     28  C   UNL     1      -8.150  65.216  40.864  1.00  0.00     0.214 C 
ATOM     29  O   UNL     1     -10.222  64.093  40.037  1.00  0.00    -0.332 OA
ATOM     30  C   UNL     1      -7.392  64.747  39.598  1.00  0.00     0.180 C 
ATOM     31  C   UNL     1      -9.453  63.523  38.997  1.00  0.00     0.179 C 
ATOM     32  C   UNL     1      -8.395  64.528  38.438  1.00  0.00     0.177 C 
BRANCH  28  33
ATOM     33  O   UNL     1      -8.445  66.605  40.807  1.00  0.00    -0.384 OA
ATOM     34  H   UNL     1      -7.586  67.097  40.662  1.00  0.00     0.211 HD
ENDBRANCH  28  33
BRANCH  30  35
ATOM     35  O   UNL     1      -6.398  65.699  39.281  1.00  0.00    -0.387 OA
ATOM     36  H   UNL     1      -6.514  65.954  38.339  1.00  0.00     0.211 HD
ENDBRANCH  30  35
BRANCH  31  37
ATOM     37  C   UNL     1     -10.376  63.000  37.883  1.00  0.00     0.191 C 
BRANCH  37  38
ATOM     38  O   UNL     1     -11.725  63.190  38.229  1.00  0.00    -0.394 OA
ATOM     39  H   UNL     1     -11.787  64.132  38.502  1.00  0.00     0.210 HD
ENDBRANCH  37  38
ENDBRANCH  31  37
BRANCH  32  40
ATOM     40  O   UNL     1      -8.893  65.738  37.895  1.00  0.00    -0.387 OA
ATOM     41  H   UNL     1      -8.902  66.451  38.580  1.00  0.00     0.211 HD
ENDBRANCH  32  40
ENDBRANCH   1  27
TORSDOF 12
ENDMDL
MODEL 4
REMARK VINA RESULT:    -3.202      1.373      5.028
REMARK INTER + INTRA:          -2.569
REMARK INTER:                  -1.322
REMARK INTRA:                  -1.248
REMARK UNBOUND:                 2.130
REMARK SMILES O=c1c(O[C@@H]2O[C@@H](CO)[C@@H](O)[C@@H](O)[C@H]2O)c(-c2ccc(O)c(O)c2)oc2cc(O)cc(O)c12
REMARK SMILES IDX 4 1 3 2 16 3 25 4 2 5 26 6 1 7 33 8 27 9 31 10 28 11 30 12
REMARK SMILES IDX 17 13 18 14 19 15 20 16 24 17 22 18 21 19 23 21 32 23 29 25
REMARK SMILES IDX 5 27 14 28 6 29 12 30 7 31 10 32 15 33 13 35 8 37 9 38 11 40
REMARK H PARENT 21 20 23 22 32 24 29 26 15 34 13 36 9 39 11 41
REMARK Flexibility Score: inf
ROOT
ATOM      1  O   UNL     1     -11.718  62.676  40.189  1.00  0.00    -0.454 OA
ENDROOT
BRANCH   1   2
ATOM      2  C   UNL     1     -10.454  63.262  40.408  1.00  0.00     0.214 A 
ATOM      3  C   UNL     1      -9.487  62.677  41.259  1.00  0.00     0.180 A 
ATOM      4  O   UNL     1      -8.192  62.938  41.001  1.00  0.00    -0.452 OA
ATOM      5  C   UNL     1     -10.163  64.488  39.851  1.00  0.00     0.239 A 
ATOM      6  C   UNL     1      -7.828  64.020  40.293  1.00  0.00     0.146 A 
ATOM      7  O   UNL     1     -11.073  65.196  39.331  1.00  0.00    -0.285 OA
ATOM      8  C   UNL     1      -8.835  64.913  39.819  1.00  0.00     0.111 A 
ATOM      9  C   UNL     1      -6.479  64.379  40.139  1.00  0.00     0.094 A 
ATOM     10  C   UNL     1      -8.472  66.197  39.340  1.00  0.00     0.134 A 
ATOM     11  C   UNL     1      -6.104  65.597  39.565  1.00  0.00     0.123 A 
ATOM     12  C   UNL     1      -7.100  66.540  39.237  1.00  0.00     0.093 A 
BRANCH   3  13
ATOM     13  C   UNL     1      -9.827  62.515  42.696  1.00  0.00     0.025 A 
ATOM     14  C   UNL     1     -10.065  61.256  43.254  1.00  0.00     0.016 A 
ATOM     15  C   UNL     1     -10.011  61.093  44.643  1.00  0.00     0.051 A 
ATOM     16  C   UNL     1      -9.525  62.133  45.468  1.00  0.00     0.157 A 
ATOM     17  C   UNL     1      -9.467  63.585  43.534  1.00  0.00     0.062 A 
ATOM     18  C   UNL     1      -9.216  63.380  44.911  1.00  0.00     0.158 A 
BRANCH  16  19
ATOM     19  O   UNL     1      -9.217  61.877  46.802  1.00  0.00    -0.504 OA
ATOM     20  H   UNL     1      -9.898  61.768  47.539  1.00  0.00     0.293 HD
ENDBRANCH  16  19
BRANCH  18  21
ATOM     21  O   UNL     1      -8.680  64.385  45.726  1.00  0.00    -0.504 OA
ATOM     22  H   UNL     1      -8.090  65.147  45.347  1.00  0.00     0.293 HD
ENDBRANCH  18  21
ENDBRANCH   3  13
BRANCH  10  23
ATOM     23  O   UNL     1      -9.451  67.124  39.025  1.00  0.00    -0.507 OA
ATOM     24  H   UNL     1     -10.281  67.247  39.636  1.00  0.00     0.293 HD
ENDBRANCH  10  23
BRANCH  11  25
ATOM     25  O   UNL     1      -4.754  65.874  39.328  1.00  0.00    -0.508 OA
ATOM     26  H   UNL     1      -4.380  66.828  39.395  1.00  0.00     0.293 HD
ENDBRANCH  11  25
ENDBRANCH   1   2
BRANCH   1  27
ATOM     27  C   UNL     1     -12.111  61.701  39.203  1.00  0.00     0.339 C 
ATOM     28  C   UNL     1     -12.555  60.390  39.914  1.00  0.00     0.214 C 
ATOM     29  O   UNL     1     -13.090  62.214  38.295  1.00  0.00    -0.332 OA
ATOM     30  C   UNL     1     -14.019  60.408  40.417  1.00  0.00     0.180 C 
ATOM     31  C   UNL     1     -14.357  62.337  38.909  1.00  0.00     0.179 C 
ATOM     32  C   UNL     1     -14.950  60.944  39.301  1.00  0.00     0.177 C 
BRANCH  28  33
ATOM     33  O   UNL     1     -12.300  59.250  39.103  1.00  0.00    -0.384 OA
ATOM     34  H   UNL     1     -13.035  58.589  39.261  1.00  0.00     0.211 HD
ENDBRANCH  28  33
BRANCH  30  35
ATOM     35  O   UNL     1     -14.375  59.108  40.840  1.00  0.00    -0.387 OA
ATOM     36  H   UNL     1     -13.711  58.816  41.504  1.00  0.00     0.211 HD
ENDBRANCH  30  35
BRANCH  31  37
ATOM     37  C   UNL     1     -15.315  63.118  37.992  1.00  0.00     0.191 C 
BRANCH  37  38
ATOM     38  O   UNL     1     -15.225  64.497  38.245  1.00  0.00    -0.394 OA
ATOM     39  H   UNL     1     -16.006  64.889  37.793  1.00  0.00     0.210 HD
ENDBRANCH  37  38
ENDBRANCH  31  37
BRANCH  32  40
ATOM     40  O   UNL     1     -15.148  60.019  38.248  1.00  0.00    -0.387 OA
ATOM     41  H   UNL     1     -14.287  59.630  37.957  1.00  0.00     0.211 HD
ENDBRANCH  32  40
ENDBRANCH   1  27
TORSDOF 12
ENDMDL
MODEL 5
REMARK VINA RESULT:    -2.219      1.727      6.325
REMARK INTER + INTRA:          -1.126
REMARK INTER:                  -0.461
REMARK INTRA:                  -0.665
REMARK UNBOUND:                 2.130
REMARK SMILES O=c1c(O[C@@H]2O[C@@H](CO)[C@@H](O)[C@@H](O)[C@H]2O)c(-c2ccc(O)c(O)c2)oc2cc(O)cc(O)c12
REMARK SMILES IDX 4 1 3 2 16 3 25 4 2 5 26 6 1 7 33 8 27 9 31 10 28 11 30 12
REMARK SMILES IDX 17 13 18 14 19 15 20 16 24 17 22 18 21 19 23 21 32 23 29 25
REMARK SMILES IDX 5 27 14 28 6 29 12 30 7 31 10 32 15 33 13 35 8 37 9 38 11 40
REMARK H PARENT 21 20 23 22 32 24 29 26 15 34 13 36 9 39 11 41
REMARK Flexibility Score: inf
ROOT
ATOM      1  O   UNL     1      -8.319  65.121  41.884  1.00  0.00    -0.454 OA
ENDROOT
BRANCH   1   2
ATOM      2  C   UNL     1      -8.799  64.362  42.971  1.00  0.00     0.214 A 
ATOM      3  C   UNL     1      -9.285  63.041  42.814  1.00  0.00     0.180 A 
ATOM      4  O   UNL     1      -9.192  62.215  43.872  1.00  0.00    -0.452 OA
ATOM      5  C   UNL     1      -8.886  64.934  44.221  1.00  0.00     0.239 A 
ATOM      6  C   UNL     1      -9.078  62.694  45.122  1.00  0.00     0.146 A 
ATOM      7  O   UNL     1      -8.751  66.182  44.372  1.00  0.00    -0.285 OA
ATOM      8  C   UNL     1      -9.070  64.106  45.328  1.00  0.00     0.111 A 
ATOM      9  C   UNL     1      -9.123  61.847  46.241  1.00  0.00     0.094 A 
ATOM     10  C   UNL     1      -9.253  64.631  46.632  1.00  0.00     0.134 A 
ATOM     11  C   UNL     1      -9.191  62.353  47.543  1.00  0.00     0.123 A 
ATOM     12  C   UNL     1      -9.336  63.743  47.735  1.00  0.00     0.093 A 
BRANCH   3  13
ATOM     13  C   UNL     1     -10.475  62.832  41.949  1.00  0.00     0.025 A 
ATOM     14  C   UNL     1     -10.887  63.799  41.029  1.00  0.00     0.016 A 
ATOM     15  C   UNL     1     -11.755  63.440  39.990  1.00  0.00     0.051 A 
ATOM     16  C   UNL     1     -12.054  62.081  39.746  1.00  0.00     0.157 A 
ATOM     17  C   UNL     1     -10.880  61.497  41.778  1.00  0.00     0.062 A 
ATOM     18  C   UNL     1     -11.589  61.093  40.623  1.00  0.00     0.158 A 
BRANCH  16  19
ATOM     19  O   UNL     1     -12.687  61.710  38.561  1.00  0.00    -0.504 OA
ATOM     20  H   UNL     1     -12.484  60.870  38.039  1.00  0.00     0.293 HD
ENDBRANCH  16  19
BRANCH  18  21
ATOM     21  O   UNL     1     -11.842  59.745  40.340  1.00  0.00    -0.504 OA
ATOM     22  H   UNL     1     -11.121  59.121  39.936  1.00  0.00     0.293 HD
ENDBRANCH  18  21
ENDBRANCH   3  13
BRANCH  10  23
ATOM     23  O   UNL     1      -9.402  65.994  46.819  1.00  0.00    -0.507 OA
ATOM     24  H   UNL     1      -9.793  66.368  47.704  1.00  0.00     0.293 HD
ENDBRANCH  10  23
BRANCH  11  25
ATOM     25  O   UNL     1      -9.125  61.485  48.636  1.00  0.00    -0.508 OA
ATOM     26  H   UNL     1      -9.972  61.145  49.108  1.00  0.00     0.293 HD
ENDBRANCH  11  25
ENDBRANCH   1   2
BRANCH   1  27
ATOM     27  C   UNL     1      -7.745  64.671  40.642  1.00  0.00     0.339 C 
ATOM     28  C   UNL     1      -8.521  65.305  39.450  1.00  0.00     0.214 C 
ATOM     29  O   UNL     1      -6.334  64.895  40.584  1.00  0.00    -0.332 OA
ATOM     30  C   UNL     1      -8.064  66.741  39.091  1.00  0.00     0.180 C 
ATOM     31  C   UNL     1      -6.029  66.265  40.410  1.00  0.00     0.179 C 
ATOM     32  C   UNL     1      -6.518  66.797  39.025  1.00  0.00     0.177 C 
BRANCH  28  33
ATOM     33  O   UNL     1      -8.502  64.456  38.310  1.00  0.00    -0.384 OA
ATOM     34  H   UNL     1      -8.806  63.547  38.598  1.00  0.00     0.211 HD
ENDBRANCH  28  33
BRANCH  30  35
ATOM     35  O   UNL     1      -8.673  67.125  37.876  1.00  0.00    -0.387 OA
ATOM     36  H   UNL     1      -8.663  66.346  37.275  1.00  0.00     0.211 HD
ENDBRANCH  30  35
BRANCH  31  37
ATOM     37  C   UNL     1      -4.522  66.499  40.604  1.00  0.00     0.191 C 
BRANCH  37  38
ATOM     38  O   UNL     1      -3.780  65.723  39.697  1.00  0.00    -0.394 OA
ATOM     39  H   UNL     1      -3.192  65.169  40.257  1.00  0.00     0.210 HD
ENDBRANCH  37  38
ENDBRANCH  31  37
BRANCH  32  40
ATOM     40  O   UNL     1      -5.986  66.162  37.876  1.00  0.00    -0.387 OA
ATOM     41  H   UNL     1      -5.004  66.274  37.838  1.00  0.00     0.211 HD
ENDBRANCH  32  40
ENDBRANCH   1  27
TORSDOF 12
ENDMDL
