MODEL 1
REMARK VINA RESULT:    -3.983      0.000      0.000
REMARK INTER + INTRA:          -3.983
REMARK INTER:                  -3.983
REMARK INTRA:                   0.000
REMARK UNBOUND:                 0.000
REMARK SMILES CC1=CC(=O)[C@@H]2C[C@H]1C2(C)C
REMARK SMILES IDX 1 1 2 2 3 3 4 4 5 5 6 6 7 7 8 8 9 9 10 10 11 11
REMARK H PARENT
REMARK Flexibility Score: inf
ROOT
ATOM      1  C   UNL     1      -0.932  16.207   1.238  1.00  0.00     0.040 C 
ATOM      2  C   UNL     1      -1.324  14.938   1.925  1.00  0.00    -0.066 C 
ATOM      3  C   UNL     1      -1.529  13.788   1.225  1.00  0.00     0.047 C 
ATOM      4  C   UNL     1      -1.887  12.577   2.032  1.00  0.00     0.159 C 
ATOM      5  O   UNL     1      -2.063  11.446   1.507  1.00  0.00    -0.295 OA
ATOM      6  C   UNL     1      -2.024  12.809   3.537  1.00  0.00     0.067 C 
ATOM      7  C   UNL     1      -2.861  14.103   3.644  1.00  0.00     0.021 C 
ATOM      8  C   UNL     1      -1.535  14.873   3.453  1.00  0.00     0.022 C 
ATOM      9  C   UNL     1      -0.795  13.629   4.025  1.00  0.00    -0.019 C 
ATOM     10  C   UNL     1      -0.688  13.666   5.570  1.00  0.00     0.012 C 
ATOM     11  C   UNL     1       0.605  13.276   3.447  1.00  0.00     0.012 C 
ENDROOT
TORSDOF 0
ENDMDL
MODEL 2
REMARK VINA RESULT:    -3.887      9.141     10.297
REMARK INTER + INTRA:          -3.887
REMARK INTER:                  -3.887
REMARK INTRA:                   0.000
REMARK UNBOUND:                 0.000
REMARK SMILES CC1=CC(=O)[C@@H]2C[C@H]1C2(C)C
REMARK SMILES IDX 1 1 2 2 3 3 4 4 5 5 6 6 7 7 8 8 9 9 10 10 11 11
REMARK H PARENT
REMARK Flexibility Score: inf
ROOT
ATOM      1  C   UNL     1       2.037   9.094  -3.952  1.00  0.00     0.040 C 
ATOM      2  C   UNL     1       0.739   8.466  -4.347  1.00  0.00    -0.066 C 
ATOM      3  C   UNL     1      -0.129   9.101  -5.183  1.00  0.00     0.047 C 
ATOM      4  C   UNL     1      -1.382   8.354  -5.528  1.00  0.00     0.159 C 
ATOM      5  O   UNL     1      -2.244   8.816  -6.320  1.00  0.00    -0.295 OA
ATOM      6  C   UNL     1      -1.539   6.991  -4.852  1.00  0.00     0.067 C 
ATOM      7  C   UNL     1      -1.161   7.255  -3.377  1.00  0.00     0.021 C 
ATOM      8  C   UNL     1       0.311   7.081  -3.815  1.00  0.00     0.022 C 
ATOM      9  C   UNL     1      -0.203   6.209  -4.998  1.00  0.00    -0.019 C 
ATOM     10  C   UNL     1      -0.348   4.716  -4.608  1.00  0.00     0.012 C 
ATOM     11  C   UNL     1       0.555   6.288  -6.353  1.00  0.00     0.012 C 
ENDROOT
TORSDOF 0
ENDMDL
MODEL 3
REMARK VINA RESULT:    -3.851      9.467     10.995
REMARK INTER + INTRA:          -3.851
REMARK INTER:                  -3.851
REMARK INTRA:                   0.000
REMARK UNBOUND:                 0.000
REMARK SMILES CC1=CC(=O)[C@@H]2C[C@H]1C2(C)C
REMARK SMILES IDX 1 1 2 2 3 3 4 4 5 5 6 6 7 7 8 8 9 9 10 10 11 11
REMARK H PARENT
REMARK Flexibility Score: inf
ROOT
ATOM      1  C   UNL     1       0.499   5.492  -7.263  1.00  0.00     0.040 C 
ATOM      2  C   UNL     1      -0.017   6.843  -6.882  1.00  0.00    -0.066 C 
ATOM      3  C   UNL     1      -1.256   7.261  -7.262  1.00  0.00     0.047 C 
ATOM      4  C   UNL     1      -1.669   8.623  -6.791  1.00  0.00     0.159 C 
ATOM      5  O   UNL     1      -2.803   9.107  -7.043  1.00  0.00    -0.295 OA
ATOM      6  C   UNL     1      -0.616   9.384  -5.985  1.00  0.00     0.067 C 
ATOM      7  C   UNL     1       0.689   9.190  -6.789  1.00  0.00     0.021 C 
ATOM      8  C   UNL     1       0.834   7.835  -6.060  1.00  0.00     0.022 C 
ATOM      9  C   UNL     1      -0.030   8.426  -4.908  1.00  0.00    -0.019 C 
ATOM     10  C   UNL     1       0.826   9.176  -3.856  1.00  0.00     0.012 C 
ATOM     11  C   UNL     1      -1.004   7.475  -4.157  1.00  0.00     0.012 C 
ENDROOT
TORSDOF 0
ENDMDL
MODEL 4
REMARK VINA RESULT:    -3.762      1.120      2.641
REMARK INTER + INTRA:          -3.762
REMARK INTER:                  -3.762
REMARK INTRA:                   0.000
REMARK UNBOUND:                 0.000
REMARK SMILES CC1=CC(=O)[C@@H]2C[C@H]1C2(C)C
REMARK SMILES IDX 1 1 2 2 3 3 4 4 5 5 6 6 7 7 8 8 9 9 10 10 11 11
REMARK H PARENT
REMARK Flexibility Score: inf
ROOT
ATOM      1  C   UNL     1       1.087  14.285   5.145  1.00  0.00     0.040 C 
ATOM      2  C   UNL     1       0.044  14.101   4.090  1.00  0.00    -0.066 C 
ATOM      3  C   UNL     1       0.170  13.145   3.128  1.00  0.00     0.047 C 
ATOM      4  C   UNL     1      -0.958  13.040   2.147  1.00  0.00     0.159 C 
ATOM      5  O   UNL     1      -0.979  12.172   1.235  1.00  0.00    -0.295 OA
ATOM      6  C   UNL     1      -2.083  14.060   2.329  1.00  0.00     0.067 C 
ATOM      7  C   UNL     1      -1.345  15.401   2.541  1.00  0.00     0.021 C 
ATOM      8  C   UNL     1      -1.214  14.994   4.026  1.00  0.00     0.022 C 
ATOM      9  C   UNL     1      -2.474  14.101   3.834  1.00  0.00    -0.019 C 
ATOM     10  C   UNL     1      -3.792  14.880   4.079  1.00  0.00     0.012 C 
ATOM     11  C   UNL     1      -2.549  12.758   4.614  1.00  0.00     0.012 C 
ENDROOT
TORSDOF 0
ENDMDL
MODEL 5
REMARK VINA RESULT:    -3.677      1.302      2.419
REMARK INTER + INTRA:          -3.677
REMARK INTER:                  -3.677
REMARK INTRA:                   0.000
REMARK UNBOUND:                 0.000
REMARK SMILES CC1=CC(=O)[C@@H]2C[C@H]1C2(C)C
REMARK SMILES IDX 1 1 2 2 3 3 4 4 5 5 6 6 7 7 8 8 9 9 10 10 11 11
REMARK H PARENT
REMARK Flexibility Score: inf
ROOT
ATOM      1  C   UNL     1      -3.779  14.857   4.189  1.00  0.00     0.040 C 
ATOM      2  C   UNL     1      -2.469  14.274   3.763  1.00  0.00    -0.066 C 
ATOM      3  C   UNL     1      -2.379  13.447   2.684  1.00  0.00     0.047 C 
ATOM      4  C   UNL     1      -1.006  12.954   2.341  1.00  0.00     0.159 C 
ATOM      5  O   UNL     1      -0.785  12.216   1.345  1.00  0.00    -0.295 OA
ATOM      6  C   UNL     1       0.109  13.409   3.284  1.00  0.00     0.067 C 
ATOM      7  C   UNL     1      -0.478  13.188   4.696  1.00  0.00     0.021 C 
ATOM      8  C   UNL     1      -1.162  14.563   4.533  1.00  0.00     0.022 C 
ATOM      9  C   UNL     1      -0.039  14.939   3.523  1.00  0.00    -0.019 C 
ATOM     10  C   UNL     1       1.202  15.549   4.222  1.00  0.00     0.012 C 
ATOM     11  C   UNL     1      -0.411  15.842   2.313  1.00  0.00     0.012 C 
ENDROOT
TORSDOF 0
ENDMDL
MODEL 6
REMARK VINA RESULT:    -3.649      9.708     10.840
REMARK INTER + INTRA:          -3.649
REMARK INTER:                  -3.649
REMARK INTRA:                   0.000
REMARK UNBOUND:                 0.000
REMARK SMILES CC1=CC(=O)[C@@H]2C[C@H]1C2(C)C
REMARK SMILES IDX 1 1 2 2 3 3 4 4 5 5 6 6 7 7 8 8 9 9 10 10 11 11
REMARK H PARENT
REMARK Flexibility Score: inf
ROOT
ATOM      1  C   UNL     1       2.583   6.280  -3.388  1.00  0.00     0.040 C 
ATOM      2  C   UNL     1       1.103   6.070  -3.354  1.00  0.00    -0.066 C 
ATOM      3  C   UNL     1       0.247   6.961  -3.928  1.00  0.00     0.047 C 
ATOM      4  C   UNL     1      -1.211   6.621  -3.853  1.00  0.00     0.159 C 
ATOM      5  O   UNL     1      -2.098   7.343  -4.378  1.00  0.00    -0.295 OA
ATOM      6  C   UNL     1      -1.546   5.336  -3.095  1.00  0.00     0.067 C 
ATOM      7  C   UNL     1      -0.690   5.421  -1.811  1.00  0.00     0.021 C 
ATOM      8  C   UNL     1       0.472   4.847  -2.652  1.00  0.00     0.022 C 
ATOM      9  C   UNL     1      -0.595   4.208  -3.588  1.00  0.00    -0.019 C 
ATOM     10  C   UNL     1      -1.042   2.806  -3.101  1.00  0.00     0.012 C 
ATOM     11  C   UNL     1      -0.282   4.119  -5.108  1.00  0.00     0.012 C 
ENDROOT
TORSDOF 0
ENDMDL
MODEL 7
REMARK VINA RESULT:    -3.617      9.098     10.545
REMARK INTER + INTRA:          -3.617
REMARK INTER:                  -3.617
REMARK INTRA:                   0.000
REMARK UNBOUND:                 0.000
REMARK SMILES CC1=CC(=O)[C@@H]2C[C@H]1C2(C)C
REMARK SMILES IDX 1 1 2 2 3 3 4 4 5 5 6 6 7 7 8 8 9 9 10 10 11 11
REMARK H PARENT
REMARK Flexibility Score: inf
ROOT
ATOM      1  C   UNL     1       0.500   5.595  -7.359  1.00  0.00     0.040 C 
ATOM      2  C   UNL     1      -0.025   6.307  -6.153  1.00  0.00    -0.066 C 
ATOM      3  C   UNL     1      -0.930   5.720  -5.321  1.00  0.00     0.047 C 
ATOM      4  C   UNL     1      -1.354   6.524  -4.130  1.00  0.00     0.159 C 
ATOM      5  O   UNL     1      -2.155   6.078  -3.267  1.00  0.00    -0.295 OA
ATOM      6  C   UNL     1      -0.747   7.924  -4.035  1.00  0.00     0.067 C 
ATOM      7  C   UNL     1      -0.890   8.496  -5.463  1.00  0.00     0.021 C 
ATOM      8  C   UNL     1       0.417   7.744  -5.801  1.00  0.00     0.022 C 
ATOM      9  C   UNL     1       0.784   7.818  -4.290  1.00  0.00    -0.019 C 
ATOM     10  C   UNL     1       1.534   9.125  -3.929  1.00  0.00     0.012 C 
ATOM     11  C   UNL     1       1.556   6.623  -3.662  1.00  0.00     0.012 C 
ENDROOT
TORSDOF 0
ENDMDL
MODEL 8
REMARK VINA RESULT:    -3.580      8.977     10.645
REMARK INTER + INTRA:          -3.580
REMARK INTER:                  -3.580
REMARK INTRA:                   0.000
REMARK UNBOUND:                 0.000
REMARK SMILES CC1=CC(=O)[C@@H]2C[C@H]1C2(C)C
REMARK SMILES IDX 1 1 2 2 3 3 4 4 5 5 6 6 7 7 8 8 9 9 10 10 11 11
REMARK H PARENT
REMARK Flexibility Score: inf
ROOT
ATOM      1  C   UNL     1       2.600   6.258  -4.393  1.00  0.00     0.040 C 
ATOM      2  C   UNL     1       1.147   6.541  -4.603  1.00  0.00    -0.066 C 
ATOM      3  C   UNL     1       0.205   6.098  -3.724  1.00  0.00     0.047 C 
ATOM      4  C   UNL     1      -1.213   6.474  -4.029  1.00  0.00     0.159 C 
ATOM      5  O   UNL     1      -2.171   6.159  -3.274  1.00  0.00    -0.295 OA
ATOM      6  C   UNL     1      -1.418   7.267  -5.321  1.00  0.00     0.067 C 
ATOM      7  C   UNL     1      -0.560   6.518  -6.364  1.00  0.00     0.021 C 
ATOM      8  C   UNL     1       0.641   7.330  -5.830  1.00  0.00     0.022 C 
ATOM      9  C   UNL     1      -0.371   8.417  -5.366  1.00  0.00    -0.019 C 
ATOM     10  C   UNL     1      -0.678   9.450  -6.480  1.00  0.00     0.012 C 
ATOM     11  C   UNL     1      -0.067   9.191  -4.052  1.00  0.00     0.012 C 
ENDROOT
TORSDOF 0
ENDMDL
MODEL 9
REMARK VINA RESULT:    -3.558      9.389     10.987
REMARK INTER + INTRA:          -3.558
REMARK INTER:                  -3.558
REMARK INTRA:                   0.000
REMARK UNBOUND:                 0.000
REMARK SMILES CC1=CC(=O)[C@@H]2C[C@H]1C2(C)C
REMARK SMILES IDX 1 1 2 2 3 3 4 4 5 5 6 6 7 7 8 8 9 9 10 10 11 11
REMARK H PARENT
REMARK Flexibility Score: inf
ROOT
ATOM      1  C   UNL     1      -1.706   5.616  -3.116  1.00  0.00     0.040 C 
ATOM      2  C   UNL     1      -1.154   6.511  -4.181  1.00  0.00    -0.066 C 
ATOM      3  C   UNL     1      -1.315   7.862  -4.123  1.00  0.00     0.047 C 
ATOM      4  C   UNL     1      -0.689   8.651  -5.233  1.00  0.00     0.159 C 
ATOM      5  O   UNL     1      -0.734   9.908  -5.273  1.00  0.00    -0.295 OA
ATOM      6  C   UNL     1       0.008   7.823  -6.314  1.00  0.00     0.067 C 
ATOM      7  C   UNL     1      -0.992   6.686  -6.621  1.00  0.00     0.021 C 
ATOM      8  C   UNL     1      -0.395   5.949  -5.402  1.00  0.00     0.022 C 
ATOM      9  C   UNL     1       0.912   6.765  -5.619  1.00  0.00    -0.019 C 
ATOM     10  C   UNL     1       1.880   6.073  -6.613  1.00  0.00     0.012 C 
ATOM     11  C   UNL     1       1.726   7.197  -4.366  1.00  0.00     0.012 C 
ENDROOT
TORSDOF 0
ENDMDL
