MODEL 1
REMARK VINA RESULT:    -7.155      0.000      0.000
REMARK INTER + INTRA:         -11.857
REMARK INTER:                 -10.502
REMARK INTRA:                  -1.355
REMARK UNBOUND:                -1.355
REMARK SMILES O=c1c(O[C@H]2O[C@@H](CO)[C@H](O)[C@@H](O)[C@@H]2O)c(-c2ccc(O)c(O)c2)oc2cc(O)cc(O)c12
REMARK SMILES IDX 4 1 3 2 16 3 25 4 2 5 26 6 1 7 33 8 27 9 31 10 28 11 30 12
REMARK SMILES IDX 17 13 18 14 19 15 20 16 24 17 22 18 21 19 23 21 32 23 29 25
REMARK SMILES IDX 5 27 14 28 6 29 12 30 7 31 10 32 15 33 13 35 8 37 9 38 11 40
REMARK H PARENT 21 20 23 22 32 24 29 26 15 34 13 36 9 39 11 41
REMARK Flexibility Score: inf
ROOT
ATOM      1  O   UNL     1       3.195  75.353  40.234  1.00  0.00    -0.454 OA
ENDROOT
BRANCH   1   2
ATOM      2  C   UNL     1       2.696  74.036  40.359  1.00  0.00     0.214 A 
ATOM      3  C   UNL     1       1.418  73.751  39.846  1.00  0.00     0.180 A 
ATOM      4  O   UNL     1       0.912  72.529  39.929  1.00  0.00    -0.452 OA
ATOM      5  C   UNL     1       3.403  72.988  40.992  1.00  0.00     0.239 A 
ATOM      6  C   UNL     1       1.566  71.505  40.459  1.00  0.00     0.146 A 
ATOM      7  O   UNL     1       4.472  73.245  41.605  1.00  0.00    -0.285 OA
ATOM      8  C   UNL     1       2.869  71.674  40.995  1.00  0.00     0.111 A 
ATOM      9  C   UNL     1       0.940  70.257  40.489  1.00  0.00     0.094 A 
ATOM     10  C   UNL     1       3.530  70.530  41.538  1.00  0.00     0.134 A 
ATOM     11  C   UNL     1       1.582  69.158  41.058  1.00  0.00     0.123 A 
ATOM     12  C   UNL     1       2.862  69.300  41.583  1.00  0.00     0.093 A 
BRANCH   3  13
ATOM     13  C   UNL     1       0.608  74.785  39.191  1.00  0.00     0.025 A 
ATOM     14  C   UNL     1       0.954  75.243  37.912  1.00  0.00     0.016 A 
ATOM     15  C   UNL     1       0.225  76.276  37.320  1.00  0.00     0.051 A 
ATOM     16  C   UNL     1      -0.861  76.859  37.989  1.00  0.00     0.157 A 
ATOM     17  C   UNL     1      -0.476  75.360  39.866  1.00  0.00     0.062 A 
ATOM     18  C   UNL     1      -1.225  76.386  39.272  1.00  0.00     0.158 A 
BRANCH  16  19
ATOM     19  O   UNL     1      -1.545  77.893  37.346  1.00  0.00    -0.504 OA
ATOM     20  H   UNL     1      -2.551  77.969  37.311  1.00  0.00     0.293 HD
ENDBRANCH  16  19
BRANCH  18  21
ATOM     21  O   UNL     1      -2.311  76.899  39.987  1.00  0.00    -0.504 OA
ATOM     22  H   UNL     1      -3.205  76.436  40.063  1.00  0.00     0.293 HD
ENDBRANCH  18  21
ENDBRANCH   3  13
BRANCH  10  23
ATOM     23  O   UNL     1       4.842  70.540  42.018  1.00  0.00    -0.507 OA
ATOM     24  H   UNL     1       5.267  71.301  42.526  1.00  0.00     0.293 HD
ENDBRANCH  10  23
BRANCH  11  25
ATOM     25  O   UNL     1       0.958  67.912  41.097  1.00  0.00    -0.508 OA
ATOM     26  H   UNL     1       1.064  67.242  40.345  1.00  0.00     0.293 HD
ENDBRANCH  11  25
ENDBRANCH   1   2
BRANCH   1  27
ATOM     27  C   UNL     1       2.895  76.451  41.106  1.00  0.00     0.339 C 
ATOM     28  C   UNL     1       2.393  77.690  40.336  1.00  0.00     0.214 C 
ATOM     29  O   UNL     1       3.994  76.736  41.960  1.00  0.00    -0.332 OA
ATOM     30  C   UNL     1       3.526  78.367  39.551  1.00  0.00     0.180 C 
ATOM     31  C   UNL     1       5.116  77.342  41.324  1.00  0.00     0.179 C 
ATOM     32  C   UNL     1       4.780  78.568  40.424  1.00  0.00     0.177 C 
BRANCH  28  33
ATOM     33  O   UNL     1       1.819  78.595  41.250  1.00  0.00    -0.384 OA
ATOM     34  H   UNL     1       1.707  78.109  42.109  1.00  0.00     0.211 HD
ENDBRANCH  28  33
BRANCH  30  35
ATOM     35  O   UNL     1       3.847  77.607  38.412  1.00  0.00    -0.387 OA
ATOM     36  H   UNL     1       3.032  77.570  37.844  1.00  0.00     0.211 HD
ENDBRANCH  30  35
BRANCH  31  37
ATOM     37  C   UNL     1       6.078  76.318  40.687  1.00  0.00     0.191 C 
BRANCH  37  38
ATOM     38  O   UNL     1       7.059  76.937  39.910  1.00  0.00    -0.394 OA
ATOM     39  H   UNL     1       7.903  76.442  40.085  1.00  0.00     0.210 HD
ENDBRANCH  37  38
ENDBRANCH  31  37
BRANCH  32  40
ATOM     40  O   UNL     1       4.650  79.737  41.201  1.00  0.00    -0.387 OA
ATOM     41  H   UNL     1       5.559  80.045  41.451  1.00  0.00     0.211 HD
ENDBRANCH  32  40
ENDBRANCH   1  27
TORSDOF 12
ENDMDL
MODEL 2
REMARK VINA RESULT:    -6.881      3.583      5.118
REMARK INTER + INTRA:         -11.454
REMARK INTER:                  -9.590
REMARK INTRA:                  -1.864
REMARK UNBOUND:                -1.355
REMARK SMILES O=c1c(O[C@H]2O[C@@H](CO)[C@H](O)[C@@H](O)[C@@H]2O)c(-c2ccc(O)c(O)c2)oc2cc(O)cc(O)c12
REMARK SMILES IDX 4 1 3 2 16 3 25 4 2 5 26 6 1 7 33 8 27 9 31 10 28 11 30 12
REMARK SMILES IDX 17 13 18 14 19 15 20 16 24 17 22 18 21 19 23 21 32 23 29 25
REMARK SMILES IDX 5 27 14 28 6 29 12 30 7 31 10 32 15 33 13 35 8 37 9 38 11 40
REMARK H PARENT 21 20 23 22 32 24 29 26 15 34 13 36 9 39 11 41
REMARK Flexibility Score: inf
ROOT
ATOM      1  O   UNL     1       3.100  76.048  42.439  1.00  0.00    -0.454 OA
ENDROOT
BRANCH   1   2
ATOM      2  C   UNL     1       1.948  76.115  43.256  1.00  0.00     0.214 A 
ATOM      3  C   UNL     1       0.685  76.042  42.644  1.00  0.00     0.180 A 
ATOM      4  O   UNL     1      -0.423  76.090  43.369  1.00  0.00    -0.452 OA
ATOM      5  C   UNL     1       1.994  76.274  44.661  1.00  0.00     0.239 A 
ATOM      6  C   UNL     1      -0.423  76.176  44.692  1.00  0.00     0.146 A 
ATOM      7  O   UNL     1       3.097  76.507  45.222  1.00  0.00    -0.285 OA
ATOM      8  C   UNL     1       0.795  76.242  45.416  1.00  0.00     0.111 A 
ATOM      9  C   UNL     1      -1.651  76.212  45.357  1.00  0.00     0.094 A 
ATOM     10  C   UNL     1       0.730  76.317  46.841  1.00  0.00     0.134 A 
ATOM     11  C   UNL     1      -1.699  76.326  46.746  1.00  0.00     0.123 A 
ATOM     12  C   UNL     1      -0.517  76.386  47.476  1.00  0.00     0.093 A 
BRANCH   3  13
ATOM     13  C   UNL     1       0.547  75.897  41.189  1.00  0.00     0.025 A 
ATOM     14  C   UNL     1       0.640  74.630  40.598  1.00  0.00     0.016 A 
ATOM     15  C   UNL     1       0.579  74.502  39.209  1.00  0.00     0.051 A 
ATOM     16  C   UNL     1       0.416  75.632  38.393  1.00  0.00     0.157 A 
ATOM     17  C   UNL     1       0.383  77.031  40.383  1.00  0.00     0.062 A 
ATOM     18  C   UNL     1       0.303  76.911  38.989  1.00  0.00     0.158 A 
BRANCH  16  19
ATOM     19  O   UNL     1       0.370  75.438  37.011  1.00  0.00    -0.504 OA
ATOM     20  H   UNL     1      -0.480  75.269  36.493  1.00  0.00     0.293 HD
ENDBRANCH  16  19
BRANCH  18  21
ATOM     21  O   UNL     1       0.112  78.077  38.243  1.00  0.00    -0.504 OA
ATOM     22  H   UNL     1       0.740  78.391  37.517  1.00  0.00     0.293 HD
ENDBRANCH  18  21
ENDBRANCH   3  13
BRANCH  10  23
ATOM     23  O   UNL     1       1.849  76.301  47.676  1.00  0.00    -0.507 OA
ATOM     24  H   UNL     1       1.822  76.361  48.683  1.00  0.00     0.293 HD
ENDBRANCH  10  23
BRANCH  11  25
ATOM     25  O   UNL     1      -2.922  76.370  47.414  1.00  0.00    -0.508 OA
ATOM     26  H   UNL     1      -3.733  75.872  47.069  1.00  0.00     0.293 HD
ENDBRANCH  11  25
ENDBRANCH   1   2
BRANCH   1  27
ATOM     27  C   UNL     1       3.905  77.161  42.028  1.00  0.00     0.339 C 
ATOM     28  C   UNL     1       3.966  77.306  40.493  1.00  0.00     0.214 C 
ATOM     29  O   UNL     1       5.190  77.108  42.632  1.00  0.00    -0.332 OA
ATOM     30  C   UNL     1       4.819  76.200  39.853  1.00  0.00     0.180 C 
ATOM     31  C   UNL     1       6.056  76.094  42.129  1.00  0.00     0.179 C 
ATOM     32  C   UNL     1       6.169  76.035  40.577  1.00  0.00     0.177 C 
BRANCH  28  33
ATOM     33  O   UNL     1       4.486  78.575  40.173  1.00  0.00    -0.384 OA
ATOM     34  H   UNL     1       5.095  78.834  40.915  1.00  0.00     0.211 HD
ENDBRANCH  28  33
BRANCH  30  35
ATOM     35  O   UNL     1       4.115  74.982  39.858  1.00  0.00    -0.387 OA
ATOM     36  H   UNL     1       3.425  75.046  40.570  1.00  0.00     0.211 HD
ENDBRANCH  30  35
BRANCH  31  37
ATOM     37  C   UNL     1       5.850  74.727  42.814  1.00  0.00     0.191 C 
BRANCH  37  38
ATOM     38  O   UNL     1       5.390  74.865  44.125  1.00  0.00    -0.394 OA
ATOM     39  H   UNL     1       5.148  75.823  44.234  1.00  0.00     0.210 HD
ENDBRANCH  37  38
ENDBRANCH  31  37
BRANCH  32  40
ATOM     40  O   UNL     1       7.093  76.990  40.107  1.00  0.00    -0.387 OA
ATOM     41  H   UNL     1       7.765  77.147  40.819  1.00  0.00     0.211 HD
ENDBRANCH  32  40
ENDBRANCH   1  27
TORSDOF 12
ENDMDL
MODEL 3
REMARK VINA RESULT:    -6.845      0.961      2.199
REMARK INTER + INTRA:         -11.401
REMARK INTER:                  -9.686
REMARK INTRA:                  -1.714
REMARK UNBOUND:                -1.355
REMARK SMILES O=c1c(O[C@H]2O[C@@H](CO)[C@H](O)[C@@H](O)[C@@H]2O)c(-c2ccc(O)c(O)c2)oc2cc(O)cc(O)c12
REMARK SMILES IDX 4 1 3 2 16 3 25 4 2 5 26 6 1 7 33 8 27 9 31 10 28 11 30 12
REMARK SMILES IDX 17 13 18 14 19 15 20 16 24 17 22 18 21 19 23 21 32 23 29 25
REMARK SMILES IDX 5 27 14 28 6 29 12 30 7 31 10 32 15 33 13 35 8 37 9 38 11 40
REMARK H PARENT 21 20 23 22 32 24 29 26 15 34 13 36 9 39 11 41
REMARK Flexibility Score: inf
ROOT
ATOM      1  O   UNL     1       2.616  75.135  40.784  1.00  0.00    -0.454 OA
ENDROOT
BRANCH   1   2
ATOM      2  C   UNL     1       2.262  73.802  40.473  1.00  0.00     0.214 A 
ATOM      3  C   UNL     1       1.181  73.580  39.601  1.00  0.00     0.180 A 
ATOM      4  O   UNL     1       0.818  72.349  39.272  1.00  0.00    -0.452 OA
ATOM      5  C   UNL     1       2.923  72.671  41.007  1.00  0.00     0.239 A 
ATOM      6  C   UNL     1       1.449  71.265  39.701  1.00  0.00     0.146 A 
ATOM      7  O   UNL     1       3.783  72.828  41.913  1.00  0.00    -0.285 OA
ATOM      8  C   UNL     1       2.562  71.370  40.574  1.00  0.00     0.111 A 
ATOM      9  C   UNL     1       0.986  70.015  39.284  1.00  0.00     0.094 A 
ATOM     10  C   UNL     1       3.211  70.167  40.989  1.00  0.00     0.134 A 
ATOM     11  C   UNL     1       1.605  68.848  39.730  1.00  0.00     0.123 A 
ATOM     12  C   UNL     1       2.702  68.928  40.580  1.00  0.00     0.093 A 
BRANCH   3  13
ATOM     13  C   UNL     1       0.428  74.697  39.018  1.00  0.00     0.025 A 
ATOM     14  C   UNL     1       0.806  75.226  37.776  1.00  0.00     0.016 A 
ATOM     15  C   UNL     1       0.132  76.332  37.255  1.00  0.00     0.051 A 
ATOM     16  C   UNL     1      -0.930  76.920  37.959  1.00  0.00     0.157 A 
ATOM     17  C   UNL     1      -0.632  75.275  39.727  1.00  0.00     0.062 A 
ATOM     18  C   UNL     1      -1.326  76.376  39.204  1.00  0.00     0.158 A 
BRANCH  16  19
ATOM     19  O   UNL     1      -1.558  78.029  37.387  1.00  0.00    -0.504 OA
ATOM     20  H   UNL     1      -2.299  78.549  37.831  1.00  0.00     0.293 HD
ENDBRANCH  16  19
BRANCH  18  21
ATOM     21  O   UNL     1      -2.391  76.890  39.948  1.00  0.00    -0.504 OA
ATOM     22  H   UNL     1      -3.147  77.429  39.552  1.00  0.00     0.293 HD
ENDBRANCH  18  21
ENDBRANCH   3  13
BRANCH  10  23
ATOM     23  O   UNL     1       4.366  70.133  41.775  1.00  0.00    -0.507 OA
ATOM     24  H   UNL     1       4.928  70.936  42.013  1.00  0.00     0.293 HD
ENDBRANCH  10  23
BRANCH  11  25
ATOM     25  O   UNL     1       1.141  67.598  39.322  1.00  0.00    -0.508 OA
ATOM     26  H   UNL     1       0.199  67.468  38.976  1.00  0.00     0.293 HD
ENDBRANCH  11  25
ENDBRANCH   1   2
BRANCH   1  27
ATOM     27  C   UNL     1       3.665  75.891  40.166  1.00  0.00     0.339 C 
ATOM     28  C   UNL     1       4.873  76.094  41.105  1.00  0.00     0.214 C 
ATOM     29  O   UNL     1       3.167  77.110  39.633  1.00  0.00    -0.332 OA
ATOM     30  C   UNL     1       4.554  77.087  42.233  1.00  0.00     0.180 C 
ATOM     31  C   UNL     1       2.811  78.095  40.599  1.00  0.00     0.179 C 
ATOM     32  C   UNL     1       3.889  78.366  41.690  1.00  0.00     0.177 C 
BRANCH  28  33
ATOM     33  O   UNL     1       5.971  76.547  40.348  1.00  0.00    -0.384 OA
ATOM     34  H   UNL     1       6.699  75.880  40.464  1.00  0.00     0.211 HD
ENDBRANCH  28  33
BRANCH  30  35
ATOM     35  O   UNL     1       3.722  76.479  43.191  1.00  0.00    -0.387 OA
ATOM     36  H   UNL     1       3.004  77.130  43.411  1.00  0.00     0.211 HD
ENDBRANCH  30  35
BRANCH  31  37
ATOM     37  C   UNL     1       1.375  77.925  41.138  1.00  0.00     0.191 C 
BRANCH  37  38
ATOM     38  O   UNL     1       1.365  77.479  42.461  1.00  0.00    -0.394 OA
ATOM     39  H   UNL     1       2.286  77.159  42.652  1.00  0.00     0.210 HD
ENDBRANCH  37  38
ENDBRANCH  31  37
BRANCH  32  40
ATOM     40  O   UNL     1       4.869  79.259  41.212  1.00  0.00    -0.387 OA
ATOM     41  H   UNL     1       5.610  79.288  41.871  1.00  0.00     0.211 HD
ENDBRANCH  32  40
ENDBRANCH   1  27
TORSDOF 12
ENDMDL
MODEL 4
REMARK VINA RESULT:    -6.808      2.994      6.495
REMARK INTER + INTRA:         -11.347
REMARK INTER:                  -9.642
REMARK INTRA:                  -1.704
REMARK UNBOUND:                -1.355
REMARK SMILES O=c1c(O[C@H]2O[C@@H](CO)[C@H](O)[C@@H](O)[C@@H]2O)c(-c2ccc(O)c(O)c2)oc2cc(O)cc(O)c12
REMARK SMILES IDX 4 1 3 2 16 3 25 4 2 5 26 6 1 7 33 8 27 9 31 10 28 11 30 12
REMARK SMILES IDX 17 13 18 14 19 15 20 16 24 17 22 18 21 19 23 21 32 23 29 25
REMARK SMILES IDX 5 27 14 28 6 29 12 30 7 31 10 32 15 33 13 35 8 37 9 38 11 40
REMARK H PARENT 21 20 23 22 32 24 29 26 15 34 13 36 9 39 11 41
REMARK Flexibility Score: inf
ROOT
ATOM      1  O   UNL     1       0.628  75.616  40.168  1.00  0.00    -0.454 OA
ENDROOT
BRANCH   1   2
ATOM      2  C   UNL     1       1.777  75.969  40.914  1.00  0.00     0.214 A 
ATOM      3  C   UNL     1       1.784  75.713  42.297  1.00  0.00     0.180 A 
ATOM      4  O   UNL     1       2.841  76.017  43.036  1.00  0.00    -0.452 OA
ATOM      5  C   UNL     1       2.916  76.588  40.350  1.00  0.00     0.239 A 
ATOM      6  C   UNL     1       3.952  76.540  42.537  1.00  0.00     0.146 A 
ATOM      7  O   UNL     1       2.880  76.980  39.154  1.00  0.00    -0.285 OA
ATOM      8  C   UNL     1       4.061  76.827  41.152  1.00  0.00     0.111 A 
ATOM      9  C   UNL     1       5.009  76.814  43.407  1.00  0.00     0.094 A 
ATOM     10  C   UNL     1       5.289  77.376  40.671  1.00  0.00     0.134 A 
ATOM     11  C   UNL     1       6.187  77.387  42.929  1.00  0.00     0.123 A 
ATOM     12  C   UNL     1       6.318  77.670  41.574  1.00  0.00     0.093 A 
BRANCH   3  13
ATOM     13  C   UNL     1       0.634  75.092  42.966  1.00  0.00     0.025 A 
ATOM     14  C   UNL     1       0.617  73.709  43.193  1.00  0.00     0.016 A 
ATOM     15  C   UNL     1      -0.506  73.110  43.766  1.00  0.00     0.051 A 
ATOM     16  C   UNL     1      -1.622  73.881  44.126  1.00  0.00     0.157 A 
ATOM     17  C   UNL     1      -0.474  75.870  43.324  1.00  0.00     0.062 A 
ATOM     18  C   UNL     1      -1.600  75.280  43.916  1.00  0.00     0.158 A 
BRANCH  16  19
ATOM     19  O   UNL     1      -2.717  73.221  44.688  1.00  0.00    -0.504 OA
ATOM     20  H   UNL     1      -2.647  72.541  45.431  1.00  0.00     0.293 HD
ENDBRANCH  16  19
BRANCH  18  21
ATOM     21  O   UNL     1      -2.662  76.115  44.274  1.00  0.00    -0.504 OA
ATOM     22  H   UNL     1      -2.779  76.514  45.194  1.00  0.00     0.293 HD
ENDBRANCH  18  21
ENDBRANCH   3  13
BRANCH  10  23
ATOM     23  O   UNL     1       5.559  77.625  39.323  1.00  0.00    -0.507 OA
ATOM     24  H   UNL     1       5.185  77.095  38.550  1.00  0.00     0.293 HD
ENDBRANCH  10  23
BRANCH  11  25
ATOM     25  O   UNL     1       7.243  77.669  43.795  1.00  0.00    -0.508 OA
ATOM     26  H   UNL     1       7.647  78.595  43.854  1.00  0.00     0.293 HD
ENDBRANCH  11  25
ENDBRANCH   1   2
BRANCH   1  27
ATOM     27  C   UNL     1      -0.361  76.525  39.669  1.00  0.00     0.339 C 
ATOM     28  C   UNL     1      -1.784  76.160  40.141  1.00  0.00     0.214 C 
ATOM     29  O   UNL     1      -0.262  76.658  38.258  1.00  0.00    -0.332 OA
ATOM     30  C   UNL     1      -2.307  74.896  39.440  1.00  0.00     0.180 C 
ATOM     31  C   UNL     1      -0.696  75.527  37.508  1.00  0.00     0.179 C 
ATOM     32  C   UNL     1      -2.090  74.962  37.917  1.00  0.00     0.177 C 
BRANCH  28  33
ATOM     33  O   UNL     1      -2.642  77.249  39.894  1.00  0.00    -0.384 OA
ATOM     34  H   UNL     1      -3.202  77.005  39.111  1.00  0.00     0.211 HD
ENDBRANCH  28  33
BRANCH  30  35
ATOM     35  O   UNL     1      -1.679  73.754  39.970  1.00  0.00    -0.387 OA
ATOM     36  H   UNL     1      -2.134  73.540  40.826  1.00  0.00     0.211 HD
ENDBRANCH  30  35
BRANCH  31  37
ATOM     37  C   UNL     1       0.405  74.460  37.329  1.00  0.00     0.191 C 
BRANCH  37  38
ATOM     38  O   UNL     1       1.683  74.998  37.493  1.00  0.00    -0.394 OA
ATOM     39  H   UNL     1       2.204  74.321  38.002  1.00  0.00     0.210 HD
ENDBRANCH  37  38
ENDBRANCH  31  37
BRANCH  32  40
ATOM     40  O   UNL     1      -3.125  75.701  37.309  1.00  0.00    -0.387 OA
ATOM     41  H   UNL     1      -3.507  76.315  37.987  1.00  0.00     0.211 HD
ENDBRANCH  32  40
ENDBRANCH   1  27
TORSDOF 12
ENDMDL
MODEL 5
REMARK VINA RESULT:    -6.637      3.730      5.375
REMARK INTER + INTRA:         -11.095
REMARK INTER:                  -9.606
REMARK INTRA:                  -1.489
REMARK UNBOUND:                -1.355
REMARK SMILES O=c1c(O[C@H]2O[C@@H](CO)[C@H](O)[C@@H](O)[C@@H]2O)c(-c2ccc(O)c(O)c2)oc2cc(O)cc(O)c12
REMARK SMILES IDX 4 1 3 2 16 3 25 4 2 5 26 6 1 7 33 8 27 9 31 10 28 11 30 12
REMARK SMILES IDX 17 13 18 14 19 15 20 16 24 17 22 18 21 19 23 21 32 23 29 25
REMARK SMILES IDX 5 27 14 28 6 29 12 30 7 31 10 32 15 33 13 35 8 37 9 38 11 40
REMARK H PARENT 21 20 23 22 32 24 29 26 15 34 13 36 9 39 11 41
REMARK Flexibility Score: inf
ROOT
ATOM      1  O   UNL     1       1.252  76.404  41.549  1.00  0.00    -0.454 OA
ENDROOT
BRANCH   1   2
ATOM      2  C   UNL     1       0.549  76.139  42.747  1.00  0.00     0.214 A 
ATOM      3  C   UNL     1      -0.735  75.572  42.661  1.00  0.00     0.180 A 
ATOM      4  O   UNL     1      -1.428  75.295  43.757  1.00  0.00    -0.452 OA
ATOM      5  C   UNL     1       1.058  76.431  44.034  1.00  0.00     0.239 A 
ATOM      6  C   UNL     1      -0.962  75.496  44.982  1.00  0.00     0.146 A 
ATOM      7  O   UNL     1       2.128  77.086  44.142  1.00  0.00    -0.285 OA
ATOM      8  C   UNL     1       0.327  76.050  45.187  1.00  0.00     0.111 A 
ATOM      9  C   UNL     1      -1.776  75.160  46.067  1.00  0.00     0.094 A 
ATOM     10  C   UNL     1       0.779  76.228  46.531  1.00  0.00     0.134 A 
ATOM     11  C   UNL     1      -1.337  75.377  47.372  1.00  0.00     0.123 A 
ATOM     12  C   UNL     1      -0.074  75.913  47.597  1.00  0.00     0.093 A 
BRANCH   3  13
ATOM     13  C   UNL     1      -1.346  75.255  41.365  1.00  0.00     0.025 A 
ATOM     14  C   UNL     1      -1.436  73.924  40.938  1.00  0.00     0.016 A 
ATOM     15  C   UNL     1      -1.954  73.630  39.675  1.00  0.00     0.051 A 
ATOM     16  C   UNL     1      -2.394  74.656  38.826  1.00  0.00     0.157 A 
ATOM     17  C   UNL     1      -1.785  76.287  40.525  1.00  0.00     0.062 A 
ATOM     18  C   UNL     1      -2.322  76.001  39.262  1.00  0.00     0.158 A 
BRANCH  16  19
ATOM     19  O   UNL     1      -2.895  74.297  37.572  1.00  0.00    -0.504 OA
ATOM     20  H   UNL     1      -2.991  74.937  36.798  1.00  0.00     0.293 HD
ENDBRANCH  16  19
BRANCH  18  21
ATOM     21  O   UNL     1      -2.767  77.072  38.484  1.00  0.00    -0.504 OA
ATOM     22  H   UNL     1      -2.190  77.860  38.227  1.00  0.00     0.293 HD
ENDBRANCH  18  21
ENDBRANCH   3  13
BRANCH  10  23
ATOM     23  O   UNL     1       2.055  76.682  46.873  1.00  0.00    -0.507 OA
ATOM     24  H   UNL     1       2.330  77.651  46.927  1.00  0.00     0.293 HD
ENDBRANCH  10  23
BRANCH  11  25
ATOM     25  O   UNL     1      -2.148  75.051  48.458  1.00  0.00    -0.508 OA
ATOM     26  H   UNL     1      -1.781  75.011  49.401  1.00  0.00     0.293 HD
ENDBRANCH  11  25
ENDBRANCH   1   2
BRANCH   1  27
ATOM     27  C   UNL     1       1.926  75.434  40.738  1.00  0.00     0.339 C 
ATOM     28  C   UNL     1       3.460  75.509  40.890  1.00  0.00     0.214 C 
ATOM     29  O   UNL     1       1.498  75.515  39.386  1.00  0.00    -0.332 OA
ATOM     30  C   UNL     1       4.036  76.763  40.214  1.00  0.00     0.180 C 
ATOM     31  C   UNL     1       1.954  76.661  38.672  1.00  0.00     0.179 C 
ATOM     32  C   UNL     1       3.481  76.944  38.788  1.00  0.00     0.177 C 
BRANCH  28  33
ATOM     33  O   UNL     1       4.032  74.347  40.336  1.00  0.00    -0.384 OA
ATOM     34  H   UNL     1       3.668  74.255  39.416  1.00  0.00     0.211 HD
ENDBRANCH  28  33
BRANCH  30  35
ATOM     35  O   UNL     1       3.756  77.902  40.991  1.00  0.00    -0.387 OA
ATOM     36  H   UNL     1       2.785  77.881  41.202  1.00  0.00     0.211 HD
ENDBRANCH  30  35
BRANCH  31  37
ATOM     37  C   UNL     1       1.051  77.897  38.870  1.00  0.00     0.191 C 
BRANCH  37  38
ATOM     38  O   UNL     1       0.088  78.005  37.864  1.00  0.00    -0.394 OA
ATOM     39  H   UNL     1       0.219  78.900  37.451  1.00  0.00     0.210 HD
ENDBRANCH  37  38
ENDBRANCH  31  37
BRANCH  32  40
ATOM     40  O   UNL     1       4.207  76.149  37.879  1.00  0.00    -0.387 OA
ATOM     41  H   UNL     1       3.606  75.913  37.126  1.00  0.00     0.211 HD
ENDBRANCH  32  40
ENDBRANCH   1  27
TORSDOF 12
ENDMDL
MODEL 6
REMARK VINA RESULT:    -6.571      3.494      5.248
REMARK INTER + INTRA:         -10.999
REMARK INTER:                  -9.258
REMARK INTRA:                  -1.742
REMARK UNBOUND:                -1.355
REMARK SMILES O=c1c(O[C@H]2O[C@@H](CO)[C@H](O)[C@@H](O)[C@@H]2O)c(-c2ccc(O)c(O)c2)oc2cc(O)cc(O)c12
REMARK SMILES IDX 4 1 3 2 16 3 25 4 2 5 26 6 1 7 33 8 27 9 31 10 28 11 30 12
REMARK SMILES IDX 17 13 18 14 19 15 20 16 24 17 22 18 21 19 23 21 32 23 29 25
REMARK SMILES IDX 5 27 14 28 6 29 12 30 7 31 10 32 15 33 13 35 8 37 9 38 11 40
REMARK H PARENT 21 20 23 22 32 24 29 26 15 34 13 36 9 39 11 41
REMARK Flexibility Score: inf
ROOT
ATOM      1  O   UNL     1       2.705  76.790  42.190  1.00  0.00    -0.454 OA
ENDROOT
BRANCH   1   2
ATOM      2  C   UNL     1       1.588  76.595  43.034  1.00  0.00     0.214 A 
ATOM      3  C   UNL     1       0.394  76.115  42.468  1.00  0.00     0.180 A 
ATOM      4  O   UNL     1      -0.677  75.907  43.221  1.00  0.00    -0.452 OA
ATOM      5  C   UNL     1       1.596  76.878  44.420  1.00  0.00     0.239 A 
ATOM      6  C   UNL     1      -0.693  76.099  44.532  1.00  0.00     0.146 A 
ATOM      7  O   UNL     1       2.590  77.461  44.927  1.00  0.00    -0.285 OA
ATOM      8  C   UNL     1       0.461  76.570  45.211  1.00  0.00     0.111 A 
ATOM      9  C   UNL     1      -1.875  75.841  45.230  1.00  0.00     0.094 A 
ATOM     10  C   UNL     1       0.387  76.743  46.628  1.00  0.00     0.134 A 
ATOM     11  C   UNL     1      -1.944  76.053  46.606  1.00  0.00     0.123 A 
ATOM     12  C   UNL     1      -0.823  76.507  47.293  1.00  0.00     0.093 A 
BRANCH   3  13
ATOM     13  C   UNL     1       0.293  75.815  41.035  1.00  0.00     0.025 A 
ATOM     14  C   UNL     1       0.670  74.554  40.553  1.00  0.00     0.016 A 
ATOM     15  C   UNL     1       0.640  74.294  39.182  1.00  0.00     0.051 A 
ATOM     16  C   UNL     1       0.228  75.282  38.275  1.00  0.00     0.157 A 
ATOM     17  C   UNL     1      -0.122  76.808  40.137  1.00  0.00     0.062 A 
ATOM     18  C   UNL     1      -0.172  76.550  38.760  1.00  0.00     0.158 A 
BRANCH  16  19
ATOM     19  O   UNL     1       0.227  74.961  36.915  1.00  0.00    -0.504 OA
ATOM     20  H   UNL     1       1.060  74.902  36.348  1.00  0.00     0.293 HD
ENDBRANCH  16  19
BRANCH  18  21
ATOM     21  O   UNL     1      -0.620  77.573  37.921  1.00  0.00    -0.504 OA
ATOM     22  H   UNL     1      -0.905  77.432  36.962  1.00  0.00     0.293 HD
ENDBRANCH  18  21
ENDBRANCH   3  13
BRANCH  10  23
ATOM     23  O   UNL     1       1.470  77.116  47.427  1.00  0.00    -0.507 OA
ATOM     24  H   UNL     1       1.974  77.986  47.350  1.00  0.00     0.293 HD
ENDBRANCH  10  23
BRANCH  11  25
ATOM     25  O   UNL     1      -3.123  75.803  47.305  1.00  0.00    -0.508 OA
ATOM     26  H   UNL     1      -3.930  76.409  47.219  1.00  0.00     0.293 HD
ENDBRANCH  11  25
ENDBRANCH   1   2
BRANCH   1  27
ATOM     27  C   UNL     1       3.846  75.927  42.094  1.00  0.00     0.339 C 
ATOM     28  C   UNL     1       5.114  76.562  42.703  1.00  0.00     0.214 C 
ATOM     29  O   UNL     1       4.036  75.482  40.758  1.00  0.00    -0.332 OA
ATOM     30  C   UNL     1       5.655  77.701  41.825  1.00  0.00     0.180 C 
ATOM     31  C   UNL     1       4.510  76.471  39.850  1.00  0.00     0.179 C 
ATOM     32  C   UNL     1       5.745  77.281  40.345  1.00  0.00     0.177 C 
BRANCH  28  33
ATOM     33  O   UNL     1       6.092  75.562  42.869  1.00  0.00    -0.384 OA
ATOM     34  H   UNL     1       6.315  75.221  41.962  1.00  0.00     0.211 HD
ENDBRANCH  28  33
BRANCH  30  35
ATOM     35  O   UNL     1       4.842  78.841  41.956  1.00  0.00    -0.387 OA
ATOM     36  H   UNL     1       4.224  78.674  42.716  1.00  0.00     0.211 HD
ENDBRANCH  30  35
BRANCH  31  37
ATOM     37  C   UNL     1       3.380  77.325  39.239  1.00  0.00     0.191 C 
BRANCH  37  38
ATOM     38  O   UNL     1       3.411  78.641  39.706  1.00  0.00    -0.394 OA
ATOM     39  H   UNL     1       2.673  78.717  40.368  1.00  0.00     0.210 HD
ENDBRANCH  37  38
ENDBRANCH  31  37
BRANCH  32  40
ATOM     40  O   UNL     1       6.937  76.566  40.113  1.00  0.00    -0.387 OA
ATOM     41  H   UNL     1       7.667  77.221  39.966  1.00  0.00     0.211 HD
ENDBRANCH  32  40
ENDBRANCH   1  27
TORSDOF 12
ENDMDL
MODEL 7
REMARK VINA RESULT:    -6.538      3.410      6.487
REMARK INTER + INTRA:         -10.950
REMARK INTER:                  -9.701
REMARK INTRA:                  -1.249
REMARK UNBOUND:                -1.355
REMARK SMILES O=c1c(O[C@H]2O[C@@H](CO)[C@H](O)[C@@H](O)[C@@H]2O)c(-c2ccc(O)c(O)c2)oc2cc(O)cc(O)c12
REMARK SMILES IDX 4 1 3 2 16 3 25 4 2 5 26 6 1 7 33 8 27 9 31 10 28 11 30 12
REMARK SMILES IDX 17 13 18 14 19 15 20 16 24 17 22 18 21 19 23 21 32 23 29 25
REMARK SMILES IDX 5 27 14 28 6 29 12 30 7 31 10 32 15 33 13 35 8 37 9 38 11 40
REMARK H PARENT 21 20 23 22 32 24 29 26 15 34 13 36 9 39 11 41
REMARK Flexibility Score: inf
ROOT
ATOM      1  O   UNL     1       1.480  76.396  41.351  1.00  0.00    -0.454 OA
ENDROOT
BRANCH   1   2
ATOM      2  C   UNL     1       1.637  76.267  42.751  1.00  0.00     0.214 A 
ATOM      3  C   UNL     1       2.937  76.292  43.286  1.00  0.00     0.180 A 
ATOM      4  O   UNL     1       3.134  76.186  44.592  1.00  0.00    -0.452 OA
ATOM      5  C   UNL     1       0.556  76.091  43.646  1.00  0.00     0.239 A 
ATOM      6  C   UNL     1       2.146  76.082  45.470  1.00  0.00     0.146 A 
ATOM      7  O   UNL     1      -0.601  75.898  43.189  1.00  0.00    -0.285 OA
ATOM      8  C   UNL     1       0.794  76.059  45.044  1.00  0.00     0.111 A 
ATOM      9  C   UNL     1       2.468  75.983  46.826  1.00  0.00     0.094 A 
ATOM     10  C   UNL     1      -0.227  75.961  46.039  1.00  0.00     0.134 A 
ATOM     11  C   UNL     1       1.462  75.847  47.782  1.00  0.00     0.123 A 
ATOM     12  C   UNL     1       0.129  75.830  47.387  1.00  0.00     0.093 A 
BRANCH   3  13
ATOM     13  C   UNL     1       4.115  76.452  42.425  1.00  0.00     0.025 A 
ATOM     14  C   UNL     1       4.576  77.733  42.095  1.00  0.00     0.016 A 
ATOM     15  C   UNL     1       5.654  77.884  41.221  1.00  0.00     0.051 A 
ATOM     16  C   UNL     1       6.291  76.761  40.671  1.00  0.00     0.157 A 
ATOM     17  C   UNL     1       4.746  75.324  41.883  1.00  0.00     0.062 A 
ATOM     18  C   UNL     1       5.840  75.465  41.018  1.00  0.00     0.158 A 
BRANCH  16  19
ATOM     19  O   UNL     1       7.358  76.978  39.797  1.00  0.00    -0.504 OA
ATOM     20  H   UNL     1       8.322  77.043  40.088  1.00  0.00     0.293 HD
ENDBRANCH  16  19
BRANCH  18  21
ATOM     21  O   UNL     1       6.442  74.301  40.532  1.00  0.00    -0.504 OA
ATOM     22  H   UNL     1       6.628  74.128  39.555  1.00  0.00     0.293 HD
ENDBRANCH  18  21
ENDBRANCH   3  13
BRANCH  10  23
ATOM     23  O   UNL     1      -1.595  76.015  45.762  1.00  0.00    -0.507 OA
ATOM     24  H   UNL     1      -2.011  76.512  44.989  1.00  0.00     0.293 HD
ENDBRANCH  10  23
BRANCH  11  25
ATOM     25  O   UNL     1       1.779  75.741  49.136  1.00  0.00    -0.508 OA
ATOM     26  H   UNL     1       2.411  76.390  49.586  1.00  0.00     0.293 HD
ENDBRANCH  11  25
ENDBRANCH   1   2
BRANCH   1  27
ATOM     27  C   UNL     1       0.444  77.130  40.686  1.00  0.00     0.339 C 
ATOM     28  C   UNL     1      -0.587  76.203  40.007  1.00  0.00     0.214 C 
ATOM     29  O   UNL     1       0.993  78.094  39.799  1.00  0.00    -0.332 OA
ATOM     30  C   UNL     1      -0.000  75.521  38.762  1.00  0.00     0.180 C 
ATOM     31  C   UNL     1       1.591  77.563  38.620  1.00  0.00     0.179 C 
ATOM     32  C   UNL     1       0.718  76.531  37.846  1.00  0.00     0.177 C 
BRANCH  28  33
ATOM     33  O   UNL     1      -1.724  76.959  39.663  1.00  0.00    -0.384 OA
ATOM     34  H   UNL     1      -2.112  76.544  38.847  1.00  0.00     0.211 HD
ENDBRANCH  28  33
BRANCH  30  35
ATOM     35  O   UNL     1       0.887  74.499  39.143  1.00  0.00    -0.387 OA
ATOM     36  H   UNL     1       1.035  73.926  38.345  1.00  0.00     0.211 HD
ENDBRANCH  30  35
BRANCH  31  37
ATOM     37  C   UNL     1       3.061  77.141  38.823  1.00  0.00     0.191 C 
BRANCH  37  38
ATOM     38  O   UNL     1       3.231  75.762  38.687  1.00  0.00    -0.394 OA
ATOM     39  H   UNL     1       3.134  75.380  39.600  1.00  0.00     0.210 HD
ENDBRANCH  37  38
ENDBRANCH  31  37
BRANCH  32  40
ATOM     40  O   UNL     1      -0.216  77.188  37.019  1.00  0.00    -0.387 OA
ATOM     41  H   UNL     1      -0.751  76.498  36.548  1.00  0.00     0.211 HD
ENDBRANCH  32  40
ENDBRANCH   1  27
TORSDOF 12
ENDMDL
MODEL 8
REMARK VINA RESULT:    -6.514      3.422      4.901
REMARK INTER + INTRA:         -10.915
REMARK INTER:                  -9.282
REMARK INTRA:                  -1.632
REMARK UNBOUND:                -1.355
REMARK SMILES O=c1c(O[C@H]2O[C@@H](CO)[C@H](O)[C@@H](O)[C@@H]2O)c(-c2ccc(O)c(O)c2)oc2cc(O)cc(O)c12
REMARK SMILES IDX 4 1 3 2 16 3 25 4 2 5 26 6 1 7 33 8 27 9 31 10 28 11 30 12
REMARK SMILES IDX 17 13 18 14 19 15 20 16 24 17 22 18 21 19 23 21 32 23 29 25
REMARK SMILES IDX 5 27 14 28 6 29 12 30 7 31 10 32 15 33 13 35 8 37 9 38 11 40
REMARK H PARENT 21 20 23 22 32 24 29 26 15 34 13 36 9 39 11 41
REMARK Flexibility Score: inf
ROOT
ATOM      1  O   UNL     1       2.318  76.239  41.802  1.00  0.00    -0.454 OA
ENDROOT
BRANCH   1   2
ATOM      2  C   UNL     1       1.262  76.181  42.741  1.00  0.00     0.214 A 
ATOM      3  C   UNL     1      -0.033  75.889  42.278  1.00  0.00     0.180 A 
ATOM      4  O   UNL     1      -1.053  75.814  43.121  1.00  0.00    -0.452 OA
ATOM      5  C   UNL     1       1.431  76.421  44.124  1.00  0.00     0.239 A 
ATOM      6  C   UNL     1      -0.927  75.971  44.431  1.00  0.00     0.146 A 
ATOM      7  O   UNL     1       2.538  76.845  44.548  1.00  0.00    -0.285 OA
ATOM      8  C   UNL     1       0.336  76.255  45.010  1.00  0.00     0.111 A 
ATOM      9  C   UNL     1      -2.069  75.862  45.228  1.00  0.00     0.094 A 
ATOM     10  C   UNL     1       0.411  76.398  46.430  1.00  0.00     0.134 A 
ATOM     11  C   UNL     1      -1.987  76.044  46.608  1.00  0.00     0.123 A 
ATOM     12  C   UNL     1      -0.758  76.317  47.197  1.00  0.00     0.093 A 
BRANCH   3  13
ATOM     13  C   UNL     1      -0.300  75.646  40.855  1.00  0.00     0.025 A 
ATOM     14  C   UNL     1      -0.207  74.348  40.335  1.00  0.00     0.016 A 
ATOM     15  C   UNL     1      -0.392  74.128  38.969  1.00  0.00     0.051 A 
ATOM     16  C   UNL     1      -0.679  75.197  38.105  1.00  0.00     0.157 A 
ATOM     17  C   UNL     1      -0.588  76.719  40.001  1.00  0.00     0.062 A 
ATOM     18  C   UNL     1      -0.793  76.506  38.631  1.00  0.00     0.158 A 
BRANCH  16  19
ATOM     19  O   UNL     1      -0.846  74.912  36.748  1.00  0.00    -0.504 OA
ATOM     20  H   UNL     1      -1.632  75.226  36.198  1.00  0.00     0.293 HD
ENDBRANCH  16  19
BRANCH  18  21
ATOM     21  O   UNL     1      -1.104  77.613  37.837  1.00  0.00    -0.504 OA
ATOM     22  H   UNL     1      -1.005  77.632  36.833  1.00  0.00     0.293 HD
ENDBRANCH  18  21
ENDBRANCH   3  13
BRANCH  10  23
ATOM     23  O   UNL     1       1.602  76.593  47.134  1.00  0.00    -0.507 OA
ATOM     24  H   UNL     1       1.725  77.242  47.896  1.00  0.00     0.293 HD
ENDBRANCH  10  23
BRANCH  11  25
ATOM     25  O   UNL     1      -3.125  75.944  47.406  1.00  0.00    -0.508 OA
ATOM     26  H   UNL     1      -3.878  75.307  47.179  1.00  0.00     0.293 HD
ENDBRANCH  11  25
ENDBRANCH   1   2
BRANCH   1  27
ATOM     27  C   UNL     1       3.040  77.417  41.422  1.00  0.00     0.339 C 
ATOM     28  C   UNL     1       2.791  77.806  39.949  1.00  0.00     0.214 C 
ATOM     29  O   UNL     1       4.419  77.293  41.738  1.00  0.00    -0.332 OA
ATOM     30  C   UNL     1       3.482  76.833  38.982  1.00  0.00     0.180 C 
ATOM     31  C   UNL     1       5.151  76.388  40.916  1.00  0.00     0.179 C 
ATOM     32  C   UNL     1       4.948  76.579  39.383  1.00  0.00     0.177 C 
BRANCH  28  33
ATOM     33  O   UNL     1       3.255  79.119  39.738  1.00  0.00    -0.384 OA
ATOM     34  H   UNL     1       3.667  79.422  40.591  1.00  0.00     0.211 HD
ENDBRANCH  28  33
BRANCH  30  35
ATOM     35  O   UNL     1       2.777  75.617  38.934  1.00  0.00    -0.387 OA
ATOM     36  H   UNL     1       2.599  75.344  39.873  1.00  0.00     0.211 HD
ENDBRANCH  30  35
BRANCH  31  37
ATOM     37  C   UNL     1       5.068  74.926  41.401  1.00  0.00     0.191 C 
BRANCH  37  38
ATOM     38  O   UNL     1       4.386  74.113  40.492  1.00  0.00    -0.394 OA
ATOM     39  H   UNL     1       3.596  74.636  40.192  1.00  0.00     0.210 HD
ENDBRANCH  37  38
ENDBRANCH  31  37
BRANCH  32  40
ATOM     40  O   UNL     1       5.772  77.613  38.896  1.00  0.00    -0.387 OA
ATOM     41  H   UNL     1       6.653  77.545  39.346  1.00  0.00     0.211 HD
ENDBRANCH  32  40
ENDBRANCH   1  27
TORSDOF 12
ENDMDL
MODEL 9
REMARK VINA RESULT:    -6.444      1.887      7.070
REMARK INTER + INTRA:         -10.813
REMARK INTER:                  -9.124
REMARK INTRA:                  -1.689
REMARK UNBOUND:                -1.355
REMARK SMILES O=c1c(O[C@H]2O[C@@H](CO)[C@H](O)[C@@H](O)[C@@H]2O)c(-c2ccc(O)c(O)c2)oc2cc(O)cc(O)c12
REMARK SMILES IDX 4 1 3 2 16 3 25 4 2 5 26 6 1 7 33 8 27 9 31 10 28 11 30 12
REMARK SMILES IDX 17 13 18 14 19 15 20 16 24 17 22 18 21 19 23 21 32 23 29 25
REMARK SMILES IDX 5 27 14 28 6 29 12 30 7 31 10 32 15 33 13 35 8 37 9 38 11 40
REMARK H PARENT 21 20 23 22 32 24 29 26 15 34 13 36 9 39 11 41
REMARK Flexibility Score: inf
ROOT
ATOM      1  O   UNL     1       1.736  74.930  41.139  1.00  0.00    -0.454 OA
ENDROOT
BRANCH   1   2
ATOM      2  C   UNL     1       3.013  75.312  41.611  1.00  0.00     0.214 A 
ATOM      3  C   UNL     1       3.874  74.314  42.102  1.00  0.00     0.180 A 
ATOM      4  O   UNL     1       5.084  74.622  42.545  1.00  0.00    -0.452 OA
ATOM      5  C   UNL     1       3.469  76.650  41.637  1.00  0.00     0.239 A 
ATOM      6  C   UNL     1       5.573  75.854  42.529  1.00  0.00     0.146 A 
ATOM      7  O   UNL     1       2.669  77.582  41.362  1.00  0.00    -0.285 OA
ATOM      8  C   UNL     1       4.797  76.937  42.043  1.00  0.00     0.111 A 
ATOM      9  C   UNL     1       6.866  76.064  43.014  1.00  0.00     0.094 A 
ATOM     10  C   UNL     1       5.385  78.240  42.037  1.00  0.00     0.134 A 
ATOM     11  C   UNL     1       7.411  77.347  43.039  1.00  0.00     0.123 A 
ATOM     12  C   UNL     1       6.671  78.422  42.561  1.00  0.00     0.093 A 
BRANCH   3  13
ATOM     13  C   UNL     1       3.471  72.903  42.129  1.00  0.00     0.025 A 
ATOM     14  C   UNL     1       2.728  72.405  43.207  1.00  0.00     0.016 A 
ATOM     15  C   UNL     1       2.406  71.048  43.266  1.00  0.00     0.051 A 
ATOM     16  C   UNL     1       2.813  70.172  42.248  1.00  0.00     0.157 A 
ATOM     17  C   UNL     1       3.881  72.037  41.106  1.00  0.00     0.062 A 
ATOM     18  C   UNL     1       3.547  70.675  41.147  1.00  0.00     0.158 A 
BRANCH  16  19
ATOM     19  O   UNL     1       2.466  68.824  42.368  1.00  0.00    -0.504 OA
ATOM     20  H   UNL     1       1.681  68.399  41.898  1.00  0.00     0.293 HD
ENDBRANCH  16  19
BRANCH  18  21
ATOM     21  O   UNL     1       3.962  69.869  40.084  1.00  0.00    -0.504 OA
ATOM     22  H   UNL     1       4.894  69.493  39.993  1.00  0.00     0.293 HD
ENDBRANCH  18  21
ENDBRANCH   3  13
BRANCH  10  23
ATOM     23  O   UNL     1       4.765  79.374  41.508  1.00  0.00    -0.507 OA
ATOM     24  H   UNL     1       5.186  80.008  40.844  1.00  0.00     0.293 HD
ENDBRANCH  10  23
BRANCH  11  25
ATOM     25  O   UNL     1       8.698  77.562  43.529  1.00  0.00    -0.508 OA
ATOM     26  H   UNL     1       9.006  78.480  43.826  1.00  0.00     0.293 HD
ENDBRANCH  11  25
ENDBRANCH   1   2
BRANCH   1  27
ATOM     27  C   UNL     1       1.438  74.440  39.825  1.00  0.00     0.339 C 
ATOM     28  C   UNL     1       1.395  75.569  38.774  1.00  0.00     0.214 C 
ATOM     29  O   UNL     1       0.260  73.645  39.834  1.00  0.00    -0.332 OA
ATOM     30  C   UNL     1       0.148  76.451  38.942  1.00  0.00     0.180 C 
ATOM     31  C   UNL     1      -0.956  74.364  40.013  1.00  0.00     0.179 C 
ATOM     32  C   UNL     1      -1.131  75.604  39.086  1.00  0.00     0.177 C 
BRANCH  28  33
ATOM     33  O   UNL     1       1.423  74.998  37.487  1.00  0.00    -0.384 OA
ATOM     34  H   UNL     1       2.213  75.377  37.019  1.00  0.00     0.211 HD
ENDBRANCH  28  33
BRANCH  30  35
ATOM     35  O   UNL     1       0.298  77.294  40.058  1.00  0.00    -0.387 OA
ATOM     36  H   UNL     1       0.869  78.057  39.774  1.00  0.00     0.211 HD
ENDBRANCH  30  35
BRANCH  31  37
ATOM     37  C   UNL     1      -1.300  74.614  41.497  1.00  0.00     0.191 C 
BRANCH  37  38
ATOM     38  O   UNL     1      -1.979  75.820  41.679  1.00  0.00    -0.394 OA
ATOM     39  H   UNL     1      -2.226  75.856  42.641  1.00  0.00     0.210 HD
ENDBRANCH  37  38
ENDBRANCH  31  37
BRANCH  32  40
ATOM     40  O   UNL     1      -1.604  75.215  37.817  1.00  0.00    -0.387 OA
ATOM     41  H   UNL     1      -1.308  75.892  37.156  1.00  0.00     0.211 HD
ENDBRANCH  32  40
ENDBRANCH   1  27
TORSDOF 12
ENDMDL
