MODEL 1
REMARK VINA RESULT:    -3.571      0.000      0.000
REMARK INTER + INTRA:          -4.279
REMARK INTER:                  -4.197
REMARK INTRA:                  -0.082
REMARK UNBOUND:                -0.082
REMARK SMILES O=C([O-])CCC(=O)[O-]
REMARK SMILES IDX 4 1 2 2 1 3 3 4 5 5 6 6 7 7 8 8
REMARK H PARENT
REMARK Flexibility Score: inf
ROOT
ATOM      1  C   UNL     1      62.201  28.420  27.214  1.00  0.00     0.059 C 
ENDROOT
BRANCH   1   2
ATOM      2  C   UNL     1      61.701  29.360  28.268  1.00  0.00     0.042 C 
ATOM      3  O   UNL     1      60.672  29.074  28.935  1.00  0.00    -0.550 OA
ATOM      4  O   UNL     1      62.394  30.533  28.540  1.00  0.00    -0.550 OA
ENDBRANCH   1   2
BRANCH   1   5
ATOM      5  C   UNL     1      61.218  27.271  26.971  1.00  0.00     0.059 C 
BRANCH   5   6
ATOM      6  C   UNL     1      60.555  27.386  25.632  1.00  0.00     0.042 C 
ATOM      7  O   UNL     1      59.539  26.690  25.366  1.00  0.00    -0.550 OA
ATOM      8  O   UNL     1      61.081  28.232  24.665  1.00  0.00    -0.550 OA
ENDBRANCH   5   6
ENDBRANCH   1   5
TORSDOF 3
ENDMDL
MODEL 2
REMARK VINA RESULT:    -3.570      0.165      1.623
REMARK INTER + INTRA:          -4.278
REMARK INTER:                  -4.185
REMARK INTRA:                  -0.093
REMARK UNBOUND:                -0.082
REMARK SMILES O=C([O-])CCC(=O)[O-]
REMARK SMILES IDX 4 1 2 2 1 3 3 4 5 5 6 6 7 7 8 8
REMARK H PARENT
REMARK Flexibility Score: inf
ROOT
ATOM      1  C   UNL     1      62.283  28.284  27.316  1.00  0.00     0.059 C 
ENDROOT
BRANCH   1   2
ATOM      2  C   UNL     1      61.745  29.279  28.298  1.00  0.00     0.042 C 
ATOM      3  O   UNL     1      62.327  30.383  28.466  1.00  0.00    -0.550 OA
ATOM      4  O   UNL     1      60.577  29.004  28.999  1.00  0.00    -0.550 OA
ENDBRANCH   1   2
BRANCH   1   5
ATOM      5  C   UNL     1      61.257  27.190  27.003  1.00  0.00     0.059 C 
BRANCH   5   6
ATOM      6  C   UNL     1      60.572  27.434  25.694  1.00  0.00     0.042 C 
ATOM      7  O   UNL     1      60.968  28.357  24.933  1.00  0.00    -0.550 OA
ATOM      8  O   UNL     1      59.470  26.669  25.331  1.00  0.00    -0.550 OA
ENDBRANCH   5   6
ENDBRANCH   1   5
TORSDOF 3
ENDMDL
MODEL 3
REMARK VINA RESULT:    -3.557      0.172      3.704
REMARK INTER + INTRA:          -4.262
REMARK INTER:                  -4.172
REMARK INTRA:                  -0.091
REMARK UNBOUND:                -0.082
REMARK SMILES O=C([O-])CCC(=O)[O-]
REMARK SMILES IDX 4 1 2 2 1 3 3 4 5 5 6 6 7 7 8 8
REMARK H PARENT
REMARK Flexibility Score: inf
ROOT
ATOM      1  C   UNL     1      61.331  27.080  26.893  1.00  0.00     0.059 C 
ENDROOT
BRANCH   1   2
ATOM      2  C   UNL     1      60.593  27.264  25.602  1.00  0.00     0.042 C 
ATOM      3  O   UNL     1      59.537  26.616  25.378  1.00  0.00    -0.550 OA
ATOM      4  O   UNL     1      61.050  28.181  24.664  1.00  0.00    -0.550 OA
ENDBRANCH   1   2
BRANCH   1   5
ATOM      5  C   UNL     1      62.265  28.260  27.181  1.00  0.00     0.059 C 
BRANCH   5   6
ATOM      6  C   UNL     1      61.695  29.175  28.220  1.00  0.00     0.042 C 
ATOM      7  O   UNL     1      60.622  28.875  28.809  1.00  0.00    -0.550 OA
ATOM      8  O   UNL     1      62.325  30.378  28.511  1.00  0.00    -0.550 OA
ENDBRANCH   5   6
ENDBRANCH   1   5
TORSDOF 3
ENDMDL
MODEL 4
REMARK VINA RESULT:    -3.547     14.227     16.208
REMARK INTER + INTRA:          -4.251
REMARK INTER:                  -4.089
REMARK INTRA:                  -0.162
REMARK UNBOUND:                -0.082
REMARK SMILES O=C([O-])CCC(=O)[O-]
REMARK SMILES IDX 4 1 2 2 1 3 3 4 5 5 6 6 7 7 8 8
REMARK H PARENT
REMARK Flexibility Score: inf
ROOT
ATOM      1  C   UNL     1      59.695  29.330  10.251  1.00  0.00     0.059 C 
ENDROOT
BRANCH   1   2
ATOM      2  C   UNL     1      60.790  28.457   9.718  1.00  0.00     0.042 C 
ATOM      3  O   UNL     1      60.524  27.531   8.906  1.00  0.00    -0.550 OA
ATOM      4  O   UNL     1      62.109  28.691  10.086  1.00  0.00    -0.550 OA
ENDBRANCH   1   2
BRANCH   1   5
ATOM      5  C   UNL     1      59.894  29.638  11.738  1.00  0.00     0.059 C 
BRANCH   5   6
ATOM      6  C   UNL     1      59.643  28.431  12.590  1.00  0.00     0.042 C 
ATOM      7  O   UNL     1      60.565  27.957  13.304  1.00  0.00    -0.550 OA
ATOM      8  O   UNL     1      58.402  27.807  12.565  1.00  0.00    -0.550 OA
ENDBRANCH   5   6
ENDBRANCH   1   5
TORSDOF 3
ENDMDL
MODEL 5
REMARK VINA RESULT:    -3.530     14.202     15.918
REMARK INTER + INTRA:          -4.231
REMARK INTER:                  -4.076
REMARK INTRA:                  -0.155
REMARK UNBOUND:                -0.082
REMARK SMILES O=C([O-])CCC(=O)[O-]
REMARK SMILES IDX 4 1 2 2 1 3 3 4 5 5 6 6 7 7 8 8
REMARK H PARENT
REMARK Flexibility Score: inf
ROOT
ATOM      1  C   UNL     1      59.861  29.632  11.748  1.00  0.00     0.059 C 
ENDROOT
BRANCH   1   2
ATOM      2  C   UNL     1      59.623  28.425  12.603  1.00  0.00     0.042 C 
ATOM      3  O   UNL     1      58.489  27.876  12.622  1.00  0.00    -0.550 OA
ATOM      4  O   UNL     1      60.663  27.883  13.347  1.00  0.00    -0.550 OA
ENDBRANCH   1   2
BRANCH   1   5
ATOM      5  C   UNL     1      59.730  29.302  10.258  1.00  0.00     0.059 C 
BRANCH   5   6
ATOM      6  C   UNL     1      60.854  28.434   9.784  1.00  0.00     0.042 C 
ATOM      7  O   UNL     1      60.631  27.486   8.985  1.00  0.00    -0.550 OA
ATOM      8  O   UNL     1      62.144  28.645  10.255  1.00  0.00    -0.550 OA
ENDBRANCH   5   6
ENDBRANCH   1   5
TORSDOF 3
ENDMDL
MODEL 6
REMARK VINA RESULT:    -3.506      0.821      1.425
REMARK INTER + INTRA:          -4.203
REMARK INTER:                  -4.060
REMARK INTRA:                  -0.142
REMARK UNBOUND:                -0.082
REMARK SMILES O=C([O-])CCC(=O)[O-]
REMARK SMILES IDX 4 1 2 2 1 3 3 4 5 5 6 6 7 7 8 8
REMARK H PARENT
REMARK Flexibility Score: inf
ROOT
ATOM      1  C   UNL     1      61.431  27.215  27.888  1.00  0.00     0.059 C 
ENDROOT
BRANCH   1   2
ATOM      2  C   UNL     1      61.299  28.643  28.322  1.00  0.00     0.042 C 
ATOM      3  O   UNL     1      60.390  28.980  29.125  1.00  0.00    -0.550 OA
ATOM      4  O   UNL     1      62.205  29.595  27.870  1.00  0.00    -0.550 OA
ENDBRANCH   1   2
BRANCH   1   5
ATOM      5  C   UNL     1      61.969  27.109  26.458  1.00  0.00     0.059 C 
BRANCH   5   6
ATOM      6  C   UNL     1      60.926  27.475  25.447  1.00  0.00     0.042 C 
ATOM      7  O   UNL     1      61.109  28.450  24.671  1.00  0.00    -0.550 OA
ATOM      8  O   UNL     1      59.734  26.764  25.388  1.00  0.00    -0.550 OA
ENDBRANCH   5   6
ENDBRANCH   1   5
TORSDOF 3
ENDMDL
MODEL 7
REMARK VINA RESULT:    -3.493     13.466     15.012
REMARK INTER + INTRA:          -4.188
REMARK INTER:                  -3.997
REMARK INTRA:                  -0.191
REMARK UNBOUND:                -0.082
REMARK SMILES O=C([O-])CCC(=O)[O-]
REMARK SMILES IDX 4 1 2 2 1 3 3 4 5 5 6 6 7 7 8 8
REMARK H PARENT
REMARK Flexibility Score: inf
ROOT
ATOM      1  C   UNL     1      60.126  27.880  13.015  1.00  0.00     0.059 C 
ENDROOT
BRANCH   1   2
ATOM      2  C   UNL     1      61.193  28.850  13.422  1.00  0.00     0.042 C 
ATOM      3  O   UNL     1      60.882  29.946  13.957  1.00  0.00    -0.550 OA
ATOM      4  O   UNL     1      62.532  28.525  13.246  1.00  0.00    -0.550 OA
ENDBRANCH   1   2
BRANCH   1   5
ATOM      5  C   UNL     1      59.241  28.450  11.902  1.00  0.00     0.059 C 
BRANCH   5   6
ATOM      6  C   UNL     1      60.042  28.798  10.684  1.00  0.00     0.042 C 
ATOM      7  O   UNL     1      60.018  29.970  10.223  1.00  0.00    -0.550 OA
ATOM      8  O   UNL     1      60.783  27.819  10.035  1.00  0.00    -0.550 OA
ENDBRANCH   5   6
ENDBRANCH   1   5
TORSDOF 3
ENDMDL
MODEL 8
REMARK VINA RESULT:    -3.464     14.157     15.098
REMARK INTER + INTRA:          -4.154
REMARK INTER:                  -4.036
REMARK INTRA:                  -0.118
REMARK UNBOUND:                -0.082
REMARK SMILES O=C([O-])CCC(=O)[O-]
REMARK SMILES IDX 4 1 2 2 1 3 3 4 5 5 6 6 7 7 8 8
REMARK H PARENT
REMARK Flexibility Score: inf
ROOT
ATOM      1  C   UNL     1      60.475  29.152  13.134  1.00  0.00     0.059 C 
ENDROOT
BRANCH   1   2
ATOM      2  C   UNL     1      59.392  28.435  12.388  1.00  0.00     0.042 C 
ATOM      3  O   UNL     1      59.244  28.621  11.152  1.00  0.00    -0.550 OA
ATOM      4  O   UNL     1      58.571  27.532  13.051  1.00  0.00    -0.550 OA
ENDBRANCH   1   2
BRANCH   1   5
ATOM      5  C   UNL     1      61.806  28.397  13.057  1.00  0.00     0.059 C 
BRANCH   5   6
ATOM      6  C   UNL     1      62.712  28.980  12.016  1.00  0.00     0.042 C 
ATOM      7  O   UNL     1      63.620  29.788  12.346  1.00  0.00    -0.550 OA
ATOM      8  O   UNL     1      62.527  28.663  10.676  1.00  0.00    -0.550 OA
ENDBRANCH   5   6
ENDBRANCH   1   5
TORSDOF 3
ENDMDL
MODEL 9
REMARK VINA RESULT:    -3.431     13.639     15.707
REMARK INTER + INTRA:          -4.115
REMARK INTER:                  -3.996
REMARK INTRA:                  -0.119
REMARK UNBOUND:                -0.082
REMARK SMILES O=C([O-])CCC(=O)[O-]
REMARK SMILES IDX 4 1 2 2 1 3 3 4 5 5 6 6 7 7 8 8
REMARK H PARENT
REMARK Flexibility Score: inf
ROOT
ATOM      1  C   UNL     1      59.623  29.223  11.517  1.00  0.00     0.059 C 
ENDROOT
BRANCH   1   2
ATOM      2  C   UNL     1      60.079  28.891  10.129  1.00  0.00     0.042 C 
ATOM      3  O   UNL     1      60.738  27.840   9.913  1.00  0.00    -0.550 OA
ATOM      4  O   UNL     1      59.741  29.722   9.068  1.00  0.00    -0.550 OA
ENDBRANCH   1   2
BRANCH   1   5
ATOM      5  C   UNL     1      60.122  28.193  12.535  1.00  0.00     0.059 C 
BRANCH   5   6
ATOM      6  C   UNL     1      61.303  28.703  13.302  1.00  0.00     0.042 C 
ATOM      7  O   UNL     1      61.135  29.332  14.380  1.00  0.00    -0.550 OA
ATOM      8  O   UNL     1      62.588  28.520  12.807  1.00  0.00    -0.550 OA
ENDBRANCH   5   6
ENDBRANCH   1   5
TORSDOF 3
ENDMDL
