MODEL 1
REMARK VINA RESULT:    52.682      0.000      0.000
REMARK INTER + INTRA:          86.514
REMARK INTER:                  83.480
REMARK INTRA:                   3.034
REMARK UNBOUND:                 3.034
REMARK SMILES C[C@@H]1O[C@H](O[C@@H]2[C@@H](Oc3cc(O)c4c(c3)O[C@@H](c3ccc(O)cc3)CC4=O)O[C@@H](CO)[C@@H](O)[C@H]2O)[C@@H](O)[C@H](O)[C@@H]1O
REMARK SMILES IDX 6 1 34 2 32 3 29 4 28 5 7 6 5 7 4 8 1 9 2 10 40 11 3 12
REMARK SMILES IDX 38 13 36 14 41 15 39 17 37 19 35 21 8 23 9 24 10 25 15 26
REMARK SMILES IDX 11 27 14 28 13 29 16 30 26 31 17 32 27 33 25 34 12 35 18 37
REMARK SMILES IDX 19 38 24 39 20 40 23 41 21 42 22 43 33 45 30 47 31 48
REMARK H PARENT 41 16 39 18 37 20 35 22 12 36 22 44 33 46 31 49
REMARK Flexibility Score: inf
ROOT
ATOM      1  C   UNL     1      -6.289  -7.004  16.260  1.00  0.00     0.221 C 
ATOM      2  C   UNL     1      -5.870  -7.332  17.699  1.00  0.00     0.181 C 
ATOM      3  C   UNL     1      -4.338  -7.328  17.829  1.00  0.00     0.177 C 
ATOM      4  C   UNL     1      -3.661  -6.112  17.128  1.00  0.00     0.179 C 
ATOM      5  O   UNL     1      -4.182  -5.822  15.835  1.00  0.00    -0.332 OA
ATOM      6  C   UNL     1      -5.594  -5.708  15.785  1.00  0.00     0.339 C 
ENDROOT
BRANCH   1   7
ATOM      7  O   UNL     1      -5.900  -8.083  15.419  1.00  0.00    -0.337 OA
BRANCH   7   8
ATOM      8  C   UNL     1      -6.768  -9.196  15.545  1.00  0.00     0.282 C 
ATOM      9  C   UNL     1      -8.934 -10.747  13.019  1.00  0.00     0.041 C 
ATOM     10  C   UNL     1      -8.247 -10.562  14.373  1.00  0.00     0.150 C 
ATOM     11  C   UNL     1      -7.580 -11.877  14.849  1.00  0.00     0.174 C 
ATOM     12  O   UNL     1      -7.285  -9.529  14.266  1.00  0.00    -0.344 OA
ATOM     13  C   UNL     1      -6.843 -11.638  16.186  1.00  0.00     0.179 C 
ATOM     14  C   UNL     1      -5.958 -10.380  16.114  1.00  0.00     0.202 C 
BRANCH  11  15
ATOM     15  O   UNL     1      -6.710 -12.410  13.876  1.00  0.00    -0.388 OA
ATOM     16  H   UNL     1      -5.848 -12.624  14.317  1.00  0.00     0.211 HD
ENDBRANCH  11  15
BRANCH  13  17
ATOM     17  O   UNL     1      -6.051 -12.749  16.519  1.00  0.00    -0.387 OA
ATOM     18  H   UNL     1      -5.142 -12.569  16.163  1.00  0.00     0.211 HD
ENDBRANCH  13  17
BRANCH  14  19
ATOM     19  O   UNL     1      -5.498 -10.070  17.406  1.00  0.00    -0.385 OA
ATOM     20  H   UNL     1      -5.569 -10.899  17.946  1.00  0.00     0.211 HD
ENDBRANCH  14  19
ENDBRANCH   7   8
ENDBRANCH   1   7
BRANCH   2  21
ATOM     21  O   UNL     1      -6.448  -6.425  18.604  1.00  0.00    -0.387 OA
ATOM     22  H   UNL     1      -5.702  -5.980  19.085  1.00  0.00     0.211 HD
ENDBRANCH   2  21
BRANCH   6  23
ATOM     23  O   UNL     1      -6.031  -4.560  16.518  1.00  0.00    -0.462 OA
BRANCH  23  24
ATOM     24  C   UNL     1      -7.336  -4.323  16.982  1.00  0.00     0.130 A 
ATOM     25  C   UNL     1      -7.964  -3.066  16.893  1.00  0.00     0.093 A 
ATOM     26  C   UNL     1      -8.032  -5.393  17.553  1.00  0.00     0.094 A 
ATOM     27  C   UNL     1      -9.279  -2.889  17.348  1.00  0.00     0.133 A 
ATOM     28  C   UNL     1      -9.348  -5.235  17.990  1.00  0.00     0.138 A 
ATOM     29  C   UNL     1      -9.979  -3.979  17.906  1.00  0.00     0.102 A 
ATOM     30  O   UNL     1     -10.042  -6.337  18.505  1.00  0.00    -0.484 OA
ATOM     31  C   UNL     1     -11.359  -3.861  18.439  1.00  0.00     0.174 C 
ATOM     32  C   UNL     1     -11.465  -6.336  18.626  1.00  0.00     0.211 C 
ATOM     33  O   UNL     1     -12.035  -2.809  18.282  1.00  0.00    -0.294 OA
ATOM     34  C   UNL     1     -11.936  -4.999  19.233  1.00  0.00     0.131 C 
BRANCH  27  35
ATOM     35  O   UNL     1      -9.880  -1.635  17.248  1.00  0.00    -0.507 OA
ATOM     36  H   UNL     1      -9.992  -1.166  16.357  1.00  0.00     0.293 HD
ENDBRANCH  27  35
BRANCH  32  37
ATOM     37  C   UNL     1     -11.913  -7.585  19.362  1.00  0.00    -0.007 A 
ATOM     38  C   UNL     1     -11.214  -8.135  20.457  1.00  0.00     0.011 A 
ATOM     39  C   UNL     1     -13.065  -8.249  18.897  1.00  0.00     0.011 A 
ATOM     40  C   UNL     1     -11.672  -9.301  21.078  1.00  0.00     0.046 A 
ATOM     41  C   UNL     1     -13.517  -9.416  19.519  1.00  0.00     0.046 A 
ATOM     42  C   UNL     1     -12.822  -9.944  20.613  1.00  0.00     0.115 A 
BRANCH  42  43
ATOM     43  O   UNL     1     -13.265 -11.105  21.243  1.00  0.00    -0.508 OA
ATOM     44  H   UNL     1     -12.732 -11.966  21.199  1.00  0.00     0.293 HD
ENDBRANCH  42  43
ENDBRANCH  32  37
ENDBRANCH  23  24
ENDBRANCH   6  23
BRANCH   3  45
ATOM     45  O   UNL     1      -3.972  -7.403  19.183  1.00  0.00    -0.387 OA
ATOM     46  H   UNL     1      -4.001  -6.479  19.541  1.00  0.00     0.211 HD
ENDBRANCH   3  45
BRANCH   4  47
ATOM     47  C   UNL     1      -3.460  -4.842  17.989  1.00  0.00     0.191 C 
BRANCH  47  48
ATOM     48  O   UNL     1      -2.232  -4.842  18.658  1.00  0.00    -0.394 OA
ATOM     49  H   UNL     1      -2.112  -5.759  19.018  1.00  0.00     0.210 HD
ENDBRANCH  47  48
ENDBRANCH   4  47
TORSDOF 14
ENDMDL
