MODEL 1
REMARK VINA RESULT:    -4.044      0.000      0.000
REMARK INTER + INTRA:         -15.323
REMARK INTER:                 -10.191
REMARK INTRA:                  -5.132
REMARK UNBOUND:                -5.132
REMARK SMILES CCCCCCCCCCCCCCCCCCCCCCCCCCCC(=O)[O-]
REMARK SMILES IDX 15 1 16 2 17 3 18 4 19 5 20 6 21 7 22 8 23 9 24 10 25 11
REMARK SMILES IDX 26 12 27 13 28 14 29 15 30 16 14 17 13 18 12 19 11 20 10 21
REMARK SMILES IDX 9 22 8 23 7 24 6 25 5 26 4 27 3 28 2 29 1 30
REMARK H PARENT
REMARK Flexibility Score: inf
ROOT
ATOM      1  C   UNL     1       5.159  12.383  83.434  1.00  0.00     0.000 C 
ENDROOT
BRANCH   1   2
ATOM      2  C   UNL     1       4.330  13.472  84.135  1.00  0.00     0.000 C 
BRANCH   2   3
ATOM      3  C   UNL     1       3.273  14.100  83.212  1.00  0.00     0.000 C 
BRANCH   3   4
ATOM      4  C   UNL     1       3.705  14.123  81.737  1.00  0.00     0.000 C 
BRANCH   4   5
ATOM      5  C   UNL     1       2.663  13.429  80.847  1.00  0.00     0.000 C 
BRANCH   5   6
ATOM      6  C   UNL     1       3.297  12.609  79.707  1.00  0.00     0.000 C 
BRANCH   6   7
ATOM      7  C   UNL     1       4.314  13.372  78.839  1.00  0.00     0.000 C 
BRANCH   7   8
ATOM      8  C   UNL     1       5.645  12.618  78.672  1.00  0.00     0.000 C 
BRANCH   8   9
ATOM      9  C   UNL     1       6.029  11.809  79.922  1.00  0.00     0.000 C 
BRANCH   9  10
ATOM     10  C   UNL     1       6.763  10.502  79.586  1.00  0.00     0.000 C 
BRANCH  10  11
ATOM     11  C   UNL     1       6.678   9.509  80.756  1.00  0.00     0.000 C 
BRANCH  11  12
ATOM     12  C   UNL     1       7.812   8.468  80.737  1.00  0.00     0.006 C 
BRANCH  12  13
ATOM     13  C   UNL     1       7.468   7.171  79.987  1.00  0.00     0.053 C 
BRANCH  13  14
ATOM     14  C   UNL     1       8.684   6.511  79.414  1.00  0.00     0.041 C 
ATOM     15  O   UNL     1       8.715   5.263  79.259  1.00  0.00    -0.550 OA
ATOM     16  O   UNL     1       9.779   7.278  79.037  1.00  0.00    -0.550 OA
ENDBRANCH  13  14
ENDBRANCH  12  13
ENDBRANCH  11  12
ENDBRANCH  10  11
ENDBRANCH   9  10
ENDBRANCH   8   9
ENDBRANCH   7   8
ENDBRANCH   6   7
ENDBRANCH   5   6
ENDBRANCH   4   5
ENDBRANCH   3   4
ENDBRANCH   2   3
ENDBRANCH   1   2
BRANCH   1  17
ATOM     17  C   UNL     1       4.669  10.962  83.758  1.00  0.00     0.000 C 
BRANCH  17  18
ATOM     18  C   UNL     1       3.753  10.359  82.670  1.00  0.00     0.000 C 
BRANCH  18  19
ATOM     19  C   UNL     1       2.963   9.144  83.179  1.00  0.00     0.000 C 
BRANCH  19  20
ATOM     20  C   UNL     1       1.471   9.481  83.316  1.00  0.00     0.000 C 
BRANCH  20  21
ATOM     21  C   UNL     1       1.119  10.877  82.779  1.00  0.00     0.000 C 
BRANCH  21  22
ATOM     22  C   UNL     1       0.570  11.811  83.871  1.00  0.00    -0.000 C 
BRANCH  22  23
ATOM     23  C   UNL     1       0.607  11.175  85.273  1.00  0.00    -0.000 C 
BRANCH  23  24
ATOM     24  C   UNL     1       1.765  11.646  86.177  1.00  0.00    -0.000 C 
BRANCH  24  25
ATOM     25  C   UNL     1       2.196  10.642  87.267  1.00  0.00    -0.000 C 
BRANCH  25  26
ATOM     26  C   UNL     1       3.090   9.490  86.774  1.00  0.00    -0.000 C 
BRANCH  26  27
ATOM     27  C   UNL     1       2.413   8.106  86.738  1.00  0.00    -0.000 C 
BRANCH  27  28
ATOM     28  C   UNL     1       0.974   8.096  87.299  1.00  0.00    -0.000 C 
BRANCH  28  29
ATOM     29  C   UNL     1      -0.069   7.686  86.247  1.00  0.00    -0.003 C 
ATOM     30  C   UNL     1       0.405   6.475  85.450  1.00  0.00     0.004 C 
ENDBRANCH  28  29
ENDBRANCH  27  28
ENDBRANCH  26  27
ENDBRANCH  25  26
ENDBRANCH  24  25
ENDBRANCH  23  24
ENDBRANCH  22  23
ENDBRANCH  21  22
ENDBRANCH  20  21
ENDBRANCH  19  20
ENDBRANCH  18  19
ENDBRANCH  17  18
ENDBRANCH   1  17
TORSDOF 26
ENDMDL
MODEL 2
REMARK VINA RESULT:    -3.983      1.495      3.057
REMARK INTER + INTRA:         -15.169
REMARK INTER:                 -10.776
REMARK INTRA:                  -4.392
REMARK UNBOUND:                -5.132
REMARK SMILES CCCCCCCCCCCCCCCCCCCCCCCCCCCC(=O)[O-]
REMARK SMILES IDX 15 1 16 2 17 3 18 4 19 5 20 6 21 7 22 8 23 9 24 10 25 11
REMARK SMILES IDX 26 12 27 13 28 14 29 15 30 16 14 17 13 18 12 19 11 20 10 21
REMARK SMILES IDX 9 22 8 23 7 24 6 25 5 26 4 27 3 28 2 29 1 30
REMARK H PARENT
REMARK Flexibility Score: inf
ROOT
ATOM      1  C   UNL     1       3.001   9.192  83.203  1.00  0.00     0.000 C 
ENDROOT
BRANCH   1   2
ATOM      2  C   UNL     1       4.299   9.884  82.756  1.00  0.00     0.000 C 
BRANCH   2   3
ATOM      3  C   UNL     1       4.647  11.108  83.620  1.00  0.00     0.000 C 
BRANCH   3   4
ATOM      4  C   UNL     1       5.024  12.341  82.783  1.00  0.00     0.000 C 
BRANCH   4   5
ATOM      5  C   UNL     1       3.882  13.369  82.773  1.00  0.00     0.000 C 
BRANCH   5   6
ATOM      6  C   UNL     1       2.894  13.160  81.609  1.00  0.00     0.000 C 
BRANCH   6   7
ATOM      7  C   UNL     1       3.474  12.435  80.381  1.00  0.00     0.000 C 
BRANCH   7   8
ATOM      8  C   UNL     1       4.313  13.358  79.481  1.00  0.00     0.000 C 
BRANCH   8   9
ATOM      9  C   UNL     1       5.347  12.589  78.642  1.00  0.00     0.000 C 
BRANCH   9  10
ATOM     10  C   UNL     1       6.552  12.112  79.468  1.00  0.00     0.000 C 
BRANCH  10  11
ATOM     11  C   UNL     1       6.398  10.635  79.862  1.00  0.00     0.000 C 
BRANCH  11  12
ATOM     12  C   UNL     1       7.726   9.859  79.798  1.00  0.00     0.006 C 
BRANCH  12  13
ATOM     13  C   UNL     1       7.796   8.647  80.741  1.00  0.00     0.053 C 
BRANCH  13  14
ATOM     14  C   UNL     1       7.591   7.354  80.014  1.00  0.00     0.041 C 
ATOM     15  O   UNL     1       8.574   6.625  79.726  1.00  0.00    -0.550 OA
ATOM     16  O   UNL     1       6.308   6.947  79.668  1.00  0.00    -0.550 OA
ENDBRANCH  13  14
ENDBRANCH  12  13
ENDBRANCH  11  12
ENDBRANCH  10  11
ENDBRANCH   9  10
ENDBRANCH   8   9
ENDBRANCH   7   8
ENDBRANCH   6   7
ENDBRANCH   5   6
ENDBRANCH   4   5
ENDBRANCH   3   4
ENDBRANCH   2   3
ENDBRANCH   1   2
BRANCH   1  17
ATOM     17  C   UNL     1       1.743   9.850  82.612  1.00  0.00     0.000 C 
BRANCH  17  18
ATOM     18  C   UNL     1       0.618  10.078  83.644  1.00  0.00     0.000 C 
BRANCH  18  19
ATOM     19  C   UNL     1       0.697  11.465  84.300  1.00  0.00     0.000 C 
BRANCH  19  20
ATOM     20  C   UNL     1       0.798  11.341  85.827  1.00  0.00     0.000 C 
BRANCH  20  21
ATOM     21  C   UNL     1       2.248  11.327  86.335  1.00  0.00     0.000 C 
BRANCH  21  22
ATOM     22  C   UNL     1       2.712   9.925  86.764  1.00  0.00    -0.000 C 
BRANCH  22  23
ATOM     23  C   UNL     1       1.924   9.379  87.969  1.00  0.00    -0.000 C 
BRANCH  23  24
ATOM     24  C   UNL     1       1.352   7.958  87.789  1.00  0.00    -0.000 C 
BRANCH  24  25
ATOM     25  C   UNL     1       0.448   7.764  86.554  1.00  0.00    -0.000 C 
BRANCH  25  26
ATOM     26  C   UNL     1       0.928   6.695  85.556  1.00  0.00    -0.000 C 
BRANCH  26  27
ATOM     27  C   UNL     1       2.453   6.484  85.507  1.00  0.00    -0.000 C 
BRANCH  27  28
ATOM     28  C   UNL     1       2.887   5.007  85.628  1.00  0.00    -0.000 C 
BRANCH  28  29
ATOM     29  C   UNL     1       2.167   4.269  86.767  1.00  0.00    -0.003 C 
ATOM     30  C   UNL     1       2.914   2.995  87.153  1.00  0.00     0.004 C 
ENDBRANCH  28  29
ENDBRANCH  27  28
ENDBRANCH  26  27
ENDBRANCH  25  26
ENDBRANCH  24  25
ENDBRANCH  23  24
ENDBRANCH  22  23
ENDBRANCH  21  22
ENDBRANCH  20  21
ENDBRANCH  19  20
ENDBRANCH  18  19
ENDBRANCH  17  18
ENDBRANCH   1  17
TORSDOF 26
ENDMDL
MODEL 3
REMARK VINA RESULT:    -3.967      1.213      2.053
REMARK INTER + INTRA:         -15.128
REMARK INTER:                 -10.234
REMARK INTRA:                  -4.894
REMARK UNBOUND:                -5.132
REMARK SMILES CCCCCCCCCCCCCCCCCCCCCCCCCCCC(=O)[O-]
REMARK SMILES IDX 15 1 16 2 17 3 18 4 19 5 20 6 21 7 22 8 23 9 24 10 25 11
REMARK SMILES IDX 26 12 27 13 28 14 29 15 30 16 14 17 13 18 12 19 11 20 10 21
REMARK SMILES IDX 9 22 8 23 7 24 6 25 5 26 4 27 3 28 2 29 1 30
REMARK H PARENT
REMARK Flexibility Score: inf
ROOT
ATOM      1  C   UNL     1       4.901  10.460  83.015  1.00  0.00     0.000 C 
ENDROOT
BRANCH   1   2
ATOM      2  C   UNL     1       4.466  11.479  84.081  1.00  0.00     0.000 C 
BRANCH   2   3
ATOM      3  C   UNL     1       5.202  12.823  83.953  1.00  0.00     0.000 C 
BRANCH   3   4
ATOM      4  C   UNL     1       4.439  13.842  83.092  1.00  0.00     0.000 C 
BRANCH   4   5
ATOM      5  C   UNL     1       2.962  13.447  82.951  1.00  0.00     0.000 C 
BRANCH   5   6
ATOM      6  C   UNL     1       2.415  13.659  81.526  1.00  0.00     0.000 C 
BRANCH   6   7
ATOM      7  C   UNL     1       2.601  12.467  80.569  1.00  0.00     0.000 C 
BRANCH   7   8
ATOM      8  C   UNL     1       3.683  12.716  79.505  1.00  0.00     0.000 C 
BRANCH   8   9
ATOM      9  C   UNL     1       5.084  12.285  79.971  1.00  0.00     0.000 C 
BRANCH   9  10
ATOM     10  C   UNL     1       6.089  12.168  78.815  1.00  0.00     0.000 C 
BRANCH  10  11
ATOM     11  C   UNL     1       7.333  11.376  79.248  1.00  0.00     0.000 C 
BRANCH  11  12
ATOM     12  C   UNL     1       6.982  10.045  79.939  1.00  0.00     0.006 C 
BRANCH  12  13
ATOM     13  C   UNL     1       8.047   8.949  79.779  1.00  0.00     0.053 C 
BRANCH  13  14
ATOM     14  C   UNL     1       7.531   7.599  80.169  1.00  0.00     0.041 C 
ATOM     15  O   UNL     1       8.214   6.568  79.940  1.00  0.00    -0.550 OA
ATOM     16  O   UNL     1       6.299   7.481  80.801  1.00  0.00    -0.550 OA
ENDBRANCH  13  14
ENDBRANCH  12  13
ENDBRANCH  11  12
ENDBRANCH  10  11
ENDBRANCH   9  10
ENDBRANCH   8   9
ENDBRANCH   7   8
ENDBRANCH   6   7
ENDBRANCH   5   6
ENDBRANCH   4   5
ENDBRANCH   3   4
ENDBRANCH   2   3
ENDBRANCH   1   2
BRANCH   1  17
ATOM     17  C   UNL     1       3.770   9.495  82.620  1.00  0.00     0.000 C 
BRANCH  17  18
ATOM     18  C   UNL     1       2.499   9.642  83.484  1.00  0.00     0.000 C 
BRANCH  18  19
ATOM     19  C   UNL     1       1.228   9.789  82.634  1.00  0.00     0.000 C 
BRANCH  19  20
ATOM     20  C   UNL     1       0.090  10.411  83.457  1.00  0.00     0.000 C 
BRANCH  20  21
ATOM     21  C   UNL     1       0.596  11.284  84.616  1.00  0.00     0.000 C 
BRANCH  21  22
ATOM     22  C   UNL     1      -0.240  11.113  85.896  1.00  0.00    -0.000 C 
BRANCH  22  23
ATOM     23  C   UNL     1       0.615  11.148  87.176  1.00  0.00    -0.000 C 
BRANCH  23  24
ATOM     24  C   UNL     1       2.135  11.006  86.953  1.00  0.00    -0.000 C 
BRANCH  24  25
ATOM     25  C   UNL     1       2.685   9.570  87.076  1.00  0.00    -0.000 C 
BRANCH  25  26
ATOM     26  C   UNL     1       1.960   8.680  88.102  1.00  0.00    -0.000 C 
BRANCH  26  27
ATOM     27  C   UNL     1       0.821   7.816  87.528  1.00  0.00    -0.000 C 
BRANCH  27  28
ATOM     28  C   UNL     1       0.943   7.541  86.014  1.00  0.00    -0.000 C 
BRANCH  28  29
ATOM     29  C   UNL     1       1.567   6.170  85.709  1.00  0.00    -0.003 C 
ATOM     30  C   UNL     1       3.025   6.315  85.280  1.00  0.00     0.004 C 
ENDBRANCH  28  29
ENDBRANCH  27  28
ENDBRANCH  26  27
ENDBRANCH  25  26
ENDBRANCH  24  25
ENDBRANCH  23  24
ENDBRANCH  22  23
ENDBRANCH  21  22
ENDBRANCH  20  21
ENDBRANCH  19  20
ENDBRANCH  18  19
ENDBRANCH  17  18
ENDBRANCH   1  17
TORSDOF 26
ENDMDL
MODEL 4
REMARK VINA RESULT:    -3.925      2.651      7.658
REMARK INTER + INTRA:         -15.024
REMARK INTER:                 -10.591
REMARK INTRA:                  -4.432
REMARK UNBOUND:                -5.132
REMARK SMILES CCCCCCCCCCCCCCCCCCCCCCCCCCCC(=O)[O-]
REMARK SMILES IDX 15 1 16 2 17 3 18 4 19 5 20 6 21 7 22 8 23 9 24 10 25 11
REMARK SMILES IDX 26 12 27 13 28 14 29 15 30 16 14 17 13 18 12 19 11 20 10 21
REMARK SMILES IDX 9 22 8 23 7 24 6 25 5 26 4 27 3 28 2 29 1 30
REMARK H PARENT
REMARK Flexibility Score: inf
ROOT
ATOM      1  C   UNL     1       1.227  11.034  81.422  1.00  0.00     0.000 C 
ENDROOT
BRANCH   1   2
ATOM      2  C   UNL     1      -0.022  10.903  82.310  1.00  0.00     0.000 C 
BRANCH   2   3
ATOM      3  C   UNL     1       0.079   9.740  83.310  1.00  0.00     0.000 C 
BRANCH   3   4
ATOM      4  C   UNL     1      -0.341  10.138  84.734  1.00  0.00     0.000 C 
BRANCH   4   5
ATOM      5  C   UNL     1      -0.064  11.627  84.993  1.00  0.00     0.000 C 
BRANCH   5   6
ATOM      6  C   UNL     1       0.098  11.957  86.490  1.00  0.00     0.000 C 
BRANCH   6   7
ATOM      7  C   UNL     1      -0.516  10.928  87.457  1.00  0.00     0.000 C 
BRANCH   7   8
ATOM      8  C   UNL     1       0.346  10.695  88.709  1.00  0.00     0.000 C 
BRANCH   8   9
ATOM      9  C   UNL     1       1.853  10.735  88.409  1.00  0.00     0.000 C 
BRANCH   9  10
ATOM     10  C   UNL     1       2.488   9.338  88.346  1.00  0.00     0.000 C 
BRANCH  10  11
ATOM     11  C   UNL     1       2.262   8.694  86.969  1.00  0.00     0.000 C 
BRANCH  11  12
ATOM     12  C   UNL     1       1.235   7.548  87.008  1.00  0.00     0.006 C 
BRANCH  12  13
ATOM     13  C   UNL     1       1.178   6.706  85.723  1.00  0.00     0.053 C 
BRANCH  13  14
ATOM     14  C   UNL     1       2.363   5.800  85.590  1.00  0.00     0.041 C 
ATOM     15  O   UNL     1       3.335   6.129  84.863  1.00  0.00    -0.550 OA
ATOM     16  O   UNL     1       2.399   4.595  86.282  1.00  0.00    -0.550 OA
ENDBRANCH  13  14
ENDBRANCH  12  13
ENDBRANCH  11  12
ENDBRANCH  10  11
ENDBRANCH   9  10
ENDBRANCH   8   9
ENDBRANCH   7   8
ENDBRANCH   6   7
ENDBRANCH   5   6
ENDBRANCH   4   5
ENDBRANCH   3   4
ENDBRANCH   2   3
ENDBRANCH   1   2
BRANCH   1  17
ATOM     17  C   UNL     1       1.438  12.466  80.901  1.00  0.00     0.000 C 
BRANCH  17  18
ATOM     18  C   UNL     1       2.791  13.084  81.314  1.00  0.00     0.000 C 
BRANCH  18  19
ATOM     19  C   UNL     1       2.662  14.017  82.527  1.00  0.00     0.000 C 
BRANCH  19  20
ATOM     20  C   UNL     1       2.913  13.251  83.834  1.00  0.00     0.000 C 
BRANCH  20  21
ATOM     21  C   UNL     1       3.996  12.168  83.698  1.00  0.00     0.000 C 
BRANCH  21  22
ATOM     22  C   UNL     1       3.570  10.823  84.308  1.00  0.00    -0.000 C 
BRANCH  22  23
ATOM     23  C   UNL     1       3.815   9.634  83.361  1.00  0.00    -0.000 C 
BRANCH  23  24
ATOM     24  C   UNL     1       4.763   9.922  82.179  1.00  0.00    -0.000 C 
BRANCH  24  25
ATOM     25  C   UNL     1       6.025   9.036  82.119  1.00  0.00    -0.000 C 
BRANCH  25  26
ATOM     26  C   UNL     1       6.009   7.953  81.024  1.00  0.00    -0.000 C 
BRANCH  26  27
ATOM     27  C   UNL     1       7.360   7.710  80.326  1.00  0.00    -0.000 C 
BRANCH  27  28
ATOM     28  C   UNL     1       8.139   9.002  79.996  1.00  0.00    -0.000 C 
BRANCH  28  29
ATOM     29  C   UNL     1       9.620   8.737  79.683  1.00  0.00    -0.003 C 
ATOM     30  C   UNL     1       9.835   7.297  79.228  1.00  0.00     0.004 C 
ENDBRANCH  28  29
ENDBRANCH  27  28
ENDBRANCH  26  27
ENDBRANCH  25  26
ENDBRANCH  24  25
ENDBRANCH  23  24
ENDBRANCH  22  23
ENDBRANCH  21  22
ENDBRANCH  20  21
ENDBRANCH  19  20
ENDBRANCH  18  19
ENDBRANCH  17  18
ENDBRANCH   1  17
TORSDOF 26
ENDMDL
MODEL 5
REMARK VINA RESULT:    -3.822     13.669     16.015
REMARK INTER + INTRA:         -14.762
REMARK INTER:                  -9.373
REMARK INTRA:                  -5.389
REMARK UNBOUND:                -5.132
REMARK SMILES CCCCCCCCCCCCCCCCCCCCCCCCCCCC(=O)[O-]
REMARK SMILES IDX 15 1 16 2 17 3 18 4 19 5 20 6 21 7 22 8 23 9 24 10 25 11
REMARK SMILES IDX 26 12 27 13 28 14 29 15 30 16 14 17 13 18 12 19 11 20 10 21
REMARK SMILES IDX 9 22 8 23 7 24 6 25 5 26 4 27 3 28 2 29 1 30
REMARK H PARENT
REMARK Flexibility Score: inf
ROOT
ATOM      1  C   UNL     1      14.618   1.843  78.772  1.00  0.00     0.000 C 
ENDROOT
BRANCH   1   2
ATOM      2  C   UNL     1      15.367   2.082  77.450  1.00  0.00     0.000 C 
BRANCH   2   3
ATOM      3  C   UNL     1      16.890   2.178  77.640  1.00  0.00     0.000 C 
BRANCH   3   4
ATOM      4  C   UNL     1      17.667   1.215  76.727  1.00  0.00     0.000 C 
BRANCH   4   5
ATOM      5  C   UNL     1      18.504   1.989  75.697  1.00  0.00     0.000 C 
BRANCH   5   6
ATOM      6  C   UNL     1      18.554   3.503  75.977  1.00  0.00     0.000 C 
BRANCH   6   7
ATOM      7  C   UNL     1      18.218   4.402  74.772  1.00  0.00     0.000 C 
BRANCH   7   8
ATOM      8  C   UNL     1      17.454   5.676  75.170  1.00  0.00     0.000 C 
BRANCH   8   9
ATOM      9  C   UNL     1      16.142   5.374  75.912  1.00  0.00     0.000 C 
BRANCH   9  10
ATOM     10  C   UNL     1      16.088   6.003  77.313  1.00  0.00     0.000 C 
BRANCH  10  11
ATOM     11  C   UNL     1      17.345   6.845  77.585  1.00  0.00     0.000 C 
BRANCH  11  12
ATOM     12  C   UNL     1      18.343   6.139  78.521  1.00  0.00     0.006 C 
BRANCH  12  13
ATOM     13  C   UNL     1      17.687   5.290  79.621  1.00  0.00     0.053 C 
BRANCH  13  14
ATOM     14  C   UNL     1      17.145   6.130  80.735  1.00  0.00     0.041 C 
ATOM     15  O   UNL     1      15.973   5.948  81.155  1.00  0.00    -0.550 OA
ATOM     16  O   UNL     1      17.940   7.108  81.319  1.00  0.00    -0.550 OA
ENDBRANCH  13  14
ENDBRANCH  12  13
ENDBRANCH  11  12
ENDBRANCH  10  11
ENDBRANCH   9  10
ENDBRANCH   8   9
ENDBRANCH   7   8
ENDBRANCH   6   7
ENDBRANCH   5   6
ENDBRANCH   4   5
ENDBRANCH   3   4
ENDBRANCH   2   3
ENDBRANCH   1   2
BRANCH   1  17
ATOM     17  C   UNL     1      15.156   2.708  79.924  1.00  0.00     0.000 C 
BRANCH  17  18
ATOM     18  C   UNL     1      14.596   2.316  81.308  1.00  0.00     0.000 C 
BRANCH  18  19
ATOM     19  C   UNL     1      15.700   1.885  82.286  1.00  0.00     0.000 C 
BRANCH  19  20
ATOM     20  C   UNL     1      17.047   2.509  81.895  1.00  0.00     0.000 C 
BRANCH  20  21
ATOM     21  C   UNL     1      18.196   1.488  81.865  1.00  0.00     0.000 C 
BRANCH  21  22
ATOM     22  C   UNL     1      17.702   0.045  81.663  1.00  0.00    -0.000 C 
BRANCH  22  23
ATOM     23  C   UNL     1      17.796  -0.417  80.198  1.00  0.00    -0.000 C 
BRANCH  23  24
ATOM     24  C   UNL     1      16.503  -1.027  79.618  1.00  0.00    -0.000 C 
BRANCH  24  25
ATOM     25  C   UNL     1      15.405  -1.343  80.654  1.00  0.00    -0.000 C 
BRANCH  25  26
ATOM     26  C   UNL     1      15.337  -2.814  81.104  1.00  0.00    -0.000 C 
BRANCH  26  27
ATOM     27  C   UNL     1      15.175  -3.027  82.621  1.00  0.00    -0.000 C 
BRANCH  27  28
ATOM     28  C   UNL     1      14.965  -1.722  83.419  1.00  0.00    -0.000 C 
BRANCH  28  29
ATOM     29  C   UNL     1      13.541  -1.597  83.986  1.00  0.00    -0.003 C 
ATOM     30  C   UNL     1      12.966  -0.209  83.719  1.00  0.00     0.004 C 
ENDBRANCH  28  29
ENDBRANCH  27  28
ENDBRANCH  26  27
ENDBRANCH  25  26
ENDBRANCH  24  25
ENDBRANCH  23  24
ENDBRANCH  22  23
ENDBRANCH  21  22
ENDBRANCH  20  21
ENDBRANCH  19  20
ENDBRANCH  18  19
ENDBRANCH  17  18
ENDBRANCH   1  17
TORSDOF 26
ENDMDL
MODEL 6
REMARK VINA RESULT:    -3.756      5.749     12.538
REMARK INTER + INTRA:         -14.597
REMARK INTER:                 -11.848
REMARK INTRA:                  -2.749
REMARK UNBOUND:                -5.132
REMARK SMILES CCCCCCCCCCCCCCCCCCCCCCCCCCCC(=O)[O-]
REMARK SMILES IDX 15 1 16 2 17 3 18 4 19 5 20 6 21 7 22 8 23 9 24 10 25 11
REMARK SMILES IDX 26 12 27 13 28 14 29 15 30 16 14 17 13 18 12 19 11 20 10 21
REMARK SMILES IDX 9 22 8 23 7 24 6 25 5 26 4 27 3 28 2 29 1 30
REMARK H PARENT
REMARK Flexibility Score: inf
ROOT
ATOM      1  C   UNL     1       9.744   4.263  79.984  1.00  0.00     0.000 C 
ENDROOT
BRANCH   1   2
ATOM      2  C   UNL     1       8.933   5.439  79.414  1.00  0.00     0.000 C 
BRANCH   2   3
ATOM      3  C   UNL     1       9.783   6.704  79.211  1.00  0.00     0.000 C 
BRANCH   3   4
ATOM      4  C   UNL     1       9.029   7.994  79.573  1.00  0.00     0.000 C 
BRANCH   4   5
ATOM      5  C   UNL     1       7.516   7.821  79.376  1.00  0.00     0.000 C 
BRANCH   5   6
ATOM      6  C   UNL     1       6.737   7.776  80.705  1.00  0.00     0.000 C 
BRANCH   6   7
ATOM      7  C   UNL     1       6.408   9.150  81.317  1.00  0.00     0.000 C 
BRANCH   7   8
ATOM      8  C   UNL     1       5.149   9.127  82.200  1.00  0.00     0.000 C 
BRANCH   8   9
ATOM      9  C   UNL     1       4.759  10.522  82.714  1.00  0.00     0.000 C 
BRANCH   9  10
ATOM     10  C   UNL     1       3.581  11.136  81.942  1.00  0.00     0.000 C 
BRANCH  10  11
ATOM     11  C   UNL     1       3.624  12.671  82.006  1.00  0.00     0.000 C 
BRANCH  11  12
ATOM     12  C   UNL     1       4.724  13.275  81.114  1.00  0.00     0.006 C 
BRANCH  12  13
ATOM     13  C   UNL     1       4.869  12.596  79.742  1.00  0.00     0.053 C 
BRANCH  13  14
ATOM     14  C   UNL     1       4.298  13.429  78.637  1.00  0.00     0.041 C 
ATOM     15  O   UNL     1       3.134  13.210  78.213  1.00  0.00    -0.550 OA
ATOM     16  O   UNL     1       5.048  14.460  78.084  1.00  0.00    -0.550 OA
ENDBRANCH  13  14
ENDBRANCH  12  13
ENDBRANCH  11  12
ENDBRANCH  10  11
ENDBRANCH   9  10
ENDBRANCH   8   9
ENDBRANCH   7   8
ENDBRANCH   6   7
ENDBRANCH   5   6
ENDBRANCH   4   5
ENDBRANCH   3   4
ENDBRANCH   2   3
ENDBRANCH   1   2
BRANCH   1  17
ATOM     17  C   UNL     1      11.242   4.358  79.650  1.00  0.00     0.000 C 
BRANCH  17  18
ATOM     18  C   UNL     1      11.884   3.003  79.283  1.00  0.00     0.000 C 
BRANCH  18  19
ATOM     19  C   UNL     1      13.413   3.023  79.423  1.00  0.00     0.000 C 
BRANCH  19  20
ATOM     20  C   UNL     1      13.961   1.603  79.628  1.00  0.00     0.000 C 
BRANCH  20  21
ATOM     21  C   UNL     1      15.245   1.332  78.828  1.00  0.00     0.000 C 
BRANCH  21  22
ATOM     22  C   UNL     1      15.384   2.250  77.602  1.00  0.00    -0.000 C 
BRANCH  22  23
ATOM     23  C   UNL     1      16.852   2.539  77.237  1.00  0.00    -0.000 C 
BRANCH  23  24
ATOM     24  C   UNL     1      17.162   4.007  76.879  1.00  0.00    -0.000 C 
BRANCH  24  25
ATOM     25  C   UNL     1      15.944   4.953  76.874  1.00  0.00    -0.000 C 
BRANCH  25  26
ATOM     26  C   UNL     1      16.058   6.168  77.811  1.00  0.00    -0.000 C 
BRANCH  26  27
ATOM     27  C   UNL     1      15.314   6.032  79.153  1.00  0.00    -0.000 C 
BRANCH  27  28
ATOM     28  C   UNL     1      16.244   5.838  80.370  1.00  0.00    -0.000 C 
BRANCH  28  29
ATOM     29  C   UNL     1      16.458   4.358  80.723  1.00  0.00    -0.003 C 
ATOM     30  C   UNL     1      17.939   3.993  80.678  1.00  0.00     0.004 C 
ENDBRANCH  28  29
ENDBRANCH  27  28
ENDBRANCH  26  27
ENDBRANCH  25  26
ENDBRANCH  24  25
ENDBRANCH  23  24
ENDBRANCH  22  23
ENDBRANCH  21  22
ENDBRANCH  20  21
ENDBRANCH  19  20
ENDBRANCH  18  19
ENDBRANCH  17  18
ENDBRANCH   1  17
TORSDOF 26
ENDMDL
MODEL 7
REMARK VINA RESULT:    -3.711     13.751     16.754
REMARK INTER + INTRA:         -14.483
REMARK INTER:                  -8.991
REMARK INTRA:                  -5.492
REMARK UNBOUND:                -5.132
REMARK SMILES CCCCCCCCCCCCCCCCCCCCCCCCCCCC(=O)[O-]
REMARK SMILES IDX 15 1 16 2 17 3 18 4 19 5 20 6 21 7 22 8 23 9 24 10 25 11
REMARK SMILES IDX 26 12 27 13 28 14 29 15 30 16 14 17 13 18 12 19 11 20 10 21
REMARK SMILES IDX 9 22 8 23 7 24 6 25 5 26 4 27 3 28 2 29 1 30
REMARK H PARENT
REMARK Flexibility Score: inf
ROOT
ATOM      1  C   UNL     1      14.958   1.993  78.026  1.00  0.00     0.000 C 
ENDROOT
BRANCH   1   2
ATOM      2  C   UNL     1      14.771   2.661  79.398  1.00  0.00     0.000 C 
BRANCH   2   3
ATOM      3  C   UNL     1      13.940   1.805  80.368  1.00  0.00     0.000 C 
BRANCH   3   4
ATOM      4  C   UNL     1      14.345   2.002  81.837  1.00  0.00     0.000 C 
BRANCH   4   5
ATOM      5  C   UNL     1      15.722   2.677  81.942  1.00  0.00     0.000 C 
BRANCH   5   6
ATOM      6  C   UNL     1      16.832   1.709  82.396  1.00  0.00     0.000 C 
BRANCH   6   7
ATOM      7  C   UNL     1      16.356   0.520  83.250  1.00  0.00     0.000 C 
BRANCH   7   8
ATOM      8  C   UNL     1      16.855  -0.835  82.722  1.00  0.00     0.000 C 
BRANCH   8   9
ATOM      9  C   UNL     1      16.954  -0.875  81.189  1.00  0.00     0.000 C 
BRANCH   9  10
ATOM     10  C   UNL     1      15.665  -1.376  80.519  1.00  0.00     0.000 C 
BRANCH  10  11
ATOM     11  C   UNL     1      15.300  -2.784  81.015  1.00  0.00     0.000 C 
BRANCH  11  12
ATOM     12  C   UNL     1      13.862  -2.870  81.558  1.00  0.00     0.006 C 
BRANCH  12  13
ATOM     13  C   UNL     1      13.280  -1.526  82.025  1.00  0.00     0.053 C 
BRANCH  13  14
ATOM     14  C   UNL     1      13.051  -1.495  83.504  1.00  0.00     0.041 C 
ATOM     15  O   UNL     1      13.085  -2.559  84.175  1.00  0.00    -0.550 OA
ATOM     16  O   UNL     1      12.813  -0.285  84.146  1.00  0.00    -0.550 OA
ENDBRANCH  13  14
ENDBRANCH  12  13
ENDBRANCH  11  12
ENDBRANCH  10  11
ENDBRANCH   9  10
ENDBRANCH   8   9
ENDBRANCH   7   8
ENDBRANCH   6   7
ENDBRANCH   5   6
ENDBRANCH   4   5
ENDBRANCH   3   4
ENDBRANCH   2   3
ENDBRANCH   1   2
BRANCH   1  17
ATOM     17  C   UNL     1      16.285   1.224  77.916  1.00  0.00     0.000 C 
BRANCH  17  18
ATOM     18  C   UNL     1      17.463   1.912  78.638  1.00  0.00     0.000 C 
BRANCH  18  19
ATOM     19  C   UNL     1      18.594   2.300  77.674  1.00  0.00     0.000 C 
BRANCH  19  20
ATOM     20  C   UNL     1      18.339   1.723  76.274  1.00  0.00     0.000 C 
BRANCH  20  21
ATOM     21  C   UNL     1      18.534   2.757  75.153  1.00  0.00     0.000 C 
BRANCH  21  22
ATOM     22  C   UNL     1      18.651   4.195  75.686  1.00  0.00    -0.000 C 
BRANCH  22  23
ATOM     23  C   UNL     1      17.391   5.037  75.413  1.00  0.00    -0.000 C 
BRANCH  23  24
ATOM     24  C   UNL     1      16.343   5.034  76.545  1.00  0.00    -0.000 C 
BRANCH  24  25
ATOM     25  C   UNL     1      16.133   6.391  77.248  1.00  0.00    -0.000 C 
BRANCH  25  26
ATOM     26  C   UNL     1      17.409   7.232  77.437  1.00  0.00    -0.000 C 
BRANCH  26  27
ATOM     27  C   UNL     1      17.986   7.230  78.866  1.00  0.00    -0.000 C 
BRANCH  27  28
ATOM     28  C   UNL     1      18.687   5.912  79.259  1.00  0.00    -0.000 C 
BRANCH  28  29
ATOM     29  C   UNL     1      17.906   5.119  80.319  1.00  0.00    -0.003 C 
ATOM     30  C   UNL     1      16.778   5.959  80.910  1.00  0.00     0.004 C 
ENDBRANCH  28  29
ENDBRANCH  27  28
ENDBRANCH  26  27
ENDBRANCH  25  26
ENDBRANCH  24  25
ENDBRANCH  23  24
ENDBRANCH  22  23
ENDBRANCH  21  22
ENDBRANCH  20  21
ENDBRANCH  19  20
ENDBRANCH  18  19
ENDBRANCH  17  18
ENDBRANCH   1  17
TORSDOF 26
ENDMDL
MODEL 8
REMARK VINA RESULT:    -3.691     13.363     16.011
REMARK INTER + INTRA:         -14.433
REMARK INTER:                  -9.591
REMARK INTRA:                  -4.842
REMARK UNBOUND:                -5.132
REMARK SMILES CCCCCCCCCCCCCCCCCCCCCCCCCCCC(=O)[O-]
REMARK SMILES IDX 15 1 16 2 17 3 18 4 19 5 20 6 21 7 22 8 23 9 24 10 25 11
REMARK SMILES IDX 26 12 27 13 28 14 29 15 30 16 14 17 13 18 12 19 11 20 10 21
REMARK SMILES IDX 9 22 8 23 7 24 6 25 5 26 4 27 3 28 2 29 1 30
REMARK H PARENT
REMARK Flexibility Score: inf
ROOT
ATOM      1  C   UNL     1      14.481   2.669  80.779  1.00  0.00     0.000 C 
ENDROOT
BRANCH   1   2
ATOM      2  C   UNL     1      14.138   1.492  79.851  1.00  0.00     0.000 C 
BRANCH   2   3
ATOM      3  C   UNL     1      14.569   1.738  78.396  1.00  0.00     0.000 C 
BRANCH   3   4
ATOM      4  C   UNL     1      16.094   1.835  78.232  1.00  0.00     0.000 C 
BRANCH   4   5
ATOM      5  C   UNL     1      16.570   1.031  77.013  1.00  0.00     0.000 C 
BRANCH   5   6
ATOM      6  C   UNL     1      18.098   1.077  76.821  1.00  0.00     0.000 C 
BRANCH   6   7
ATOM      7  C   UNL     1      18.578   1.846  75.576  1.00  0.00     0.000 C 
BRANCH   7   8
ATOM      8  C   UNL     1      18.686   3.362  75.812  1.00  0.00     0.000 C 
BRANCH   8   9
ATOM      9  C   UNL     1      18.161   4.186  74.625  1.00  0.00     0.000 C 
BRANCH   9  10
ATOM     10  C   UNL     1      17.311   5.389  75.062  1.00  0.00     0.000 C 
BRANCH  10  11
ATOM     11  C   UNL     1      16.331   4.992  76.178  1.00  0.00     0.000 C 
BRANCH  11  12
ATOM     12  C   UNL     1      16.341   5.979  77.359  1.00  0.00     0.006 C 
BRANCH  12  13
ATOM     13  C   UNL     1      15.737   5.419  78.656  1.00  0.00     0.053 C 
BRANCH  13  14
ATOM     14  C   UNL     1      16.464   5.901  79.873  1.00  0.00     0.041 C 
ATOM     15  O   UNL     1      17.708   6.088  79.836  1.00  0.00    -0.550 OA
ATOM     16  O   UNL     1      15.765   6.159  81.045  1.00  0.00    -0.550 OA
ENDBRANCH  13  14
ENDBRANCH  12  13
ENDBRANCH  11  12
ENDBRANCH  10  11
ENDBRANCH   9  10
ENDBRANCH   8   9
ENDBRANCH   7   8
ENDBRANCH   6   7
ENDBRANCH   5   6
ENDBRANCH   4   5
ENDBRANCH   3   4
ENDBRANCH   2   3
ENDBRANCH   1   2
BRANCH   1  17
ATOM     17  C   UNL     1      15.406   2.261  81.939  1.00  0.00     0.000 C 
BRANCH  17  18
ATOM     18  C   UNL     1      16.835   2.834  81.824  1.00  0.00     0.000 C 
BRANCH  18  19
ATOM     19  C   UNL     1      17.855   2.035  82.649  1.00  0.00     0.000 C 
BRANCH  19  20
ATOM     20  C   UNL     1      19.125   1.762  81.830  1.00  0.00     0.000 C 
BRANCH  20  21
ATOM     21  C   UNL     1      18.839   1.070  80.488  1.00  0.00     0.000 C 
BRANCH  21  22
ATOM     22  C   UNL     1      18.752  -0.460  80.616  1.00  0.00    -0.000 C 
BRANCH  22  23
ATOM     23  C   UNL     1      17.411  -1.025  80.113  1.00  0.00    -0.000 C 
BRANCH  23  24
ATOM     24  C   UNL     1      16.286  -1.083  81.166  1.00  0.00    -0.000 C 
BRANCH  24  25
ATOM     25  C   UNL     1      16.743  -1.445  82.595  1.00  0.00    -0.000 C 
BRANCH  25  26
ATOM     26  C   UNL     1      15.604  -1.692  83.600  1.00  0.00    -0.000 C 
BRANCH  26  27
ATOM     27  C   UNL     1      14.182  -1.529  83.031  1.00  0.00    -0.000 C 
BRANCH  27  28
ATOM     28  C   UNL     1      13.424  -0.299  83.575  1.00  0.00    -0.000 C 
BRANCH  28  29
ATOM     29  C   UNL     1      12.053  -0.663  84.167  1.00  0.00    -0.003 C 
ATOM     30  C   UNL     1      11.926  -2.170  84.369  1.00  0.00     0.004 C 
ENDBRANCH  28  29
ENDBRANCH  27  28
ENDBRANCH  26  27
ENDBRANCH  25  26
ENDBRANCH  24  25
ENDBRANCH  23  24
ENDBRANCH  22  23
ENDBRANCH  21  22
ENDBRANCH  20  21
ENDBRANCH  19  20
ENDBRANCH  18  19
ENDBRANCH  17  18
ENDBRANCH   1  17
TORSDOF 26
ENDMDL
MODEL 9
REMARK VINA RESULT:    -3.657     13.115     16.489
REMARK INTER + INTRA:         -14.348
REMARK INTER:                  -8.872
REMARK INTRA:                  -5.476
REMARK UNBOUND:                -5.132
REMARK SMILES CCCCCCCCCCCCCCCCCCCCCCCCCCCC(=O)[O-]
REMARK SMILES IDX 15 1 16 2 17 3 18 4 19 5 20 6 21 7 22 8 23 9 24 10 25 11
REMARK SMILES IDX 26 12 27 13 28 14 29 15 30 16 14 17 13 18 12 19 11 20 10 21
REMARK SMILES IDX 9 22 8 23 7 24 6 25 5 26 4 27 3 28 2 29 1 30
REMARK H PARENT
REMARK Flexibility Score: inf
ROOT
ATOM      1  C   UNL     1      13.839   3.517  79.404  1.00  0.00     0.000 C 
ENDROOT
BRANCH   1   2
ATOM      2  C   UNL     1      14.311   2.107  79.796  1.00  0.00     0.000 C 
BRANCH   2   3
ATOM      3  C   UNL     1      14.227   1.852  81.310  1.00  0.00     0.000 C 
BRANCH   3   4
ATOM      4  C   UNL     1      15.410   2.456  82.084  1.00  0.00     0.000 C 
BRANCH   4   5
ATOM      5  C   UNL     1      16.325   1.354  82.638  1.00  0.00     0.000 C 
BRANCH   5   6
ATOM      6  C   UNL     1      17.711   1.327  81.965  1.00  0.00     0.000 C 
BRANCH   6   7
ATOM      7  C   UNL     1      17.703   0.980  80.465  1.00  0.00     0.000 C 
BRANCH   7   8
ATOM      8  C   UNL     1      17.798  -0.532  80.199  1.00  0.00     0.000 C 
BRANCH   8   9
ATOM      9  C   UNL     1      16.421  -1.213  80.144  1.00  0.00     0.000 C 
BRANCH   9  10
ATOM     10  C   UNL     1      16.273  -2.347  81.170  1.00  0.00     0.000 C 
BRANCH  10  11
ATOM     11  C   UNL     1      14.943  -2.229  81.931  1.00  0.00     0.000 C 
BRANCH  11  12
ATOM     12  C   UNL     1      13.855  -1.501  81.121  1.00  0.00     0.006 C 
BRANCH  12  13
ATOM     13  C   UNL     1      12.461  -1.527  81.769  1.00  0.00     0.053 C 
BRANCH  13  14
ATOM     14  C   UNL     1      12.522  -1.307  83.249  1.00  0.00     0.041 C 
ATOM     15  O   UNL     1      12.793  -0.169  83.711  1.00  0.00    -0.550 OA
ATOM     16  O   UNL     1      12.265  -2.360  84.119  1.00  0.00    -0.550 OA
ENDBRANCH  13  14
ENDBRANCH  12  13
ENDBRANCH  11  12
ENDBRANCH  10  11
ENDBRANCH   9  10
ENDBRANCH   8   9
ENDBRANCH   7   8
ENDBRANCH   6   7
ENDBRANCH   5   6
ENDBRANCH   4   5
ENDBRANCH   3   4
ENDBRANCH   2   3
ENDBRANCH   1   2
BRANCH   1  17
ATOM     17  C   UNL     1      15.005   4.455  79.048  1.00  0.00     0.000 C 
BRANCH  17  18
ATOM     18  C   UNL     1      15.155   5.651  80.012  1.00  0.00     0.000 C 
BRANCH  18  19
ATOM     19  C   UNL     1      16.561   5.734  80.626  1.00  0.00     0.000 C 
BRANCH  19  20
ATOM     20  C   UNL     1      17.494   4.691  79.994  1.00  0.00     0.000 C 
BRANCH  20  21
ATOM     21  C   UNL     1      18.723   5.316  79.316  1.00  0.00     0.000 C 
BRANCH  21  22
ATOM     22  C   UNL     1      18.514   6.797  78.956  1.00  0.00    -0.000 C 
BRANCH  22  23
ATOM     23  C   UNL     1      18.281   7.017  77.450  1.00  0.00    -0.000 C 
BRANCH  23  24
ATOM     24  C   UNL     1      16.806   6.965  77.000  1.00  0.00    -0.000 C 
BRANCH  24  25
ATOM     25  C   UNL     1      16.488   5.914  75.917  1.00  0.00    -0.000 C 
BRANCH  25  26
ATOM     26  C   UNL     1      17.707   5.394  75.134  1.00  0.00    -0.000 C 
BRANCH  26  27
ATOM     27  C   UNL     1      18.065   3.918  75.385  1.00  0.00    -0.000 C 
BRANCH  27  28
ATOM     28  C   UNL     1      17.292   3.274  76.557  1.00  0.00    -0.000 C 
BRANCH  28  29
ATOM     29  C   UNL     1      17.729   1.826  76.831  1.00  0.00    -0.003 C 
ATOM     30  C   UNL     1      16.522   0.895  76.907  1.00  0.00     0.004 C 
ENDBRANCH  28  29
ENDBRANCH  27  28
ENDBRANCH  26  27
ENDBRANCH  25  26
ENDBRANCH  24  25
ENDBRANCH  23  24
ENDBRANCH  22  23
ENDBRANCH  21  22
ENDBRANCH  20  21
ENDBRANCH  19  20
ENDBRANCH  18  19
ENDBRANCH  17  18
ENDBRANCH   1  17
TORSDOF 26
ENDMDL
