MODEL 1
REMARK VINA RESULT:    -5.981      0.000      0.000
REMARK INTER + INTRA:          -5.981
REMARK INTER:                  -5.981
REMARK INTRA:                   0.000
REMARK UNBOUND:                 0.000
REMARK SMILES C=C1CCC[C@@]2(C)CC(=O)C(=C(C)C)C[C@@H]12
REMARK SMILES IDX 13 1 12 2 11 3 15 4 16 5 2 6 1 7 3 8 4 9 5 10 6 11 8 12 9 13
REMARK SMILES IDX 10 14 7 15 14 16
REMARK H PARENT
REMARK Flexibility Score: inf
ROOT
ATOM      1  C   UNL     1      -7.499  30.124  26.878  1.00  0.00     0.039 C 
ATOM      2  C   UNL     1      -8.682  30.925  26.384  1.00  0.00    -0.070 C 
ATOM      3  C   UNL     1      -8.832  31.252  25.067  1.00  0.00    -0.006 C 
ATOM      4  C   UNL     1     -10.056  31.988  24.551  1.00  0.00     0.047 C 
ATOM      5  C   UNL     1      -9.657  33.013  23.459  1.00  0.00     0.025 C 
ATOM      6  C   UNL     1      -8.821  34.149  24.071  1.00  0.00    -0.073 C 
ATOM      7  C   UNL     1      -9.374  34.937  25.012  1.00  0.00     0.008 C 
ATOM      8  C   UNL     1      -7.432  34.528  23.592  1.00  0.00     0.031 C 
ATOM      9  C   UNL     1      -6.880  33.657  22.467  1.00  0.00     0.005 C 
ATOM     10  C   UNL     1      -7.982  33.221  21.508  1.00  0.00     0.008 C 
ATOM     11  C   UNL     1      -9.011  32.294  22.204  1.00  0.00    -0.018 C 
ATOM     12  C   UNL     1      -8.340  30.920  22.569  1.00  0.00     0.088 C 
ATOM     13  C   UNL     1      -7.879  30.850  23.997  1.00  0.00     0.159 C 
ATOM     14  O   UNL     1      -6.708  30.459  24.247  1.00  0.00    -0.295 OA
ATOM     15  C   UNL     1     -10.125  32.002  21.167  1.00  0.00     0.012 C 
ATOM     16  C   UNL     1      -9.714  31.329  27.412  1.00  0.00     0.039 C 
ENDROOT
TORSDOF 0
ENDMDL
MODEL 2
REMARK VINA RESULT:    -5.657      1.705      3.656
REMARK INTER + INTRA:          -5.657
REMARK INTER:                  -5.657
REMARK INTRA:                   0.000
REMARK UNBOUND:                 0.000
REMARK SMILES C=C1CCC[C@@]2(C)CC(=O)C(=C(C)C)C[C@@H]12
REMARK SMILES IDX 13 1 12 2 11 3 15 4 16 5 2 6 1 7 3 8 4 9 5 10 6 11 8 12 9 13
REMARK SMILES IDX 10 14 7 15 14 16
REMARK H PARENT
REMARK Flexibility Score: inf
ROOT
ATOM      1  C   UNL     1      -9.438  31.912  26.401  1.00  0.00     0.039 C 
ATOM      2  C   UNL     1      -8.291  31.387  25.569  1.00  0.00    -0.070 C 
ATOM      3  C   UNL     1      -8.100  31.777  24.274  1.00  0.00    -0.006 C 
ATOM      4  C   UNL     1      -6.906  31.316  23.458  1.00  0.00     0.047 C 
ATOM      5  C   UNL     1      -7.322  31.041  21.989  1.00  0.00     0.025 C 
ATOM      6  C   UNL     1      -8.261  29.826  21.918  1.00  0.00    -0.073 C 
ATOM      7  C   UNL     1      -7.809  28.622  22.315  1.00  0.00     0.008 C 
ATOM      8  C   UNL     1      -9.648  29.867  21.304  1.00  0.00     0.031 C 
ATOM      9  C   UNL     1     -10.085  31.237  20.792  1.00  0.00     0.005 C 
ATOM     10  C   UNL     1      -8.911  32.014  20.206  1.00  0.00     0.008 C 
ATOM     11  C   UNL     1      -7.856  32.357  21.288  1.00  0.00    -0.018 C 
ATOM     12  C   UNL     1      -8.448  33.394  22.311  1.00  0.00     0.088 C 
ATOM     13  C   UNL     1      -8.971  32.753  23.564  1.00  0.00     0.159 C 
ATOM     14  O   UNL     1     -10.123  33.054  23.975  1.00  0.00    -0.295 OA
ATOM     15  C   UNL     1      -6.676  33.049  20.560  1.00  0.00     0.012 C 
ATOM     16  C   UNL     1      -7.339  30.424  26.243  1.00  0.00     0.039 C 
ENDROOT
TORSDOF 0
ENDMDL
MODEL 3
REMARK VINA RESULT:    -3.608      1.631      4.756
REMARK INTER + INTRA:          -3.608
REMARK INTER:                  -3.608
REMARK INTRA:                   0.000
REMARK UNBOUND:                 0.000
REMARK SMILES C=C1CCC[C@@]2(C)CC(=O)C(=C(C)C)C[C@@H]12
REMARK SMILES IDX 13 1 12 2 11 3 15 4 16 5 2 6 1 7 3 8 4 9 5 10 6 11 8 12 9 13
REMARK SMILES IDX 10 14 7 15 14 16
REMARK H PARENT
REMARK Flexibility Score: inf
ROOT
ATOM      1  C   UNL     1      -7.125  34.169  20.743  1.00  0.00     0.039 C 
ATOM      2  C   UNL     1      -8.115  33.052  20.979  1.00  0.00    -0.070 C 
ATOM      3  C   UNL     1      -8.405  32.598  22.234  1.00  0.00    -0.006 C 
ATOM      4  C   UNL     1      -9.456  31.531  22.486  1.00  0.00     0.047 C 
ATOM      5  C   UNL     1      -8.997  30.566  23.609  1.00  0.00     0.025 C 
ATOM      6  C   UNL     1      -7.790  29.737  23.141  1.00  0.00    -0.073 C 
ATOM      7  C   UNL     1      -7.931  28.906  22.092  1.00  0.00     0.008 C 
ATOM      8  C   UNL     1      -6.459  29.699  23.869  1.00  0.00     0.031 C 
ATOM      9  C   UNL     1      -6.374  30.595  25.101  1.00  0.00     0.005 C 
ATOM     10  C   UNL     1      -7.707  30.655  25.840  1.00  0.00     0.008 C 
ATOM     11  C   UNL     1      -8.806  31.332  24.981  1.00  0.00    -0.018 C 
ATOM     12  C   UNL     1      -8.477  32.857  24.787  1.00  0.00     0.088 C 
ATOM     13  C   UNL     1      -7.804  33.153  23.477  1.00  0.00     0.159 C 
ATOM     14  O   UNL     1      -6.758  33.853  23.468  1.00  0.00    -0.295 OA
ATOM     15  C   UNL     1     -10.124  31.243  25.791  1.00  0.00     0.012 C 
ATOM     16  C   UNL     1      -8.798  32.472  19.761  1.00  0.00     0.039 C 
ENDROOT
TORSDOF 0
ENDMDL
MODEL 4
REMARK VINA RESULT:    -3.272      2.164      3.768
REMARK INTER + INTRA:          -3.272
REMARK INTER:                  -3.272
REMARK INTRA:                   0.000
REMARK UNBOUND:                 0.000
REMARK SMILES C=C1CCC[C@@]2(C)CC(=O)C(=C(C)C)C[C@@H]12
REMARK SMILES IDX 13 1 12 2 11 3 15 4 16 5 2 6 1 7 3 8 4 9 5 10 6 11 8 12 9 13
REMARK SMILES IDX 10 14 7 15 14 16
REMARK H PARENT
REMARK Flexibility Score: inf
ROOT
ATOM      1  C   UNL     1      -8.785  35.654  25.585  1.00  0.00     0.039 C 
ATOM      2  C   UNL     1      -8.015  34.365  25.410  1.00  0.00    -0.070 C 
ATOM      3  C   UNL     1      -7.751  33.844  24.176  1.00  0.00    -0.006 C 
ATOM      4  C   UNL     1      -6.911  32.593  23.989  1.00  0.00     0.047 C 
ATOM      5  C   UNL     1      -7.486  31.715  22.847  1.00  0.00     0.025 C 
ATOM      6  C   UNL     1      -8.852  31.139  23.252  1.00  0.00    -0.073 C 
ATOM      7  C   UNL     1      -8.929  30.312  24.312  1.00  0.00     0.008 C 
ATOM      8  C   UNL     1     -10.125  31.343  22.452  1.00  0.00     0.031 C 
ATOM      9  C   UNL     1      -9.971  32.219  21.212  1.00  0.00     0.005 C 
ATOM     10  C   UNL     1      -8.614  32.013  20.548  1.00  0.00     0.008 C 
ATOM     11  C   UNL     1      -7.454  32.481  21.462  1.00  0.00    -0.018 C 
ATOM     12  C   UNL     1      -7.495  34.044  21.629  1.00  0.00     0.088 C 
ATOM     13  C   UNL     1      -8.167  34.483  22.898  1.00  0.00     0.159 C 
ATOM     14  O   UNL     1      -9.060  35.370  22.846  1.00  0.00    -0.295 OA
ATOM     15  C   UNL     1      -6.135  32.130  20.727  1.00  0.00     0.012 C 
ATOM     16  C   UNL     1      -7.522  33.685  26.667  1.00  0.00     0.039 C 
ENDROOT
TORSDOF 0
ENDMDL
