MODEL 1
REMARK VINA RESULT:    -3.150      0.000      0.000
REMARK INTER + INTRA:          -5.304
REMARK INTER:                  -4.347
REMARK INTRA:                  -0.957
REMARK UNBOUND:                -0.957
REMARK SMILES OC[C@@H](O)[C@H](O)[C@@H](O)CO
REMARK SMILES IDX 5 1 3 2 2 3 1 4 4 6 7 8 9 9 10 10 8 12 6 14
REMARK H PARENT 1 5 4 7 10 11 8 13 6 15
REMARK Flexibility Score: inf
ROOT
ATOM      1  C   UNL     1      -2.132   2.945  -7.676  1.00  0.00     0.176 C 
ENDROOT
BRANCH   1   2
ATOM      2  C   UNL     1      -2.979   2.789  -8.971  1.00  0.00     0.171 C 
BRANCH   2   3
ATOM      3  C   UNL     1      -2.718   1.468  -9.721  1.00  0.00     0.190 C 
BRANCH   3   4
ATOM      4  O   UNL     1      -3.197   0.380  -8.976  1.00  0.00    -0.394 OA
ATOM      5  H   UNL     1      -4.158   0.277  -9.203  1.00  0.00     0.210 HD
ENDBRANCH   3   4
ENDBRANCH   2   3
BRANCH   2   6
ATOM      6  O   UNL     1      -4.346   2.902  -8.659  1.00  0.00    -0.388 OA
ATOM      7  H   UNL     1      -4.431   2.872  -7.669  1.00  0.00     0.211 HD
ENDBRANCH   2   6
ENDBRANCH   1   2
BRANCH   1   8
ATOM      8  C   UNL     1      -2.898   2.722  -6.343  1.00  0.00     0.171 C 
BRANCH   8   9
ATOM      9  C   UNL     1      -2.017   2.918  -5.097  1.00  0.00     0.190 C 
BRANCH   9  10
ATOM     10  O   UNL     1      -1.396   1.708  -4.764  1.00  0.00    -0.394 OA
ATOM     11  H   UNL     1      -1.977   1.277  -4.085  1.00  0.00     0.210 HD
ENDBRANCH   9  10
ENDBRANCH   8   9
BRANCH   8  12
ATOM     12  O   UNL     1      -3.484   1.445  -6.333  1.00  0.00    -0.388 OA
ATOM     13  H   UNL     1      -2.745   0.784  -6.376  1.00  0.00     0.211 HD
ENDBRANCH   8  12
ENDBRANCH   1   8
BRANCH   1  14
ATOM     14  O   UNL     1      -1.053   2.045  -7.744  1.00  0.00    -0.388 OA
ATOM     15  H   UNL     1      -1.169   1.393  -7.005  1.00  0.00     0.211 HD
ENDBRANCH   1  14
TORSDOF 9
ENDMDL
MODEL 2
REMARK VINA RESULT:    -3.055      1.426      2.440
REMARK INTER + INTRA:          -5.173
REMARK INTER:                  -4.305
REMARK INTRA:                  -0.868
REMARK UNBOUND:                -0.957
REMARK SMILES OC[C@@H](O)[C@H](O)[C@@H](O)CO
REMARK SMILES IDX 5 1 3 2 2 3 1 4 4 6 7 8 9 9 10 10 8 12 6 14
REMARK H PARENT 1 5 4 7 10 11 8 13 6 15
REMARK Flexibility Score: inf
ROOT
ATOM      1  C   UNL     1      -1.342   3.194  -6.199  1.00  0.00     0.176 C 
ENDROOT
BRANCH   1   2
ATOM      2  C   UNL     1      -2.829   2.748  -6.281  1.00  0.00     0.171 C 
BRANCH   2   3
ATOM      3  C   UNL     1      -3.366   2.666  -7.724  1.00  0.00     0.190 C 
BRANCH   3   4
ATOM      4  O   UNL     1      -3.449   1.329  -8.140  1.00  0.00    -0.394 OA
ATOM      5  H   UNL     1      -2.569   0.912  -7.948  1.00  0.00     0.210 HD
ENDBRANCH   3   4
ENDBRANCH   2   3
BRANCH   2   6
ATOM      6  O   UNL     1      -2.986   1.505  -5.640  1.00  0.00    -0.388 OA
ATOM      7  H   UNL     1      -2.115   1.269  -5.225  1.00  0.00     0.211 HD
ENDBRANCH   2   6
ENDBRANCH   1   2
BRANCH   1   8
ATOM      8  C   UNL     1      -0.783   3.403  -4.764  1.00  0.00     0.171 C 
BRANCH   8   9
ATOM      9  C   UNL     1       0.177   2.287  -4.319  1.00  0.00     0.190 C 
BRANCH   9  10
ATOM     10  O   UNL     1      -0.522   1.078  -4.213  1.00  0.00    -0.394 OA
ATOM     11  H   UNL     1      -0.560   0.700  -5.130  1.00  0.00     0.210 HD
ENDBRANCH   9  10
ENDBRANCH   8   9
BRANCH   8  12
ATOM     12  O   UNL     1      -1.842   3.533  -3.850  1.00  0.00    -0.388 OA
ATOM     13  H   UNL     1      -2.683   3.542  -4.376  1.00  0.00     0.211 HD
ENDBRANCH   8  12
ENDBRANCH   1   8
BRANCH   1  14
ATOM     14  O   UNL     1      -0.556   2.237  -6.865  1.00  0.00    -0.388 OA
ATOM     15  H   UNL     1       0.004   1.789  -6.179  1.00  0.00     0.211 HD
ENDBRANCH   1  14
TORSDOF 9
ENDMDL
MODEL 3
REMARK VINA RESULT:    -3.024     13.178     14.215
REMARK INTER + INTRA:          -5.130
REMARK INTER:                  -4.423
REMARK INTRA:                  -0.707
REMARK UNBOUND:                -0.957
REMARK SMILES OC[C@@H](O)[C@H](O)[C@@H](O)CO
REMARK SMILES IDX 5 1 3 2 2 3 1 4 4 6 7 8 9 9 10 10 8 12 6 14
REMARK H PARENT 1 5 4 7 10 11 8 13 6 15
REMARK Flexibility Score: inf
ROOT
ATOM      1  C   UNL     1      -1.145   0.200   7.227  1.00  0.00     0.176 C 
ENDROOT
BRANCH   1   2
ATOM      2  C   UNL     1      -0.342   0.093   5.899  1.00  0.00     0.171 C 
BRANCH   2   3
ATOM      3  C   UNL     1       0.000  -1.357   5.505  1.00  0.00     0.190 C 
BRANCH   3   4
ATOM      4  O   UNL     1       0.246  -1.445   4.127  1.00  0.00    -0.394 OA
ATOM      5  H   UNL     1      -0.611  -1.241   3.668  1.00  0.00     0.210 HD
ENDBRANCH   3   4
ENDBRANCH   2   3
BRANCH   2   6
ATOM      6  O   UNL     1      -1.060   0.716   4.861  1.00  0.00    -0.388 OA
ATOM      7  H   UNL     1      -0.400   1.145   4.256  1.00  0.00     0.211 HD
ENDBRANCH   2   6
ENDBRANCH   1   2
BRANCH   1   8
ATOM      8  C   UNL     1      -1.158   1.605   7.891  1.00  0.00     0.171 C 
BRANCH   8   9
ATOM      9  C   UNL     1      -2.485   2.357   7.691  1.00  0.00     0.190 C 
BRANCH   9  10
ATOM     10  O   UNL     1      -2.597   2.770   6.357  1.00  0.00    -0.394 OA
ATOM     11  H   UNL     1      -1.670   2.843   6.012  1.00  0.00     0.210 HD
ENDBRANCH   9  10
ENDBRANCH   8   9
BRANCH   8  12
ATOM     12  O   UNL     1      -0.083   2.373   7.413  1.00  0.00    -0.388 OA
ATOM     13  H   UNL     1      -0.466   3.090   6.844  1.00  0.00     0.211 HD
ENDBRANCH   8  12
ENDBRANCH   1   8
BRANCH   1  14
ATOM     14  O   UNL     1      -2.469  -0.204   6.977  1.00  0.00    -0.388 OA
ATOM     15  H   UNL     1      -2.427  -1.116   6.587  1.00  0.00     0.211 HD
ENDBRANCH   1  14
TORSDOF 9
ENDMDL
MODEL 4
REMARK VINA RESULT:    -3.000     13.350     15.588
REMARK INTER + INTRA:          -5.097
REMARK INTER:                  -4.997
REMARK INTRA:                  -0.100
REMARK UNBOUND:                -0.957
REMARK SMILES OC[C@@H](O)[C@H](O)[C@@H](O)CO
REMARK SMILES IDX 5 1 3 2 2 3 1 4 4 6 7 8 9 9 10 10 8 12 6 14
REMARK H PARENT 1 5 4 7 10 11 8 13 6 15
REMARK Flexibility Score: inf
ROOT
ATOM      1  C   UNL     1      -1.430   1.829   8.284  1.00  0.00     0.176 C 
ENDROOT
BRANCH   1   2
ATOM      2  C   UNL     1       0.088   2.131   8.137  1.00  0.00     0.171 C 
BRANCH   2   3
ATOM      3  C   UNL     1       0.533   3.410   8.874  1.00  0.00     0.190 C 
BRANCH   3   4
ATOM      4  O   UNL     1       1.419   4.151   8.078  1.00  0.00    -0.394 OA
ATOM      5  H   UNL     1       0.866   4.759   7.521  1.00  0.00     0.210 HD
ENDBRANCH   3   4
ENDBRANCH   2   3
BRANCH   2   6
ATOM      6  O   UNL     1       0.836   1.030   8.594  1.00  0.00    -0.388 OA
ATOM      7  H   UNL     1       1.764   1.344   8.756  1.00  0.00     0.211 HD
ENDBRANCH   2   6
ENDBRANCH   1   2
BRANCH   1   8
ATOM      8  C   UNL     1      -2.174   1.477   6.966  1.00  0.00     0.171 C 
BRANCH   8   9
ATOM      9  C   UNL     1      -1.527   0.312   6.197  1.00  0.00     0.190 C 
BRANCH   9  10
ATOM     10  O   UNL     1      -1.110   0.754   4.935  1.00  0.00    -0.394 OA
ATOM     11  H   UNL     1      -1.595   1.603   4.766  1.00  0.00     0.210 HD
ENDBRANCH   9  10
ENDBRANCH   8   9
BRANCH   8  12
ATOM     12  O   UNL     1      -2.266   2.614   6.146  1.00  0.00    -0.388 OA
ATOM     13  H   UNL     1      -1.825   3.360   6.631  1.00  0.00     0.211 HD
ENDBRANCH   8  12
ENDBRANCH   1   8
BRANCH   1  14
ATOM     14  O   UNL     1      -1.584   0.770   9.197  1.00  0.00    -0.388 OA
ATOM     15  H   UNL     1      -2.395   0.963   9.735  1.00  0.00     0.211 HD
ENDBRANCH   1  14
TORSDOF 9
ENDMDL
MODEL 5
REMARK VINA RESULT:    -2.993     13.144     14.172
REMARK INTER + INTRA:          -5.087
REMARK INTER:                  -4.418
REMARK INTRA:                  -0.670
REMARK UNBOUND:                -0.957
REMARK SMILES OC[C@@H](O)[C@H](O)[C@@H](O)CO
REMARK SMILES IDX 5 1 3 2 2 3 1 4 4 6 7 8 9 9 10 10 8 12 6 14
REMARK H PARENT 1 5 4 7 10 11 8 13 6 15
REMARK Flexibility Score: inf
ROOT
ATOM      1  C   UNL     1      -0.738   0.230   6.233  1.00  0.00     0.176 C 
ENDROOT
BRANCH   1   2
ATOM      2  C   UNL     1      -1.760   0.662   7.323  1.00  0.00     0.171 C 
BRANCH   2   3
ATOM      3  C   UNL     1      -1.889   2.191   7.472  1.00  0.00     0.190 C 
BRANCH   3   4
ATOM      4  O   UNL     1      -2.542   2.738   6.358  1.00  0.00    -0.394 OA
ATOM      5  H   UNL     1      -2.007   2.488   5.559  1.00  0.00     0.210 HD
ENDBRANCH   3   4
ENDBRANCH   2   3
BRANCH   2   6
ATOM      6  O   UNL     1      -3.018   0.100   7.042  1.00  0.00    -0.388 OA
ATOM      7  H   UNL     1      -3.704   0.798   7.213  1.00  0.00     0.211 HD
ENDBRANCH   2   6
ENDBRANCH   1   2
BRANCH   1   8
ATOM      8  C   UNL     1      -0.315  -1.265   6.265  1.00  0.00     0.171 C 
BRANCH   8   9
ATOM      9  C   UNL     1       0.778  -1.608   5.238  1.00  0.00     0.190 C 
BRANCH   9  10
ATOM     10  O   UNL     1       0.261  -1.487   3.942  1.00  0.00    -0.394 OA
ATOM     11  H   UNL     1      -0.454  -2.171   3.865  1.00  0.00     0.210 HD
ENDBRANCH   9  10
ENDBRANCH   8   9
BRANCH   8  12
ATOM     12  O   UNL     1      -1.439  -2.086   6.078  1.00  0.00    -0.388 OA
ATOM     13  H   UNL     1      -2.115  -1.815   6.753  1.00  0.00     0.211 HD
ENDBRANCH   8  12
ENDBRANCH   1   8
BRANCH   1  14
ATOM     14  O   UNL     1      -1.286   0.528   4.972  1.00  0.00    -0.388 OA
ATOM     15  H   UNL     1      -2.253   0.305   5.014  1.00  0.00     0.211 HD
ENDBRANCH   1  14
TORSDOF 9
ENDMDL
MODEL 6
REMARK VINA RESULT:    -2.988     13.377     14.736
REMARK INTER + INTRA:          -5.081
REMARK INTER:                  -4.689
REMARK INTRA:                  -0.392
REMARK UNBOUND:                -0.957
REMARK SMILES OC[C@@H](O)[C@H](O)[C@@H](O)CO
REMARK SMILES IDX 5 1 3 2 2 3 1 4 4 6 7 8 9 9 10 10 8 12 6 14
REMARK H PARENT 1 5 4 7 10 11 8 13 6 15
REMARK Flexibility Score: inf
ROOT
ATOM      1  C   UNL     1      -0.823   0.605   6.262  1.00  0.00     0.176 C 
ENDROOT
BRANCH   1   2
ATOM      2  C   UNL     1      -1.734   1.609   7.025  1.00  0.00     0.171 C 
BRANCH   2   3
ATOM      3  C   UNL     1      -1.006   2.359   8.158  1.00  0.00     0.190 C 
BRANCH   3   4
ATOM      4  O   UNL     1       0.314   2.649   7.783  1.00  0.00    -0.394 OA
ATOM      5  H   UNL     1       0.425   3.633   7.858  1.00  0.00     0.210 HD
ENDBRANCH   3   4
ENDBRANCH   2   3
BRANCH   2   6
ATOM      6  O   UNL     1      -2.287   2.531   6.117  1.00  0.00    -0.388 OA
ATOM      7  H   UNL     1      -1.688   2.569   5.326  1.00  0.00     0.211 HD
ENDBRANCH   2   6
ENDBRANCH   1   2
BRANCH   1   8
ATOM      8  C   UNL     1      -0.930  -0.877   6.716  1.00  0.00     0.171 C 
BRANCH   8   9
ATOM      9  C   UNL     1       0.063  -1.243   7.832  1.00  0.00     0.190 C 
BRANCH   9  10
ATOM     10  O   UNL     1       1.134  -0.340   7.824  1.00  0.00    -0.394 OA
ATOM     11  H   UNL     1       0.814   0.464   7.339  1.00  0.00     0.210 HD
ENDBRANCH   9  10
ENDBRANCH   8   9
BRANCH   8  12
ATOM     12  O   UNL     1      -0.764  -1.731   5.613  1.00  0.00    -0.388 OA
ATOM     13  H   UNL     1      -0.322  -1.203   4.898  1.00  0.00     0.211 HD
ENDBRANCH   8  12
ENDBRANCH   1   8
BRANCH   1  14
ATOM     14  O   UNL     1      -1.125   0.691   4.890  1.00  0.00    -0.388 OA
ATOM     15  H   UNL     1      -0.434   1.269   4.474  1.00  0.00     0.211 HD
ENDBRANCH   1  14
TORSDOF 9
ENDMDL
MODEL 7
REMARK VINA RESULT:    -2.928      2.725      4.321
REMARK INTER + INTRA:          -4.998
REMARK INTER:                  -4.096
REMARK INTRA:                  -0.902
REMARK UNBOUND:                -0.957
REMARK SMILES OC[C@@H](O)[C@H](O)[C@@H](O)CO
REMARK SMILES IDX 5 1 3 2 2 3 1 4 4 6 7 8 9 9 10 10 8 12 6 14
REMARK H PARENT 1 5 4 7 10 11 8 13 6 15
REMARK Flexibility Score: inf
ROOT
ATOM      1  C   UNL     1      -0.039   3.519  -5.700  1.00  0.00     0.176 C 
ENDROOT
BRANCH   1   2
ATOM      2  C   UNL     1      -1.362   3.723  -4.908  1.00  0.00     0.171 C 
BRANCH   2   3
ATOM      3  C   UNL     1      -2.596   3.122  -5.610  1.00  0.00     0.190 C 
BRANCH   3   4
ATOM      4  O   UNL     1      -2.634   1.732  -5.426  1.00  0.00    -0.394 OA
ATOM      5  H   UNL     1      -3.570   1.445  -5.594  1.00  0.00     0.210 HD
ENDBRANCH   3   4
ENDBRANCH   2   3
BRANCH   2   6
ATOM      6  O   UNL     1      -1.230   3.177  -3.618  1.00  0.00    -0.388 OA
ATOM      7  H   UNL     1      -2.137   3.145  -3.212  1.00  0.00     0.211 HD
ENDBRANCH   2   6
ENDBRANCH   1   2
BRANCH   1   8
ATOM      8  C   UNL     1       1.261   3.918  -4.947  1.00  0.00     0.171 C 
BRANCH   8   9
ATOM      9  C   UNL     1       2.077   2.707  -4.464  1.00  0.00     0.190 C 
BRANCH   9  10
ATOM     10  O   UNL     1       1.413   2.086  -3.398  1.00  0.00    -0.394 OA
ATOM     11  H   UNL     1       1.586   2.649  -2.600  1.00  0.00     0.210 HD
ENDBRANCH   9  10
ENDBRANCH   8   9
BRANCH   8  12
ATOM     12  O   UNL     1       0.952   4.763  -3.869  1.00  0.00    -0.388 OA
ATOM     13  H   UNL     1       0.103   5.225  -4.093  1.00  0.00     0.211 HD
ENDBRANCH   8  12
ENDBRANCH   1   8
BRANCH   1  14
ATOM     14  O   UNL     1       0.044   2.167  -6.080  1.00  0.00    -0.388 OA
ATOM     15  H   UNL     1       0.827   2.081  -6.683  1.00  0.00     0.211 HD
ENDBRANCH   1  14
TORSDOF 9
ENDMDL
MODEL 8
REMARK VINA RESULT:    -2.837      2.088      4.596
REMARK INTER + INTRA:          -4.871
REMARK INTER:                  -4.182
REMARK INTRA:                  -0.689
REMARK UNBOUND:                -0.957
REMARK SMILES OC[C@@H](O)[C@H](O)[C@@H](O)CO
REMARK SMILES IDX 5 1 3 2 2 3 1 4 4 6 7 8 9 9 10 10 8 12 6 14
REMARK H PARENT 1 5 4 7 10 11 8 13 6 15
REMARK Flexibility Score: inf
ROOT
ATOM      1  C   UNL     1      -1.092   2.798  -4.732  1.00  0.00     0.176 C 
ENDROOT
BRANCH   1   2
ATOM      2  C   UNL     1       0.347   3.285  -4.400  1.00  0.00     0.171 C 
BRANCH   2   3
ATOM      3  C   UNL     1       1.401   2.161  -4.443  1.00  0.00     0.190 C 
BRANCH   3   4
ATOM      4  O   UNL     1       1.356   1.402  -3.265  1.00  0.00    -0.394 OA
ATOM      5  H   UNL     1       0.938   1.975  -2.569  1.00  0.00     0.210 HD
ENDBRANCH   3   4
ENDBRANCH   2   3
BRANCH   2   6
ATOM      6  O   UNL     1       0.713   4.318  -5.283  1.00  0.00    -0.388 OA
ATOM      7  H   UNL     1       1.304   3.925  -5.978  1.00  0.00     0.211 HD
ENDBRANCH   2   6
ENDBRANCH   1   2
BRANCH   1   8
ATOM      8  C   UNL     1      -1.604   3.142  -6.158  1.00  0.00     0.171 C 
BRANCH   8   9
ATOM      9  C   UNL     1      -3.123   2.957  -6.318  1.00  0.00     0.190 C 
BRANCH   9  10
ATOM     10  O   UNL     1      -3.413   1.604  -6.537  1.00  0.00    -0.394 OA
ATOM     11  H   UNL     1      -4.183   1.585  -7.162  1.00  0.00     0.210 HD
ENDBRANCH   9  10
ENDBRANCH   8   9
BRANCH   8  12
ATOM     12  O   UNL     1      -0.914   2.378  -7.114  1.00  0.00    -0.388 OA
ATOM     13  H   UNL     1      -0.901   2.904  -7.956  1.00  0.00     0.211 HD
ENDBRANCH   8  12
ENDBRANCH   1   8
BRANCH   1  14
ATOM     14  O   UNL     1      -1.139   1.404  -4.548  1.00  0.00    -0.388 OA
ATOM     15  H   UNL     1      -2.047   1.184  -4.213  1.00  0.00     0.211 HD
ENDBRANCH   1  14
TORSDOF 9
ENDMDL
MODEL 9
REMARK VINA RESULT:    -2.809     14.011     15.273
REMARK INTER + INTRA:          -4.834
REMARK INTER:                  -4.210
REMARK INTRA:                  -0.624
REMARK UNBOUND:                -0.957
REMARK SMILES OC[C@@H](O)[C@H](O)[C@@H](O)CO
REMARK SMILES IDX 5 1 3 2 2 3 1 4 4 6 7 8 9 9 10 10 8 12 6 14
REMARK H PARENT 1 5 4 7 10 11 8 13 6 15
REMARK Flexibility Score: inf
ROOT
ATOM      1  C   UNL     1      -0.958   0.482   7.948  1.00  0.00     0.176 C 
ENDROOT
BRANCH   1   2
ATOM      2  C   UNL     1      -1.246   1.965   8.315  1.00  0.00     0.171 C 
BRANCH   2   3
ATOM      3  C   UNL     1      -0.026   2.699   8.907  1.00  0.00     0.190 C 
BRANCH   3   4
ATOM      4  O   UNL     1       0.747   3.269   7.885  1.00  0.00    -0.394 OA
ATOM      5  H   UNL     1       0.543   4.240   7.878  1.00  0.00     0.210 HD
ENDBRANCH   3   4
ENDBRANCH   2   3
BRANCH   2   6
ATOM      6  O   UNL     1      -1.712   2.652   7.178  1.00  0.00    -0.388 OA
ATOM      7  H   UNL     1      -2.702   2.705   7.244  1.00  0.00     0.211 HD
ENDBRANCH   2   6
ENDBRANCH   1   2
BRANCH   1   8
ATOM      8  C   UNL     1      -1.872  -0.127   6.849  1.00  0.00     0.171 C 
BRANCH   8   9
ATOM      9  C   UNL     1      -1.774  -1.660   6.760  1.00  0.00     0.190 C 
BRANCH   9  10
ATOM     10  O   UNL     1      -0.793  -2.016   5.826  1.00  0.00    -0.394 OA
ATOM     11  H   UNL     1      -1.041  -2.918   5.496  1.00  0.00     0.210 HD
ENDBRANCH   9  10
ENDBRANCH   8   9
BRANCH   8  12
ATOM     12  O   UNL     1      -1.581   0.456   5.605  1.00  0.00    -0.388 OA
ATOM     13  H   UNL     1      -0.992   1.236   5.778  1.00  0.00     0.211 HD
ENDBRANCH   8  12
ENDBRANCH   1   8
BRANCH   1  14
ATOM     14  O   UNL     1       0.385   0.380   7.541  1.00  0.00    -0.388 OA
ATOM     15  H   UNL     1       0.924   0.921   8.174  1.00  0.00     0.211 HD
ENDBRANCH   1  14
TORSDOF 9
ENDMDL
