MODEL 1
REMARK VINA RESULT:    -4.130      0.000      0.000
REMARK INTER + INTRA:          -5.930
REMARK INTER:                  -5.578
REMARK INTRA:                  -0.352
REMARK UNBOUND:                -0.352
REMARK SMILES CCCCCCCC(=O)[O-]
REMARK SMILES IDX 5 1 6 2 7 3 8 4 9 5 10 6 4 7 3 8 2 9 1 10
REMARK H PARENT
REMARK Flexibility Score: inf
ROOT
ATOM      1  C   UNL     1      17.434  -7.696  23.146  1.00  0.00     0.000 C 
ENDROOT
BRANCH   1   2
ATOM      2  C   UNL     1      18.469  -8.313  24.093  1.00  0.00     0.006 C 
BRANCH   2   3
ATOM      3  C   UNL     1      19.760  -7.489  24.109  1.00  0.00     0.053 C 
BRANCH   3   4
ATOM      4  C   UNL     1      20.876  -8.249  23.465  1.00  0.00     0.041 C 
ATOM      5  O   UNL     1      20.687  -8.850  22.376  1.00  0.00    -0.550 OA
ATOM      6  O   UNL     1      22.139  -8.253  24.044  1.00  0.00    -0.550 OA
ENDBRANCH   3   4
ENDBRANCH   2   3
ENDBRANCH   1   2
BRANCH   1   7
ATOM      7  C   UNL     1      17.753  -8.034  21.685  1.00  0.00     0.000 C 
BRANCH   7   8
ATOM      8  C   UNL     1      17.725  -6.770  20.811  1.00  0.00    -0.000 C 
BRANCH   8   9
ATOM      9  C   UNL     1      19.093  -6.458  20.183  1.00  0.00    -0.003 C 
ATOM     10  C   UNL     1      19.951  -5.545  21.057  1.00  0.00     0.004 C 
ENDBRANCH   8   9
ENDBRANCH   7   8
ENDBRANCH   1   7
TORSDOF 6
ENDMDL
MODEL 2
REMARK VINA RESULT:    -3.391      0.867      2.973
REMARK INTER + INTRA:          -4.932
REMARK INTER:                  -4.811
REMARK INTRA:                  -0.121
REMARK UNBOUND:                -0.352
REMARK SMILES CCCCCCCC(=O)[O-]
REMARK SMILES IDX 5 1 6 2 7 3 8 4 9 5 10 6 4 7 3 8 2 9 1 10
REMARK H PARENT
REMARK Flexibility Score: inf
ROOT
ATOM      1  C   UNL     1      19.295  -6.388  20.294  1.00  0.00     0.000 C 
ENDROOT
BRANCH   1   2
ATOM      2  C   UNL     1      19.968  -5.684  21.478  1.00  0.00     0.006 C 
BRANCH   2   3
ATOM      3  C   UNL     1      21.268  -6.392  21.872  1.00  0.00     0.053 C 
BRANCH   3   4
ATOM      4  C   UNL     1      20.985  -7.535  22.795  1.00  0.00     0.041 C 
ATOM      5  O   UNL     1      20.866  -7.335  24.032  1.00  0.00    -0.550 OA
ATOM      6  O   UNL     1      20.802  -8.813  22.283  1.00  0.00    -0.550 OA
ENDBRANCH   3   4
ENDBRANCH   2   3
ENDBRANCH   1   2
BRANCH   1   7
ATOM      7  C   UNL     1      17.846  -6.764  20.628  1.00  0.00     0.000 C 
BRANCH   7   8
ATOM      8  C   UNL     1      17.799  -7.930  21.628  1.00  0.00    -0.000 C 
BRANCH   8   9
ATOM      9  C   UNL     1      17.372  -7.483  23.035  1.00  0.00    -0.003 C 
ATOM     10  C   UNL     1      17.815  -8.458  24.125  1.00  0.00     0.004 C 
ENDBRANCH   8   9
ENDBRANCH   7   8
ENDBRANCH   1   7
TORSDOF 6
ENDMDL
MODEL 3
REMARK VINA RESULT:    -3.079      1.493      2.867
REMARK INTER + INTRA:          -4.511
REMARK INTER:                  -4.086
REMARK INTRA:                  -0.425
REMARK UNBOUND:                -0.352
REMARK SMILES CCCCCCCC(=O)[O-]
REMARK SMILES IDX 5 1 6 2 7 3 8 4 9 5 10 6 4 7 3 8 2 9 1 10
REMARK H PARENT
REMARK Flexibility Score: inf
ROOT
ATOM      1  C   UNL     1      20.152  -5.425  21.172  1.00  0.00     0.000 C 
ENDROOT
BRANCH   1   2
ATOM      2  C   UNL     1      21.067  -6.419  21.896  1.00  0.00     0.006 C 
BRANCH   2   3
ATOM      3  C   UNL     1      20.479  -6.823  23.251  1.00  0.00     0.053 C 
BRANCH   3   4
ATOM      4  C   UNL     1      19.931  -8.214  23.192  1.00  0.00     0.041 C 
ATOM      5  O   UNL     1      19.153  -8.627  24.091  1.00  0.00    -0.550 OA
ATOM      6  O   UNL     1      20.241  -9.037  22.117  1.00  0.00    -0.550 OA
ENDBRANCH   3   4
ENDBRANCH   2   3
ENDBRANCH   1   2
BRANCH   1   7
ATOM      7  C   UNL     1      19.254  -6.142  20.156  1.00  0.00     0.000 C 
BRANCH   7   8
ATOM      8  C   UNL     1      17.865  -6.420  20.752  1.00  0.00    -0.000 C 
BRANCH   8   9
ATOM      9  C   UNL     1      17.339  -7.819  20.392  1.00  0.00    -0.003 C 
ATOM     10  C   UNL     1      16.354  -7.797  19.223  1.00  0.00     0.004 C 
ENDBRANCH   8   9
ENDBRANCH   7   8
ENDBRANCH   1   7
TORSDOF 6
ENDMDL
MODEL 4
REMARK VINA RESULT:    -2.899     14.589     16.228
REMARK INTER + INTRA:          -4.267
REMARK INTER:                  -3.822
REMARK INTRA:                  -0.446
REMARK UNBOUND:                -0.352
REMARK SMILES CCCCCCCC(=O)[O-]
REMARK SMILES IDX 5 1 6 2 7 3 8 4 9 5 10 6 4 7 3 8 2 9 1 10
REMARK H PARENT
REMARK Flexibility Score: inf
ROOT
ATOM      1  C   UNL     1      18.573  -6.752   4.630  1.00  0.00     0.000 C 
ENDROOT
BRANCH   1   2
ATOM      2  C   UNL     1      19.558  -6.990   5.780  1.00  0.00     0.006 C 
BRANCH   2   3
ATOM      3  C   UNL     1      19.305  -8.345   6.450  1.00  0.00     0.053 C 
BRANCH   3   4
ATOM      4  C   UNL     1      19.302  -8.201   7.939  1.00  0.00     0.041 C 
ATOM      5  O   UNL     1      19.755  -9.124   8.665  1.00  0.00    -0.550 OA
ATOM      6  O   UNL     1      18.843  -7.028   8.523  1.00  0.00    -0.550 OA
ENDBRANCH   3   4
ENDBRANCH   2   3
ENDBRANCH   1   2
BRANCH   1   7
ATOM      7  C   UNL     1      17.281  -7.551   4.836  1.00  0.00     0.000 C 
BRANCH   7   8
ATOM      8  C   UNL     1      16.171  -6.660   5.416  1.00  0.00    -0.000 C 
BRANCH   8   9
ATOM      9  C   UNL     1      15.745  -7.093   6.828  1.00  0.00    -0.003 C 
ATOM     10  C   UNL     1      14.604  -8.108   6.816  1.00  0.00     0.004 C 
ENDBRANCH   8   9
ENDBRANCH   7   8
ENDBRANCH   1   7
TORSDOF 6
ENDMDL
MODEL 5
REMARK VINA RESULT:    -2.878     14.115     16.020
REMARK INTER + INTRA:          -4.240
REMARK INTER:                  -4.010
REMARK INTRA:                  -0.229
REMARK UNBOUND:                -0.352
REMARK SMILES CCCCCCCC(=O)[O-]
REMARK SMILES IDX 5 1 6 2 7 3 8 4 9 5 10 6 4 7 3 8 2 9 1 10
REMARK H PARENT
REMARK Flexibility Score: inf
ROOT
ATOM      1  C   UNL     1      17.758  -7.485   6.186  1.00  0.00     0.000 C 
ENDROOT
BRANCH   1   2
ATOM      2  C   UNL     1      16.451  -7.086   6.880  1.00  0.00     0.006 C 
BRANCH   2   3
ATOM      3  C   UNL     1      15.236  -7.489   6.038  1.00  0.00     0.053 C 
BRANCH   3   4
ATOM      4  C   UNL     1      14.505  -8.624   6.682  1.00  0.00     0.041 C 
ATOM      5  O   UNL     1      14.929  -9.803   6.558  1.00  0.00    -0.550 OA
ATOM      6  O   UNL     1      13.382  -8.375   7.461  1.00  0.00    -0.550 OA
ENDBRANCH   3   4
ENDBRANCH   2   3
ENDBRANCH   1   2
BRANCH   1   7
ATOM      7  C   UNL     1      18.975  -6.986   6.975  1.00  0.00     0.000 C 
BRANCH   7   8
ATOM      8  C   UNL     1      19.046  -7.656   8.356  1.00  0.00    -0.000 C 
BRANCH   8   9
ATOM      9  C   UNL     1      19.712  -9.041   8.306  1.00  0.00    -0.003 C 
ATOM     10  C   UNL     1      19.811  -9.699   9.681  1.00  0.00     0.004 C 
ENDBRANCH   8   9
ENDBRANCH   7   8
ENDBRANCH   1   7
TORSDOF 6
ENDMDL
MODEL 6
REMARK VINA RESULT:    -2.835     16.455     17.563
REMARK INTER + INTRA:          -4.182
REMARK INTER:                  -3.774
REMARK INTRA:                  -0.407
REMARK UNBOUND:                -0.352
REMARK SMILES CCCCCCCC(=O)[O-]
REMARK SMILES IDX 5 1 6 2 7 3 8 4 9 5 10 6 4 7 3 8 2 9 1 10
REMARK H PARENT
REMARK Flexibility Score: inf
ROOT
ATOM      1  C   UNL     1      18.962  -7.186   6.620  1.00  0.00     0.000 C 
ENDROOT
BRANCH   1   2
ATOM      2  C   UNL     1      19.892  -7.432   5.428  1.00  0.00     0.006 C 
BRANCH   2   3
ATOM      3  C   UNL     1      19.820  -6.276   4.424  1.00  0.00     0.053 C 
BRANCH   3   4
ATOM      4  C   UNL     1      21.060  -5.444   4.492  1.00  0.00     0.041 C 
ATOM      5  O   UNL     1      20.988  -4.190   4.398  1.00  0.00    -0.550 OA
ATOM      6  O   UNL     1      22.292  -6.048   4.709  1.00  0.00    -0.550 OA
ENDBRANCH   3   4
ENDBRANCH   2   3
ENDBRANCH   1   2
BRANCH   1   7
ATOM      7  C   UNL     1      17.637  -7.938   6.450  1.00  0.00     0.000 C 
BRANCH   7   8
ATOM      8  C   UNL     1      16.444  -6.972   6.518  1.00  0.00    -0.000 C 
BRANCH   8   9
ATOM      9  C   UNL     1      15.561  -7.038   5.261  1.00  0.00    -0.003 C 
ATOM     10  C   UNL     1      16.171  -6.300   4.070  1.00  0.00     0.004 C 
ENDBRANCH   8   9
ENDBRANCH   7   8
ENDBRANCH   1   7
TORSDOF 6
ENDMDL
MODEL 7
REMARK VINA RESULT:    -2.820     16.739     17.837
REMARK INTER + INTRA:          -4.161
REMARK INTER:                  -3.845
REMARK INTRA:                  -0.316
REMARK UNBOUND:                -0.352
REMARK SMILES CCCCCCCC(=O)[O-]
REMARK SMILES IDX 5 1 6 2 7 3 8 4 9 5 10 6 4 7 3 8 2 9 1 10
REMARK H PARENT
REMARK Flexibility Score: inf
ROOT
ATOM      1  C   UNL     1      18.613  -6.758   4.173  1.00  0.00     0.000 C 
ENDROOT
BRANCH   1   2
ATOM      2  C   UNL     1      17.397  -7.665   4.390  1.00  0.00     0.006 C 
BRANCH   2   3
ATOM      3  C   UNL     1      16.145  -6.841   4.707  1.00  0.00     0.053 C 
BRANCH   3   4
ATOM      4  C   UNL     1      15.632  -7.170   6.073  1.00  0.00     0.041 C 
ATOM      5  O   UNL     1      14.562  -7.819   6.208  1.00  0.00    -0.550 OA
ATOM      6  O   UNL     1      16.362  -6.804   7.197  1.00  0.00    -0.550 OA
ENDBRANCH   3   4
ENDBRANCH   2   3
ENDBRANCH   1   2
BRANCH   1   7
ATOM      7  C   UNL     1      19.498  -6.713   5.424  1.00  0.00     0.000 C 
BRANCH   7   8
ATOM      8  C   UNL     1      20.613  -5.667   5.271  1.00  0.00    -0.000 C 
BRANCH   8   9
ATOM      9  C   UNL     1      20.630  -5.024   3.875  1.00  0.00    -0.003 C 
ATOM     10  C   UNL     1      20.901  -3.520   3.920  1.00  0.00     0.004 C 
ENDBRANCH   8   9
ENDBRANCH   7   8
ENDBRANCH   1   7
TORSDOF 6
ENDMDL
MODEL 8
REMARK VINA RESULT:    -2.808     14.996     17.018
REMARK INTER + INTRA:          -4.145
REMARK INTER:                  -3.742
REMARK INTRA:                  -0.402
REMARK UNBOUND:                -0.352
REMARK SMILES CCCCCCCC(=O)[O-]
REMARK SMILES IDX 5 1 6 2 7 3 8 4 9 5 10 6 4 7 3 8 2 9 1 10
REMARK H PARENT
REMARK Flexibility Score: inf
ROOT
ATOM      1  C   UNL     1      17.136  -6.694   4.379  1.00  0.00     0.000 C 
ENDROOT
BRANCH   1   2
ATOM      2  C   UNL     1      15.677  -6.948   4.775  1.00  0.00     0.006 C 
BRANCH   2   3
ATOM      3  C   UNL     1      15.548  -7.179   6.284  1.00  0.00     0.053 C 
BRANCH   3   4
ATOM      4  C   UNL     1      14.633  -8.329   6.562  1.00  0.00     0.041 C 
ATOM      5  O   UNL     1      13.904  -8.325   7.589  1.00  0.00    -0.550 OA
ATOM      6  O   UNL     1      14.549  -9.384   5.663  1.00  0.00    -0.550 OA
ENDBRANCH   3   4
ENDBRANCH   2   3
ENDBRANCH   1   2
BRANCH   1   7
ATOM      7  C   UNL     1      18.057  -7.787   4.935  1.00  0.00     0.000 C 
BRANCH   7   8
ATOM      8  C   UNL     1      19.112  -7.188   5.878  1.00  0.00    -0.000 C 
BRANCH   8   9
ATOM      9  C   UNL     1      19.097  -7.840   7.270  1.00  0.00    -0.003 C 
ATOM     10  C   UNL     1      18.755  -6.850   8.383  1.00  0.00     0.004 C 
ENDBRANCH   8   9
ENDBRANCH   7   8
ENDBRANCH   1   7
TORSDOF 6
ENDMDL
MODEL 9
REMARK VINA RESULT:    -2.751     16.163     17.221
REMARK INTER + INTRA:          -4.068
REMARK INTER:                  -3.745
REMARK INTRA:                  -0.323
REMARK UNBOUND:                -0.352
REMARK SMILES CCCCCCCC(=O)[O-]
REMARK SMILES IDX 5 1 6 2 7 3 8 4 9 5 10 6 4 7 3 8 2 9 1 10
REMARK H PARENT
REMARK Flexibility Score: inf
ROOT
ATOM      1  C   UNL     1      17.790  -7.407   6.109  1.00  0.00     0.000 C 
ENDROOT
BRANCH   1   2
ATOM      2  C   UNL     1      16.519  -7.065   6.894  1.00  0.00     0.006 C 
BRANCH   2   3
ATOM      3  C   UNL     1      15.263  -7.398   6.081  1.00  0.00     0.053 C 
BRANCH   3   4
ATOM      4  C   UNL     1      14.535  -8.553   6.692  1.00  0.00     0.041 C 
ATOM      5  O   UNL     1      14.984  -9.723   6.567  1.00  0.00    -0.550 OA
ATOM      6  O   UNL     1      13.386  -8.333   7.440  1.00  0.00    -0.550 OA
ENDBRANCH   3   4
ENDBRANCH   2   3
ENDBRANCH   1   2
BRANCH   1   7
ATOM      7  C   UNL     1      17.606  -7.126   4.613  1.00  0.00     0.000 C 
BRANCH   7   8
ATOM      8  C   UNL     1      18.850  -6.442   4.026  1.00  0.00    -0.000 C 
BRANCH   8   9
ATOM      9  C   UNL     1      19.959  -6.238   5.071  1.00  0.00    -0.003 C 
ATOM     10  C   UNL     1      20.864  -5.049   4.750  1.00  0.00     0.004 C 
ENDBRANCH   8   9
ENDBRANCH   7   8
ENDBRANCH   1   7
TORSDOF 6
ENDMDL
