MODEL 1
REMARK VINA RESULT:    -7.181      0.000      0.000
REMARK INTER + INTRA:         -13.994
REMARK INTER:                 -13.057
REMARK INTRA:                  -0.937
REMARK UNBOUND:                -0.937
REMARK SMILES CCCCCC=CCC=CCCCCCCCC(=O)[O-]
REMARK SMILES IDX 11 1 12 2 13 3 14 4 15 5 16 6 17 7 18 8 19 9 20 10 10 11
REMARK SMILES IDX 9 12 8 13 7 14 6 15 5 16 4 17 3 18 2 19 1 20
REMARK H PARENT
REMARK Flexibility Score: inf
ROOT
ATOM      1  C   UNL     1      12.897  -2.052 -22.478  1.00  0.00     0.027 C 
ENDROOT
BRANCH   1   2
ATOM      2  C   UNL     1      11.802  -1.164 -21.874  1.00  0.00     0.004 C 
BRANCH   2   3
ATOM      3  C   UNL     1      10.740  -1.981 -21.117  1.00  0.00     0.000 C 
BRANCH   3   4
ATOM      4  C   UNL     1      10.387  -1.371 -19.751  1.00  0.00     0.000 C 
BRANCH   4   5
ATOM      5  C   UNL     1      11.609  -0.756 -19.046  1.00  0.00     0.000 C 
BRANCH   5   6
ATOM      6  C   UNL     1      11.216   0.255 -17.951  1.00  0.00     0.006 C 
BRANCH   6   7
ATOM      7  C   UNL     1      12.155   0.265 -16.734  1.00  0.00     0.053 C 
BRANCH   7   8
ATOM      8  C   UNL     1      13.225   1.306 -16.861  1.00  0.00     0.041 C 
ATOM      9  O   UNL     1      14.250   1.254 -16.131  1.00  0.00    -0.550 OA
ATOM     10  O   UNL     1      13.104   2.318 -17.805  1.00  0.00    -0.550 OA
ENDBRANCH   7   8
ENDBRANCH   6   7
ENDBRANCH   5   6
ENDBRANCH   4   5
ENDBRANCH   3   4
ENDBRANCH   2   3
ENDBRANCH   1   2
BRANCH   1  11
ATOM     11  C   UNL     1      12.373  -2.883 -23.626  1.00  0.00    -0.031 C 
ATOM     12  C   UNL     1      12.843  -4.087 -24.003  1.00  0.00    -0.027 C 
BRANCH  12  13
ATOM     13  C   UNL     1      14.027  -4.798 -23.395  1.00  0.00     0.054 C 
BRANCH  13  14
ATOM     14  C   UNL     1      15.298  -4.360 -24.065  1.00  0.00    -0.027 C 
ATOM     15  C   UNL     1      15.560  -4.661 -25.346  1.00  0.00    -0.031 C 
BRANCH  15  16
ATOM     16  C   UNL     1      16.865  -4.285 -25.994  1.00  0.00     0.027 C 
BRANCH  16  17
ATOM     17  C   UNL     1      17.751  -3.475 -25.039  1.00  0.00     0.004 C 
BRANCH  17  18
ATOM     18  C   UNL     1      18.964  -4.283 -24.547  1.00  0.00     0.000 C 
BRANCH  18  19
ATOM     19  C   UNL     1      20.250  -3.444 -24.495  1.00  0.00    -0.003 C 
ATOM     20  C   UNL     1      20.240  -2.285 -25.492  1.00  0.00     0.004 C 
ENDBRANCH  18  19
ENDBRANCH  17  18
ENDBRANCH  16  17
ENDBRANCH  15  16
ENDBRANCH  13  14
ENDBRANCH  12  13
ENDBRANCH   1  11
TORSDOF 14
ENDMDL
MODEL 2
REMARK VINA RESULT:    -7.160      1.327      2.155
REMARK INTER + INTRA:         -13.957
REMARK INTER:                 -12.920
REMARK INTRA:                  -1.037
REMARK UNBOUND:                -0.937
REMARK SMILES CCCCCC=CCC=CCCCCCCCC(=O)[O-]
REMARK SMILES IDX 11 1 12 2 13 3 14 4 15 5 16 6 17 7 18 8 19 9 20 10 10 11
REMARK SMILES IDX 9 12 8 13 7 14 6 15 5 16 4 17 3 18 2 19 1 20
REMARK H PARENT
REMARK Flexibility Score: inf
ROOT
ATOM      1  C   UNL     1      12.368  -3.841 -24.040  1.00  0.00     0.027 C 
ENDROOT
BRANCH   1   2
ATOM      2  C   UNL     1      13.234  -3.007 -23.088  1.00  0.00     0.004 C 
BRANCH   2   3
ATOM      3  C   UNL     1      12.492  -1.767 -22.559  1.00  0.00     0.000 C 
BRANCH   3   4
ATOM      4  C   UNL     1      11.041  -2.073 -22.152  1.00  0.00     0.000 C 
BRANCH   4   5
ATOM      5  C   UNL     1      10.769  -1.770 -20.668  1.00  0.00     0.000 C 
BRANCH   5   6
ATOM      6  C   UNL     1      11.718  -0.700 -20.096  1.00  0.00     0.006 C 
BRANCH   6   7
ATOM      7  C   UNL     1      11.827  -0.705 -18.562  1.00  0.00     0.053 C 
BRANCH   7   8
ATOM      8  C   UNL     1      13.221  -0.413 -18.099  1.00  0.00     0.041 C 
ATOM      9  O   UNL     1      13.424   0.443 -17.197  1.00  0.00    -0.550 OA
ATOM     10  O   UNL     1      14.295  -1.106 -18.643  1.00  0.00    -0.550 OA
ENDBRANCH   7   8
ENDBRANCH   6   7
ENDBRANCH   5   6
ENDBRANCH   4   5
ENDBRANCH   3   4
ENDBRANCH   2   3
ENDBRANCH   1   2
BRANCH   1  11
ATOM     11  C   UNL     1      12.897  -5.248 -24.189  1.00  0.00    -0.031 C 
ATOM     12  C   UNL     1      13.844  -5.644 -25.060  1.00  0.00    -0.027 C 
BRANCH  12  13
ATOM     13  C   UNL     1      14.503  -4.770 -26.099  1.00  0.00     0.054 C 
BRANCH  13  14
ATOM     14  C   UNL     1      15.985  -4.707 -25.863  1.00  0.00    -0.027 C 
ATOM     15  C   UNL     1      16.519  -4.953 -24.657  1.00  0.00    -0.031 C 
BRANCH  15  16
ATOM     16  C   UNL     1      17.996  -4.819 -24.405  1.00  0.00     0.027 C 
BRANCH  16  17
ATOM     17  C   UNL     1      18.485  -3.392 -24.685  1.00  0.00     0.004 C 
BRANCH  17  18
ATOM     18  C   UNL     1      19.847  -3.106 -24.029  1.00  0.00     0.000 C 
BRANCH  18  19
ATOM     19  C   UNL     1      20.973  -2.939 -25.061  1.00  0.00    -0.003 C 
ATOM     20  C   UNL     1      20.878  -1.623 -25.832  1.00  0.00     0.004 C 
ENDBRANCH  18  19
ENDBRANCH  17  18
ENDBRANCH  16  17
ENDBRANCH  15  16
ENDBRANCH  13  14
ENDBRANCH  12  13
ENDBRANCH   1  11
TORSDOF 14
ENDMDL
MODEL 3
REMARK VINA RESULT:    -7.083      0.963      1.383
REMARK INTER + INTRA:         -13.818
REMARK INTER:                 -13.041
REMARK INTRA:                  -0.776
REMARK UNBOUND:                -0.937
REMARK SMILES CCCCCC=CCC=CCCCCCCCC(=O)[O-]
REMARK SMILES IDX 11 1 12 2 13 3 14 4 15 5 16 6 17 7 18 8 19 9 20 10 10 11
REMARK SMILES IDX 9 12 8 13 7 14 6 15 5 16 4 17 3 18 2 19 1 20
REMARK H PARENT
REMARK Flexibility Score: inf
ROOT
ATOM      1  C   UNL     1      12.282  -2.625 -23.280  1.00  0.00     0.027 C 
ENDROOT
BRANCH   1   2
ATOM      2  C   UNL     1      10.986  -2.362 -22.503  1.00  0.00     0.004 C 
BRANCH   2   3
ATOM      3  C   UNL     1      11.231  -1.556 -21.215  1.00  0.00     0.000 C 
BRANCH   3   4
ATOM      4  C   UNL     1      12.412  -0.580 -21.343  1.00  0.00     0.000 C 
BRANCH   4   5
ATOM      5  C   UNL     1      13.030  -0.221 -19.980  1.00  0.00     0.000 C 
BRANCH   5   6
ATOM      6  C   UNL     1      12.157  -0.672 -18.794  1.00  0.00     0.006 C 
BRANCH   6   7
ATOM      7  C   UNL     1      11.762   0.460 -17.831  1.00  0.00     0.053 C 
BRANCH   7   8
ATOM      8  C   UNL     1      12.960   1.190 -17.304  1.00  0.00     0.041 C 
ATOM      9  O   UNL     1      13.650   0.689 -16.376  1.00  0.00    -0.550 OA
ATOM     10  O   UNL     1      13.331   2.409 -17.855  1.00  0.00    -0.550 OA
ENDBRANCH   7   8
ENDBRANCH   6   7
ENDBRANCH   5   6
ENDBRANCH   4   5
ENDBRANCH   3   4
ENDBRANCH   2   3
ENDBRANCH   1   2
BRANCH   1  11
ATOM     11  C   UNL     1      12.212  -3.915 -24.063  1.00  0.00    -0.031 C 
ATOM     12  C   UNL     1      13.187  -4.840 -24.143  1.00  0.00    -0.027 C 
BRANCH  12  13
ATOM     13  C   UNL     1      14.558  -4.728 -23.523  1.00  0.00     0.054 C 
BRANCH  13  14
ATOM     14  C   UNL     1      15.603  -4.573 -24.592  1.00  0.00    -0.027 C 
ATOM     15  C   UNL     1      16.912  -4.666 -24.316  1.00  0.00    -0.031 C 
BRANCH  15  16
ATOM     16  C   UNL     1      17.959  -4.438 -25.373  1.00  0.00     0.027 C 
BRANCH  16  17
ATOM     17  C   UNL     1      19.328  -4.138 -24.749  1.00  0.00     0.004 C 
BRANCH  17  18
ATOM     18  C   UNL     1      19.627  -2.629 -24.704  1.00  0.00     0.000 C 
BRANCH  18  19
ATOM     19  C   UNL     1      20.922  -2.263 -25.445  1.00  0.00    -0.003 C 
ATOM     20  C   UNL     1      20.709  -1.191 -26.514  1.00  0.00     0.004 C 
ENDBRANCH  18  19
ENDBRANCH  17  18
ENDBRANCH  16  17
ENDBRANCH  15  16
ENDBRANCH  13  14
ENDBRANCH  12  13
ENDBRANCH   1  11
TORSDOF 14
ENDMDL
MODEL 4
REMARK VINA RESULT:    -6.891      3.971      8.592
REMARK INTER + INTRA:         -13.467
REMARK INTER:                 -12.261
REMARK INTRA:                  -1.206
REMARK UNBOUND:                -0.937
REMARK SMILES CCCCCC=CCC=CCCCCCCCC(=O)[O-]
REMARK SMILES IDX 11 1 12 2 13 3 14 4 15 5 16 6 17 7 18 8 19 9 20 10 10 11
REMARK SMILES IDX 9 12 8 13 7 14 6 15 5 16 4 17 3 18 2 19 1 20
REMARK H PARENT
REMARK Flexibility Score: inf
ROOT
ATOM      1  C   UNL     1      13.148  -5.421 -24.383  1.00  0.00     0.027 C 
ENDROOT
BRANCH   1   2
ATOM      2  C   UNL     1      13.765  -5.079 -25.745  1.00  0.00     0.004 C 
BRANCH   2   3
ATOM      3  C   UNL     1      15.205  -4.552 -25.617  1.00  0.00     0.000 C 
BRANCH   3   4
ATOM      4  C   UNL     1      15.822  -4.841 -24.239  1.00  0.00     0.000 C 
BRANCH   4   5
ATOM      5  C   UNL     1      17.360  -4.808 -24.262  1.00  0.00     0.000 C 
BRANCH   5   6
ATOM      6  C   UNL     1      17.917  -3.675 -25.145  1.00  0.00     0.006 C 
BRANCH   6   7
ATOM      7  C   UNL     1      19.135  -2.949 -24.550  1.00  0.00     0.053 C 
BRANCH   7   8
ATOM      8  C   UNL     1      20.372  -3.793 -24.605  1.00  0.00     0.041 C 
ATOM      9  O   UNL     1      20.850  -4.288 -23.551  1.00  0.00    -0.550 OA
ATOM     10  O   UNL     1      20.981  -4.056 -25.826  1.00  0.00    -0.550 OA
ENDBRANCH   7   8
ENDBRANCH   6   7
ENDBRANCH   5   6
ENDBRANCH   4   5
ENDBRANCH   3   4
ENDBRANCH   2   3
ENDBRANCH   1   2
BRANCH   1  11
ATOM     11  C   UNL     1      11.883  -4.635 -24.129  1.00  0.00    -0.031 C 
ATOM     12  C   UNL     1      11.823  -3.367 -23.680  1.00  0.00    -0.027 C 
BRANCH  12  13
ATOM     13  C   UNL     1      13.005  -2.519 -23.279  1.00  0.00     0.054 C 
BRANCH  13  14
ATOM     14  C   UNL     1      12.771  -1.902 -21.930  1.00  0.00    -0.027 C 
ATOM     15  C   UNL     1      11.534  -1.714 -21.446  1.00  0.00    -0.031 C 
BRANCH  15  16
ATOM     16  C   UNL     1      11.297  -1.030 -20.127  1.00  0.00     0.027 C 
BRANCH  16  17
ATOM     17  C   UNL     1      12.588  -0.406 -19.581  1.00  0.00     0.004 C 
BRANCH  17  18
ATOM     18  C   UNL     1      12.868  -0.830 -18.128  1.00  0.00     0.000 C 
BRANCH  18  19
ATOM     19  C   UNL     1      12.136   0.052 -17.106  1.00  0.00    -0.003 C 
ATOM     20  C   UNL     1      12.890   1.344 -16.792  1.00  0.00     0.004 C 
ENDBRANCH  18  19
ENDBRANCH  17  18
ENDBRANCH  16  17
ENDBRANCH  15  16
ENDBRANCH  13  14
ENDBRANCH  12  13
ENDBRANCH   1  11
TORSDOF 14
ENDMDL
MODEL 5
REMARK VINA RESULT:    -6.829      3.998      8.912
REMARK INTER + INTRA:         -13.354
REMARK INTER:                 -12.447
REMARK INTRA:                  -0.908
REMARK UNBOUND:                -0.937
REMARK SMILES CCCCCC=CCC=CCCCCCCCC(=O)[O-]
REMARK SMILES IDX 11 1 12 2 13 3 14 4 15 5 16 6 17 7 18 8 19 9 20 10 10 11
REMARK SMILES IDX 9 12 8 13 7 14 6 15 5 16 4 17 3 18 2 19 1 20
REMARK H PARENT
REMARK Flexibility Score: inf
ROOT
ATOM      1  C   UNL     1      12.707  -4.407 -24.299  1.00  0.00     0.027 C 
ENDROOT
BRANCH   1   2
ATOM      2  C   UNL     1      13.817  -5.341 -24.797  1.00  0.00     0.004 C 
BRANCH   2   3
ATOM      3  C   UNL     1      15.222  -4.819 -24.444  1.00  0.00     0.000 C 
BRANCH   3   4
ATOM      4  C   UNL     1      16.116  -4.642 -25.682  1.00  0.00     0.000 C 
BRANCH   4   5
ATOM      5  C   UNL     1      17.241  -3.617 -25.455  1.00  0.00     0.000 C 
BRANCH   5   6
ATOM      6  C   UNL     1      18.261  -4.078 -24.397  1.00  0.00     0.006 C 
BRANCH   6   7
ATOM      7  C   UNL     1      19.405  -3.083 -24.143  1.00  0.00     0.053 C 
BRANCH   7   8
ATOM      8  C   UNL     1      20.355  -3.014 -25.299  1.00  0.00     0.041 C 
ATOM      9  O   UNL     1      20.893  -4.064 -25.742  1.00  0.00    -0.550 OA
ATOM     10  O   UNL     1      20.626  -1.795 -25.907  1.00  0.00    -0.550 OA
ENDBRANCH   7   8
ENDBRANCH   6   7
ENDBRANCH   5   6
ENDBRANCH   4   5
ENDBRANCH   3   4
ENDBRANCH   2   3
ENDBRANCH   1   2
BRANCH   1  11
ATOM     11  C   UNL     1      13.270  -3.203 -23.582  1.00  0.00    -0.031 C 
ATOM     12  C   UNL     1      12.559  -2.306 -22.874  1.00  0.00    -0.027 C 
BRANCH  12  13
ATOM     13  C   UNL     1      11.057  -2.296 -22.725  1.00  0.00     0.054 C 
BRANCH  13  14
ATOM     14  C   UNL     1      10.678  -2.143 -21.279  1.00  0.00    -0.027 C 
ATOM     15  C   UNL     1      11.092  -1.097 -20.548  1.00  0.00    -0.031 C 
BRANCH  15  16
ATOM     16  C   UNL     1      10.772  -0.982 -19.083  1.00  0.00     0.027 C 
BRANCH  16  17
ATOM     17  C   UNL     1      12.042  -0.776 -18.247  1.00  0.00     0.004 C 
BRANCH  17  18
ATOM     18  C   UNL     1      11.842   0.268 -17.135  1.00  0.00     0.000 C 
BRANCH  18  19
ATOM     19  C   UNL     1      12.953   1.329 -17.116  1.00  0.00    -0.003 C 
ATOM     20  C   UNL     1      12.845   2.318 -18.277  1.00  0.00     0.004 C 
ENDBRANCH  18  19
ENDBRANCH  17  18
ENDBRANCH  16  17
ENDBRANCH  15  16
ENDBRANCH  13  14
ENDBRANCH  12  13
ENDBRANCH   1  11
TORSDOF 14
ENDMDL
MODEL 6
REMARK VINA RESULT:    -6.575      3.951      8.822
REMARK INTER + INTRA:         -12.893
REMARK INTER:                 -11.913
REMARK INTRA:                  -0.980
REMARK UNBOUND:                -0.937
REMARK SMILES CCCCCC=CCC=CCCCCCCCC(=O)[O-]
REMARK SMILES IDX 11 1 12 2 13 3 14 4 15 5 16 6 17 7 18 8 19 9 20 10 10 11
REMARK SMILES IDX 9 12 8 13 7 14 6 15 5 16 4 17 3 18 2 19 1 20
REMARK H PARENT
REMARK Flexibility Score: inf
ROOT
ATOM      1  C   UNL     1      13.031  -4.617 -23.837  1.00  0.00     0.027 C 
ENDROOT
BRANCH   1   2
ATOM      2  C   UNL     1      13.939  -5.502 -24.701  1.00  0.00     0.004 C 
BRANCH   2   3
ATOM      3  C   UNL     1      14.493  -4.750 -25.925  1.00  0.00     0.000 C 
BRANCH   3   4
ATOM      4  C   UNL     1      16.021  -4.591 -25.880  1.00  0.00     0.000 C 
BRANCH   4   5
ATOM      5  C   UNL     1      16.596  -4.814 -24.470  1.00  0.00     0.000 C 
BRANCH   5   6
ATOM      6  C   UNL     1      18.117  -4.580 -24.405  1.00  0.00     0.006 C 
BRANCH   6   7
ATOM      7  C   UNL     1      18.577  -3.236 -24.993  1.00  0.00     0.053 C 
BRANCH   7   8
ATOM      8  C   UNL     1      20.057  -3.201 -25.222  1.00  0.00     0.041 C 
ATOM      9  O   UNL     1      20.687  -2.114 -25.136  1.00  0.00    -0.550 OA
ATOM     10  O   UNL     1      20.746  -4.375 -25.501  1.00  0.00    -0.550 OA
ENDBRANCH   7   8
ENDBRANCH   6   7
ENDBRANCH   5   6
ENDBRANCH   4   5
ENDBRANCH   3   4
ENDBRANCH   2   3
ENDBRANCH   1   2
BRANCH   1  11
ATOM     11  C   UNL     1      13.379  -3.154 -23.977  1.00  0.00    -0.031 C 
ATOM     12  C   UNL     1      12.743  -2.133 -23.373  1.00  0.00    -0.027 C 
BRANCH  12  13
ATOM     13  C   UNL     1      11.517  -2.254 -22.501  1.00  0.00     0.054 C 
BRANCH  13  14
ATOM     14  C   UNL     1      11.643  -1.363 -21.299  1.00  0.00    -0.027 C 
ATOM     15  C   UNL     1      12.720  -0.588 -21.104  1.00  0.00    -0.031 C 
BRANCH  15  16
ATOM     16  C   UNL     1      12.878   0.250 -19.865  1.00  0.00     0.027 C 
BRANCH  16  17
ATOM     17  C   UNL     1      12.655  -0.582 -18.595  1.00  0.00     0.004 C 
BRANCH  17  18
ATOM     18  C   UNL     1      11.586   0.035 -17.677  1.00  0.00     0.000 C 
BRANCH  18  19
ATOM     19  C   UNL     1      12.164   0.510 -16.336  1.00  0.00    -0.003 C 
ATOM     20  C   UNL     1      13.248   1.575 -16.503  1.00  0.00     0.004 C 
ENDBRANCH  18  19
ENDBRANCH  17  18
ENDBRANCH  16  17
ENDBRANCH  15  16
ENDBRANCH  13  14
ENDBRANCH  12  13
ENDBRANCH   1  11
TORSDOF 14
ENDMDL
MODEL 7
REMARK VINA RESULT:    -6.057      4.026      8.789
REMARK INTER + INTRA:         -11.952
REMARK INTER:                 -11.068
REMARK INTRA:                  -0.883
REMARK UNBOUND:                -0.937
REMARK SMILES CCCCCC=CCC=CCCCCCCCC(=O)[O-]
REMARK SMILES IDX 11 1 12 2 13 3 14 4 15 5 16 6 17 7 18 8 19 9 20 10 10 11
REMARK SMILES IDX 9 12 8 13 7 14 6 15 5 16 4 17 3 18 2 19 1 20
REMARK H PARENT
REMARK Flexibility Score: inf
ROOT
ATOM      1  C   UNL     1      13.218  -3.511 -23.666  1.00  0.00     0.027 C 
ENDROOT
BRANCH   1   2
ATOM      2  C   UNL     1      13.125  -4.903 -24.305  1.00  0.00     0.004 C 
BRANCH   2   3
ATOM      3  C   UNL     1      14.175  -5.109 -25.411  1.00  0.00     0.000 C 
BRANCH   3   4
ATOM      4  C   UNL     1      15.417  -4.224 -25.221  1.00  0.00     0.000 C 
BRANCH   4   5
ATOM      5  C   UNL     1      16.530  -4.931 -24.428  1.00  0.00     0.000 C 
BRANCH   5   6
ATOM      6  C   UNL     1      17.927  -4.707 -25.037  1.00  0.00     0.006 C 
BRANCH   6   7
ATOM      7  C   UNL     1      18.749  -3.606 -24.346  1.00  0.00     0.053 C 
BRANCH   7   8
ATOM      8  C   UNL     1      20.210  -3.720 -24.656  1.00  0.00     0.041 C 
ATOM      9  O   UNL     1      20.683  -3.182 -25.692  1.00  0.00    -0.550 OA
ATOM     10  O   UNL     1      21.056  -4.397 -23.786  1.00  0.00    -0.550 OA
ENDBRANCH   7   8
ENDBRANCH   6   7
ENDBRANCH   5   6
ENDBRANCH   4   5
ENDBRANCH   3   4
ENDBRANCH   2   3
ENDBRANCH   1   2
BRANCH   1  11
ATOM     11  C   UNL     1      11.873  -3.032 -23.171  1.00  0.00    -0.031 C 
ATOM     12  C   UNL     1      11.667  -2.018 -22.310  1.00  0.00    -0.027 C 
BRANCH  12  13
ATOM     13  C   UNL     1      12.746  -1.217 -21.624  1.00  0.00     0.054 C 
BRANCH  13  14
ATOM     14  C   UNL     1      12.280  -0.770 -20.267  1.00  0.00    -0.027 C 
ATOM     15  C   UNL     1      13.040  -0.927 -19.173  1.00  0.00    -0.031 C 
BRANCH  15  16
ATOM     16  C   UNL     1      12.543  -0.546 -17.805  1.00  0.00     0.027 C 
BRANCH  16  17
ATOM     17  C   UNL     1      11.968   0.876 -17.794  1.00  0.00     0.004 C 
BRANCH  17  18
ATOM     18  C   UNL     1      13.068   1.946 -17.691  1.00  0.00     0.000 C 
BRANCH  18  19
ATOM     19  C   UNL     1      12.907   3.059 -18.738  1.00  0.00    -0.003 C 
ATOM     20  C   UNL     1      13.157   2.571 -20.164  1.00  0.00     0.004 C 
ENDBRANCH  18  19
ENDBRANCH  17  18
ENDBRANCH  16  17
ENDBRANCH  15  16
ENDBRANCH  13  14
ENDBRANCH  12  13
ENDBRANCH   1  11
TORSDOF 14
ENDMDL
MODEL 8
REMARK VINA RESULT:    -6.029      4.132      8.964
REMARK INTER + INTRA:         -11.900
REMARK INTER:                 -10.936
REMARK INTRA:                  -0.964
REMARK UNBOUND:                -0.937
REMARK SMILES CCCCCC=CCC=CCCCCCCCC(=O)[O-]
REMARK SMILES IDX 11 1 12 2 13 3 14 4 15 5 16 6 17 7 18 8 19 9 20 10 10 11
REMARK SMILES IDX 9 12 8 13 7 14 6 15 5 16 4 17 3 18 2 19 1 20
REMARK H PARENT
REMARK Flexibility Score: inf
ROOT
ATOM      1  C   UNL     1      15.825  -4.141 -25.965  1.00  0.00     0.027 C 
ENDROOT
BRANCH   1   2
ATOM      2  C   UNL     1      17.068  -4.976 -26.299  1.00  0.00     0.004 C 
BRANCH   2   3
ATOM      3  C   UNL     1      18.122  -4.928 -25.178  1.00  0.00     0.000 C 
BRANCH   3   4
ATOM      4  C   UNL     1      17.990  -3.678 -24.294  1.00  0.00     0.000 C 
BRANCH   4   5
ATOM      5  C   UNL     1      19.231  -2.769 -24.368  1.00  0.00     0.000 C 
BRANCH   5   6
ATOM      6  C   UNL     1      19.887  -2.773 -25.762  1.00  0.00     0.006 C 
BRANCH   6   7
ATOM      7  C   UNL     1      21.125  -1.868 -25.881  1.00  0.00     0.053 C 
BRANCH   7   8
ATOM      8  C   UNL     1      20.945  -0.808 -26.923  1.00  0.00     0.041 C 
ATOM      9  O   UNL     1      20.744  -1.126 -28.125  1.00  0.00    -0.550 OA
ATOM     10  O   UNL     1      20.971   0.534 -26.562  1.00  0.00    -0.550 OA
ENDBRANCH   7   8
ENDBRANCH   6   7
ENDBRANCH   5   6
ENDBRANCH   4   5
ENDBRANCH   3   4
ENDBRANCH   2   3
ENDBRANCH   1   2
BRANCH   1  11
ATOM     11  C   UNL     1      14.559  -4.960 -26.064  1.00  0.00    -0.031 C 
ATOM     12  C   UNL     1      13.635  -5.100 -25.095  1.00  0.00    -0.027 C 
BRANCH  12  13
ATOM     13  C   UNL     1      13.728  -4.524 -23.703  1.00  0.00     0.054 C 
BRANCH  13  14
ATOM     14  C   UNL     1      12.734  -3.410 -23.533  1.00  0.00    -0.027 C 
ATOM     15  C   UNL     1      12.855  -2.501 -22.554  1.00  0.00    -0.031 C 
BRANCH  15  16
ATOM     16  C   UNL     1      11.821  -1.429 -22.340  1.00  0.00     0.027 C 
BRANCH  16  17
ATOM     17  C   UNL     1      11.635  -1.121 -20.848  1.00  0.00     0.004 C 
BRANCH  17  18
ATOM     18  C   UNL     1      12.931  -0.611 -20.195  1.00  0.00     0.000 C 
BRANCH  18  19
ATOM     19  C   UNL     1      12.841  -0.567 -18.662  1.00  0.00    -0.003 C 
ATOM     20  C   UNL     1      11.627   0.217 -18.164  1.00  0.00     0.004 C 
ENDBRANCH  18  19
ENDBRANCH  17  18
ENDBRANCH  16  17
ENDBRANCH  15  16
ENDBRANCH  13  14
ENDBRANCH  12  13
ENDBRANCH   1  11
TORSDOF 14
ENDMDL
MODEL 9
REMARK VINA RESULT:    -5.934      1.788      2.297
REMARK INTER + INTRA:         -11.728
REMARK INTER:                 -10.582
REMARK INTRA:                  -1.146
REMARK UNBOUND:                -0.937
REMARK SMILES CCCCCC=CCC=CCCCCCCCC(=O)[O-]
REMARK SMILES IDX 11 1 12 2 13 3 14 4 15 5 16 6 17 7 18 8 19 9 20 10 10 11
REMARK SMILES IDX 9 12 8 13 7 14 6 15 5 16 4 17 3 18 2 19 1 20
REMARK H PARENT
REMARK Flexibility Score: inf
ROOT
ATOM      1  C   UNL     1      11.078  -2.322 -21.707  1.00  0.00     0.027 C 
ENDROOT
BRANCH   1   2
ATOM      2  C   UNL     1      11.770  -0.957 -21.610  1.00  0.00     0.004 C 
BRANCH   2   3
ATOM      3  C   UNL     1      13.292  -1.086 -21.418  1.00  0.00     0.000 C 
BRANCH   3   4
ATOM      4  C   UNL     1      13.855  -0.047 -20.435  1.00  0.00     0.000 C 
BRANCH   4   5
ATOM      5  C   UNL     1      12.791   0.962 -19.969  1.00  0.00     0.000 C 
BRANCH   5   6
ATOM      6  C   UNL     1      12.896   1.285 -18.467  1.00  0.00     0.006 C 
BRANCH   6   7
ATOM      7  C   UNL     1      11.643   0.925 -17.652  1.00  0.00     0.053 C 
BRANCH   7   8
ATOM      8  C   UNL     1      11.075  -0.401 -18.055  1.00  0.00     0.041 C 
ATOM      9  O   UNL     1       9.936  -0.467 -18.589  1.00  0.00    -0.550 OA
ATOM     10  O   UNL     1      11.815  -1.562 -17.868  1.00  0.00    -0.550 OA
ENDBRANCH   7   8
ENDBRANCH   6   7
ENDBRANCH   5   6
ENDBRANCH   4   5
ENDBRANCH   3   4
ENDBRANCH   2   3
ENDBRANCH   1   2
BRANCH   1  11
ATOM     11  C   UNL     1      10.974  -2.795 -23.138  1.00  0.00    -0.031 C 
ATOM     12  C   UNL     1      11.910  -3.497 -23.805  1.00  0.00    -0.027 C 
BRANCH  12  13
ATOM     13  C   UNL     1      13.268  -3.880 -23.269  1.00  0.00     0.054 C 
BRANCH  13  14
ATOM     14  C   UNL     1      14.309  -3.745 -24.343  1.00  0.00    -0.027 C 
ATOM     15  C   UNL     1      14.936  -4.815 -24.855  1.00  0.00    -0.031 C 
BRANCH  15  16
ATOM     16  C   UNL     1      16.030  -4.673 -25.879  1.00  0.00     0.027 C 
BRANCH  16  17
ATOM     17  C   UNL     1      17.084  -3.651 -25.434  1.00  0.00     0.004 C 
BRANCH  17  18
ATOM     18  C   UNL     1      18.131  -4.269 -24.491  1.00  0.00     0.000 C 
BRANCH  18  19
ATOM     19  C   UNL     1      19.254  -3.285 -24.131  1.00  0.00    -0.003 C 
ATOM     20  C   UNL     1      20.612  -3.969 -23.974  1.00  0.00     0.004 C 
ENDBRANCH  18  19
ENDBRANCH  17  18
ENDBRANCH  16  17
ENDBRANCH  15  16
ENDBRANCH  13  14
ENDBRANCH  12  13
ENDBRANCH   1  11
TORSDOF 14
ENDMDL
