MODEL 1
REMARK VINA RESULT:    -4.048      0.000      0.000
REMARK INTER + INTRA:          -8.342
REMARK INTER:                  -7.125
REMARK INTRA:                  -1.216
REMARK UNBOUND:                -1.216
REMARK SMILES CCCCCCC=CCCCCCCCC(=O)[O-]
REMARK SMILES IDX 10 1 11 2 12 3 13 4 14 5 15 6 16 7 17 8 18 9 9 10 8 11 7 12
REMARK SMILES IDX 6 13 5 14 4 15 3 16 2 17 1 18
REMARK H PARENT
REMARK Flexibility Score: inf
ROOT
ATOM      1  C   UNL     1      40.203 185.750  30.592  1.00  0.00     0.004 C 
ENDROOT
BRANCH   1   2
ATOM      2  C   UNL     1      41.562 186.207  31.147  1.00  0.00     0.000 C 
BRANCH   2   3
ATOM      3  C   UNL     1      41.451 187.039  32.442  1.00  0.00     0.000 C 
BRANCH   3   4
ATOM      4  C   UNL     1      42.281 186.438  33.590  1.00  0.00     0.000 C 
BRANCH   4   5
ATOM      5  C   UNL     1      42.204 184.904  33.638  1.00  0.00     0.006 C 
BRANCH   5   6
ATOM      6  C   UNL     1      43.338 184.280  34.460  1.00  0.00     0.053 C 
BRANCH   6   7
ATOM      7  C   UNL     1      44.443 183.821  33.563  1.00  0.00     0.041 C 
ATOM      8  O   UNL     1      45.568 183.525  34.043  1.00  0.00    -0.550 OA
ATOM      9  O   UNL     1      44.245 183.770  32.188  1.00  0.00    -0.550 OA
ENDBRANCH   6   7
ENDBRANCH   5   6
ENDBRANCH   4   5
ENDBRANCH   3   4
ENDBRANCH   2   3
ENDBRANCH   1   2
BRANCH   1  10
ATOM     10  C   UNL     1      39.080 186.763  30.856  1.00  0.00     0.027 C 
BRANCH  10  11
ATOM     11  C   UNL     1      37.929 186.115  31.575  1.00  0.00    -0.031 C 
ATOM     12  C   UNL     1      38.130 185.225  32.558  1.00  0.00    -0.031 C 
BRANCH  12  13
ATOM     13  C   UNL     1      36.983 184.559  33.268  1.00  0.00     0.027 C 
BRANCH  13  14
ATOM     14  C   UNL     1      35.672 184.623  32.462  1.00  0.00     0.004 C 
BRANCH  14  15
ATOM     15  C   UNL     1      35.419 183.396  31.565  1.00  0.00     0.000 C 
BRANCH  15  16
ATOM     16  C   UNL     1      34.824 183.770  30.200  1.00  0.00    -0.000 C 
BRANCH  16  17
ATOM     17  C   UNL     1      33.650 182.850  29.844  1.00  0.00    -0.003 C 
ATOM     18  C   UNL     1      33.403 181.821  30.944  1.00  0.00     0.004 C 
ENDBRANCH  16  17
ENDBRANCH  15  16
ENDBRANCH  14  15
ENDBRANCH  13  14
ENDBRANCH  12  13
ENDBRANCH  10  11
ENDBRANCH   1  10
TORSDOF 13
ENDMDL
MODEL 2
REMARK VINA RESULT:    -3.966     18.582     21.210
REMARK INTER + INTRA:          -8.196
REMARK INTER:                  -7.038
REMARK INTRA:                  -1.158
REMARK UNBOUND:                -1.216
REMARK SMILES CCCCCCC=CCCCCCCCC(=O)[O-]
REMARK SMILES IDX 10 1 11 2 12 3 13 4 14 5 15 6 16 7 17 8 18 9 9 10 8 11 7 12
REMARK SMILES IDX 6 13 5 14 4 15 3 16 2 17 1 18
REMARK H PARENT
REMARK Flexibility Score: inf
ROOT
ATOM      1  C   UNL     1      33.258 169.683  18.601  1.00  0.00     0.004 C 
ENDROOT
BRANCH   1   2
ATOM      2  C   UNL     1      33.912 169.392  17.240  1.00  0.00     0.000 C 
BRANCH   2   3
ATOM      3  C   UNL     1      35.052 170.370  16.883  1.00  0.00     0.000 C 
BRANCH   3   4
ATOM      4  C   UNL     1      34.760 171.154  15.593  1.00  0.00     0.000 C 
BRANCH   4   5
ATOM      5  C   UNL     1      33.395 170.803  14.982  1.00  0.00     0.006 C 
BRANCH   5   6
ATOM      6  C   UNL     1      32.412 171.980  15.014  1.00  0.00     0.053 C 
BRANCH   6   7
ATOM      7  C   UNL     1      31.015 171.489  15.222  1.00  0.00     0.041 C 
ATOM      8  O   UNL     1      30.044 172.287  15.143  1.00  0.00    -0.550 OA
ATOM      9  O   UNL     1      30.788 170.159  15.553  1.00  0.00    -0.550 OA
ENDBRANCH   6   7
ENDBRANCH   5   6
ENDBRANCH   4   5
ENDBRANCH   3   4
ENDBRANCH   2   3
ENDBRANCH   1   2
BRANCH   1  10
ATOM     10  C   UNL     1      32.407 170.961  18.594  1.00  0.00     0.027 C 
BRANCH  10  11
ATOM     11  C   UNL     1      31.584 171.067  19.847  1.00  0.00    -0.031 C 
ATOM     12  C   UNL     1      30.471 171.815  19.893  1.00  0.00    -0.031 C 
BRANCH  12  13
ATOM     13  C   UNL     1      29.655 171.939  21.151  1.00  0.00     0.027 C 
BRANCH  13  14
ATOM     14  C   UNL     1      30.017 173.192  21.970  1.00  0.00     0.004 C 
BRANCH  14  15
ATOM     15  C   UNL     1      29.732 174.524  21.251  1.00  0.00     0.000 C 
BRANCH  15  16
ATOM     16  C   UNL     1      28.791 175.440  22.047  1.00  0.00    -0.000 C 
BRANCH  16  17
ATOM     17  C   UNL     1      27.591 175.867  21.193  1.00  0.00    -0.003 C 
ATOM     18  C   UNL     1      26.712 174.671  20.840  1.00  0.00     0.004 C 
ENDBRANCH  16  17
ENDBRANCH  15  16
ENDBRANCH  14  15
ENDBRANCH  13  14
ENDBRANCH  12  13
ENDBRANCH  10  11
ENDBRANCH   1  10
TORSDOF 13
ENDMDL
MODEL 3
REMARK VINA RESULT:    -3.948     18.142     21.199
REMARK INTER + INTRA:          -8.165
REMARK INTER:                  -6.821
REMARK INTRA:                  -1.344
REMARK UNBOUND:                -1.216
REMARK SMILES CCCCCCC=CCCCCCCCC(=O)[O-]
REMARK SMILES IDX 10 1 11 2 12 3 13 4 14 5 15 6 16 7 17 8 18 9 9 10 8 11 7 12
REMARK SMILES IDX 6 13 5 14 4 15 3 16 2 17 1 18
REMARK H PARENT
REMARK Flexibility Score: inf
ROOT
ATOM      1  C   UNL     1      32.625 169.735  20.807  1.00  0.00     0.004 C 
ENDROOT
BRANCH   1   2
ATOM      2  C   UNL     1      31.178 169.786  21.325  1.00  0.00     0.000 C 
BRANCH   2   3
ATOM      3  C   UNL     1      30.711 171.205  21.710  1.00  0.00     0.000 C 
BRANCH   3   4
ATOM      4  C   UNL     1      30.607 172.133  20.487  1.00  0.00     0.000 C 
BRANCH   4   5
ATOM      5  C   UNL     1      29.445 173.133  20.600  1.00  0.00     0.006 C 
BRANCH   5   6
ATOM      6  C   UNL     1      29.871 174.466  21.227  1.00  0.00     0.053 C 
BRANCH   6   7
ATOM      7  C   UNL     1      28.711 175.115  21.912  1.00  0.00     0.041 C 
ATOM      8  O   UNL     1      28.447 174.840  23.111  1.00  0.00    -0.550 OA
ATOM      9  O   UNL     1      27.889 175.987  21.208  1.00  0.00    -0.550 OA
ENDBRANCH   6   7
ENDBRANCH   5   6
ENDBRANCH   4   5
ENDBRANCH   3   4
ENDBRANCH   2   3
ENDBRANCH   1   2
BRANCH   1  10
ATOM     10  C   UNL     1      32.760 168.965  19.485  1.00  0.00     0.027 C 
BRANCH  10  11
ATOM     11  C   UNL     1      33.735 169.643  18.564  1.00  0.00    -0.031 C 
ATOM     12  C   UNL     1      34.326 168.980  17.559  1.00  0.00    -0.031 C 
BRANCH  12  13
ATOM     13  C   UNL     1      35.317 169.649  16.646  1.00  0.00     0.027 C 
BRANCH  13  14
ATOM     14  C   UNL     1      34.865 171.056  16.212  1.00  0.00     0.004 C 
BRANCH  14  15
ATOM     15  C   UNL     1      34.099 171.092  14.877  1.00  0.00     0.000 C 
BRANCH  15  16
ATOM     16  C   UNL     1      32.680 171.662  15.020  1.00  0.00    -0.000 C 
BRANCH  16  17
ATOM     17  C   UNL     1      31.715 170.600  15.559  1.00  0.00    -0.003 C 
ATOM     18  C   UNL     1      30.873 171.152  16.706  1.00  0.00     0.004 C 
ENDBRANCH  16  17
ENDBRANCH  15  16
ENDBRANCH  14  15
ENDBRANCH  13  14
ENDBRANCH  12  13
ENDBRANCH  10  11
ENDBRANCH   1  10
TORSDOF 13
ENDMDL
MODEL 4
REMARK VINA RESULT:    -3.945     16.444     20.263
REMARK INTER + INTRA:          -8.159
REMARK INTER:                  -6.958
REMARK INTRA:                  -1.201
REMARK UNBOUND:                -1.216
REMARK SMILES CCCCCCC=CCCCCCCCC(=O)[O-]
REMARK SMILES IDX 10 1 11 2 12 3 13 4 14 5 15 6 16 7 17 8 18 9 9 10 8 11 7 12
REMARK SMILES IDX 6 13 5 14 4 15 3 16 2 17 1 18
REMARK H PARENT
REMARK Flexibility Score: inf
ROOT
ATOM      1  C   UNL     1      30.340 171.752  19.599  1.00  0.00     0.004 C 
ENDROOT
BRANCH   1   2
ATOM      2  C   UNL     1      29.831 172.446  20.874  1.00  0.00     0.000 C 
BRANCH   2   3
ATOM      3  C   UNL     1      30.282 173.916  20.998  1.00  0.00     0.000 C 
BRANCH   3   4
ATOM      4  C   UNL     1      29.212 174.797  21.665  1.00  0.00     0.000 C 
BRANCH   4   5
ATOM      5  C   UNL     1      28.815 174.292  23.061  1.00  0.00     0.006 C 
BRANCH   5   6
ATOM      6  C   UNL     1      29.723 174.841  24.169  1.00  0.00     0.053 C 
BRANCH   6   7
ATOM      7  C   UNL     1      30.366 173.719  24.920  1.00  0.00     0.041 C 
ATOM      8  O   UNL     1      31.062 172.865  24.312  1.00  0.00    -0.550 OA
ATOM      9  O   UNL     1      30.153 173.587  26.287  1.00  0.00    -0.550 OA
ENDBRANCH   6   7
ENDBRANCH   5   6
ENDBRANCH   4   5
ENDBRANCH   3   4
ENDBRANCH   2   3
ENDBRANCH   1   2
BRANCH   1  10
ATOM     10  C   UNL     1      31.479 170.759  19.874  1.00  0.00     0.027 C 
BRANCH  10  11
ATOM     11  C   UNL     1      32.246 170.460  18.616  1.00  0.00    -0.031 C 
ATOM     12  C   UNL     1      33.473 169.917  18.657  1.00  0.00    -0.031 C 
BRANCH  12  13
ATOM     13  C   UNL     1      34.253 169.634  17.402  1.00  0.00     0.027 C 
BRANCH  13  14
ATOM     14  C   UNL     1      34.926 170.894  16.827  1.00  0.00     0.004 C 
BRANCH  14  15
ATOM     15  C   UNL     1      34.715 171.090  15.314  1.00  0.00     0.000 C 
BRANCH  15  16
ATOM     16  C   UNL     1      33.266 170.829  14.876  1.00  0.00    -0.000 C 
BRANCH  16  17
ATOM     17  C   UNL     1      32.366 172.020  15.226  1.00  0.00    -0.003 C 
ATOM     18  C   UNL     1      30.905 171.594  15.333  1.00  0.00     0.004 C 
ENDBRANCH  16  17
ENDBRANCH  15  16
ENDBRANCH  14  15
ENDBRANCH  13  14
ENDBRANCH  12  13
ENDBRANCH  10  11
ENDBRANCH   1  10
TORSDOF 13
ENDMDL
MODEL 5
REMARK VINA RESULT:    -3.933      1.145      1.714
REMARK INTER + INTRA:          -8.138
REMARK INTER:                  -6.492
REMARK INTRA:                  -1.647
REMARK UNBOUND:                -1.216
REMARK SMILES CCCCCCC=CCCCCCCCC(=O)[O-]
REMARK SMILES IDX 10 1 11 2 12 3 13 4 14 5 15 6 16 7 17 8 18 9 9 10 8 11 7 12
REMARK SMILES IDX 6 13 5 14 4 15 3 16 2 17 1 18
REMARK H PARENT
REMARK Flexibility Score: inf
ROOT
ATOM      1  C   UNL     1      40.298 185.624  30.778  1.00  0.00     0.004 C 
ENDROOT
BRANCH   1   2
ATOM      2  C   UNL     1      41.446 186.508  31.294  1.00  0.00     0.000 C 
BRANCH   2   3
ATOM      3  C   UNL     1      41.054 187.380  32.506  1.00  0.00     0.000 C 
BRANCH   3   4
ATOM      4  C   UNL     1      41.024 186.574  33.815  1.00  0.00     0.000 C 
BRANCH   4   5
ATOM      5  C   UNL     1      42.375 185.918  34.139  1.00  0.00     0.006 C 
BRANCH   5   6
ATOM      6  C   UNL     1      42.250 184.416  34.425  1.00  0.00     0.053 C 
BRANCH   6   7
ATOM      7  C   UNL     1      42.506 183.624  33.183  1.00  0.00     0.041 C 
ATOM      8  O   UNL     1      41.647 182.804  32.766  1.00  0.00    -0.550 OA
ATOM      9  O   UNL     1      43.716 183.755  32.513  1.00  0.00    -0.550 OA
ENDBRANCH   6   7
ENDBRANCH   5   6
ENDBRANCH   4   5
ENDBRANCH   3   4
ENDBRANCH   2   3
ENDBRANCH   1   2
BRANCH   1  10
ATOM     10  C   UNL     1      38.996 186.406  30.555  1.00  0.00     0.027 C 
BRANCH  10  11
ATOM     11  C   UNL     1      37.890 185.867  31.419  1.00  0.00    -0.031 C 
ATOM     12  C   UNL     1      37.364 186.593  32.417  1.00  0.00    -0.031 C 
BRANCH  12  13
ATOM     13  C   UNL     1      36.271 186.050  33.297  1.00  0.00     0.027 C 
BRANCH  13  14
ATOM     14  C   UNL     1      36.631 184.688  33.916  1.00  0.00     0.004 C 
BRANCH  14  15
ATOM     15  C   UNL     1      35.655 183.551  33.560  1.00  0.00     0.000 C 
BRANCH  15  16
ATOM     16  C   UNL     1      34.779 183.879  32.342  1.00  0.00    -0.000 C 
BRANCH  16  17
ATOM     17  C   UNL     1      35.157 182.999  31.144  1.00  0.00    -0.003 C 
ATOM     18  C   UNL     1      34.495 183.499  29.863  1.00  0.00     0.004 C 
ENDBRANCH  16  17
ENDBRANCH  15  16
ENDBRANCH  14  15
ENDBRANCH  13  14
ENDBRANCH  12  13
ENDBRANCH  10  11
ENDBRANCH   1  10
TORSDOF 13
ENDMDL
MODEL 6
REMARK VINA RESULT:    -3.917     18.409     20.967
REMARK INTER + INTRA:          -8.110
REMARK INTER:                  -6.399
REMARK INTRA:                  -1.712
REMARK UNBOUND:                -1.216
REMARK SMILES CCCCCCC=CCCCCCCCC(=O)[O-]
REMARK SMILES IDX 10 1 11 2 12 3 13 4 14 5 15 6 16 7 17 8 18 9 9 10 8 11 7 12
REMARK SMILES IDX 6 13 5 14 4 15 3 16 2 17 1 18
REMARK H PARENT
REMARK Flexibility Score: inf
ROOT
ATOM      1  C   UNL     1      32.770 169.785  21.503  1.00  0.00     0.004 C 
ENDROOT
BRANCH   1   2
ATOM      2  C   UNL     1      31.285 170.031  21.817  1.00  0.00     0.000 C 
BRANCH   2   3
ATOM      3  C   UNL     1      31.057 170.984  23.009  1.00  0.00     0.000 C 
BRANCH   3   4
ATOM      4  C   UNL     1      30.028 172.080  22.687  1.00  0.00     0.000 C 
BRANCH   4   5
ATOM      5  C   UNL     1      29.990 172.437  21.192  1.00  0.00     0.006 C 
BRANCH   5   6
ATOM      6  C   UNL     1      30.150 173.941  20.938  1.00  0.00     0.053 C 
BRANCH   6   7
ATOM      7  C   UNL     1      28.935 174.680  21.400  1.00  0.00     0.041 C 
ATOM      8  O   UNL     1      27.813 174.446  20.877  1.00  0.00    -0.550 OA
ATOM      9  O   UNL     1      29.049 175.667  22.372  1.00  0.00    -0.550 OA
ENDBRANCH   6   7
ENDBRANCH   5   6
ENDBRANCH   4   5
ENDBRANCH   3   4
ENDBRANCH   2   3
ENDBRANCH   1   2
BRANCH   1  10
ATOM     10  C   UNL     1      33.031 169.534  20.010  1.00  0.00     0.027 C 
BRANCH  10  11
ATOM     11  C   UNL     1      32.282 170.522  19.160  1.00  0.00    -0.031 C 
ATOM     12  C   UNL     1      31.562 170.128  18.098  1.00  0.00    -0.031 C 
BRANCH  12  13
ATOM     13  C   UNL     1      30.827 171.114  17.233  1.00  0.00     0.027 C 
BRANCH  13  14
ATOM     14  C   UNL     1      31.320 171.104  15.774  1.00  0.00     0.004 C 
BRANCH  14  15
ATOM     15  C   UNL     1      32.650 171.849  15.550  1.00  0.00     0.000 C 
BRANCH  15  16
ATOM     16  C   UNL     1      33.831 170.897  15.311  1.00  0.00    -0.000 C 
BRANCH  16  17
ATOM     17  C   UNL     1      34.817 170.943  16.484  1.00  0.00    -0.003 C 
ATOM     18  C   UNL     1      35.302 169.544  16.852  1.00  0.00     0.004 C 
ENDBRANCH  16  17
ENDBRANCH  15  16
ENDBRANCH  14  15
ENDBRANCH  13  14
ENDBRANCH  12  13
ENDBRANCH  10  11
ENDBRANCH   1  10
TORSDOF 13
ENDMDL
MODEL 7
REMARK VINA RESULT:    -3.908      1.965      3.113
REMARK INTER + INTRA:          -8.094
REMARK INTER:                  -5.845
REMARK INTRA:                  -2.249
REMARK UNBOUND:                -1.216
REMARK SMILES CCCCCCC=CCCCCCCCC(=O)[O-]
REMARK SMILES IDX 10 1 11 2 12 3 13 4 14 5 15 6 16 7 17 8 18 9 9 10 8 11 7 12
REMARK SMILES IDX 6 13 5 14 4 15 3 16 2 17 1 18
REMARK H PARENT
REMARK Flexibility Score: inf
ROOT
ATOM      1  C   UNL     1      40.302 185.557  31.332  1.00  0.00     0.004 C 
ENDROOT
BRANCH   1   2
ATOM      2  C   UNL     1      41.660 186.276  31.400  1.00  0.00     0.000 C 
BRANCH   2   3
ATOM      3  C   UNL     1      41.987 186.843  32.798  1.00  0.00     0.000 C 
BRANCH   3   4
ATOM      4  C   UNL     1      41.440 185.954  33.927  1.00  0.00     0.000 C 
BRANCH   4   5
ATOM      5  C   UNL     1      42.532 185.098  34.589  1.00  0.00     0.006 C 
BRANCH   5   6
ATOM      6  C   UNL     1      42.754 183.762  33.870  1.00  0.00     0.053 C 
BRANCH   6   7
ATOM      7  C   UNL     1      44.100 183.737  33.219  1.00  0.00     0.041 C 
ATOM      8  O   UNL     1      44.201 183.843  31.969  1.00  0.00    -0.550 OA
ATOM      9  O   UNL     1      45.240 183.543  33.988  1.00  0.00    -0.550 OA
ENDBRANCH   6   7
ENDBRANCH   5   6
ENDBRANCH   4   5
ENDBRANCH   3   4
ENDBRANCH   2   3
ENDBRANCH   1   2
BRANCH   1  10
ATOM     10  C   UNL     1      39.343 186.188  30.311  1.00  0.00     0.027 C 
BRANCH  10  11
ATOM     11  C   UNL     1      38.241 186.941  31.003  1.00  0.00    -0.031 C 
ATOM     12  C   UNL     1      38.503 187.824  31.980  1.00  0.00    -0.031 C 
BRANCH  12  13
ATOM     13  C   UNL     1      37.402 188.566  32.688  1.00  0.00     0.027 C 
BRANCH  13  14
ATOM     14  C   UNL     1      36.851 187.791  33.899  1.00  0.00     0.004 C 
BRANCH  14  15
ATOM     15  C   UNL     1      37.909 186.978  34.668  1.00  0.00     0.000 C 
BRANCH  15  16
ATOM     16  C   UNL     1      37.445 185.550  34.989  1.00  0.00    -0.000 C 
BRANCH  16  17
ATOM     17  C   UNL     1      37.927 184.564  33.918  1.00  0.00    -0.003 C 
ATOM     18  C   UNL     1      36.772 184.103  33.034  1.00  0.00     0.004 C 
ENDBRANCH  16  17
ENDBRANCH  15  16
ENDBRANCH  14  15
ENDBRANCH  13  14
ENDBRANCH  12  13
ENDBRANCH  10  11
ENDBRANCH   1  10
TORSDOF 13
ENDMDL
MODEL 8
REMARK VINA RESULT:    -3.823     17.873     20.514
REMARK INTER + INTRA:          -7.944
REMARK INTER:                  -6.742
REMARK INTRA:                  -1.202
REMARK UNBOUND:                -1.216
REMARK SMILES CCCCCCC=CCCCCCCCC(=O)[O-]
REMARK SMILES IDX 10 1 11 2 12 3 13 4 14 5 15 6 16 7 17 8 18 9 9 10 8 11 7 12
REMARK SMILES IDX 6 13 5 14 4 15 3 16 2 17 1 18
REMARK H PARENT
REMARK Flexibility Score: inf
ROOT
ATOM      1  C   UNL     1      32.740 170.343  23.398  1.00  0.00     0.004 C 
ENDROOT
BRANCH   1   2
ATOM      2  C   UNL     1      31.386 170.856  23.915  1.00  0.00     0.000 C 
BRANCH   2   3
ATOM      3  C   UNL     1      30.197 170.484  23.004  1.00  0.00     0.000 C 
BRANCH   3   4
ATOM      4  C   UNL     1      29.816 171.630  22.051  1.00  0.00     0.000 C 
BRANCH   4   5
ATOM      5  C   UNL     1      30.160 173.015  22.622  1.00  0.00     0.006 C 
BRANCH   5   6
ATOM      6  C   UNL     1      29.963 174.142  21.601  1.00  0.00     0.053 C 
BRANCH   6   7
ATOM      7  C   UNL     1      28.902 175.087  22.064  1.00  0.00     0.041 C 
ATOM      8  O   UNL     1      28.691 175.251  23.294  1.00  0.00    -0.550 OA
ATOM      9  O   UNL     1      28.109 175.751  21.135  1.00  0.00    -0.550 OA
ENDBRANCH   6   7
ENDBRANCH   5   6
ENDBRANCH   4   5
ENDBRANCH   3   4
ENDBRANCH   2   3
ENDBRANCH   1   2
BRANCH   1  10
ATOM     10  C   UNL     1      32.599 169.168  22.420  1.00  0.00     0.027 C 
BRANCH  10  11
ATOM     11  C   UNL     1      33.212 169.500  21.088  1.00  0.00    -0.031 C 
ATOM     12  C   UNL     1      32.453 169.758  20.012  1.00  0.00    -0.031 C 
BRANCH  12  13
ATOM     13  C   UNL     1      33.062 170.073  18.673  1.00  0.00     0.027 C 
BRANCH  13  14
ATOM     14  C   UNL     1      34.000 168.958  18.174  1.00  0.00     0.004 C 
BRANCH  14  15
ATOM     15  C   UNL     1      34.966 169.396  17.057  1.00  0.00     0.000 C 
BRANCH  15  16
ATOM     16  C   UNL     1      34.890 170.901  16.761  1.00  0.00    -0.000 C 
BRANCH  16  17
ATOM     17  C   UNL     1      34.752 171.156  15.255  1.00  0.00    -0.003 C 
ATOM     18  C   UNL     1      33.302 171.442  14.875  1.00  0.00     0.004 C 
ENDBRANCH  16  17
ENDBRANCH  15  16
ENDBRANCH  14  15
ENDBRANCH  13  14
ENDBRANCH  12  13
ENDBRANCH  10  11
ENDBRANCH   1  10
TORSDOF 13
ENDMDL
MODEL 9
REMARK VINA RESULT:    -3.790      2.344      3.776
REMARK INTER + INTRA:          -7.887
REMARK INTER:                  -6.113
REMARK INTRA:                  -1.775
REMARK UNBOUND:                -1.216
REMARK SMILES CCCCCCC=CCCCCCCCC(=O)[O-]
REMARK SMILES IDX 10 1 11 2 12 3 13 4 14 5 15 6 16 7 17 8 18 9 9 10 8 11 7 12
REMARK SMILES IDX 6 13 5 14 4 15 3 16 2 17 1 18
REMARK H PARENT
REMARK Flexibility Score: inf
ROOT
ATOM      1  C   UNL     1      40.949 183.257  33.625  1.00  0.00     0.004 C 
ENDROOT
BRANCH   1   2
ATOM      2  C   UNL     1      42.415 183.648  33.879  1.00  0.00     0.000 C 
BRANCH   2   3
ATOM      3  C   UNL     1      42.845 184.934  33.142  1.00  0.00     0.000 C 
BRANCH   3   4
ATOM      4  C   UNL     1      42.089 186.174  33.650  1.00  0.00     0.000 C 
BRANCH   4   5
ATOM      5  C   UNL     1      41.650 187.108  32.512  1.00  0.00     0.006 C 
BRANCH   5   6
ATOM      6  C   UNL     1      40.134 187.083  32.278  1.00  0.00     0.053 C 
BRANCH   6   7
ATOM      7  C   UNL     1      39.818 186.429  30.971  1.00  0.00     0.041 C 
ATOM      8  O   UNL     1      40.514 185.464  30.561  1.00  0.00    -0.550 OA
ATOM      9  O   UNL     1      38.786 186.920  30.181  1.00  0.00    -0.550 OA
ENDBRANCH   6   7
ENDBRANCH   5   6
ENDBRANCH   4   5
ENDBRANCH   3   4
ENDBRANCH   2   3
ENDBRANCH   1   2
BRANCH   1  10
ATOM     10  C   UNL     1      40.130 183.140  34.918  1.00  0.00     0.027 C 
BRANCH  10  11
ATOM     11  C   UNL     1      39.151 184.275  35.039  1.00  0.00    -0.031 C 
ATOM     12  C   UNL     1      38.218 184.497  34.100  1.00  0.00    -0.031 C 
BRANCH  12  13
ATOM     13  C   UNL     1      37.249 185.643  34.207  1.00  0.00     0.027 C 
BRANCH  13  14
ATOM     14  C   UNL     1      36.588 185.986  32.859  1.00  0.00     0.004 C 
BRANCH  14  15
ATOM     15  C   UNL     1      36.512 184.806  31.871  1.00  0.00     0.000 C 
BRANCH  15  16
ATOM     16  C   UNL     1      35.185 184.039  31.962  1.00  0.00    -0.000 C 
BRANCH  16  17
ATOM     17  C   UNL     1      35.141 182.898  30.939  1.00  0.00    -0.003 C 
ATOM     18  C   UNL     1      34.209 183.234  29.779  1.00  0.00     0.004 C 
ENDBRANCH  16  17
ENDBRANCH  15  16
ENDBRANCH  14  15
ENDBRANCH  13  14
ENDBRANCH  12  13
ENDBRANCH  10  11
ENDBRANCH   1  10
TORSDOF 13
ENDMDL
