MODEL 1
REMARK VINA RESULT:    -6.079      0.000      0.000
REMARK INTER + INTRA:          -6.670
REMARK INTER:                  -6.435
REMARK INTRA:                  -0.235
REMARK UNBOUND:                -0.235
REMARK SMILES O=c1cc(-c2ccccc2)oc2ccccc12
REMARK SMILES IDX 4 1 3 2 2 3 1 4 17 5 16 6 15 7 14 8 13 9 12 10 11 11 5 12
REMARK SMILES IDX 8 13 7 14 9 15 6 16 10 17
REMARK H PARENT
REMARK Flexibility Score: inf
ROOT
ATOM      1  C   UNL     1      -2.174  -1.619   2.038  1.00  0.00     0.138 A 
ATOM      2  C   UNL     1      -3.204  -0.981   2.761  1.00  0.00     0.100 A 
ATOM      3  C   UNL     1      -4.531  -1.144   2.358  1.00  0.00     0.193 A 
ATOM      4  O   UNL     1      -5.452  -0.575   3.004  1.00  0.00    -0.289 OA
ATOM      5  C   UNL     1      -4.820  -1.941   1.241  1.00  0.00     0.065 A 
ATOM      6  C   UNL     1      -6.134  -2.148   0.783  1.00  0.00     0.016 A 
ATOM      7  C   UNL     1      -6.367  -2.952  -0.337  1.00  0.00     0.001 A 
ATOM      8  C   UNL     1      -5.296  -3.553  -1.005  1.00  0.00     0.004 A 
ATOM      9  C   UNL     1      -3.988  -3.354  -0.557  1.00  0.00     0.048 A 
ATOM     10  C   UNL     1      -3.743  -2.550   0.563  1.00  0.00     0.138 A 
ATOM     11  O   UNL     1      -2.495  -2.367   0.981  1.00  0.00    -0.456 OA
ENDROOT
BRANCH   1  12
ATOM     12  C   UNL     1      -0.728  -1.496   2.401  1.00  0.00     0.017 A 
ATOM     13  C   UNL     1       1.992  -1.166   3.079  1.00  0.00     0.000 A 
ATOM     14  C   UNL     1       1.197  -0.051   2.819  1.00  0.00     0.001 A 
ATOM     15  C   UNL     1       1.441  -2.446   3.003  1.00  0.00     0.001 A 
ATOM     16  C   UNL     1      -0.151  -0.211   2.484  1.00  0.00     0.012 A 
ATOM     17  C   UNL     1       0.094  -2.615   2.668  1.00  0.00     0.012 A 
ENDBRANCH   1  12
TORSDOF 1
ENDMDL
MODEL 2
REMARK VINA RESULT:    -6.047      4.704      8.601
REMARK INTER + INTRA:          -6.636
REMARK INTER:                  -6.403
REMARK INTRA:                  -0.233
REMARK UNBOUND:                -0.235
REMARK SMILES O=c1cc(-c2ccccc2)oc2ccccc12
REMARK SMILES IDX 4 1 3 2 2 3 1 4 17 5 16 6 15 7 14 8 13 9 12 10 11 11 5 12
REMARK SMILES IDX 8 13 7 14 9 15 6 16 10 17
REMARK H PARENT
REMARK Flexibility Score: inf
ROOT
ATOM      1  C   UNL     1       1.995   1.907   2.052  1.00  0.00     0.138 A 
ATOM      2  C   UNL     1       3.009   1.289   2.814  1.00  0.00     0.100 A 
ATOM      3  C   UNL     1       4.342   1.420   2.420  1.00  0.00     0.193 A 
ATOM      4  O   UNL     1       5.249   0.868   3.102  1.00  0.00    -0.289 OA
ATOM      5  C   UNL     1       4.654   2.163   1.274  1.00  0.00     0.065 A 
ATOM      6  C   UNL     1       5.975   2.333   0.822  1.00  0.00     0.016 A 
ATOM      7  C   UNL     1       6.231   3.085  -0.329  1.00  0.00     0.001 A 
ATOM      8  C   UNL     1       5.175   3.668  -1.036  1.00  0.00     0.004 A 
ATOM      9  C   UNL     1       3.859   3.504  -0.595  1.00  0.00     0.048 A 
ATOM     10  C   UNL     1       3.592   2.754   0.555  1.00  0.00     0.138 A 
ATOM     11  O   UNL     1       2.338   2.604   0.966  1.00  0.00    -0.456 OA
ENDROOT
BRANCH   1  12
ATOM     12  C   UNL     1       0.544   1.817   2.402  1.00  0.00     0.017 A 
ATOM     13  C   UNL     1      -2.189   1.550   3.057  1.00  0.00     0.000 A 
ATOM     14  C   UNL     1      -1.418   0.417   2.800  1.00  0.00     0.001 A 
ATOM     15  C   UNL     1      -1.608   2.816   2.989  1.00  0.00     0.001 A 
ATOM     16  C   UNL     1      -0.064   0.546   2.477  1.00  0.00     0.012 A 
ATOM     17  C   UNL     1      -0.254   2.954   2.666  1.00  0.00     0.012 A 
ENDBRANCH   1  12
TORSDOF 1
ENDMDL
MODEL 3
REMARK VINA RESULT:    -5.774     13.192     15.126
REMARK INTER + INTRA:          -6.347
REMARK INTER:                  -6.090
REMARK INTRA:                  -0.257
REMARK UNBOUND:                -0.235
REMARK SMILES O=c1cc(-c2ccccc2)oc2ccccc12
REMARK SMILES IDX 4 1 3 2 2 3 1 4 17 5 16 6 15 7 14 8 13 9 12 10 11 11 5 12
REMARK SMILES IDX 8 13 7 14 9 15 6 16 10 17
REMARK H PARENT
REMARK Flexibility Score: inf
ROOT
ATOM      1  C   UNL     1       9.171  -3.800   8.982  1.00  0.00     0.138 A 
ATOM      2  C   UNL     1       8.940  -2.497   8.492  1.00  0.00     0.100 A 
ATOM      3  C   UNL     1       8.836  -1.433   9.390  1.00  0.00     0.193 A 
ATOM      4  O   UNL     1       8.630  -0.268   8.954  1.00  0.00    -0.289 OA
ATOM      5  C   UNL     1       8.964  -1.675  10.765  1.00  0.00     0.065 A 
ATOM      6  C   UNL     1       8.870  -0.649  11.723  1.00  0.00     0.016 A 
ATOM      7  C   UNL     1       9.004  -0.945  13.083  1.00  0.00     0.001 A 
ATOM      8  C   UNL     1       9.231  -2.261  13.496  1.00  0.00     0.004 A 
ATOM      9  C   UNL     1       9.327  -3.287  12.552  1.00  0.00     0.048 A 
ATOM     10  C   UNL     1       9.193  -3.001  11.188  1.00  0.00     0.138 A 
ATOM     11  O   UNL     1       9.285  -3.984  10.298  1.00  0.00    -0.456 OA
ENDROOT
BRANCH   1  12
ATOM     12  C   UNL     1       9.295  -4.994   8.090  1.00  0.00     0.017 A 
ATOM     13  C   UNL     1       9.471  -7.202   6.340  1.00  0.00     0.000 A 
ATOM     14  C   UNL     1       8.731  -6.079   5.974  1.00  0.00     0.001 A 
ATOM     15  C   UNL     1      10.125  -7.234   7.572  1.00  0.00     0.001 A 
ATOM     16  C   UNL     1       8.643  -4.984   6.838  1.00  0.00     0.012 A 
ATOM     17  C   UNL     1      10.041  -6.142   8.443  1.00  0.00     0.012 A 
ENDBRANCH   1  12
TORSDOF 1
ENDMDL
MODEL 4
REMARK VINA RESULT:    -5.733     10.817     12.781
REMARK INTER + INTRA:          -6.304
REMARK INTER:                  -6.046
REMARK INTRA:                  -0.258
REMARK UNBOUND:                -0.235
REMARK SMILES O=c1cc(-c2ccccc2)oc2ccccc12
REMARK SMILES IDX 4 1 3 2 2 3 1 4 17 5 16 6 15 7 14 8 13 9 12 10 11 11 5 12
REMARK SMILES IDX 8 13 7 14 9 15 6 16 10 17
REMARK H PARENT
REMARK Flexibility Score: inf
ROOT
ATOM      1  C   UNL     1      -9.227   3.991   9.009  1.00  0.00     0.138 A 
ATOM      2  C   UNL     1      -9.006   2.679   8.538  1.00  0.00     0.100 A 
ATOM      3  C   UNL     1      -8.915   1.626   9.450  1.00  0.00     0.193 A 
ATOM      4  O   UNL     1      -8.719   0.453   9.030  1.00  0.00    -0.289 OA
ATOM      5  C   UNL     1      -9.045   1.888  10.821  1.00  0.00     0.065 A 
ATOM      6  C   UNL     1      -8.964   0.874  11.793  1.00  0.00     0.016 A 
ATOM      7  C   UNL     1      -9.100   1.190  13.149  1.00  0.00     0.001 A 
ATOM      8  C   UNL     1      -9.316   2.513  13.543  1.00  0.00     0.004 A 
ATOM      9  C   UNL     1      -9.399   3.527  12.585  1.00  0.00     0.048 A 
ATOM     10  C   UNL     1      -9.263   3.222  11.226  1.00  0.00     0.138 A 
ATOM     11  O   UNL     1      -9.343   4.193  10.323  1.00  0.00    -0.456 OA
ENDROOT
BRANCH   1  12
ATOM     12  C   UNL     1      -9.336   5.174   8.100  1.00  0.00     0.017 A 
ATOM     13  C   UNL     1      -9.487   7.359   6.320  1.00  0.00     0.000 A 
ATOM     14  C   UNL     1      -8.775   6.215   5.963  1.00  0.00     0.001 A 
ATOM     15  C   UNL     1     -10.125   7.423   7.559  1.00  0.00     0.001 A 
ATOM     16  C   UNL     1      -8.699   5.131   6.842  1.00  0.00     0.012 A 
ATOM     17  C   UNL     1     -10.053   6.343   8.445  1.00  0.00     0.012 A 
ENDBRANCH   1  12
TORSDOF 1
ENDMDL
MODEL 5
REMARK VINA RESULT:    -5.607      9.531     11.705
REMARK INTER + INTRA:          -6.170
REMARK INTER:                  -5.913
REMARK INTRA:                  -0.257
REMARK UNBOUND:                -0.235
REMARK SMILES O=c1cc(-c2ccccc2)oc2ccccc12
REMARK SMILES IDX 4 1 3 2 2 3 1 4 17 5 16 6 15 7 14 8 13 9 12 10 11 11 5 12
REMARK SMILES IDX 8 13 7 14 9 15 6 16 10 17
REMARK H PARENT
REMARK Flexibility Score: inf
ROOT
ATOM      1  C   UNL     1       7.965  -5.845   4.650  1.00  0.00     0.138 A 
ATOM      2  C   UNL     1       7.285  -6.865   3.949  1.00  0.00     0.100 A 
ATOM      3  C   UNL     1       6.603  -6.553   2.772  1.00  0.00     0.193 A 
ATOM      4  O   UNL     1       5.997  -7.464   2.145  1.00  0.00    -0.289 OA
ATOM      5  C   UNL     1       6.603  -5.233   2.303  1.00  0.00     0.065 A 
ATOM      6  C   UNL     1       5.936  -4.851   1.124  1.00  0.00     0.016 A 
ATOM      7  C   UNL     1       5.967  -3.519   0.701  1.00  0.00     0.001 A 
ATOM      8  C   UNL     1       6.660  -2.561   1.447  1.00  0.00     0.004 A 
ATOM      9  C   UNL     1       7.326  -2.930   2.619  1.00  0.00     0.048 A 
ATOM     10  C   UNL     1       7.301  -4.261   3.051  1.00  0.00     0.138 A 
ATOM     11  O   UNL     1       7.937  -4.602   4.167  1.00  0.00    -0.456 OA
ENDROOT
BRANCH   1  12
ATOM     12  C   UNL     1       8.719  -6.093   5.917  1.00  0.00     0.017 A 
ATOM     13  C   UNL     1      10.125  -6.466   8.336  1.00  0.00     0.000 A 
ATOM     14  C   UNL     1       9.551  -5.230   8.047  1.00  0.00     0.001 A 
ATOM     15  C   UNL     1      10.005  -7.519   7.429  1.00  0.00     0.001 A 
ATOM     16  C   UNL     1       8.853  -5.042   6.850  1.00  0.00     0.012 A 
ATOM     17  C   UNL     1       9.309  -7.340   6.229  1.00  0.00     0.012 A 
ENDBRANCH   1  12
TORSDOF 1
ENDMDL
MODEL 6
REMARK VINA RESULT:    -5.595      1.439      6.309
REMARK INTER + INTRA:          -6.157
REMARK INTER:                  -5.928
REMARK INTRA:                  -0.230
REMARK UNBOUND:                -0.235
REMARK SMILES O=c1cc(-c2ccccc2)oc2ccccc12
REMARK SMILES IDX 4 1 3 2 2 3 1 4 17 5 16 6 15 7 14 8 13 9 12 10 11 11 5 12
REMARK SMILES IDX 8 13 7 14 9 15 6 16 10 17
REMARK H PARENT
REMARK Flexibility Score: inf
ROOT
ATOM      1  C   UNL     1      -1.930  -1.934   1.921  1.00  0.00     0.138 A 
ATOM      2  C   UNL     1      -1.172  -3.028   2.389  1.00  0.00     0.100 A 
ATOM      3  C   UNL     1       0.135  -2.820   2.834  1.00  0.00     0.193 A 
ATOM      4  O   UNL     1       0.812  -3.798   3.253  1.00  0.00    -0.289 OA
ATOM      5  C   UNL     1       0.675  -1.527   2.809  1.00  0.00     0.065 A 
ATOM      6  C   UNL     1       1.984  -1.249   3.242  1.00  0.00     0.016 A 
ATOM      7  C   UNL     1       2.474   0.060   3.196  1.00  0.00     0.001 A 
ATOM      8  C   UNL     1       1.666   1.096   2.719  1.00  0.00     0.004 A 
ATOM      9  C   UNL     1       0.364   0.829   2.286  1.00  0.00     0.048 A 
ATOM     10  C   UNL     1      -0.136  -0.477   2.328  1.00  0.00     0.138 A 
ATOM     11  O   UNL     1      -1.375  -0.720   1.915  1.00  0.00    -0.456 OA
ENDROOT
BRANCH   1  12
ATOM     12  C   UNL     1      -3.335  -2.069   1.428  1.00  0.00     0.017 A 
ATOM     13  C   UNL     1      -5.954  -2.377   0.421  1.00  0.00     0.000 A 
ATOM     14  C   UNL     1      -4.878  -2.966  -0.241  1.00  0.00     0.001 A 
ATOM     15  C   UNL     1      -5.736  -1.635   1.582  1.00  0.00     0.001 A 
ATOM     16  C   UNL     1      -3.580  -2.815   0.255  1.00  0.00     0.012 A 
ATOM     17  C   UNL     1      -4.440  -1.479   2.085  1.00  0.00     0.012 A 
ENDBRANCH   1  12
TORSDOF 1
ENDMDL
MODEL 7
REMARK VINA RESULT:    -5.496      3.477      5.914
REMARK INTER + INTRA:          -6.052
REMARK INTER:                  -5.817
REMARK INTRA:                  -0.235
REMARK UNBOUND:                -0.235
REMARK SMILES O=c1cc(-c2ccccc2)oc2ccccc12
REMARK SMILES IDX 4 1 3 2 2 3 1 4 17 5 16 6 15 7 14 8 13 9 12 10 11 11 5 12
REMARK SMILES IDX 8 13 7 14 9 15 6 16 10 17
REMARK H PARENT
REMARK Flexibility Score: inf
ROOT
ATOM      1  C   UNL     1      -5.450  -0.782   2.109  1.00  0.00     0.138 A 
ATOM      2  C   UNL     1      -4.943  -0.927   3.418  1.00  0.00     0.100 A 
ATOM      3  C   UNL     1      -5.135   0.097   4.348  1.00  0.00     0.193 A 
ATOM      4  O   UNL     1      -4.683  -0.032   5.518  1.00  0.00    -0.289 OA
ATOM      5  C   UNL     1      -5.827   1.255   3.967  1.00  0.00     0.065 A 
ATOM      6  C   UNL     1      -6.055   2.323   4.853  1.00  0.00     0.016 A 
ATOM      7  C   UNL     1      -6.752   3.456   4.421  1.00  0.00     0.001 A 
ATOM      8  C   UNL     1      -7.224   3.531   3.108  1.00  0.00     0.004 A 
ATOM      9  C   UNL     1      -7.004   2.475   2.220  1.00  0.00     0.048 A 
ATOM     10  C   UNL     1      -6.307   1.337   2.642  1.00  0.00     0.138 A 
ATOM     11  O   UNL     1      -6.102   0.338   1.790  1.00  0.00    -0.456 OA
ENDROOT
BRANCH   1  12
ATOM     12  C   UNL     1      -5.289  -1.829   1.054  1.00  0.00     0.017 A 
ATOM     13  C   UNL     1      -4.888  -3.800  -0.926  1.00  0.00     0.000 A 
ATOM     14  C   UNL     1      -3.795  -3.235  -0.272  1.00  0.00     0.001 A 
ATOM     15  C   UNL     1      -6.181  -3.390  -0.601  1.00  0.00     0.001 A 
ATOM     16  C   UNL     1      -3.990  -2.259   0.709  1.00  0.00     0.012 A 
ATOM     17  C   UNL     1      -6.386  -2.414   0.379  1.00  0.00     0.012 A 
ENDBRANCH   1  12
TORSDOF 1
ENDMDL
MODEL 8
REMARK VINA RESULT:    -5.481      3.324      5.902
REMARK INTER + INTRA:          -6.037
REMARK INTER:                  -5.816
REMARK INTRA:                  -0.220
REMARK UNBOUND:                -0.235
REMARK SMILES O=c1cc(-c2ccccc2)oc2ccccc12
REMARK SMILES IDX 4 1 3 2 2 3 1 4 17 5 16 6 15 7 14 8 13 9 12 10 11 11 5 12
REMARK SMILES IDX 8 13 7 14 9 15 6 16 10 17
REMARK H PARENT
REMARK Flexibility Score: inf
ROOT
ATOM      1  C   UNL     1      -5.663  -1.051   2.640  1.00  0.00     0.138 A 
ATOM      2  C   UNL     1      -5.680   0.360   2.676  1.00  0.00     0.100 A 
ATOM      3  C   UNL     1      -6.096   1.014   3.837  1.00  0.00     0.193 A 
ATOM      4  O   UNL     1      -6.110   2.274   3.870  1.00  0.00    -0.289 OA
ATOM      5  C   UNL     1      -6.492   0.259   4.950  1.00  0.00     0.065 A 
ATOM      6  C   UNL     1      -6.922   0.854   6.150  1.00  0.00     0.016 A 
ATOM      7  C   UNL     1      -7.306   0.055   7.231  1.00  0.00     0.001 A 
ATOM      8  C   UNL     1      -7.265  -1.338   7.123  1.00  0.00     0.004 A 
ATOM      9  C   UNL     1      -6.839  -1.939   5.935  1.00  0.00     0.048 A 
ATOM     10  C   UNL     1      -6.453  -1.148   4.847  1.00  0.00     0.138 A 
ATOM     11  O   UNL     1      -6.049  -1.729   3.722  1.00  0.00    -0.456 OA
ENDROOT
BRANCH   1  12
ATOM     12  C   UNL     1      -5.232  -1.829   1.438  1.00  0.00     0.017 A 
ATOM     13  C   UNL     1      -4.512  -3.303  -0.859  1.00  0.00     0.000 A 
ATOM     14  C   UNL     1      -5.849  -2.987  -0.624  1.00  0.00     0.001 A 
ATOM     15  C   UNL     1      -3.530  -2.891   0.041  1.00  0.00     0.001 A 
ATOM     16  C   UNL     1      -6.209  -2.256   0.512  1.00  0.00     0.012 A 
ATOM     17  C   UNL     1      -3.881  -2.161   1.181  1.00  0.00     0.012 A 
ENDBRANCH   1  12
TORSDOF 1
ENDMDL
MODEL 9
REMARK VINA RESULT:    -5.476      3.801      5.742
REMARK INTER + INTRA:          -6.031
REMARK INTER:                  -5.801
REMARK INTRA:                  -0.230
REMARK UNBOUND:                -0.235
REMARK SMILES O=c1cc(-c2ccccc2)oc2ccccc12
REMARK SMILES IDX 4 1 3 2 2 3 1 4 17 5 16 6 15 7 14 8 13 9 12 10 11 11 5 12
REMARK SMILES IDX 8 13 7 14 9 15 6 16 10 17
REMARK H PARENT
REMARK Flexibility Score: inf
ROOT
ATOM      1  C   UNL     1       1.791   2.152   1.984  1.00  0.00     0.138 A 
ATOM      2  C   UNL     1       1.042   3.269   2.413  1.00  0.00     0.100 A 
ATOM      3  C   UNL     1      -0.279   3.094   2.828  1.00  0.00     0.193 A 
ATOM      4  O   UNL     1      -0.948   4.092   3.212  1.00  0.00    -0.289 OA
ATOM      5  C   UNL     1      -0.843   1.811   2.812  1.00  0.00     0.065 A 
ATOM      6  C   UNL     1      -2.168   1.565   3.217  1.00  0.00     0.016 A 
ATOM      7  C   UNL     1      -2.681   0.265   3.182  1.00  0.00     0.001 A 
ATOM      8  C   UNL     1      -1.882  -0.794   2.743  1.00  0.00     0.004 A 
ATOM      9  C   UNL     1      -0.565  -0.560   2.340  1.00  0.00     0.048 A 
ATOM     10  C   UNL     1      -0.041   0.737   2.371  1.00  0.00     0.138 A 
ATOM     11  O   UNL     1       1.213   0.950   1.985  1.00  0.00    -0.456 OA
ENDROOT
BRANCH   1  12
ATOM     12  C   UNL     1       3.210   2.252   1.523  1.00  0.00     0.017 A 
ATOM     13  C   UNL     1       5.859   2.495   0.579  1.00  0.00     0.000 A 
ATOM     14  C   UNL     1       4.815   3.117  -0.103  1.00  0.00     0.001 A 
ATOM     15  C   UNL     1       5.594   1.752   1.730  1.00  0.00     0.001 A 
ATOM     16  C   UNL     1       3.502   2.999   0.362  1.00  0.00     0.012 A 
ATOM     17  C   UNL     1       4.283   1.629   2.202  1.00  0.00     0.012 A 
ENDBRANCH   1  12
TORSDOF 1
ENDMDL
