MODEL 1
REMARK VINA RESULT:    -4.336      0.000      0.000
REMARK INTER + INTRA:          -4.717
REMARK INTER:                  -4.717
REMARK INTRA:                   0.000
REMARK UNBOUND:                 0.000
REMARK SMILES Oc1cccc(O)c1O
REMARK SMILES IDX 4 1 5 2 6 3 8 4 2 5 3 6 7 7 1 9 9 11
REMARK H PARENT 7 8 1 10 9 12
REMARK Flexibility Score: inf
ROOT
ATOM      1  C   UNL     1      13.563  15.996  11.359  1.00  0.00     0.008 A 
ATOM      2  C   UNL     1      13.796  16.555  10.100  1.00  0.00     0.050 A 
ATOM      3  C   UNL     1      12.756  17.186   9.405  1.00  0.00     0.161 A 
ATOM      4  C   UNL     1      11.472  17.256   9.977  1.00  0.00     0.200 A 
ATOM      5  C   UNL     1      11.243  16.692  11.246  1.00  0.00     0.161 A 
ATOM      6  C   UNL     1      12.290  16.065  11.930  1.00  0.00     0.050 A 
ENDROOT
BRANCH   3   7
ATOM      7  O   UNL     1      12.991  17.742   8.149  1.00  0.00    -0.504 OA
ATOM      8  H   UNL     1      12.448  18.525   7.804  1.00  0.00     0.293 HD
ENDBRANCH   3   7
BRANCH   5   9
ATOM      9  O   UNL     1       9.983  16.745  11.841  1.00  0.00    -0.504 OA
ATOM     10  H   UNL     1       9.657  16.026  12.477  1.00  0.00     0.293 HD
ENDBRANCH   5   9
BRANCH   4  11
ATOM     11  O   UNL     1      10.423  17.880   9.301  1.00  0.00    -0.502 OA
ATOM     12  H   UNL     1       9.467  17.556   9.374  1.00  0.00     0.293 HD
ENDBRANCH   4  11
TORSDOF 3
ENDMDL
MODEL 2
REMARK VINA RESULT:    -4.223      1.362      2.888
REMARK INTER + INTRA:          -4.593
REMARK INTER:                  -4.593
REMARK INTRA:                   0.000
REMARK UNBOUND:                 0.000
REMARK SMILES Oc1cccc(O)c1O
REMARK SMILES IDX 4 1 5 2 6 3 8 4 2 5 3 6 7 7 1 9 9 11
REMARK H PARENT 7 8 1 10 9 12
REMARK Flexibility Score: inf
ROOT
ATOM      1  C   UNL     1      13.940  15.712   9.728  1.00  0.00     0.008 A 
ATOM      2  C   UNL     1      13.504  14.816  10.707  1.00  0.00     0.050 A 
ATOM      3  C   UNL     1      12.273  15.015  11.348  1.00  0.00     0.161 A 
ATOM      4  C   UNL     1      11.475  16.120  11.002  1.00  0.00     0.200 A 
ATOM      5  C   UNL     1      11.918  17.019  10.014  1.00  0.00     0.161 A 
ATOM      6  C   UNL     1      13.149  16.810   9.383  1.00  0.00     0.050 A 
ENDROOT
BRANCH   3   7
ATOM      7  O   UNL     1      11.841  14.120  12.325  1.00  0.00    -0.504 OA
ATOM      8  H   UNL     1      11.075  14.344  12.949  1.00  0.00     0.293 HD
ENDBRANCH   3   7
BRANCH   5   9
ATOM      9  O   UNL     1      11.151  18.125   9.648  1.00  0.00    -0.504 OA
ATOM     10  H   UNL     1      10.289  18.364  10.124  1.00  0.00     0.293 HD
ENDBRANCH   5   9
BRANCH   4  11
ATOM     11  O   UNL     1      10.246  16.336  11.628  1.00  0.00    -0.502 OA
ATOM     12  H   UNL     1      10.149  16.342  12.636  1.00  0.00     0.293 HD
ENDBRANCH   4  11
TORSDOF 3
ENDMDL
MODEL 3
REMARK VINA RESULT:    -4.202      0.699      2.892
REMARK INTER + INTRA:          -4.570
REMARK INTER:                  -4.570
REMARK INTRA:                   0.000
REMARK UNBOUND:                 0.000
REMARK SMILES Oc1cccc(O)c1O
REMARK SMILES IDX 4 1 5 2 6 3 8 4 2 5 3 6 7 7 1 9 9 11
REMARK H PARENT 7 8 1 10 9 12
REMARK Flexibility Score: inf
ROOT
ATOM      1  C   UNL     1      13.113  14.894  11.002  1.00  0.00     0.008 A 
ATOM      2  C   UNL     1      11.951  15.225  11.705  1.00  0.00     0.050 A 
ATOM      3  C   UNL     1      11.156  16.301  11.286  1.00  0.00     0.161 A 
ATOM      4  C   UNL     1      11.531  17.050  10.155  1.00  0.00     0.200 A 
ATOM      5  C   UNL     1      12.702  16.712   9.451  1.00  0.00     0.161 A 
ATOM      6  C   UNL     1      13.486  15.636   9.880  1.00  0.00     0.050 A 
ENDROOT
BRANCH   3   7
ATOM      7  O   UNL     1       9.998  16.630  11.989  1.00  0.00    -0.504 OA
ATOM      8  H   UNL     1       9.586  17.553  11.930  1.00  0.00     0.293 HD
ENDBRANCH   3   7
BRANCH   5   9
ATOM      9  O   UNL     1      13.101  17.434   8.327  1.00  0.00    -0.504 OA
ATOM     10  H   UNL     1      13.893  18.065   8.344  1.00  0.00     0.293 HD
ENDBRANCH   5   9
BRANCH   4  11
ATOM     11  O   UNL     1      10.753  18.125   9.723  1.00  0.00    -0.502 OA
ATOM     12  H   UNL     1      10.792  18.470   8.772  1.00  0.00     0.293 HD
ENDBRANCH   4  11
TORSDOF 3
ENDMDL
MODEL 4
REMARK VINA RESULT:    -4.185      2.096      2.943
REMARK INTER + INTRA:          -4.552
REMARK INTER:                  -4.552
REMARK INTRA:                   0.000
REMARK UNBOUND:                 0.000
REMARK SMILES Oc1cccc(O)c1O
REMARK SMILES IDX 4 1 5 2 6 3 8 4 2 5 3 6 7 7 1 9 9 11
REMARK H PARENT 7 8 1 10 9 12
REMARK Flexibility Score: inf
ROOT
ATOM      1  C   UNL     1      11.798  14.859  10.188  1.00  0.00     0.008 A 
ATOM      2  C   UNL     1      12.658  15.879  10.600  1.00  0.00     0.050 A 
ATOM      3  C   UNL     1      13.027  16.895   9.707  1.00  0.00     0.161 A 
ATOM      4  C   UNL     1      12.528  16.885   8.391  1.00  0.00     0.200 A 
ATOM      5  C   UNL     1      11.661  15.855   7.982  1.00  0.00     0.161 A 
ATOM      6  C   UNL     1      11.301  14.847   8.883  1.00  0.00     0.050 A 
ENDROOT
BRANCH   3   7
ATOM      7  O   UNL     1      13.886  17.911  10.121  1.00  0.00    -0.504 OA
ATOM      8  H   UNL     1      14.890  17.776  10.157  1.00  0.00     0.293 HD
ENDBRANCH   3   7
BRANCH   5   9
ATOM      9  O   UNL     1      11.150  15.815   6.685  1.00  0.00    -0.504 OA
ATOM     10  H   UNL     1      11.247  16.593   6.044  1.00  0.00     0.293 HD
ENDBRANCH   5   9
BRANCH   4  11
ATOM     11  O   UNL     1      12.884  17.886   7.487  1.00  0.00    -0.502 OA
ATOM     12  H   UNL     1      13.806  17.936   7.073  1.00  0.00     0.293 HD
ENDBRANCH   4  11
TORSDOF 3
ENDMDL
MODEL 5
REMARK VINA RESULT:    -3.997      1.650      2.389
REMARK INTER + INTRA:          -4.347
REMARK INTER:                  -4.347
REMARK INTRA:                   0.000
REMARK UNBOUND:                 0.000
REMARK SMILES Oc1cccc(O)c1O
REMARK SMILES IDX 4 1 5 2 6 3 8 4 2 5 3 6 7 7 1 9 9 11
REMARK H PARENT 7 8 1 10 9 12
REMARK Flexibility Score: inf
ROOT
ATOM      1  C   UNL     1      14.037  16.992   9.644  1.00  0.00     0.008 A 
ATOM      2  C   UNL     1      12.757  17.002   9.085  1.00  0.00     0.050 A 
ATOM      3  C   UNL     1      11.651  17.378   9.859  1.00  0.00     0.161 A 
ATOM      4  C   UNL     1      11.833  17.747  11.205  1.00  0.00     0.200 A 
ATOM      5  C   UNL     1      13.124  17.735  11.764  1.00  0.00     0.161 A 
ATOM      6  C   UNL     1      14.219  17.357  10.979  1.00  0.00     0.050 A 
ENDROOT
BRANCH   3   7
ATOM      7  O   UNL     1      10.375  17.387   9.299  1.00  0.00    -0.504 OA
ATOM      8  H   UNL     1       9.544  17.294   9.870  1.00  0.00     0.293 HD
ENDBRANCH   3   7
BRANCH   5   9
ATOM      9  O   UNL     1      13.338  18.095  13.094  1.00  0.00    -0.504 OA
ATOM     10  H   UNL     1      12.577  18.348  13.713  1.00  0.00     0.293 HD
ENDBRANCH   5   9
BRANCH   4  11
ATOM     11  O   UNL     1      10.745  18.125  11.993  1.00  0.00    -0.502 OA
ATOM     12  H   UNL     1      10.582  17.731  12.912  1.00  0.00     0.293 HD
ENDBRANCH   4  11
TORSDOF 3
ENDMDL
MODEL 6
REMARK VINA RESULT:    -3.976      1.731      3.340
REMARK INTER + INTRA:          -4.325
REMARK INTER:                  -4.325
REMARK INTRA:                   0.000
REMARK UNBOUND:                 0.000
REMARK SMILES Oc1cccc(O)c1O
REMARK SMILES IDX 4 1 5 2 6 3 8 4 2 5 3 6 7 7 1 9 9 11
REMARK H PARENT 7 8 1 10 9 12
REMARK Flexibility Score: inf
ROOT
ATOM      1  C   UNL     1      10.761  16.162  10.939  1.00  0.00     0.008 A 
ATOM      2  C   UNL     1      11.654  16.270  12.009  1.00  0.00     0.050 A 
ATOM      3  C   UNL     1      12.909  16.866  11.822  1.00  0.00     0.161 A 
ATOM      4  C   UNL     1      13.269  17.356  10.553  1.00  0.00     0.200 A 
ATOM      5  C   UNL     1      12.366  17.244   9.480  1.00  0.00     0.161 A 
ATOM      6  C   UNL     1      11.117  16.647   9.680  1.00  0.00     0.050 A 
ENDROOT
BRANCH   3   7
ATOM      7  O   UNL     1      13.798  16.973  12.890  1.00  0.00    -0.504 OA
ATOM      8  H   UNL     1      14.132  17.873  13.215  1.00  0.00     0.293 HD
ENDBRANCH   3   7
BRANCH   5   9
ATOM      9  O   UNL     1      12.693  17.719   8.210  1.00  0.00    -0.504 OA
ATOM     10  H   UNL     1      13.405  17.282   7.638  1.00  0.00     0.293 HD
ENDBRANCH   5   9
BRANCH   4  11
ATOM     11  O   UNL     1      14.514  17.952  10.347  1.00  0.00    -0.502 OA
ATOM     12  H   UNL     1      15.371  17.549  10.706  1.00  0.00     0.293 HD
ENDBRANCH   4  11
TORSDOF 3
ENDMDL
MODEL 7
REMARK VINA RESULT:    -3.975      1.737      2.488
REMARK INTER + INTRA:          -4.323
REMARK INTER:                  -4.323
REMARK INTRA:                   0.000
REMARK UNBOUND:                 0.000
REMARK SMILES Oc1cccc(O)c1O
REMARK SMILES IDX 4 1 5 2 6 3 8 4 2 5 3 6 7 7 1 9 9 11
REMARK H PARENT 7 8 1 10 9 12
REMARK Flexibility Score: inf
ROOT
ATOM      1  C   UNL     1      10.745  16.173  10.952  1.00  0.00     0.008 A 
ATOM      2  C   UNL     1      11.107  16.659   9.693  1.00  0.00     0.050 A 
ATOM      3  C   UNL     1      12.346  17.290   9.510  1.00  0.00     0.161 A 
ATOM      4  C   UNL     1      13.225  17.434  10.599  1.00  0.00     0.200 A 
ATOM      5  C   UNL     1      12.854  16.943  11.865  1.00  0.00     0.161 A 
ATOM      6  C   UNL     1      11.616  16.315  12.033  1.00  0.00     0.050 A 
ENDROOT
BRANCH   3   7
ATOM      7  O   UNL     1      12.705  17.774   8.254  1.00  0.00    -0.504 OA
ATOM      8  H   UNL     1      13.163  18.671   8.142  1.00  0.00     0.293 HD
ENDBRANCH   3   7
BRANCH   5   9
ATOM      9  O   UNL     1      13.703  17.070  12.964  1.00  0.00    -0.504 OA
ATOM     10  H   UNL     1      14.660  17.389  12.873  1.00  0.00     0.293 HD
ENDBRANCH   5   9
BRANCH   4  11
ATOM     11  O   UNL     1      14.462  18.060  10.438  1.00  0.00    -0.502 OA
ATOM     12  H   UNL     1      14.574  18.897   9.880  1.00  0.00     0.293 HD
ENDBRANCH   4  11
TORSDOF 3
ENDMDL
MODEL 8
REMARK VINA RESULT:    -3.920      1.072      2.020
REMARK INTER + INTRA:          -4.264
REMARK INTER:                  -4.264
REMARK INTRA:                   0.000
REMARK UNBOUND:                 0.000
REMARK SMILES Oc1cccc(O)c1O
REMARK SMILES IDX 4 1 5 2 6 3 8 4 2 5 3 6 7 7 1 9 9 11
REMARK H PARENT 7 8 1 10 9 12
REMARK Flexibility Score: inf
ROOT
ATOM      1  C   UNL     1      12.125  15.402  11.444  1.00  0.00     0.008 A 
ATOM      2  C   UNL     1      13.354  15.276  10.792  1.00  0.00     0.050 A 
ATOM      3  C   UNL     1      13.630  16.043   9.652  1.00  0.00     0.161 A 
ATOM      4  C   UNL     1      12.664  16.942   9.163  1.00  0.00     0.200 A 
ATOM      5  C   UNL     1      11.428  17.066   9.824  1.00  0.00     0.161 A 
ATOM      6  C   UNL     1      11.166  16.294  10.961  1.00  0.00     0.050 A 
ENDROOT
BRANCH   3   7
ATOM      7  O   UNL     1      14.856  15.914   9.002  1.00  0.00    -0.504 OA
ATOM      8  H   UNL     1      15.709  16.289   9.400  1.00  0.00     0.293 HD
ENDBRANCH   3   7
BRANCH   5   9
ATOM      9  O   UNL     1      10.450  17.948   9.366  1.00  0.00    -0.504 OA
ATOM     10  H   UNL     1       9.994  17.828   8.469  1.00  0.00     0.293 HD
ENDBRANCH   5   9
BRANCH   4  11
ATOM     11  O   UNL     1      12.919  17.714   8.029  1.00  0.00    -0.502 OA
ATOM     12  H   UNL     1      13.794  17.654   7.522  1.00  0.00     0.293 HD
ENDBRANCH   4  11
TORSDOF 3
ENDMDL
