MODEL 1
REMARK VINA RESULT:    -4.590      0.000      0.000
REMARK INTER + INTRA:         -11.143
REMARK INTER:                  -8.614
REMARK INTRA:                  -2.528
REMARK UNBOUND:                -2.528
REMARK SMILES O=C([O-])CCCCCCCCCCCCCCC(=O)[O-]
REMARK SMILES IDX 10 1 9 2 8 3 7 4 6 5 5 6 4 7 2 8 1 9 3 10 11 11 12 12 13 13
REMARK SMILES IDX 14 14 15 15 16 16 17 17 18 18 19 19 20 20
REMARK H PARENT
REMARK Flexibility Score: inf
ROOT
ATOM      1  C   UNL     1      11.469  16.008 -20.263  1.00  0.00     0.000 C 
ENDROOT
BRANCH   1   2
ATOM      2  C   UNL     1      12.724  15.229 -20.700  1.00  0.00     0.000 C 
BRANCH   2   3
ATOM      3  C   UNL     1      13.892  15.368 -19.711  1.00  0.00     0.000 C 
BRANCH   3   4
ATOM      4  C   UNL     1      13.519  16.291 -18.544  1.00  0.00     0.000 C 
BRANCH   4   5
ATOM      5  C   UNL     1      14.066  15.748 -17.218  1.00  0.00     0.000 C 
BRANCH   5   6
ATOM      6  C   UNL     1      14.549  14.302 -17.374  1.00  0.00     0.006 C 
BRANCH   6   7
ATOM      7  C   UNL     1      15.770  14.035 -16.489  1.00  0.00     0.053 C 
BRANCH   7   8
ATOM      8  C   UNL     1      17.019  14.005 -17.312  1.00  0.00     0.041 C 
ATOM      9  O   UNL     1      17.819  13.037 -17.214  1.00  0.00    -0.550 OA
ATOM     10  O   UNL     1      17.282  15.027 -18.215  1.00  0.00    -0.550 OA
ENDBRANCH   7   8
ENDBRANCH   6   7
ENDBRANCH   5   6
ENDBRANCH   4   5
ENDBRANCH   3   4
ENDBRANCH   2   3
ENDBRANCH   1   2
BRANCH   1  11
ATOM     11  C   UNL     1      10.242  15.137 -19.933  1.00  0.00     0.000 C 
BRANCH  11  12
ATOM     12  C   UNL     1      10.049  14.921 -18.423  1.00  0.00     0.000 C 
BRANCH  12  13
ATOM     13  C   UNL     1      10.832  13.711 -17.887  1.00  0.00     0.000 C 
BRANCH  13  14
ATOM     14  C   UNL     1      10.760  12.467 -18.798  1.00  0.00     0.000 C 
BRANCH  14  15
ATOM     15  C   UNL     1      12.157  11.940 -19.167  1.00  0.00     0.000 C 
BRANCH  15  16
ATOM     16  C   UNL     1      12.291  11.614 -20.663  1.00  0.00     0.006 C 
BRANCH  16  17
ATOM     17  C   UNL     1      13.671  11.043 -21.017  1.00  0.00     0.053 C 
BRANCH  17  18
ATOM     18  C   UNL     1      14.525  12.090 -21.662  1.00  0.00     0.041 C 
ATOM     19  O   UNL     1      14.233  12.530 -22.806  1.00  0.00    -0.550 OA
ATOM     20  O   UNL     1      15.627  12.604 -20.991  1.00  0.00    -0.550 OA
ENDBRANCH  17  18
ENDBRANCH  16  17
ENDBRANCH  15  16
ENDBRANCH  14  15
ENDBRANCH  13  14
ENDBRANCH  12  13
ENDBRANCH  11  12
ENDBRANCH   1  11
TORSDOF 15
ENDMDL
MODEL 2
REMARK VINA RESULT:    -4.586      1.627      2.468
REMARK INTER + INTRA:         -11.136
REMARK INTER:                  -9.338
REMARK INTRA:                  -1.798
REMARK UNBOUND:                -2.528
REMARK SMILES O=C([O-])CCCCCCCCCCCCCCC(=O)[O-]
REMARK SMILES IDX 10 1 9 2 8 3 7 4 6 5 5 6 4 7 2 8 1 9 3 10 11 11 12 12 13 13
REMARK SMILES IDX 14 14 15 15 16 16 17 17 18 18 19 19 20 20
REMARK H PARENT
REMARK Flexibility Score: inf
ROOT
ATOM      1  C   UNL     1      11.439  16.442 -16.548  1.00  0.00     0.000 C 
ENDROOT
BRANCH   1   2
ATOM      2  C   UNL     1      12.692  16.330 -15.658  1.00  0.00     0.000 C 
BRANCH   2   3
ATOM      3  C   UNL     1      13.613  17.555 -15.762  1.00  0.00     0.000 C 
BRANCH   3   4
ATOM      4  C   UNL     1      15.054  17.136 -16.078  1.00  0.00     0.000 C 
BRANCH   4   5
ATOM      5  C   UNL     1      15.414  17.461 -17.533  1.00  0.00     0.000 C 
BRANCH   5   6
ATOM      6  C   UNL     1      16.184  16.305 -18.182  1.00  0.00     0.006 C 
BRANCH   6   7
ATOM      7  C   UNL     1      16.514  15.221 -17.152  1.00  0.00     0.053 C 
BRANCH   7   8
ATOM      8  C   UNL     1      17.114  14.025 -17.820  1.00  0.00     0.041 C 
ATOM      9  O   UNL     1      16.947  13.840 -19.055  1.00  0.00    -0.550 OA
ATOM     10  O   UNL     1      17.888  13.134 -17.088  1.00  0.00    -0.550 OA
ENDBRANCH   7   8
ENDBRANCH   6   7
ENDBRANCH   5   6
ENDBRANCH   4   5
ENDBRANCH   3   4
ENDBRANCH   2   3
ENDBRANCH   1   2
BRANCH   1  11
ATOM     11  C   UNL     1      11.275  15.318 -17.589  1.00  0.00     0.000 C 
BRANCH  11  12
ATOM     12  C   UNL     1      12.556  15.063 -18.401  1.00  0.00     0.000 C 
BRANCH  12  13
ATOM     13  C   UNL     1      13.106  13.638 -18.218  1.00  0.00     0.000 C 
BRANCH  13  14
ATOM     14  C   UNL     1      12.025  12.538 -18.286  1.00  0.00     0.000 C 
BRANCH  14  15
ATOM     15  C   UNL     1      11.715  12.122 -19.734  1.00  0.00     0.000 C 
BRANCH  15  16
ATOM     16  C   UNL     1      12.766  11.160 -20.311  1.00  0.00     0.006 C 
BRANCH  16  17
ATOM     17  C   UNL     1      13.044  11.420 -21.798  1.00  0.00     0.053 C 
BRANCH  17  18
ATOM     18  C   UNL     1      13.982  12.576 -21.965  1.00  0.00     0.041 C 
ATOM     19  O   UNL     1      13.534  13.752 -22.030  1.00  0.00    -0.550 OA
ATOM     20  O   UNL     1      15.353  12.361 -22.017  1.00  0.00    -0.550 OA
ENDBRANCH  17  18
ENDBRANCH  16  17
ENDBRANCH  15  16
ENDBRANCH  14  15
ENDBRANCH  13  14
ENDBRANCH  12  13
ENDBRANCH  11  12
ENDBRANCH   1  11
TORSDOF 15
ENDMDL
MODEL 3
REMARK VINA RESULT:    -4.542      2.117      3.189
REMARK INTER + INTRA:         -11.053
REMARK INTER:                  -8.806
REMARK INTRA:                  -2.247
REMARK UNBOUND:                -2.528
REMARK SMILES O=C([O-])CCCCCCCCCCCCCCC(=O)[O-]
REMARK SMILES IDX 10 1 9 2 8 3 7 4 6 5 5 6 4 7 2 8 1 9 3 10 11 11 12 12 13 13
REMARK SMILES IDX 14 14 15 15 16 16 17 17 18 18 19 19 20 20
REMARK H PARENT
REMARK Flexibility Score: inf
ROOT
ATOM      1  C   UNL     1      12.282  16.202 -19.344  1.00  0.00     0.000 C 
ENDROOT
BRANCH   1   2
ATOM      2  C   UNL     1      12.428  15.849 -17.850  1.00  0.00     0.000 C 
BRANCH   2   3
ATOM      3  C   UNL     1      12.748  17.069 -16.973  1.00  0.00     0.000 C 
BRANCH   3   4
ATOM      4  C   UNL     1      14.120  16.920 -16.302  1.00  0.00     0.000 C 
BRANCH   4   5
ATOM      5  C   UNL     1      15.179  17.757 -17.029  1.00  0.00     0.000 C 
BRANCH   5   6
ATOM      6  C   UNL     1      16.262  16.863 -17.642  1.00  0.00     0.006 C 
BRANCH   6   7
ATOM      7  C   UNL     1      16.365  15.533 -16.889  1.00  0.00     0.053 C 
BRANCH   7   8
ATOM      8  C   UNL     1      17.303  14.602 -17.590  1.00  0.00     0.041 C 
ATOM      9  O   UNL     1      17.850  13.660 -16.958  1.00  0.00    -0.550 OA
ATOM     10  O   UNL     1      17.545  14.752 -18.950  1.00  0.00    -0.550 OA
ENDBRANCH   7   8
ENDBRANCH   6   7
ENDBRANCH   5   6
ENDBRANCH   4   5
ENDBRANCH   3   4
ENDBRANCH   2   3
ENDBRANCH   1   2
BRANCH   1  11
ATOM     11  C   UNL     1      12.976  15.229 -20.315  1.00  0.00     0.000 C 
BRANCH  11  12
ATOM     12  C   UNL     1      14.142  14.465 -19.667  1.00  0.00     0.000 C 
BRANCH  12  13
ATOM     13  C   UNL     1      14.649  13.300 -20.532  1.00  0.00     0.000 C 
BRANCH  13  14
ATOM     14  C   UNL     1      13.708  12.934 -21.700  1.00  0.00     0.000 C 
BRANCH  14  15
ATOM     15  C   UNL     1      13.275  11.459 -21.653  1.00  0.00     0.000 C 
BRANCH  15  16
ATOM     16  C   UNL     1      12.649  11.068 -20.305  1.00  0.00     0.006 C 
BRANCH  16  17
ATOM     17  C   UNL     1      11.212  11.588 -20.154  1.00  0.00     0.053 C 
BRANCH  17  18
ATOM     18  C   UNL     1      11.081  12.425 -18.919  1.00  0.00     0.041 C 
ATOM     19  O   UNL     1      10.161  13.282 -18.829  1.00  0.00    -0.550 OA
ATOM     20  O   UNL     1      11.953  12.241 -17.855  1.00  0.00    -0.550 OA
ENDBRANCH  17  18
ENDBRANCH  16  17
ENDBRANCH  15  16
ENDBRANCH  14  15
ENDBRANCH  13  14
ENDBRANCH  12  13
ENDBRANCH  11  12
ENDBRANCH   1  11
TORSDOF 15
ENDMDL
MODEL 4
REMARK VINA RESULT:    -4.464      2.414      3.809
REMARK INTER + INTRA:         -10.906
REMARK INTER:                  -8.933
REMARK INTRA:                  -1.973
REMARK UNBOUND:                -2.528
REMARK SMILES O=C([O-])CCCCCCCCCCCCCCC(=O)[O-]
REMARK SMILES IDX 10 1 9 2 8 3 7 4 6 5 5 6 4 7 2 8 1 9 3 10 11 11 12 12 13 13
REMARK SMILES IDX 14 14 15 15 16 16 17 17 18 18 19 19 20 20
REMARK H PARENT
REMARK Flexibility Score: inf
ROOT
ATOM      1  C   UNL     1      14.334  13.388 -20.959  1.00  0.00     0.000 C 
ENDROOT
BRANCH   1   2
ATOM      2  C   UNL     1      13.366  14.556 -21.228  1.00  0.00     0.000 C 
BRANCH   2   3
ATOM      3  C   UNL     1      13.261  15.533 -20.047  1.00  0.00     0.000 C 
BRANCH   3   4
ATOM      4  C   UNL     1      13.923  14.952 -18.791  1.00  0.00     0.000 C 
BRANCH   4   5
ATOM      5  C   UNL     1      14.006  16.005 -17.678  1.00  0.00     0.000 C 
BRANCH   5   6
ATOM      6  C   UNL     1      15.461  16.257 -17.267  1.00  0.00     0.006 C 
BRANCH   6   7
ATOM      7  C   UNL     1      16.048  15.035 -16.553  1.00  0.00     0.053 C 
BRANCH   7   8
ATOM      8  C   UNL     1      17.182  14.460 -17.341  1.00  0.00     0.041 C 
ATOM      9  O   UNL     1      17.877  13.525 -16.860  1.00  0.00    -0.550 OA
ATOM     10  O   UNL     1      17.449  14.929 -18.621  1.00  0.00    -0.550 OA
ENDBRANCH   7   8
ENDBRANCH   6   7
ENDBRANCH   5   6
ENDBRANCH   4   5
ENDBRANCH   3   4
ENDBRANCH   2   3
ENDBRANCH   1   2
BRANCH   1  11
ATOM     11  C   UNL     1      14.233  12.214 -21.951  1.00  0.00     0.000 C 
BRANCH  11  12
ATOM     12  C   UNL     1      12.980  11.350 -21.731  1.00  0.00     0.000 C 
BRANCH  12  13
ATOM     13  C   UNL     1      12.692  11.082 -20.244  1.00  0.00     0.000 C 
BRANCH  13  14
ATOM     14  C   UNL     1      11.392  11.737 -19.731  1.00  0.00     0.000 C 
BRANCH  14  15
ATOM     15  C   UNL     1      11.521  12.212 -18.275  1.00  0.00     0.000 C 
BRANCH  15  16
ATOM     16  C   UNL     1      10.463  13.262 -17.898  1.00  0.00     0.006 C 
BRANCH  16  17
ATOM     17  C   UNL     1      10.027  14.111 -19.101  1.00  0.00     0.053 C 
BRANCH  17  18
ATOM     18  C   UNL     1       9.912  15.553 -18.714  1.00  0.00     0.041 C 
ATOM     19  O   UNL     1       9.843  16.444 -19.603  1.00  0.00    -0.550 OA
ATOM     20  O   UNL     1       9.851  15.914 -17.374  1.00  0.00    -0.550 OA
ENDBRANCH  17  18
ENDBRANCH  16  17
ENDBRANCH  15  16
ENDBRANCH  14  15
ENDBRANCH  13  14
ENDBRANCH  12  13
ENDBRANCH  11  12
ENDBRANCH   1  11
TORSDOF 15
ENDMDL
MODEL 5
REMARK VINA RESULT:    -4.457      2.762      4.870
REMARK INTER + INTRA:         -10.895
REMARK INTER:                  -8.529
REMARK INTRA:                  -2.365
REMARK UNBOUND:                -2.528
REMARK SMILES O=C([O-])CCCCCCCCCCCCCCC(=O)[O-]
REMARK SMILES IDX 10 1 9 2 8 3 7 4 6 5 5 6 4 7 2 8 1 9 3 10 11 11 12 12 13 13
REMARK SMILES IDX 14 14 15 15 16 16 17 17 18 18 19 19 20 20
REMARK H PARENT
REMARK Flexibility Score: inf
ROOT
ATOM      1  C   UNL     1      16.148  16.568 -16.470  1.00  0.00     0.000 C 
ENDROOT
BRANCH   1   2
ATOM      2  C   UNL     1      15.609  17.800 -17.223  1.00  0.00     0.000 C 
BRANCH   2   3
ATOM      3  C   UNL     1      14.108  18.035 -16.994  1.00  0.00     0.000 C 
BRANCH   3   4
ATOM      4  C   UNL     1      13.676  17.526 -15.612  1.00  0.00     0.000 C 
BRANCH   4   5
ATOM      5  C   UNL     1      12.373  16.722 -15.706  1.00  0.00     0.000 C 
BRANCH   5   6
ATOM      6  C   UNL     1      11.615  17.052 -16.997  1.00  0.00     0.006 C 
BRANCH   6   7
ATOM      7  C   UNL     1      10.197  16.475 -16.962  1.00  0.00     0.053 C 
BRANCH   7   8
ATOM      8  C   UNL     1      10.097  15.270 -17.843  1.00  0.00     0.041 C 
ATOM      9  O   UNL     1      10.365  14.127 -17.386  1.00  0.00    -0.550 OA
ATOM     10  O   UNL     1       9.673  15.403 -19.159  1.00  0.00    -0.550 OA
ENDBRANCH   7   8
ENDBRANCH   6   7
ENDBRANCH   5   6
ENDBRANCH   4   5
ENDBRANCH   3   4
ENDBRANCH   2   3
ENDBRANCH   1   2
BRANCH   1  11
ATOM     11  C   UNL     1      16.882  15.536 -17.347  1.00  0.00     0.000 C 
BRANCH  11  12
ATOM     12  C   UNL     1      16.219  14.149 -17.322  1.00  0.00     0.000 C 
BRANCH  12  13
ATOM     13  C   UNL     1      14.789  14.179 -16.758  1.00  0.00     0.000 C 
BRANCH  13  14
ATOM     14  C   UNL     1      13.698  13.874 -17.807  1.00  0.00     0.000 C 
BRANCH  14  15
ATOM     15  C   UNL     1      13.770  14.829 -19.010  1.00  0.00     0.000 C 
BRANCH  15  16
ATOM     16  C   UNL     1      13.336  14.160 -20.323  1.00  0.00     0.006 C 
BRANCH  16  17
ATOM     17  C   UNL     1      14.120  12.873 -20.613  1.00  0.00     0.053 C 
BRANCH  17  18
ATOM     18  C   UNL     1      13.185  11.742 -20.914  1.00  0.00     0.041 C 
ATOM     19  O   UNL     1      13.025  11.351 -22.102  1.00  0.00    -0.550 OA
ATOM     20  O   UNL     1      12.513  11.098 -19.883  1.00  0.00    -0.550 OA
ENDBRANCH  17  18
ENDBRANCH  16  17
ENDBRANCH  15  16
ENDBRANCH  14  15
ENDBRANCH  13  14
ENDBRANCH  12  13
ENDBRANCH  11  12
ENDBRANCH   1  11
TORSDOF 15
ENDMDL
MODEL 6
REMARK VINA RESULT:    -4.446      1.633      5.356
REMARK INTER + INTRA:         -10.873
REMARK INTER:                  -9.393
REMARK INTRA:                  -1.480
REMARK UNBOUND:                -2.528
REMARK SMILES O=C([O-])CCCCCCCCCCCCCCC(=O)[O-]
REMARK SMILES IDX 10 1 9 2 8 3 7 4 6 5 5 6 4 7 2 8 1 9 3 10 11 11 12 12 13 13
REMARK SMILES IDX 14 14 15 15 16 16 17 17 18 18 19 19 20 20
REMARK H PARENT
REMARK Flexibility Score: inf
ROOT
ATOM      1  C   UNL     1      11.372  15.803 -17.680  1.00  0.00     0.000 C 
ENDROOT
BRANCH   1   2
ATOM      2  C   UNL     1      12.354  14.684 -18.080  1.00  0.00     0.000 C 
BRANCH   2   3
ATOM      3  C   UNL     1      11.727  13.283 -18.014  1.00  0.00     0.000 C 
BRANCH   3   4
ATOM      4  C   UNL     1      10.747  13.064 -19.174  1.00  0.00     0.000 C 
BRANCH   4   5
ATOM      5  C   UNL     1      11.025  11.732 -19.882  1.00  0.00     0.000 C 
BRANCH   5   6
ATOM      6  C   UNL     1      12.531  11.463 -19.979  1.00  0.00     0.006 C 
BRANCH   6   7
ATOM      7  C   UNL     1      12.985  11.413 -21.440  1.00  0.00     0.053 C 
BRANCH   7   8
ATOM      8  C   UNL     1      13.888  12.565 -21.751  1.00  0.00     0.041 C 
ATOM      9  O   UNL     1      13.420  13.731 -21.833  1.00  0.00    -0.550 OA
ATOM     10  O   UNL     1      15.252  12.356 -21.913  1.00  0.00    -0.550 OA
ENDBRANCH   7   8
ENDBRANCH   6   7
ENDBRANCH   5   6
ENDBRANCH   4   5
ENDBRANCH   3   4
ENDBRANCH   2   3
ENDBRANCH   1   2
BRANCH   1  11
ATOM     11  C   UNL     1      11.525  16.321 -16.238  1.00  0.00     0.000 C 
BRANCH  11  12
ATOM     12  C   UNL     1      12.972  16.242 -15.723  1.00  0.00     0.000 C 
BRANCH  12  13
ATOM     13  C   UNL     1      13.716  17.585 -15.822  1.00  0.00     0.000 C 
BRANCH  13  14
ATOM     14  C   UNL     1      14.852  17.594 -16.866  1.00  0.00     0.000 C 
BRANCH  14  15
ATOM     15  C   UNL     1      16.075  16.789 -16.396  1.00  0.00     0.000 C 
BRANCH  15  16
ATOM     16  C   UNL     1      16.768  16.041 -17.545  1.00  0.00     0.006 C 
BRANCH  16  17
ATOM     17  C   UNL     1      16.199  14.630 -17.754  1.00  0.00     0.053 C 
BRANCH  17  18
ATOM     18  C   UNL     1      16.881  13.648 -16.851  1.00  0.00     0.041 C 
ATOM     19  O   UNL     1      17.914  13.040 -17.241  1.00  0.00    -0.550 OA
ATOM     20  O   UNL     1      16.396  13.424 -15.569  1.00  0.00    -0.550 OA
ENDBRANCH  17  18
ENDBRANCH  16  17
ENDBRANCH  15  16
ENDBRANCH  14  15
ENDBRANCH  13  14
ENDBRANCH  12  13
ENDBRANCH  11  12
ENDBRANCH   1  11
TORSDOF 15
ENDMDL
MODEL 7
REMARK VINA RESULT:    -4.412      2.615      5.742
REMARK INTER + INTRA:         -10.810
REMARK INTER:                  -8.520
REMARK INTRA:                  -2.290
REMARK UNBOUND:                -2.528
REMARK SMILES O=C([O-])CCCCCCCCCCCCCCC(=O)[O-]
REMARK SMILES IDX 10 1 9 2 8 3 7 4 6 5 5 6 4 7 2 8 1 9 3 10 11 11 12 12 13 13
REMARK SMILES IDX 14 14 15 15 16 16 17 17 18 18 19 19 20 20
REMARK H PARENT
REMARK Flexibility Score: inf
ROOT
ATOM      1  C   UNL     1      16.260  15.230 -16.618  1.00  0.00     0.000 C 
ENDROOT
BRANCH   1   2
ATOM      2  C   UNL     1      15.170  14.201 -16.257  1.00  0.00     0.000 C 
BRANCH   2   3
ATOM      3  C   UNL     1      14.116  14.031 -17.361  1.00  0.00     0.000 C 
BRANCH   3   4
ATOM      4  C   UNL     1      14.687  14.412 -18.732  1.00  0.00     0.000 C 
BRANCH   4   5
ATOM      5  C   UNL     1      13.665  15.212 -19.550  1.00  0.00     0.000 C 
BRANCH   5   6
ATOM      6  C   UNL     1      12.770  14.280 -20.374  1.00  0.00     0.006 C 
BRANCH   6   7
ATOM      7  C   UNL     1      13.385  14.007 -21.750  1.00  0.00     0.053 C 
BRANCH   7   8
ATOM      8  C   UNL     1      13.887  12.601 -21.832  1.00  0.00     0.041 C 
ATOM      9  O   UNL     1      13.113  11.637 -21.591  1.00  0.00    -0.550 OA
ATOM     10  O   UNL     1      15.200  12.352 -22.211  1.00  0.00    -0.550 OA
ENDBRANCH   7   8
ENDBRANCH   6   7
ENDBRANCH   5   6
ENDBRANCH   4   5
ENDBRANCH   3   4
ENDBRANCH   2   3
ENDBRANCH   1   2
BRANCH   1  11
ATOM     11  C   UNL     1      16.011  16.656 -16.092  1.00  0.00     0.000 C 
BRANCH  11  12
ATOM     12  C   UNL     1      15.522  17.621 -17.184  1.00  0.00     0.000 C 
BRANCH  12  13
ATOM     13  C   UNL     1      14.070  18.079 -16.971  1.00  0.00     0.000 C 
BRANCH  13  14
ATOM     14  C   UNL     1      13.467  17.637 -15.621  1.00  0.00     0.000 C 
BRANCH  14  15
ATOM     15  C   UNL     1      12.339  16.608 -15.802  1.00  0.00     0.000 C 
BRANCH  15  16
ATOM     16  C   UNL     1      11.407  16.951 -16.975  1.00  0.00     0.006 C 
BRANCH  16  17
ATOM     17  C   UNL     1      10.077  16.188 -16.909  1.00  0.00     0.053 C 
BRANCH  17  18
ATOM     18  C   UNL     1      10.087  15.028 -17.857  1.00  0.00     0.041 C 
ATOM     19  O   UNL     1      10.491  13.898 -17.471  1.00  0.00    -0.550 OA
ATOM     20  O   UNL     1       9.624  15.183 -19.157  1.00  0.00    -0.550 OA
ENDBRANCH  17  18
ENDBRANCH  16  17
ENDBRANCH  15  16
ENDBRANCH  14  15
ENDBRANCH  13  14
ENDBRANCH  12  13
ENDBRANCH  11  12
ENDBRANCH   1  11
TORSDOF 15
ENDMDL
MODEL 8
REMARK VINA RESULT:    -4.352      2.574      6.047
REMARK INTER + INTRA:         -10.696
REMARK INTER:                  -8.376
REMARK INTRA:                  -2.321
REMARK UNBOUND:                -2.528
REMARK SMILES O=C([O-])CCCCCCCCCCCCCCC(=O)[O-]
REMARK SMILES IDX 10 1 9 2 8 3 7 4 6 5 5 6 4 7 2 8 1 9 3 10 11 11 12 12 13 13
REMARK SMILES IDX 14 14 15 15 16 16 17 17 18 18 19 19 20 20
REMARK H PARENT
REMARK Flexibility Score: inf
ROOT
ATOM      1  C   UNL     1      11.821  11.650 -20.176  1.00  0.00     0.000 C 
ENDROOT
BRANCH   1   2
ATOM      2  C   UNL     1      12.243  11.426 -18.710  1.00  0.00     0.000 C 
BRANCH   2   3
ATOM      3  C   UNL     1      11.308  12.113 -17.704  1.00  0.00     0.000 C 
BRANCH   3   4
ATOM      4  C   UNL     1      10.423  13.156 -18.398  1.00  0.00     0.000 C 
BRANCH   4   5
ATOM      5  C   UNL     1      10.464  14.495 -17.650  1.00  0.00     0.000 C 
BRANCH   5   6
ATOM      6  C   UNL     1       9.852  15.617 -18.497  1.00  0.00     0.006 C 
BRANCH   6   7
ATOM      7  C   UNL     1       9.556  15.130 -19.918  1.00  0.00     0.053 C 
BRANCH   7   8
ATOM      8  C   UNL     1       8.723  16.131 -20.654  1.00  0.00     0.041 C 
ATOM      9  O   UNL     1       7.681  16.601 -20.124  1.00  0.00    -0.550 OA
ATOM     10  O   UNL     1       9.116  16.574 -21.911  1.00  0.00    -0.550 OA
ENDBRANCH   7   8
ENDBRANCH   6   7
ENDBRANCH   5   6
ENDBRANCH   4   5
ENDBRANCH   3   4
ENDBRANCH   2   3
ENDBRANCH   1   2
BRANCH   1  11
ATOM     11  C   UNL     1      12.984  11.815 -21.172  1.00  0.00     0.000 C 
BRANCH  11  12
ATOM     12  C   UNL     1      13.957  12.937 -20.776  1.00  0.00     0.000 C 
BRANCH  12  13
ATOM     13  C   UNL     1      13.275  14.311 -20.671  1.00  0.00     0.000 C 
BRANCH  13  14
ATOM     14  C   UNL     1      13.627  15.086 -19.384  1.00  0.00     0.000 C 
BRANCH  14  15
ATOM     15  C   UNL     1      14.442  14.231 -18.399  1.00  0.00     0.000 C 
BRANCH  15  16
ATOM     16  C   UNL     1      14.484  14.834 -16.986  1.00  0.00     0.006 C 
BRANCH  16  17
ATOM     17  C   UNL     1      15.918  15.026 -16.474  1.00  0.00     0.053 C 
BRANCH  17  18
ATOM     18  C   UNL     1      16.589  13.702 -16.273  1.00  0.00     0.041 C 
ATOM     19  O   UNL     1      16.144  12.890 -15.417  1.00  0.00    -0.550 OA
ATOM     20  O   UNL     1      17.685  13.349 -17.049  1.00  0.00    -0.550 OA
ENDBRANCH  17  18
ENDBRANCH  16  17
ENDBRANCH  15  16
ENDBRANCH  14  15
ENDBRANCH  13  14
ENDBRANCH  12  13
ENDBRANCH  11  12
ENDBRANCH   1  11
TORSDOF 15
ENDMDL
MODEL 9
REMARK VINA RESULT:    -4.350      2.450      3.574
REMARK INTER + INTRA:         -10.692
REMARK INTER:                  -8.223
REMARK INTRA:                  -2.469
REMARK UNBOUND:                -2.528
REMARK SMILES O=C([O-])CCCCCCCCCCCCCCC(=O)[O-]
REMARK SMILES IDX 10 1 9 2 8 3 7 4 6 5 5 6 4 7 2 8 1 9 3 10 11 11 12 12 13 13
REMARK SMILES IDX 14 14 15 15 16 16 17 17 18 18 19 19 20 20
REMARK H PARENT
REMARK Flexibility Score: inf
ROOT
ATOM      1  C   UNL     1      10.589  16.334 -16.622  1.00  0.00     0.000 C 
ENDROOT
BRANCH   1   2
ATOM      2  C   UNL     1      11.832  16.545 -15.735  1.00  0.00     0.000 C 
BRANCH   2   3
ATOM      3  C   UNL     1      12.723  17.701 -16.215  1.00  0.00     0.000 C 
BRANCH   3   4
ATOM      4  C   UNL     1      14.205  17.399 -15.956  1.00  0.00     0.000 C 
BRANCH   4   5
ATOM      5  C   UNL     1      15.078  17.909 -17.109  1.00  0.00     0.000 C 
BRANCH   5   6
ATOM      6  C   UNL     1      16.404  17.141 -17.176  1.00  0.00     0.006 C 
BRANCH   6   7
ATOM      7  C   UNL     1      16.205  15.671 -16.797  1.00  0.00     0.053 C 
BRANCH   7   8
ATOM      8  C   UNL     1      17.192  14.805 -17.513  1.00  0.00     0.041 C 
ATOM      9  O   UNL     1      17.739  13.840 -16.916  1.00  0.00    -0.550 OA
ATOM     10  O   UNL     1      17.480  15.039 -18.852  1.00  0.00    -0.550 OA
ENDBRANCH   7   8
ENDBRANCH   6   7
ENDBRANCH   5   6
ENDBRANCH   4   5
ENDBRANCH   3   4
ENDBRANCH   2   3
ENDBRANCH   1   2
BRANCH   1  11
ATOM     11  C   UNL     1      10.135  17.574 -17.414  1.00  0.00     0.000 C 
BRANCH  11  12
ATOM     12  C   UNL     1      10.281  17.400 -18.935  1.00  0.00     0.000 C 
BRANCH  12  13
ATOM     13  C   UNL     1      10.485  15.934 -19.352  1.00  0.00     0.000 C 
BRANCH  13  14
ATOM     14  C   UNL     1      11.765  15.692 -20.179  1.00  0.00     0.000 C 
BRANCH  14  15
ATOM     15  C   UNL     1      13.029  15.691 -19.302  1.00  0.00     0.000 C 
BRANCH  15  16
ATOM     16  C   UNL     1      13.551  14.273 -19.019  1.00  0.00     0.006 C 
BRANCH  16  17
ATOM     17  C   UNL     1      13.008  13.701 -17.702  1.00  0.00     0.053 C 
BRANCH  17  18
ATOM     18  C   UNL     1      11.929  12.697 -17.969  1.00  0.00     0.041 C 
ATOM     19  O   UNL     1      12.196  11.625 -18.576  1.00  0.00    -0.550 OA
ATOM     20  O   UNL     1      10.634  12.928 -17.523  1.00  0.00    -0.550 OA
ENDBRANCH  17  18
ENDBRANCH  16  17
ENDBRANCH  15  16
ENDBRANCH  14  15
ENDBRANCH  13  14
ENDBRANCH  12  13
ENDBRANCH  11  12
ENDBRANCH   1  11
TORSDOF 15
ENDMDL
