MODEL 1
REMARK VINA RESULT:    -4.810      0.000      0.000
REMARK INTER + INTRA:          -5.458
REMARK INTER:                  -5.372
REMARK INTRA:                  -0.085
REMARK UNBOUND:                -0.085
REMARK SMILES CCc1ccc(O)cc1O
REMARK SMILES IDX 3 1 9 2 8 3 6 4 5 5 4 6 2 7 1 8 10 9 7 11
REMARK H PARENT 10 10 7 12
REMARK Flexibility Score: inf
ROOT
ATOM      1  C   UNL     1      -9.582  -2.621  -9.858  1.00  0.00    -0.006 A 
ATOM      2  C   UNL     1      -9.747  -1.736 -10.952  1.00  0.00     0.122 A 
ATOM      3  C   UNL     1     -10.293  -2.210 -12.151  1.00  0.00     0.092 A 
ATOM      4  C   UNL     1     -10.691  -3.546 -12.276  1.00  0.00     0.119 A 
ATOM      5  C   UNL     1     -10.545  -4.416 -11.193  1.00  0.00     0.047 A 
ATOM      6  C   UNL     1     -10.000  -3.958  -9.992  1.00  0.00     0.011 A 
ENDROOT
BRANCH   1   7
ATOM      7  C   UNL     1      -9.011  -2.168  -8.535  1.00  0.00     0.036 C 
ATOM      8  C   UNL     1      -9.071  -3.289  -7.501  1.00  0.00     0.009 C 
ENDBRANCH   1   7
BRANCH   2   9
ATOM      9  O   UNL     1      -9.390  -0.386 -10.885  1.00  0.00    -0.508 OA
ATOM     10  H   UNL     1     -10.005   0.338 -10.541  1.00  0.00     0.293 HD
ENDBRANCH   2   9
BRANCH   4  11
ATOM     11  O   UNL     1     -11.235  -4.019 -13.468  1.00  0.00    -0.508 OA
ATOM     12  H   UNL     1     -10.909  -4.879 -13.894  1.00  0.00     0.293 HD
ENDBRANCH   4  11
TORSDOF 3
ENDMDL
MODEL 2
REMARK VINA RESULT:    -4.773      2.085      3.266
REMARK INTER + INTRA:          -5.416
REMARK INTER:                  -5.313
REMARK INTRA:                  -0.103
REMARK UNBOUND:                -0.085
REMARK SMILES CCc1ccc(O)cc1O
REMARK SMILES IDX 3 1 9 2 8 3 6 4 5 5 4 6 2 7 1 8 10 9 7 11
REMARK H PARENT 10 10 7 12
REMARK Flexibility Score: inf
ROOT
ATOM      1  C   UNL     1      -9.688  -2.011 -10.329  1.00  0.00    -0.006 A 
ATOM      2  C   UNL     1     -10.466  -2.979 -11.014  1.00  0.00     0.122 A 
ATOM      3  C   UNL     1     -10.852  -4.151 -10.353  1.00  0.00     0.092 A 
ATOM      4  C   UNL     1     -10.491  -4.371  -9.018  1.00  0.00     0.119 A 
ATOM      5  C   UNL     1      -9.741  -3.411  -8.337  1.00  0.00     0.047 A 
ATOM      6  C   UNL     1      -9.346  -2.239  -8.984  1.00  0.00     0.011 A 
ENDROOT
BRANCH   1   7
ATOM      7  C   UNL     1      -9.251  -0.722 -10.983  1.00  0.00     0.036 C 
ATOM      8  C   UNL     1      -7.875  -0.874 -11.625  1.00  0.00     0.009 C 
ENDBRANCH   1   7
BRANCH   2   9
ATOM      9  O   UNL     1     -10.877  -2.809 -12.338  1.00  0.00    -0.508 OA
ATOM     10  H   UNL     1     -10.883  -3.554 -13.021  1.00  0.00     0.293 HD
ENDBRANCH   2   9
BRANCH   4  11
ATOM     11  O   UNL     1     -10.876  -5.537  -8.360  1.00  0.00    -0.508 OA
ATOM     12  H   UNL     1     -11.224  -6.342  -8.868  1.00  0.00     0.293 HD
ENDBRANCH   4  11
TORSDOF 3
ENDMDL
MODEL 3
REMARK VINA RESULT:    -4.747      1.176      3.203
REMARK INTER + INTRA:          -5.387
REMARK INTER:                  -5.303
REMARK INTRA:                  -0.084
REMARK UNBOUND:                -0.085
REMARK SMILES CCc1ccc(O)cc1O
REMARK SMILES IDX 3 1 9 2 8 3 6 4 5 5 4 6 2 7 1 8 10 9 7 11
REMARK H PARENT 10 10 7 12
REMARK Flexibility Score: inf
ROOT
ATOM      1  C   UNL     1      -9.883  -3.408 -10.282  1.00  0.00    -0.006 A 
ATOM      2  C   UNL     1     -10.120  -2.691 -11.483  1.00  0.00     0.122 A 
ATOM      3  C   UNL     1      -9.582  -1.408 -11.642  1.00  0.00     0.092 A 
ATOM      4  C   UNL     1      -8.800  -0.832 -10.634  1.00  0.00     0.119 A 
ATOM      5  C   UNL     1      -8.551  -1.543  -9.458  1.00  0.00     0.047 A 
ATOM      6  C   UNL     1      -9.084  -2.822  -9.285  1.00  0.00     0.011 A 
ENDROOT
BRANCH   1   7
ATOM      7  C   UNL     1     -10.426  -4.799 -10.056  1.00  0.00     0.036 C 
ATOM      8  C   UNL     1     -10.872  -4.983  -8.608  1.00  0.00     0.009 C 
ENDBRANCH   1   7
BRANCH   2   9
ATOM      9  O   UNL     1     -10.873  -3.219 -12.534  1.00  0.00    -0.508 OA
ATOM     10  H   UNL     1     -11.703  -3.780 -12.401  1.00  0.00     0.293 HD
ENDBRANCH   2   9
BRANCH   4  11
ATOM     11  O   UNL     1      -8.263   0.444 -10.791  1.00  0.00    -0.508 OA
ATOM     12  H   UNL     1      -7.276   0.584 -10.974  1.00  0.00     0.293 HD
ENDBRANCH   4  11
TORSDOF 3
ENDMDL
MODEL 4
REMARK VINA RESULT:    -4.582      1.811      3.729
REMARK INTER + INTRA:          -5.203
REMARK INTER:                  -5.118
REMARK INTRA:                  -0.086
REMARK UNBOUND:                -0.085
REMARK SMILES CCc1ccc(O)cc1O
REMARK SMILES IDX 3 1 9 2 8 3 6 4 5 5 4 6 2 7 1 8 10 9 7 11
REMARK H PARENT 10 10 7 12
REMARK Flexibility Score: inf
ROOT
ATOM      1  C   UNL     1     -10.219  -2.933 -11.073  1.00  0.00    -0.006 A 
ATOM      2  C   UNL     1      -9.158  -2.129 -10.586  1.00  0.00     0.122 A 
ATOM      3  C   UNL     1      -8.717  -2.287  -9.267  1.00  0.00     0.092 A 
ATOM      4  C   UNL     1      -9.304  -3.242  -8.427  1.00  0.00     0.119 A 
ATOM      5  C   UNL     1     -10.338  -4.047  -8.910  1.00  0.00     0.047 A 
ATOM      6  C   UNL     1     -10.789  -3.898 -10.223  1.00  0.00     0.011 A 
ENDROOT
BRANCH   1   7
ATOM      7  C   UNL     1     -10.731  -2.819 -12.489  1.00  0.00     0.036 C 
ATOM      8  C   UNL     1     -11.118  -4.187 -13.043  1.00  0.00     0.009 C 
ENDBRANCH   1   7
BRANCH   2   9
ATOM      9  O   UNL     1      -8.517  -1.175 -11.380  1.00  0.00    -0.508 OA
ATOM     10  H   UNL     1      -7.563  -1.264 -11.702  1.00  0.00     0.293 HD
ENDBRANCH   2   9
BRANCH   4  11
ATOM     11  O   UNL     1      -8.866  -3.400  -7.115  1.00  0.00    -0.508 OA
ATOM     12  H   UNL     1      -9.495  -3.281  -6.328  1.00  0.00     0.293 HD
ENDBRANCH   4  11
TORSDOF 3
ENDMDL
MODEL 5
REMARK VINA RESULT:    -4.522      1.827      2.535
REMARK INTER + INTRA:          -5.135
REMARK INTER:                  -5.050
REMARK INTRA:                  -0.085
REMARK UNBOUND:                -0.085
REMARK SMILES CCc1ccc(O)cc1O
REMARK SMILES IDX 3 1 9 2 8 3 6 4 5 5 4 6 2 7 1 8 10 9 7 11
REMARK H PARENT 10 10 7 12
REMARK Flexibility Score: inf
ROOT
ATOM      1  C   UNL     1      -9.536  -3.207  -8.888  1.00  0.00    -0.006 A 
ATOM      2  C   UNL     1     -10.511  -4.109  -9.384  1.00  0.00     0.122 A 
ATOM      3  C   UNL     1     -10.959  -3.988 -10.705  1.00  0.00     0.092 A 
ATOM      4  C   UNL     1     -10.443  -2.994 -11.545  1.00  0.00     0.119 A 
ATOM      5  C   UNL     1      -9.470  -2.116 -11.064  1.00  0.00     0.047 A 
ATOM      6  C   UNL     1      -9.017  -2.223  -9.747  1.00  0.00     0.011 A 
ENDROOT
BRANCH   1   7
ATOM      7  C   UNL     1      -9.004  -3.294  -7.476  1.00  0.00     0.036 C 
ATOM      8  C   UNL     1      -7.875  -2.292  -7.255  1.00  0.00     0.009 C 
ENDBRANCH   1   7
BRANCH   2   9
ATOM      9  O   UNL     1     -11.048  -5.136  -8.603  1.00  0.00    -0.508 OA
ATOM     10  H   UNL     1     -10.605  -6.036  -8.481  1.00  0.00     0.293 HD
ENDBRANCH   2   9
BRANCH   4  11
ATOM     11  O   UNL     1     -10.887  -2.873 -12.860  1.00  0.00    -0.508 OA
ATOM     12  H   UNL     1     -10.261  -3.012 -13.645  1.00  0.00     0.293 HD
ENDBRANCH   4  11
TORSDOF 3
ENDMDL
MODEL 6
REMARK VINA RESULT:    -4.333      2.156      4.474
REMARK INTER + INTRA:          -4.925
REMARK INTER:                  -4.840
REMARK INTRA:                  -0.085
REMARK UNBOUND:                -0.085
REMARK SMILES CCc1ccc(O)cc1O
REMARK SMILES IDX 3 1 9 2 8 3 6 4 5 5 4 6 2 7 1 8 10 9 7 11
REMARK H PARENT 10 10 7 12
REMARK Flexibility Score: inf
ROOT
ATOM      1  C   UNL     1     -10.116  -3.581 -10.388  1.00  0.00    -0.006 A 
ATOM      2  C   UNL     1     -10.283  -4.111  -9.083  1.00  0.00     0.122 A 
ATOM      3  C   UNL     1      -9.559  -3.566  -8.016  1.00  0.00     0.092 A 
ATOM      4  C   UNL     1      -8.683  -2.493  -8.221  1.00  0.00     0.119 A 
ATOM      5  C   UNL     1      -8.531  -1.958  -9.502  1.00  0.00     0.047 A 
ATOM      6  C   UNL     1      -9.245  -2.494 -10.576  1.00  0.00     0.011 A 
ENDROOT
BRANCH   1   7
ATOM      7  C   UNL     1     -10.878  -4.117 -11.577  1.00  0.00     0.036 C 
ATOM      8  C   UNL     1     -10.775  -3.166 -12.766  1.00  0.00     0.009 C 
ENDBRANCH   1   7
BRANCH   2   9
ATOM      9  O   UNL     1     -11.157  -5.166  -8.809  1.00  0.00    -0.508 OA
ATOM     10  H   UNL     1     -10.962  -6.129  -9.043  1.00  0.00     0.293 HD
ENDBRANCH   2   9
BRANCH   4  11
ATOM     11  O   UNL     1      -7.963  -1.949  -7.160  1.00  0.00    -0.508 OA
ATOM     12  H   UNL     1      -8.430  -1.547  -6.355  1.00  0.00     0.293 HD
ENDBRANCH   4  11
TORSDOF 3
ENDMDL
MODEL 7
REMARK VINA RESULT:    -4.323      1.778      2.991
REMARK INTER + INTRA:          -4.913
REMARK INTER:                  -4.827
REMARK INTRA:                  -0.086
REMARK UNBOUND:                -0.085
REMARK SMILES CCc1ccc(O)cc1O
REMARK SMILES IDX 3 1 9 2 8 3 6 4 5 5 4 6 2 7 1 8 10 9 7 11
REMARK H PARENT 10 10 7 12
REMARK Flexibility Score: inf
ROOT
ATOM      1  C   UNL     1     -10.440  -1.858 -10.940  1.00  0.00    -0.006 A 
ATOM      2  C   UNL     1      -9.849  -2.512  -9.830  1.00  0.00     0.122 A 
ATOM      3  C   UNL     1      -9.708  -3.905  -9.841  1.00  0.00     0.092 A 
ATOM      4  C   UNL     1     -10.131  -4.657 -10.943  1.00  0.00     0.119 A 
ATOM      5  C   UNL     1     -10.697  -4.013 -12.045  1.00  0.00     0.047 A 
ATOM      6  C   UNL     1     -10.847  -2.625 -12.047  1.00  0.00     0.011 A 
ENDROOT
BRANCH   1   7
ATOM      7  C   UNL     1     -10.609  -0.358 -10.994  1.00  0.00     0.036 C 
ATOM      8  C   UNL     1     -12.027   0.018 -11.414  1.00  0.00     0.009 C 
ENDBRANCH   1   7
BRANCH   2   9
ATOM      9  O   UNL     1      -9.388  -1.817  -8.709  1.00  0.00    -0.508 OA
ATOM     10  H   UNL     1      -8.415  -1.773  -8.440  1.00  0.00     0.293 HD
ENDBRANCH   2   9
BRANCH   4  11
ATOM     11  O   UNL     1      -9.990  -6.043 -10.955  1.00  0.00    -0.508 OA
ATOM     12  H   UNL     1      -9.168  -6.495 -10.571  1.00  0.00     0.293 HD
ENDBRANCH   4  11
TORSDOF 3
ENDMDL
MODEL 8
REMARK VINA RESULT:    -4.309      1.990      4.198
REMARK INTER + INTRA:          -4.898
REMARK INTER:                  -4.814
REMARK INTRA:                  -0.085
REMARK UNBOUND:                -0.085
REMARK SMILES CCc1ccc(O)cc1O
REMARK SMILES IDX 3 1 9 2 8 3 6 4 5 5 4 6 2 7 1 8 10 9 7 11
REMARK H PARENT 10 10 7 12
REMARK Flexibility Score: inf
ROOT
ATOM      1  C   UNL     1     -10.102  -2.792 -10.834  1.00  0.00    -0.006 A 
ATOM      2  C   UNL     1      -9.682  -2.832  -9.480  1.00  0.00     0.122 A 
ATOM      3  C   UNL     1      -8.938  -1.770  -8.954  1.00  0.00     0.092 A 
ATOM      4  C   UNL     1      -8.618  -0.660  -9.745  1.00  0.00     0.119 A 
ATOM      5  C   UNL     1      -9.046  -0.610 -11.073  1.00  0.00     0.047 A 
ATOM      6  C   UNL     1      -9.786  -1.664 -11.613  1.00  0.00     0.011 A 
ENDROOT
BRANCH   1   7
ATOM      7  C   UNL     1     -10.917  -3.901 -11.457  1.00  0.00     0.036 C 
ATOM      8  C   UNL     1     -11.021  -3.720 -12.968  1.00  0.00     0.009 C 
ENDBRANCH   1   7
BRANCH   2   9
ATOM      9  O   UNL     1      -9.987  -3.900  -8.633  1.00  0.00    -0.508 OA
ATOM     10  H   UNL     1      -9.508  -4.077  -7.761  1.00  0.00     0.293 HD
ENDBRANCH   2   9
BRANCH   4  11
ATOM     11  O   UNL     1      -7.879   0.398  -9.222  1.00  0.00    -0.508 OA
ATOM     12  H   UNL     1      -7.770   0.524  -8.222  1.00  0.00     0.293 HD
ENDBRANCH   4  11
TORSDOF 3
ENDMDL
