MODEL 1
REMARK VINA RESULT:    -0.796      0.000      0.000
REMARK INTER + INTRA:          -0.987
REMARK INTER:                  -0.866
REMARK INTRA:                  -0.121
REMARK UNBOUND:                -0.121
REMARK SMILES Cc1ccc(C(C)C)cc1O
REMARK SMILES IDX 1 1 2 2 10 3 9 4 5 5 4 6 3 7 11 8 6 10 7 11 8 12
REMARK H PARENT 11 9
REMARK Flexibility Score: inf
ROOT
ATOM      1  C   UNL     1     -16.481   8.143  -3.308  1.00  0.00     0.048 C 
ATOM      2  C   UNL     1     -17.528   7.070  -3.196  1.00  0.00    -0.009 A 
ATOM      3  C   UNL     1     -18.893   7.393  -3.028  1.00  0.00     0.118 A 
ATOM      4  C   UNL     1     -19.843   6.371  -2.927  1.00  0.00     0.050 A 
ATOM      5  C   UNL     1     -19.461   5.020  -2.987  1.00  0.00    -0.042 A 
ATOM      6  C   UNL     1     -18.101   4.706  -3.153  1.00  0.00     0.004 A 
ATOM      7  C   UNL     1     -17.146   5.720  -3.256  1.00  0.00     0.007 A 
ENDROOT
BRANCH   3   8
ATOM      8  O   UNL     1     -19.336   8.717  -2.961  1.00  0.00    -0.508 OA
ATOM      9  H   UNL     1     -19.795   9.103  -2.147  1.00  0.00     0.293 HD
ENDBRANCH   3   8
BRANCH   5  10
ATOM     10  C   UNL     1     -20.509   3.928  -2.875  1.00  0.00     0.013 C 
ATOM     11  C   UNL     1     -21.924   4.518  -2.878  1.00  0.00     0.012 C 
ATOM     12  C   UNL     1     -20.342   2.886  -3.988  1.00  0.00     0.012 C 
ENDBRANCH   5  10
TORSDOF 2
ENDMDL
