MODEL 1
REMARK VINA RESULT:     0.000      0.000      0.000
REMARK INTER + INTRA:          -0.072
REMARK INTER:                   0.000
REMARK INTRA:                  -0.072
REMARK UNBOUND:                -0.072
REMARK SMILES CCCC(=O)[O-]
REMARK SMILES IDX 3 1 4 2 5 3 6 4 2 5 1 6
REMARK H PARENT
REMARK Flexibility Score: inf
ROOT
ATOM      1  C   UNL     1     178.000 191.473 195.879  1.00  0.00     0.052 C 
ENDROOT
BRANCH   1   2
ATOM      2  C   UNL     1     177.444 190.456 196.828  1.00  0.00     0.041 C 
ATOM      3  O   UNL     1     177.015 190.811 197.958  1.00  0.00    -0.550 OA
ATOM      4  O   UNL     1     177.431 189.112 196.479  1.00  0.00    -0.550 OA
ENDBRANCH   1   2
BRANCH   1   5
ATOM      5  C   UNL     1     177.243 191.478 194.545  1.00  0.00     0.003 C 
ATOM      6  C   UNL     1     175.753 191.773 194.725  1.00  0.00     0.004 C 
ENDBRANCH   1   5
TORSDOF 2
ENDMDL
MODEL 2
REMARK VINA RESULT:     0.000      8.466      9.040
REMARK INTER + INTRA:          -0.072
REMARK INTER:                   0.000
REMARK INTRA:                  -0.072
REMARK UNBOUND:                -0.072
REMARK SMILES CCCC(=O)[O-]
REMARK SMILES IDX 3 1 4 2 5 3 6 4 2 5 1 6
REMARK H PARENT
REMARK Flexibility Score: inf
ROOT
ATOM      1  C   UNL     1     182.978 195.338 191.572  1.00  0.00     0.052 C 
ENDROOT
BRANCH   1   2
ATOM      2  C   UNL     1     183.986 194.259 191.820  1.00  0.00     0.041 C 
ATOM      3  O   UNL     1     184.994 194.149 191.073  1.00  0.00    -0.550 OA
ATOM      4  O   UNL     1     183.796 193.355 192.856  1.00  0.00    -0.550 OA
ENDBRANCH   1   2
BRANCH   1   5
ATOM      5  C   UNL     1     182.812 196.252 192.793  1.00  0.00     0.003 C 
ATOM      6  C   UNL     1     184.125 196.925 193.197  1.00  0.00     0.004 C 
ENDBRANCH   1   5
TORSDOF 2
ENDMDL
MODEL 3
REMARK VINA RESULT:     0.000      8.663      9.207
REMARK INTER + INTRA:          -0.072
REMARK INTER:                   0.000
REMARK INTRA:                  -0.072
REMARK UNBOUND:                -0.072
REMARK SMILES CCCC(=O)[O-]
REMARK SMILES IDX 3 1 4 2 5 3 6 4 2 5 1 6
REMARK H PARENT
REMARK Flexibility Score: inf
ROOT
ATOM      1  C   UNL     1     182.128 196.578 190.637  1.00  0.00     0.052 C 
ENDROOT
BRANCH   1   2
ATOM      2  C   UNL     1     182.495 195.383 191.462  1.00  0.00     0.041 C 
ATOM      3  O   UNL     1     183.408 194.605 191.079  1.00  0.00    -0.550 OA
ATOM      4  O   UNL     1     181.807 195.110 192.637  1.00  0.00    -0.550 OA
ENDBRANCH   1   2
BRANCH   1   5
ATOM      5  C   UNL     1     182.280 197.883 191.430  1.00  0.00     0.003 C 
ATOM      6  C   UNL     1     183.707 198.089 191.940  1.00  0.00     0.004 C 
ENDBRANCH   1   5
TORSDOF 2
ENDMDL
MODEL 4
REMARK VINA RESULT:     0.000      6.820      7.434
REMARK INTER + INTRA:          -0.072
REMARK INTER:                   0.000
REMARK INTRA:                  -0.072
REMARK UNBOUND:                -0.072
REMARK SMILES CCCC(=O)[O-]
REMARK SMILES IDX 3 1 4 2 5 3 6 4 2 5 1 6
REMARK H PARENT
REMARK Flexibility Score: inf
ROOT
ATOM      1  C   UNL     1     173.841 184.603 195.670  1.00  0.00     0.052 C 
ENDROOT
BRANCH   1   2
ATOM      2  C   UNL     1     172.580 184.528 194.865  1.00  0.00     0.041 C 
ATOM      3  O   UNL     1     172.552 183.872 193.790  1.00  0.00    -0.550 OA
ATOM      4  O   UNL     1     171.445 185.209 195.285  1.00  0.00    -0.550 OA
ENDBRANCH   1   2
BRANCH   1   5
ATOM      5  C   UNL     1     174.314 186.051 195.850  1.00  0.00     0.003 C 
ATOM      6  C   UNL     1     174.616 186.733 194.515  1.00  0.00     0.004 C 
ENDBRANCH   1   5
TORSDOF 2
ENDMDL
MODEL 5
REMARK VINA RESULT:     0.000      5.877      6.592
REMARK INTER + INTRA:          -0.072
REMARK INTER:                   0.000
REMARK INTRA:                  -0.072
REMARK UNBOUND:                -0.072
REMARK SMILES CCCC(=O)[O-]
REMARK SMILES IDX 3 1 4 2 5 3 6 4 2 5 1 6
REMARK H PARENT
REMARK Flexibility Score: inf
ROOT
ATOM      1  C   UNL     1     172.315 189.758 197.091  1.00  0.00     0.052 C 
ENDROOT
BRANCH   1   2
ATOM      2  C   UNL     1     171.487 190.279 195.957  1.00  0.00     0.041 C 
ATOM      3  O   UNL     1     170.995 189.484 195.113  1.00  0.00    -0.550 OA
ATOM      4  O   UNL     1     171.285 191.645 195.813  1.00  0.00    -0.550 OA
ENDBRANCH   1   2
BRANCH   1   5
ATOM      5  C   UNL     1     171.730 190.159 198.451  1.00  0.00     0.003 C 
ATOM      6  C   UNL     1     170.302 189.646 198.643  1.00  0.00     0.004 C 
ENDBRANCH   1   5
TORSDOF 2
ENDMDL
MODEL 6
REMARK VINA RESULT:     0.000      4.054      4.698
REMARK INTER + INTRA:          -0.072
REMARK INTER:                   0.000
REMARK INTRA:                  -0.072
REMARK UNBOUND:                -0.072
REMARK SMILES CCCC(=O)[O-]
REMARK SMILES IDX 3 1 4 2 5 3 6 4 2 5 1 6
REMARK H PARENT
REMARK Flexibility Score: inf
ROOT
ATOM      1  C   UNL     1     175.463 193.556 197.496  1.00  0.00     0.052 C 
ENDROOT
BRANCH   1   2
ATOM      2  C   UNL     1     175.477 194.964 198.006  1.00  0.00     0.041 C 
ATOM      3  O   UNL     1     176.108 195.251 199.058  1.00  0.00    -0.550 OA
ATOM      4  O   UNL     1     174.768 195.953 197.338  1.00  0.00    -0.550 OA
ENDBRANCH   1   2
BRANCH   1   5
ATOM      5  C   UNL     1     176.016 193.464 196.068  1.00  0.00     0.003 C 
ATOM      6  C   UNL     1     177.451 193.981 195.967  1.00  0.00     0.004 C 
ENDBRANCH   1   5
TORSDOF 2
ENDMDL
MODEL 7
REMARK VINA RESULT:     0.000      8.279      8.872
REMARK INTER + INTRA:          -0.072
REMARK INTER:                   0.000
REMARK INTRA:                  -0.072
REMARK UNBOUND:                -0.072
REMARK SMILES CCCC(=O)[O-]
REMARK SMILES IDX 3 1 4 2 5 3 6 4 2 5 1 6
REMARK H PARENT
REMARK Flexibility Score: inf
ROOT
ATOM      1  C   UNL     1     172.092 187.602 191.170  1.00  0.00     0.052 C 
ENDROOT
BRANCH   1   2
ATOM      2  C   UNL     1     171.462 186.262 190.939  1.00  0.00     0.041 C 
ATOM      3  O   UNL     1     171.027 185.591 191.912  1.00  0.00    -0.550 OA
ATOM      4  O   UNL     1     171.385 185.742 189.654  1.00  0.00    -0.550 OA
ENDBRANCH   1   2
BRANCH   1   5
ATOM      5  C   UNL     1     171.365 188.711 190.398  1.00  0.00     0.003 C 
ATOM      6  C   UNL     1     169.890 188.816 190.785  1.00  0.00     0.004 C 
ENDBRANCH   1   5
TORSDOF 2
ENDMDL
MODEL 8
REMARK VINA RESULT:     0.000      6.244      6.935
REMARK INTER + INTRA:          -0.072
REMARK INTER:                   0.000
REMARK INTRA:                  -0.072
REMARK UNBOUND:                -0.072
REMARK SMILES CCCC(=O)[O-]
REMARK SMILES IDX 3 1 4 2 5 3 6 4 2 5 1 6
REMARK H PARENT
REMARK Flexibility Score: inf
ROOT
ATOM      1  C   UNL     1     176.422 196.448 198.264  1.00  0.00     0.052 C 
ENDROOT
BRANCH   1   2
ATOM      2  C   UNL     1     177.109 197.380 199.214  1.00  0.00     0.041 C 
ATOM      3  O   UNL     1     177.833 196.924 200.138  1.00  0.00    -0.550 OA
ATOM      4  O   UNL     1     176.924 198.751 199.098  1.00  0.00    -0.550 OA
ENDBRANCH   1   2
BRANCH   1   5
ATOM      5  C   UNL     1     177.427 195.666 197.409  1.00  0.00     0.003 C 
ATOM      6  C   UNL     1     178.330 196.587 196.587  1.00  0.00     0.004 C 
ENDBRANCH   1   5
TORSDOF 2
ENDMDL
MODEL 9
REMARK VINA RESULT:     0.000      3.427      4.337
REMARK INTER + INTRA:          -0.072
REMARK INTER:                   0.000
REMARK INTRA:                  -0.072
REMARK UNBOUND:                -0.072
REMARK SMILES CCCC(=O)[O-]
REMARK SMILES IDX 3 1 4 2 5 3 6 4 2 5 1 6
REMARK H PARENT
REMARK Flexibility Score: inf
ROOT
ATOM      1  C   UNL     1     176.750 189.722 200.475  1.00  0.00     0.052 C 
ENDROOT
BRANCH   1   2
ATOM      2  C   UNL     1     175.678 188.767 200.048  1.00  0.00     0.041 C 
ATOM      3  O   UNL     1     174.515 189.185 199.808  1.00  0.00    -0.550 OA
ATOM      4  O   UNL     1     175.956 187.410 199.947  1.00  0.00    -0.550 OA
ENDBRANCH   1   2
BRANCH   1   5
ATOM      5  C   UNL     1     177.087 190.729 199.367  1.00  0.00     0.003 C 
ATOM      6  C   UNL     1     177.557 190.043 198.083  1.00  0.00     0.004 C 
ENDBRANCH   1   5
TORSDOF 2
ENDMDL
