MODEL 1
REMARK VINA RESULT:    -2.628      0.000      0.000
REMARK INTER + INTRA:          -3.214
REMARK INTER:                  -3.089
REMARK INTRA:                  -0.125
REMARK UNBOUND:                -0.125
REMARK SMILES O=C([O-])CCC(=O)[O-]
REMARK SMILES IDX 4 1 2 2 1 3 3 4 5 5 6 6 7 7 8 8
REMARK H PARENT
REMARK Flexibility Score: inf
ROOT
ATOM      1  C   UNL     1     -23.393   1.071   2.166  1.00  0.00     0.059 C 
ENDROOT
BRANCH   1   2
ATOM      2  C   UNL     1     -23.105   2.535   2.045  1.00  0.00     0.042 C 
ATOM      3  O   UNL     1     -23.414   3.321   2.979  1.00  0.00    -0.550 OA
ATOM      4  O   UNL     1     -22.458   3.027   0.918  1.00  0.00    -0.550 OA
ENDBRANCH   1   2
BRANCH   1   5
ATOM      5  C   UNL     1     -22.199   0.306   2.747  1.00  0.00     0.059 C 
BRANCH   5   6
ATOM      6  C   UNL     1     -21.300  -0.217   1.668  1.00  0.00     0.042 C 
ATOM      7  O   UNL     1     -21.610  -1.261   1.036  1.00  0.00    -0.550 OA
ATOM      8  O   UNL     1     -20.141   0.472   1.333  1.00  0.00    -0.550 OA
ENDBRANCH   5   6
ENDBRANCH   1   5
TORSDOF 3
ENDMDL
MODEL 2
REMARK VINA RESULT:    -2.626     13.289     15.375
REMARK INTER + INTRA:          -3.212
REMARK INTER:                  -3.097
REMARK INTRA:                  -0.115
REMARK UNBOUND:                -0.125
REMARK SMILES O=C([O-])CCC(=O)[O-]
REMARK SMILES IDX 4 1 2 2 1 3 3 4 5 5 6 6 7 7 8 8
REMARK H PARENT
REMARK Flexibility Score: inf
ROOT
ATOM      1  C   UNL     1     -14.883 -12.583   3.648  1.00  0.00     0.059 C 
ENDROOT
BRANCH   1   2
ATOM      2  C   UNL     1     -13.819 -12.707   4.694  1.00  0.00     0.042 C 
ATOM      3  O   UNL     1     -14.129 -12.977   5.884  1.00  0.00    -0.550 OA
ATOM      4  O   UNL     1     -12.481 -12.567   4.346  1.00  0.00    -0.550 OA
ENDBRANCH   1   2
BRANCH   1   5
ATOM      5  C   UNL     1     -15.529 -11.194   3.659  1.00  0.00     0.059 C 
BRANCH   5   6
ATOM      6  C   UNL     1     -14.914 -10.291   2.634  1.00  0.00     0.042 C 
ATOM      7  O   UNL     1     -15.251  -9.079   2.573  1.00  0.00    -0.550 OA
ATOM      8  O   UNL     1     -13.938 -10.777   1.774  1.00  0.00    -0.550 OA
ENDBRANCH   5   6
ENDBRANCH   1   5
TORSDOF 3
ENDMDL
MODEL 3
REMARK VINA RESULT:    -2.618     13.234     15.055
REMARK INTER + INTRA:          -3.202
REMARK INTER:                  -3.097
REMARK INTRA:                  -0.105
REMARK UNBOUND:                -0.125
REMARK SMILES O=C([O-])CCC(=O)[O-]
REMARK SMILES IDX 4 1 2 2 1 3 3 4 5 5 6 6 7 7 8 8
REMARK H PARENT
REMARK Flexibility Score: inf
ROOT
ATOM      1  C   UNL     1     -15.581 -11.129   3.674  1.00  0.00     0.059 C 
ENDROOT
BRANCH   1   2
ATOM      2  C   UNL     1     -14.947 -10.214   2.672  1.00  0.00     0.042 C 
ATOM      3  O   UNL     1     -15.276  -9.000   2.626  1.00  0.00    -0.550 OA
ATOM      4  O   UNL     1     -13.963 -10.693   1.817  1.00  0.00    -0.550 OA
ENDBRANCH   1   2
BRANCH   1   5
ATOM      5  C   UNL     1     -14.993 -12.542   3.602  1.00  0.00     0.059 C 
BRANCH   5   6
ATOM      6  C   UNL     1     -13.899 -12.737   4.606  1.00  0.00     0.042 C 
ATOM      7  O   UNL     1     -14.179 -12.965   5.813  1.00  0.00    -0.550 OA
ATOM      8  O   UNL     1     -12.570 -12.708   4.202  1.00  0.00    -0.550 OA
ENDBRANCH   5   6
ENDBRANCH   1   5
TORSDOF 3
ENDMDL
MODEL 4
REMARK VINA RESULT:    -2.613      0.089      3.667
REMARK INTER + INTRA:          -3.197
REMARK INTER:                  -3.077
REMARK INTRA:                  -0.120
REMARK UNBOUND:                -0.125
REMARK SMILES O=C([O-])CCC(=O)[O-]
REMARK SMILES IDX 4 1 2 2 1 3 3 4 5 5 6 6 7 7 8 8
REMARK H PARENT
REMARK Flexibility Score: inf
ROOT
ATOM      1  C   UNL     1     -22.214   0.341   2.744  1.00  0.00     0.059 C 
ENDROOT
BRANCH   1   2
ATOM      2  C   UNL     1     -21.317  -0.169   1.659  1.00  0.00     0.042 C 
ATOM      3  O   UNL     1     -21.632  -1.201   1.010  1.00  0.00    -0.550 OA
ATOM      4  O   UNL     1     -20.155   0.519   1.336  1.00  0.00    -0.550 OA
ENDBRANCH   1   2
BRANCH   1   5
ATOM      5  C   UNL     1     -23.417   1.101   2.174  1.00  0.00     0.059 C 
BRANCH   5   6
ATOM      6  C   UNL     1     -23.122   2.561   2.017  1.00  0.00     0.042 C 
ATOM      7  O   UNL     1     -22.621   2.995   0.946  1.00  0.00    -0.550 OA
ATOM      8  O   UNL     1     -23.440   3.450   3.036  1.00  0.00    -0.550 OA
ENDBRANCH   5   6
ENDBRANCH   1   5
TORSDOF 3
ENDMDL
MODEL 5
REMARK VINA RESULT:    -2.611      0.060      3.654
REMARK INTER + INTRA:          -3.195
REMARK INTER:                  -3.071
REMARK INTRA:                  -0.123
REMARK UNBOUND:                -0.125
REMARK SMILES O=C([O-])CCC(=O)[O-]
REMARK SMILES IDX 4 1 2 2 1 3 3 4 5 5 6 6 7 7 8 8
REMARK H PARENT
REMARK Flexibility Score: inf
ROOT
ATOM      1  C   UNL     1     -22.217   0.350   2.731  1.00  0.00     0.059 C 
ENDROOT
BRANCH   1   2
ATOM      2  C   UNL     1     -21.328  -0.170   1.644  1.00  0.00     0.042 C 
ATOM      3  O   UNL     1     -21.666  -1.186   0.981  1.00  0.00    -0.550 OA
ATOM      4  O   UNL     1     -20.146   0.492   1.335  1.00  0.00    -0.550 OA
ENDBRANCH   1   2
BRANCH   1   5
ATOM      5  C   UNL     1     -23.415   1.118   2.164  1.00  0.00     0.059 C 
BRANCH   5   6
ATOM      6  C   UNL     1     -23.123   2.582   2.037  1.00  0.00     0.042 C 
ATOM      7  O   UNL     1     -23.428   3.372   2.969  1.00  0.00    -0.550 OA
ATOM      8  O   UNL     1     -22.476   3.067   0.907  1.00  0.00    -0.550 OA
ENDBRANCH   5   6
ENDBRANCH   1   5
TORSDOF 3
ENDMDL
MODEL 6
REMARK VINA RESULT:    -2.606     13.900     14.804
REMARK INTER + INTRA:          -3.189
REMARK INTER:                  -3.045
REMARK INTRA:                  -0.144
REMARK UNBOUND:                -0.125
REMARK SMILES O=C([O-])CCC(=O)[O-]
REMARK SMILES IDX 4 1 2 2 1 3 3 4 5 5 6 6 7 7 8 8
REMARK H PARENT
REMARK Flexibility Score: inf
ROOT
ATOM      1  C   UNL     1     -14.644 -10.034   2.491  1.00  0.00     0.059 C 
ENDROOT
BRANCH   1   2
ATOM      2  C   UNL     1     -13.452 -10.871   2.143  1.00  0.00     0.042 C 
ATOM      3  O   UNL     1     -13.311 -11.316   0.973  1.00  0.00    -0.550 OA
ATOM      4  O   UNL     1     -12.477 -11.124   3.098  1.00  0.00    -0.550 OA
ENDBRANCH   1   2
BRANCH   1   5
ATOM      5  C   UNL     1     -15.623 -10.791   3.395  1.00  0.00     0.059 C 
BRANCH   5   6
ATOM      6  C   UNL     1     -16.328 -11.885   2.653  1.00  0.00     0.042 C 
ATOM      7  O   UNL     1     -16.551 -12.991   3.214  1.00  0.00    -0.550 OA
ATOM      8  O   UNL     1     -16.776 -11.670   1.356  1.00  0.00    -0.550 OA
ENDBRANCH   5   6
ENDBRANCH   1   5
TORSDOF 3
ENDMDL
MODEL 7
REMARK VINA RESULT:    -2.602     13.911     14.695
REMARK INTER + INTRA:          -3.184
REMARK INTER:                  -3.035
REMARK INTRA:                  -0.148
REMARK UNBOUND:                -0.125
REMARK SMILES O=C([O-])CCC(=O)[O-]
REMARK SMILES IDX 4 1 2 2 1 3 3 4 5 5 6 6 7 7 8 8
REMARK H PARENT
REMARK Flexibility Score: inf
ROOT
ATOM      1  C   UNL     1     -15.637 -10.769   3.367  1.00  0.00     0.059 C 
ENDROOT
BRANCH   1   2
ATOM      2  C   UNL     1     -16.308 -11.888   2.631  1.00  0.00     0.042 C 
ATOM      3  O   UNL     1     -16.484 -13.000   3.194  1.00  0.00    -0.550 OA
ATOM      4  O   UNL     1     -16.775 -11.689   1.338  1.00  0.00    -0.550 OA
ENDBRANCH   1   2
BRANCH   1   5
ATOM      5  C   UNL     1     -14.631 -10.030   2.479  1.00  0.00     0.059 C 
BRANCH   5   6
ATOM      6  C   UNL     1     -13.463 -10.899   2.125  1.00  0.00     0.042 C 
ATOM      7  O   UNL     1     -13.314 -11.312   0.945  1.00  0.00    -0.550 OA
ATOM      8  O   UNL     1     -12.516 -11.220   3.090  1.00  0.00    -0.550 OA
ENDBRANCH   5   6
ENDBRANCH   1   5
TORSDOF 3
ENDMDL
MODEL 8
REMARK VINA RESULT:    -2.580     15.849     16.878
REMARK INTER + INTRA:          -3.158
REMARK INTER:                  -3.053
REMARK INTRA:                  -0.105
REMARK UNBOUND:                -0.125
REMARK SMILES O=C([O-])CCC(=O)[O-]
REMARK SMILES IDX 4 1 2 2 1 3 3 4 5 5 6 6 7 7 8 8
REMARK H PARENT
REMARK Flexibility Score: inf
ROOT
ATOM      1  C   UNL     1     -20.543   5.886  16.604  1.00  0.00     0.059 C 
ENDROOT
BRANCH   1   2
ATOM      2  C   UNL     1     -21.864   6.491  16.966  1.00  0.00     0.042 C 
ATOM      3  O   UNL     1     -22.587   7.012  16.077  1.00  0.00    -0.550 OA
ATOM      4  O   UNL     1     -22.316   6.441  18.279  1.00  0.00    -0.550 OA
ENDBRANCH   1   2
BRANCH   1   5
ATOM      5  C   UNL     1     -19.373   6.730  17.119  1.00  0.00     0.059 C 
BRANCH   5   6
ATOM      6  C   UNL     1     -18.712   6.094  18.304  1.00  0.00     0.042 C 
ATOM      7  O   UNL     1     -17.581   5.555  18.185  1.00  0.00    -0.550 OA
ATOM      8  O   UNL     1     -19.327   6.134  19.549  1.00  0.00    -0.550 OA
ENDBRANCH   5   6
ENDBRANCH   1   5
TORSDOF 3
ENDMDL
MODEL 9
REMARK VINA RESULT:    -2.499     13.452     15.688
REMARK INTER + INTRA:          -3.062
REMARK INTER:                  -3.034
REMARK INTRA:                  -0.028
REMARK UNBOUND:                -0.125
REMARK SMILES O=C([O-])CCC(=O)[O-]
REMARK SMILES IDX 4 1 2 2 1 3 3 4 5 5 6 6 7 7 8 8
REMARK H PARENT
REMARK Flexibility Score: inf
ROOT
ATOM      1  C   UNL     1     -13.619 -12.046   3.404  1.00  0.00     0.059 C 
ENDROOT
BRANCH   1   2
ATOM      2  C   UNL     1     -12.170 -12.422   3.418  1.00  0.00     0.042 C 
ATOM      3  O   UNL     1     -11.592 -12.756   2.350  1.00  0.00    -0.550 OA
ATOM      4  O   UNL     1     -11.447 -12.364   4.602  1.00  0.00    -0.550 OA
ENDBRANCH   1   2
BRANCH   1   5
ATOM      5  C   UNL     1     -13.895 -10.891   2.436  1.00  0.00     0.059 C 
BRANCH   5   6
ATOM      6  C   UNL     1     -15.219 -10.246   2.709  1.00  0.00     0.042 C 
ATOM      7  O   UNL     1     -15.337  -8.993   2.656  1.00  0.00    -0.550 OA
ATOM      8  O   UNL     1     -16.333 -11.030   2.982  1.00  0.00    -0.550 OA
ENDBRANCH   5   6
ENDBRANCH   1   5
TORSDOF 3
ENDMDL
