MODEL 1
REMARK VINA RESULT:    17.391      0.000      0.000
REMARK INTER + INTRA:          27.034
REMARK INTER:                  26.541
REMARK INTRA:                   0.493
REMARK UNBOUND:                 0.493
REMARK SMILES CC1=CCC[C@H](C)C(=O)C[C@@H](C(C)C)C(=O)C1
REMARK SMILES IDX 8 1 9 2 6 3 7 4 5 5 4 6 3 7 2 8 1 9 10 11 11 12 15 13 16 14
REMARK SMILES IDX 17 15 12 17 13 18 14 19
REMARK H PARENT
REMARK Flexibility Score: 70.00
ROOT
ATOM      1  C   UNL     1      20.728  16.608 -11.723  1.00  0.00     0.136 C 
ATOM      2  O   UNL     1      21.246  15.554 -12.059  1.00  0.00    -0.299 OA
ENDROOT
BRANCH   1   3
ATOM      3  C   UNL     1      21.628  17.806 -11.465  1.00  0.00     0.053 C 
ATOM      4  C   UNL     1      23.101  17.375 -11.409  1.00  0.00     0.016 C 
BRANCH   3   5
ATOM      5  C   UNL     1      21.419  18.945 -12.494  1.00  0.00     0.015 C 
BRANCH   5   6
ATOM      6  C   UNL     1      21.122  20.338 -11.894  1.00  0.00     0.028 C 
BRANCH   6   7
ATOM      7  C   UNL     1      19.945  21.088 -12.475  1.00  0.00    -0.028 C 
ATOM      8  C   UNL     1      18.675  20.631 -12.579  1.00  0.00    -0.070 CG0
ATOM      9  C   UNL     1      17.678  21.491 -13.316  1.00  0.00     0.039 C 
ATOM     10  G   UNL     1      18.184  19.351 -11.933  1.00  0.00     0.000 G0
ENDBRANCH   6   7
ENDBRANCH   5   6
ENDBRANCH   3   5
ENDBRANCH   1   3
BRANCH   1  11
ATOM     11  C   UNL     1      19.210  16.662 -11.629  1.00  0.00     0.087 C 
BRANCH  11  12
ATOM     12  C   UNL     1      18.498  16.930 -12.984  1.00  0.00     0.066 C 
BRANCH  12  13
ATOM     13  C   UNL     1      17.872  18.313 -13.032  1.00  0.00     0.140 C 
ATOM     14  O   UNL     1      17.085  18.595 -13.923  1.00  0.00    -0.299 OA
BRANCH  13  15
ATOM     15  C   UNL     1      18.151  19.334 -11.950  1.00  0.00     0.106 CG0
ATOM     16  G   UNL     1      18.658  20.621 -12.569  1.00  0.00     0.000 G0
ENDBRANCH  13  15
ENDBRANCH  12  13
BRANCH  12  17
ATOM     17  C   UNL     1      17.503  15.803 -13.420  1.00  0.00    -0.006 C 
ATOM     18  C   UNL     1      16.285  15.604 -12.496  1.00  0.00     0.008 C 
ATOM     19  C   UNL     1      18.228  14.460 -13.605  1.00  0.00     0.008 C 
ENDBRANCH  12  17
ENDBRANCH  11  12
ENDBRANCH   1  11
TORSDOF 1
ENDMDL
MODEL 2
REMARK VINA RESULT:    17.980      1.659      3.793
REMARK INTER + INTRA:          27.934
REMARK INTER:                  25.564
REMARK INTRA:                   2.370
REMARK UNBOUND:                 0.493
REMARK SMILES CC1=CCC[C@H](C)C(=O)C[C@@H](C(C)C)C(=O)C1
REMARK SMILES IDX 8 1 9 2 6 3 7 4 5 5 4 6 3 7 2 8 1 9 10 11 11 12 15 13 16 14
REMARK SMILES IDX 17 15 12 17 13 18 14 19
REMARK H PARENT
REMARK Flexibility Score: 70.00
ROOT
ATOM      1  C   UNL     1      17.730  19.953 -13.358  1.00  0.00     0.136 C 
ATOM      2  O   UNL     1      16.812  20.457 -13.989  1.00  0.00    -0.299 OA
ENDROOT
BRANCH   1   3
ATOM      3  C   UNL     1      18.305  20.722 -12.179  1.00  0.00     0.053 C 
ATOM      4  C   UNL     1      17.963  20.021 -10.856  1.00  0.00     0.016 C 
BRANCH   3   5
ATOM      5  C   UNL     1      19.830  20.961 -12.306  1.00  0.00     0.015 C 
BRANCH   5   6
ATOM      6  C   UNL     1      20.623  19.839 -13.012  1.00  0.00     0.028 C 
BRANCH   6   7
ATOM      7  C   UNL     1      21.585  19.047 -12.153  1.00  0.00    -0.028 C 
ATOM      8  C   UNL     1      21.439  17.759 -11.765  1.00  0.00    -0.070 CG0
ATOM      9  C   UNL     1      22.450  17.200 -10.795  1.00  0.00     0.039 C 
ATOM     10  G   UNL     1      20.372  16.830 -12.308  1.00  0.00     0.000 G0
ENDBRANCH   6   7
ENDBRANCH   5   6
ENDBRANCH   3   5
ENDBRANCH   1   3
BRANCH   1  11
ATOM     11  C   UNL     1      18.204  18.567 -13.769  1.00  0.00     0.087 C 
BRANCH  11  12
ATOM     12  C   UNL     1      17.853  17.446 -12.751  1.00  0.00     0.066 C 
BRANCH  12  13
ATOM     13  C   UNL     1      18.996  17.176 -11.788  1.00  0.00     0.140 C 
ATOM     14  O   UNL     1      18.797  17.208 -10.583  1.00  0.00    -0.299 OA
BRANCH  13  15
ATOM     15  C   UNL     1      20.371  16.796 -12.294  1.00  0.00     0.106 CG0
ATOM     16  G   UNL     1      21.407  17.764 -11.759  1.00  0.00     0.000 G0
ENDBRANCH  13  15
ENDBRANCH  12  13
BRANCH  12  17
ATOM     17  C   UNL     1      17.295  16.138 -13.405  1.00  0.00    -0.006 C 
ATOM     18  C   UNL     1      16.011  15.575 -12.762  1.00  0.00     0.008 C 
ATOM     19  C   UNL     1      18.366  15.037 -13.454  1.00  0.00     0.008 C 
ENDBRANCH  12  17
ENDBRANCH  11  12
ENDBRANCH   1  11
TORSDOF 1
ENDMDL
MODEL 3
REMARK VINA RESULT:    18.043      1.844      4.256
REMARK INTER + INTRA:          28.030
REMARK INTER:                  27.493
REMARK INTRA:                   0.537
REMARK UNBOUND:                 0.493
REMARK SMILES CC1=CCC[C@H](C)C(=O)C[C@@H](C(C)C)C(=O)C1
REMARK SMILES IDX 8 1 9 2 6 3 7 4 5 5 4 6 3 7 2 8 1 9 10 11 11 12 15 13 16 14
REMARK SMILES IDX 17 15 12 17 13 18 14 19
REMARK H PARENT
REMARK Flexibility Score: 70.00
ROOT
ATOM      1  C   UNL     1      21.268  18.470 -12.245  1.00  0.00     0.136 C 
ATOM      2  O   UNL     1      21.940  19.377 -11.777  1.00  0.00    -0.299 OA
ENDROOT
BRANCH   1   3
ATOM      3  C   UNL     1      21.742  17.040 -12.039  1.00  0.00     0.053 C 
ATOM      4  C   UNL     1      22.845  16.983 -10.970  1.00  0.00     0.016 C 
BRANCH   3   5
ATOM      5  C   UNL     1      20.585  16.068 -11.698  1.00  0.00     0.015 C 
BRANCH   5   6
ATOM      6  C   UNL     1      20.204  15.070 -12.814  1.00  0.00     0.028 C 
BRANCH   6   7
ATOM      7  C   UNL     1      18.757  14.634 -12.867  1.00  0.00    -0.028 C 
ATOM      8  C   UNL     1      17.679  15.444 -12.981  1.00  0.00    -0.070 CG0
ATOM      9  C   UNL     1      16.312  14.813 -12.878  1.00  0.00     0.039 C 
ATOM     10  G   UNL     1      17.765  16.927 -13.284  1.00  0.00     0.000 G0
ENDBRANCH   6   7
ENDBRANCH   5   6
ENDBRANCH   3   5
ENDBRANCH   1   3
BRANCH   1  11
ATOM     11  C   UNL     1      19.978  18.832 -12.964  1.00  0.00     0.087 C 
BRANCH  11  12
ATOM     12  C   UNL     1      18.750  18.997 -12.025  1.00  0.00     0.066 C 
BRANCH  12  13
ATOM     13  C   UNL     1      17.847  17.777 -12.051  1.00  0.00     0.140 C 
ATOM     14  O   UNL     1      17.176  17.494 -11.071  1.00  0.00    -0.299 OA
BRANCH  13  15
ATOM     15  C   UNL     1      17.706  16.937 -13.302  1.00  0.00     0.106 CG0
ATOM     16  G   UNL     1      17.689  15.465 -12.940  1.00  0.00     0.000 G0
ENDBRANCH  13  15
ENDBRANCH  12  13
BRANCH  12  17
ATOM     17  C   UNL     1      17.963  20.335 -12.229  1.00  0.00    -0.006 C 
ATOM     18  C   UNL     1      17.162  20.436 -13.543  1.00  0.00     0.008 C 
ATOM     19  C   UNL     1      18.891  21.554 -12.102  1.00  0.00     0.008 C 
ENDBRANCH  12  17
ENDBRANCH  11  12
ENDBRANCH   1  11
TORSDOF 1
ENDMDL
MODEL 4
REMARK VINA RESULT:    18.093      2.279      4.935
REMARK INTER + INTRA:          28.105
REMARK INTER:                  26.710
REMARK INTRA:                   1.396
REMARK UNBOUND:                 0.493
REMARK SMILES CC1=CCC[C@H](C)C(=O)C[C@@H](C(C)C)C(=O)C1
REMARK SMILES IDX 8 1 9 2 6 3 7 4 5 5 4 6 3 7 2 8 1 9 10 11 11 12 15 13 16 14
REMARK SMILES IDX 17 15 12 17 13 18 14 19
REMARK H PARENT
REMARK Flexibility Score: 70.00
ROOT
ATOM      1  C   UNL     1      18.611  16.144 -12.948  1.00  0.00     0.136 C 
ATOM      2  O   UNL     1      19.585  15.954 -12.235  1.00  0.00    -0.299 OA
ENDROOT
BRANCH   1   3
ATOM      3  C   UNL     1      17.927  14.938 -13.573  1.00  0.00     0.053 C 
ATOM      4  C   UNL     1      18.724  13.656 -13.290  1.00  0.00     0.016 C 
BRANCH   3   5
ATOM      5  C   UNL     1      16.451  14.788 -13.126  1.00  0.00     0.015 C 
BRANCH   5   6
ATOM      6  C   UNL     1      15.787  16.072 -12.581  1.00  0.00     0.028 C 
BRANCH   6   7
ATOM      7  C   UNL     1      15.291  16.024 -11.153  1.00  0.00    -0.028 C 
ATOM      8  C   UNL     1      16.012  16.308 -10.044  1.00  0.00    -0.070 CG0
ATOM      9  C   UNL     1      15.362  16.065  -8.704  1.00  0.00     0.039 C 
ATOM     10  G   UNL     1      17.395  16.926 -10.072  1.00  0.00     0.000 G0
ENDBRANCH   6   7
ENDBRANCH   5   6
ENDBRANCH   3   5
ENDBRANCH   1   3
BRANCH   1  11
ATOM     11  C   UNL     1      18.121  17.573 -13.126  1.00  0.00     0.087 C 
BRANCH  11  12
ATOM     12  C   UNL     1      18.408  18.501 -11.912  1.00  0.00     0.066 C 
BRANCH  12  13
ATOM     13  C   UNL     1      17.454  18.240 -10.760  1.00  0.00     0.140 C 
ATOM     14  O   UNL     1      16.661  19.104 -10.418  1.00  0.00    -0.299 OA
BRANCH  13  15
ATOM     15  C   UNL     1      17.416  16.895 -10.067  1.00  0.00     0.106 CG0
ATOM     16  G   UNL     1      16.002  16.351 -10.066  1.00  0.00     0.000 G0
ENDBRANCH  13  15
ENDBRANCH  12  13
BRANCH  12  17
ATOM     17  C   UNL     1      18.513  20.019 -12.276  1.00  0.00    -0.006 C 
ATOM     18  C   UNL     1      17.615  20.482 -13.441  1.00  0.00     0.008 C 
ATOM     19  C   UNL     1      19.967  20.426 -12.561  1.00  0.00     0.008 C 
ENDBRANCH  12  17
ENDBRANCH  11  12
ENDBRANCH   1  11
TORSDOF 1
ENDMDL
MODEL 5
REMARK VINA RESULT:    18.318      1.985      4.915
REMARK INTER + INTRA:          28.449
REMARK INTER:                  27.383
REMARK INTRA:                   1.066
REMARK UNBOUND:                 0.493
REMARK SMILES CC1=CCC[C@H](C)C(=O)C[C@@H](C(C)C)C(=O)C1
REMARK SMILES IDX 8 1 9 2 6 3 7 4 5 5 4 6 3 7 2 8 1 9 10 11 11 12 15 13 16 14
REMARK SMILES IDX 17 15 12 17 13 18 14 19
REMARK H PARENT
REMARK Flexibility Score: 70.00
ROOT
ATOM      1  C   UNL     1      17.009  16.574 -13.045  1.00  0.00     0.136 C 
ATOM      2  O   UNL     1      15.908  16.991 -12.720  1.00  0.00    -0.299 OA
ENDROOT
BRANCH   1   3
ATOM      3  C   UNL     1      17.278  15.081 -12.939  1.00  0.00     0.053 C 
ATOM      4  C   UNL     1      16.045  14.276 -13.378  1.00  0.00     0.016 C 
BRANCH   3   5
ATOM      5  C   UNL     1      18.540  14.642 -13.723  1.00  0.00     0.015 C 
BRANCH   5   6
ATOM      6  C   UNL     1      19.750  14.227 -12.857  1.00  0.00     0.028 C 
BRANCH   6   7
ATOM      7  C   UNL     1      20.765  15.306 -12.552  1.00  0.00    -0.028 C 
ATOM      8  C   UNL     1      20.589  16.359 -11.721  1.00  0.00    -0.070 CG0
ATOM      9  C   UNL     1      21.684  17.396 -11.662  1.00  0.00     0.039 C 
ATOM     10  G   UNL     1      19.401  16.514 -10.794  1.00  0.00     0.000 G0
ENDBRANCH   6   7
ENDBRANCH   5   6
ENDBRANCH   3   5
ENDBRANCH   1   3
BRANCH   1  11
ATOM     11  C   UNL     1      18.023  17.574 -13.580  1.00  0.00     0.087 C 
BRANCH  11  12
ATOM     12  C   UNL     1      18.736  18.409 -12.480  1.00  0.00     0.066 C 
BRANCH  12  13
ATOM     13  C   UNL     1      18.619  17.761 -11.111  1.00  0.00     0.140 C 
ATOM     14  O   UNL     1      17.817  18.195 -10.298  1.00  0.00    -0.299 OA
BRANCH  13  15
ATOM     15  C   UNL     1      19.433  16.536 -10.755  1.00  0.00     0.106 CG0
ATOM     16  G   UNL     1      20.580  16.373 -11.732  1.00  0.00     0.000 G0
ENDBRANCH  13  15
ENDBRANCH  12  13
BRANCH  12  17
ATOM     17  C   UNL     1      18.341  19.923 -12.466  1.00  0.00    -0.006 C 
ATOM     18  C   UNL     1      17.537  20.406 -13.690  1.00  0.00     0.008 C 
ATOM     19  C   UNL     1      19.575  20.820 -12.281  1.00  0.00     0.008 C 
ENDBRANCH  12  17
ENDBRANCH  11  12
ENDBRANCH   1  11
TORSDOF 1
ENDMDL
MODEL 6
REMARK VINA RESULT:    18.800      1.545      3.702
REMARK INTER + INTRA:          29.185
REMARK INTER:                  27.376
REMARK INTRA:                   1.810
REMARK UNBOUND:                 0.493
REMARK SMILES CC1=CCC[C@H](C)C(=O)C[C@@H](C(C)C)C(=O)C1
REMARK SMILES IDX 8 1 9 2 6 3 7 4 5 5 4 6 3 7 2 8 1 9 10 11 11 12 15 13 16 14
REMARK SMILES IDX 17 15 12 17 13 18 14 19
REMARK H PARENT
REMARK Flexibility Score: 70.00
ROOT
ATOM      1  C   UNL     1      18.306  19.321 -12.174  1.00  0.00     0.136 C 
ATOM      2  O   UNL     1      17.914  19.090 -11.040  1.00  0.00    -0.299 OA
ENDROOT
BRANCH   1   3
ATOM      3  C   UNL     1      18.716  20.745 -12.520  1.00  0.00     0.053 C 
ATOM      4  C   UNL     1      18.331  21.710 -11.388  1.00  0.00     0.016 C 
BRANCH   3   5
ATOM      5  C   UNL     1      20.220  20.867 -12.870  1.00  0.00     0.015 C 
BRANCH   5   6
ATOM      6  C   UNL     1      21.200  20.396 -11.772  1.00  0.00     0.028 C 
BRANCH   6   7
ATOM      7  C   UNL     1      22.121  19.252 -12.131  1.00  0.00    -0.028 C 
ATOM      8  C   UNL     1      21.966  17.956 -11.776  1.00  0.00    -0.070 CG0
ATOM      9  C   UNL     1      23.076  16.995 -12.126  1.00  0.00     0.039 C 
ATOM     10  G   UNL     1      20.716  17.403 -11.122  1.00  0.00     0.000 G0
ENDBRANCH   6   7
ENDBRANCH   5   6
ENDBRANCH   3   5
ENDBRANCH   1   3
BRANCH   1  11
ATOM     11  C   UNL     1      18.402  18.159 -13.150  1.00  0.00     0.087 C 
BRANCH  11  12
ATOM     12  C   UNL     1      18.520  16.765 -12.472  1.00  0.00     0.066 C 
BRANCH  12  13
ATOM     13  C   UNL     1      19.947  16.459 -12.050  1.00  0.00     0.140 C 
ATOM     14  O   UNL     1      20.521  15.484 -12.509  1.00  0.00    -0.299 OA
BRANCH  13  15
ATOM     15  C   UNL     1      20.701  17.383 -11.119  1.00  0.00     0.106 CG0
ATOM     16  G   UNL     1      21.948  17.906 -11.805  1.00  0.00     0.000 G0
ENDBRANCH  13  15
ENDBRANCH  12  13
BRANCH  12  17
ATOM     17  C   UNL     1      17.868  15.599 -13.286  1.00  0.00    -0.006 C 
ATOM     18  C   UNL     1      16.335  15.486 -13.167  1.00  0.00     0.008 C 
ATOM     19  C   UNL     1      18.508  14.246 -12.932  1.00  0.00     0.008 C 
ENDBRANCH  12  17
ENDBRANCH  11  12
ENDBRANCH   1  11
TORSDOF 1
ENDMDL
