MODEL 1
REMARK VINA RESULT:    -4.391      0.000      0.000
REMARK INTER + INTRA:          -6.666
REMARK INTER:                  -6.444
REMARK INTRA:                  -0.221
REMARK UNBOUND:                -0.221
REMARK SMILES O=C([O-])CCCCCCCC(=O)[O-]
REMARK SMILES IDX 7 1 6 2 5 3 4 4 2 5 1 6 3 7 8 8 9 9 10 10 11 11 12 12 13 13
REMARK H PARENT
REMARK Flexibility Score: inf
ROOT
ATOM      1  C   UNL     1       4.832 -35.455  20.498  1.00  0.00     0.000 C 
ENDROOT
BRANCH   1   2
ATOM      2  C   UNL     1       4.941 -35.191  22.007  1.00  0.00     0.000 C 
BRANCH   2   3
ATOM      3  C   UNL     1       5.066 -36.508  22.788  1.00  0.00     0.006 C 
BRANCH   3   4
ATOM      4  C   UNL     1       5.124 -36.281  24.304  1.00  0.00     0.053 C 
BRANCH   4   5
ATOM      5  C   UNL     1       4.831 -37.538  25.065  1.00  0.00     0.041 C 
ATOM      6  O   UNL     1       4.976 -38.661  24.515  1.00  0.00    -0.550 OA
ATOM      7  O   UNL     1       4.365 -37.467  26.371  1.00  0.00    -0.550 OA
ENDBRANCH   4   5
ENDBRANCH   3   4
ENDBRANCH   2   3
ENDBRANCH   1   2
BRANCH   1   8
ATOM      8  C   UNL     1       3.830 -36.571  20.162  1.00  0.00     0.000 C 
BRANCH   8   9
ATOM      9  C   UNL     1       4.012 -37.123  18.739  1.00  0.00     0.006 C 
BRANCH   9  10
ATOM     10  C   UNL     1       2.676 -37.263  17.996  1.00  0.00     0.053 C 
BRANCH  10  11
ATOM     11  C   UNL     1       2.801 -36.884  16.551  1.00  0.00     0.041 C 
ATOM     12  O   UNL     1       2.310 -35.802  16.134  1.00  0.00    -0.550 OA
ATOM     13  O   UNL     1       3.435 -37.741  15.661  1.00  0.00    -0.550 OA
ENDBRANCH  10  11
ENDBRANCH   9  10
ENDBRANCH   8   9
ENDBRANCH   1   8
TORSDOF 8
ENDMDL
MODEL 2
REMARK VINA RESULT:    -4.243      1.889      2.524
REMARK INTER + INTRA:          -6.449
REMARK INTER:                  -6.302
REMARK INTRA:                  -0.147
REMARK UNBOUND:                -0.221
REMARK SMILES O=C([O-])CCCCCCCC(=O)[O-]
REMARK SMILES IDX 7 1 6 2 5 3 4 4 2 5 1 6 3 7 8 8 9 9 10 10 11 11 12 12 13 13
REMARK H PARENT
REMARK Flexibility Score: inf
ROOT
ATOM      1  C   UNL     1       4.107 -36.659  19.151  1.00  0.00     0.000 C 
ENDROOT
BRANCH   1   2
ATOM      2  C   UNL     1       5.004 -37.516  20.057  1.00  0.00     0.000 C 
BRANCH   2   3
ATOM      3  C   UNL     1       4.302 -37.830  21.387  1.00  0.00     0.006 C 
BRANCH   3   4
ATOM      4  C   UNL     1       5.109 -37.347  22.599  1.00  0.00     0.053 C 
BRANCH   4   5
ATOM      5  C   UNL     1       4.801 -35.922  22.941  1.00  0.00     0.041 C 
ATOM      6  O   UNL     1       5.124 -35.454  24.064  1.00  0.00    -0.550 OA
ATOM      7  O   UNL     1       4.125 -35.120  22.030  1.00  0.00    -0.550 OA
ENDBRANCH   4   5
ENDBRANCH   3   4
ENDBRANCH   2   3
ENDBRANCH   1   2
BRANCH   1   8
ATOM      8  C   UNL     1       2.761 -37.332  18.842  1.00  0.00     0.000 C 
BRANCH   8   9
ATOM      9  C   UNL     1       2.368 -37.220  17.359  1.00  0.00     0.006 C 
BRANCH   9  10
ATOM     10  C   UNL     1       3.366 -36.373  16.559  1.00  0.00     0.053 C 
BRANCH  10  11
ATOM     11  C   UNL     1       3.204 -36.569  15.082  1.00  0.00     0.041 C 
ATOM     12  O   UNL     1       2.128 -36.244  14.513  1.00  0.00    -0.550 OA
ATOM     13  O   UNL     1       4.230 -37.140  14.340  1.00  0.00    -0.550 OA
ENDBRANCH  10  11
ENDBRANCH   9  10
ENDBRANCH   8   9
ENDBRANCH   1   8
TORSDOF 8
ENDMDL
MODEL 3
REMARK VINA RESULT:    -4.200      1.116      1.440
REMARK INTER + INTRA:          -6.385
REMARK INTER:                  -6.140
REMARK INTRA:                  -0.245
REMARK UNBOUND:                -0.221
REMARK SMILES O=C([O-])CCCCCCCC(=O)[O-]
REMARK SMILES IDX 7 1 6 2 5 3 4 4 2 5 1 6 3 7 8 8 9 9 10 10 11 11 12 12 13 13
REMARK H PARENT
REMARK Flexibility Score: inf
ROOT
ATOM      1  C   UNL     1       3.649 -36.765  20.550  1.00  0.00     0.000 C 
ENDROOT
BRANCH   1   2
ATOM      2  C   UNL     1       4.628 -35.817  21.259  1.00  0.00     0.000 C 
BRANCH   2   3
ATOM      3  C   UNL     1       5.051 -36.385  22.623  1.00  0.00     0.006 C 
BRANCH   3   4
ATOM      4  C   UNL     1       5.068 -37.919  22.634  1.00  0.00     0.053 C 
BRANCH   4   5
ATOM      5  C   UNL     1       5.117 -38.464  24.029  1.00  0.00     0.041 C 
ATOM      6  O   UNL     1       5.125 -39.707  24.224  1.00  0.00    -0.550 OA
ATOM      7  O   UNL     1       5.122 -37.596  25.114  1.00  0.00    -0.550 OA
ENDBRANCH   4   5
ENDBRANCH   3   4
ENDBRANCH   2   3
ENDBRANCH   1   2
BRANCH   1   8
ATOM      8  C   UNL     1       4.075 -37.087  19.109  1.00  0.00     0.000 C 
BRANCH   8   9
ATOM      9  C   UNL     1       2.890 -37.102  18.129  1.00  0.00     0.006 C 
BRANCH   9  10
ATOM     10  C   UNL     1       3.342 -36.946  16.671  1.00  0.00     0.053 C 
BRANCH  10  11
ATOM     11  C   UNL     1       2.321 -36.223  15.846  1.00  0.00     0.041 C 
ATOM     12  O   UNL     1       1.494 -35.448  16.397  1.00  0.00    -0.550 OA
ATOM     13  O   UNL     1       2.264 -36.429  14.474  1.00  0.00    -0.550 OA
ENDBRANCH  10  11
ENDBRANCH   9  10
ENDBRANCH   8   9
ENDBRANCH   1   8
TORSDOF 8
ENDMDL
MODEL 4
REMARK VINA RESULT:    -4.105      1.453      7.409
REMARK INTER + INTRA:          -6.247
REMARK INTER:                  -6.032
REMARK INTRA:                  -0.215
REMARK UNBOUND:                -0.221
REMARK SMILES O=C([O-])CCCCCCCC(=O)[O-]
REMARK SMILES IDX 7 1 6 2 5 3 4 4 2 5 1 6 3 7 8 8 9 9 10 10 11 11 12 12 13 13
REMARK H PARENT
REMARK Flexibility Score: inf
ROOT
ATOM      1  C   UNL     1       4.766 -36.480  19.579  1.00  0.00     0.000 C 
ENDROOT
BRANCH   1   2
ATOM      2  C   UNL     1       3.464 -36.809  18.834  1.00  0.00     0.000 C 
BRANCH   2   3
ATOM      3  C   UNL     1       3.537 -36.350  17.369  1.00  0.00     0.006 C 
BRANCH   3   4
ATOM      4  C   UNL     1       3.245 -37.491  16.387  1.00  0.00     0.053 C 
BRANCH   4   5
ATOM      5  C   UNL     1       3.495 -37.081  14.968  1.00  0.00     0.041 C 
ATOM      6  O   UNL     1       3.167 -35.932  14.572  1.00  0.00    -0.550 OA
ATOM      7  O   UNL     1       4.062 -37.981  14.075  1.00  0.00    -0.550 OA
ENDBRANCH   4   5
ENDBRANCH   3   4
ENDBRANCH   2   3
ENDBRANCH   1   2
BRANCH   1   8
ATOM      8  C   UNL     1       4.529 -35.655  20.853  1.00  0.00     0.000 C 
BRANCH   8   9
ATOM      9  C   UNL     1       4.941 -36.404  22.130  1.00  0.00     0.006 C 
BRANCH   9  10
ATOM     10  C   UNL     1       5.086 -37.914  21.895  1.00  0.00     0.053 C 
BRANCH  10  11
ATOM     11  C   UNL     1       5.088 -38.680  23.183  1.00  0.00     0.041 C 
ATOM     12  O   UNL     1       5.084 -38.069  24.285  1.00  0.00    -0.550 OA
ATOM     13  O   UNL     1       5.124 -40.068  23.166  1.00  0.00    -0.550 OA
ENDBRANCH  10  11
ENDBRANCH   9  10
ENDBRANCH   8   9
ENDBRANCH   1   8
TORSDOF 8
ENDMDL
MODEL 5
REMARK VINA RESULT:    -4.059      1.452      7.361
REMARK INTER + INTRA:          -6.178
REMARK INTER:                  -5.949
REMARK INTRA:                  -0.229
REMARK UNBOUND:                -0.221
REMARK SMILES O=C([O-])CCCCCCCC(=O)[O-]
REMARK SMILES IDX 7 1 6 2 5 3 4 4 2 5 1 6 3 7 8 8 9 9 10 10 11 11 12 12 13 13
REMARK H PARENT
REMARK Flexibility Score: inf
ROOT
ATOM      1  C   UNL     1       4.413 -37.287  19.432  1.00  0.00     0.000 C 
ENDROOT
BRANCH   1   2
ATOM      2  C   UNL     1       2.889 -37.459  19.517  1.00  0.00     0.000 C 
BRANCH   2   3
ATOM      3  C   UNL     1       2.255 -37.432  18.117  1.00  0.00     0.006 C 
BRANCH   3   4
ATOM      4  C   UNL     1       3.263 -37.041  17.030  1.00  0.00     0.053 C 
BRANCH   4   5
ATOM      5  C   UNL     1       2.610 -36.285  15.913  1.00  0.00     0.041 C 
ATOM      6  O   UNL     1       1.534 -35.663  16.112  1.00  0.00    -0.550 OA
ATOM      7  O   UNL     1       3.175 -36.296  14.644  1.00  0.00    -0.550 OA
ENDBRANCH   4   5
ENDBRANCH   3   4
ENDBRANCH   2   3
ENDBRANCH   1   2
BRANCH   1   8
ATOM      8  C   UNL     1       5.096 -37.371  20.806  1.00  0.00     0.000 C 
BRANCH   8   9
ATOM      9  C   UNL     1       4.153 -37.886  21.906  1.00  0.00     0.006 C 
BRANCH   9  10
ATOM     10  C   UNL     1       4.915 -38.308  23.170  1.00  0.00     0.053 C 
BRANCH  10  11
ATOM     11  C   UNL     1       5.023 -37.183  24.155  1.00  0.00     0.041 C 
ATOM     12  O   UNL     1       5.050 -35.989  23.755  1.00  0.00    -0.550 OA
ATOM     13  O   UNL     1       5.125 -37.457  25.513  1.00  0.00    -0.550 OA
ENDBRANCH  10  11
ENDBRANCH   9  10
ENDBRANCH   8   9
ENDBRANCH   1   8
TORSDOF 8
ENDMDL
MODEL 6
REMARK VINA RESULT:    -3.988      1.738      7.391
REMARK INTER + INTRA:          -6.074
REMARK INTER:                  -5.885
REMARK INTRA:                  -0.190
REMARK UNBOUND:                -0.221
REMARK SMILES O=C([O-])CCCCCCCC(=O)[O-]
REMARK SMILES IDX 7 1 6 2 5 3 4 4 2 5 1 6 3 7 8 8 9 9 10 10 11 11 12 12 13 13
REMARK H PARENT
REMARK Flexibility Score: inf
ROOT
ATOM      1  C   UNL     1       2.882 -37.100  19.370  1.00  0.00     0.000 C 
ENDROOT
BRANCH   1   2
ATOM      2  C   UNL     1       2.174 -37.630  18.115  1.00  0.00     0.000 C 
BRANCH   2   3
ATOM      3  C   UNL     1       1.941 -36.502  17.098  1.00  0.00     0.006 C 
BRANCH   3   4
ATOM      4  C   UNL     1       3.221 -36.130  16.339  1.00  0.00     0.053 C 
BRANCH   4   5
ATOM      5  C   UNL     1       3.201 -36.642  14.931  1.00  0.00     0.041 C 
ATOM      6  O   UNL     1       2.268 -36.317  14.151  1.00  0.00    -0.550 OA
ATOM      7  O   UNL     1       4.196 -37.505  14.492  1.00  0.00    -0.550 OA
ENDBRANCH   4   5
ENDBRANCH   3   4
ENDBRANCH   2   3
ENDBRANCH   1   2
BRANCH   1   8
ATOM      8  C   UNL     1       4.413 -37.180  19.266  1.00  0.00     0.000 C 
BRANCH   8   9
ATOM      9  C   UNL     1       5.125 -36.290  20.299  1.00  0.00     0.006 C 
BRANCH   9  10
ATOM     10  C   UNL     1       4.157 -35.741  21.356  1.00  0.00     0.053 C 
BRANCH  10  11
ATOM     11  C   UNL     1       4.769 -35.741  22.724  1.00  0.00     0.041 C 
ATOM     12  O   UNL     1       4.995 -36.829  23.318  1.00  0.00    -0.550 OA
ATOM     13  O   UNL     1       5.063 -34.538  23.353  1.00  0.00    -0.550 OA
ENDBRANCH  10  11
ENDBRANCH   9  10
ENDBRANCH   8   9
ENDBRANCH   1   8
TORSDOF 8
ENDMDL
