MODEL 1
REMARK VINA RESULT:    -3.994      0.000      0.000
REMARK INTER + INTRA:          -8.725
REMARK INTER:                  -7.497
REMARK INTRA:                  -1.228
REMARK UNBOUND:                -1.228
REMARK SMILES O=C([O-])CCCCCCCCCCCCCCC(=O)[O-]
REMARK SMILES IDX 10 1 9 2 8 3 7 4 6 5 5 6 4 7 2 8 1 9 3 10 11 11 12 12 13 13
REMARK SMILES IDX 14 14 15 15 16 16 17 17 18 18 19 19 20 20
REMARK H PARENT
REMARK Flexibility Score: inf
ROOT
ATOM      1  C   UNL     1     -24.229 -15.227   3.500  1.00  0.00     0.000 C 
ENDROOT
BRANCH   1   2
ATOM      2  C   UNL     1     -24.585 -13.732   3.550  1.00  0.00     0.000 C 
BRANCH   2   3
ATOM      3  C   UNL     1     -24.111 -13.053   4.847  1.00  0.00     0.000 C 
BRANCH   3   4
ATOM      4  C   UNL     1     -24.563 -11.587   4.943  1.00  0.00     0.000 C 
BRANCH   4   5
ATOM      5  C   UNL     1     -23.447 -10.654   5.438  1.00  0.00     0.000 C 
BRANCH   5   6
ATOM      6  C   UNL     1     -22.512 -10.261   4.290  1.00  0.00     0.006 C 
BRANCH   6   7
ATOM      7  C   UNL     1     -21.044 -10.381   4.709  1.00  0.00     0.053 C 
BRANCH   7   8
ATOM      8  C   UNL     1     -20.364 -11.465   3.933  1.00  0.00     0.041 C 
ATOM      9  O   UNL     1     -20.948 -12.562   3.731  1.00  0.00    -0.550 OA
ATOM     10  O   UNL     1     -19.063 -11.283   3.478  1.00  0.00    -0.550 OA
ENDBRANCH   7   8
ENDBRANCH   6   7
ENDBRANCH   5   6
ENDBRANCH   4   5
ENDBRANCH   3   4
ENDBRANCH   2   3
ENDBRANCH   1   2
BRANCH   1  11
ATOM     11  C   UNL     1     -25.402 -16.097   3.015  1.00  0.00     0.000 C 
BRANCH  11  12
ATOM     12  C   UNL     1     -26.602 -16.072   3.979  1.00  0.00     0.000 C 
BRANCH  12  13
ATOM     13  C   UNL     1     -27.892 -15.454   3.404  1.00  0.00     0.000 C 
BRANCH  13  14
ATOM     14  C   UNL     1     -28.268 -14.070   3.969  1.00  0.00     0.000 C 
BRANCH  14  15
ATOM     15  C   UNL     1     -28.255 -12.923   2.945  1.00  0.00     0.000 C 
BRANCH  15  16
ATOM     16  C   UNL     1     -29.653 -12.606   2.386  1.00  0.00     0.006 C 
BRANCH  16  17
ATOM     17  C   UNL     1     -29.878 -13.226   1.001  1.00  0.00     0.053 C 
BRANCH  17  18
ATOM     18  C   UNL     1     -30.388 -12.220   0.015  1.00  0.00     0.041 C 
ATOM     19  O   UNL     1     -31.582 -11.824   0.070  1.00  0.00    -0.550 OA
ATOM     20  O   UNL     1     -29.533 -11.696  -0.948  1.00  0.00    -0.550 OA
ENDBRANCH  17  18
ENDBRANCH  16  17
ENDBRANCH  15  16
ENDBRANCH  14  15
ENDBRANCH  13  14
ENDBRANCH  12  13
ENDBRANCH  11  12
ENDBRANCH   1  11
TORSDOF 15
ENDMDL
MODEL 2
REMARK VINA RESULT:    -3.902      0.825      8.063
REMARK INTER + INTRA:          -8.551
REMARK INTER:                  -7.557
REMARK INTRA:                  -0.994
REMARK UNBOUND:                -1.228
REMARK SMILES O=C([O-])CCCCCCCCCCCCCCC(=O)[O-]
REMARK SMILES IDX 10 1 9 2 8 3 7 4 6 5 5 6 4 7 2 8 1 9 3 10 11 11 12 12 13 13
REMARK SMILES IDX 14 14 15 15 16 16 17 17 18 18 19 19 20 20
REMARK H PARENT
REMARK Flexibility Score: inf
ROOT
ATOM      1  C   UNL     1     -24.845 -15.306   3.283  1.00  0.00     0.000 C 
ENDROOT
BRANCH   1   2
ATOM      2  C   UNL     1     -25.925 -15.637   4.325  1.00  0.00     0.000 C 
BRANCH   2   3
ATOM      3  C   UNL     1     -27.300 -15.908   3.688  1.00  0.00     0.000 C 
BRANCH   3   4
ATOM      4  C   UNL     1     -28.241 -14.697   3.779  1.00  0.00     0.000 C 
BRANCH   4   5
ATOM      5  C   UNL     1     -29.570 -14.921   3.042  1.00  0.00     0.000 C 
BRANCH   5   6
ATOM      6  C   UNL     1     -30.055 -13.626   2.380  1.00  0.00     0.006 C 
BRANCH   6   7
ATOM      7  C   UNL     1     -29.894 -13.691   0.859  1.00  0.00     0.053 C 
BRANCH   7   8
ATOM      8  C   UNL     1     -30.196 -12.361   0.243  1.00  0.00     0.041 C 
ATOM      9  O   UNL     1     -31.385 -11.952   0.170  1.00  0.00    -0.550 OA
ATOM     10  O   UNL     1     -29.171 -11.597  -0.301  1.00  0.00    -0.550 OA
ENDBRANCH   7   8
ENDBRANCH   6   7
ENDBRANCH   5   6
ENDBRANCH   4   5
ENDBRANCH   3   4
ENDBRANCH   2   3
ENDBRANCH   1   2
BRANCH   1  11
ATOM     11  C   UNL     1     -23.828 -14.271   3.795  1.00  0.00     0.000 C 
BRANCH  11  12
ATOM     12  C   UNL     1     -24.372 -13.427   4.962  1.00  0.00     0.000 C 
BRANCH  12  13
ATOM     13  C   UNL     1     -25.048 -12.103   4.554  1.00  0.00     0.000 C 
BRANCH  13  14
ATOM     14  C   UNL     1     -24.490 -10.841   5.240  1.00  0.00     0.000 C 
BRANCH  14  15
ATOM     15  C   UNL     1     -23.340 -10.147   4.490  1.00  0.00     0.000 C 
BRANCH  15  16
ATOM     16  C   UNL     1     -21.981 -10.322   5.187  1.00  0.00     0.006 C 
BRANCH  16  17
ATOM     17  C   UNL     1     -20.804 -10.108   4.226  1.00  0.00     0.053 C 
BRANCH  17  18
ATOM     18  C   UNL     1     -20.125 -11.399   3.880  1.00  0.00     0.041 C 
ATOM     19  O   UNL     1     -20.671 -12.499   4.155  1.00  0.00    -0.550 OA
ATOM     20  O   UNL     1     -18.900 -11.384   3.225  1.00  0.00    -0.550 OA
ENDBRANCH  17  18
ENDBRANCH  16  17
ENDBRANCH  15  16
ENDBRANCH  14  15
ENDBRANCH  13  14
ENDBRANCH  12  13
ENDBRANCH  11  12
ENDBRANCH   1  11
TORSDOF 15
ENDMDL
MODEL 3
REMARK VINA RESULT:    -3.805      1.148      1.736
REMARK INTER + INTRA:          -8.369
REMARK INTER:                  -7.108
REMARK INTRA:                  -1.261
REMARK UNBOUND:                -1.228
REMARK SMILES O=C([O-])CCCCCCCCCCCCCCC(=O)[O-]
REMARK SMILES IDX 10 1 9 2 8 3 7 4 6 5 5 6 4 7 2 8 1 9 3 10 11 11 12 12 13 13
REMARK SMILES IDX 14 14 15 15 16 16 17 17 18 18 19 19 20 20
REMARK H PARENT
REMARK Flexibility Score: inf
ROOT
ATOM      1  C   UNL     1     -25.770 -13.718   4.378  1.00  0.00     0.000 C 
ENDROOT
BRANCH   1   2
ATOM      2  C   UNL     1     -24.806 -13.471   5.550  1.00  0.00     0.000 C 
BRANCH   2   3
ATOM      3  C   UNL     1     -23.750 -12.397   5.234  1.00  0.00     0.000 C 
BRANCH   3   4
ATOM      4  C   UNL     1     -24.379 -11.054   4.830  1.00  0.00     0.000 C 
BRANCH   4   5
ATOM      5  C   UNL     1     -23.331 -10.005   4.429  1.00  0.00     0.000 C 
BRANCH   5   6
ATOM      6  C   UNL     1     -21.979 -10.303   5.086  1.00  0.00     0.006 C 
BRANCH   6   7
ATOM      7  C   UNL     1     -20.826 -10.056   4.108  1.00  0.00     0.053 C 
BRANCH   7   8
ATOM      8  C   UNL     1     -20.091 -11.329   3.832  1.00  0.00     0.041 C 
ATOM      9  O   UNL     1     -18.844 -11.316   3.655  1.00  0.00    -0.550 OA
ATOM     10  O   UNL     1     -20.789 -12.525   3.714  1.00  0.00    -0.550 OA
ENDBRANCH   7   8
ENDBRANCH   6   7
ENDBRANCH   5   6
ENDBRANCH   4   5
ENDBRANCH   3   4
ENDBRANCH   2   3
ENDBRANCH   1   2
BRANCH   1  11
ATOM     11  C   UNL     1     -25.470 -15.031   3.634  1.00  0.00     0.000 C 
BRANCH  11  12
ATOM     12  C   UNL     1     -26.318 -16.211   4.143  1.00  0.00     0.000 C 
BRANCH  12  13
ATOM     13  C   UNL     1     -27.202 -16.891   3.078  1.00  0.00     0.000 C 
BRANCH  13  14
ATOM     14  C   UNL     1     -28.524 -16.166   2.760  1.00  0.00     0.000 C 
BRANCH  14  15
ATOM     15  C   UNL     1     -29.164 -15.427   3.947  1.00  0.00     0.000 C 
BRANCH  15  16
ATOM     16  C   UNL     1     -29.834 -14.105   3.538  1.00  0.00     0.006 C 
BRANCH  16  17
ATOM     17  C   UNL     1     -28.970 -13.296   2.561  1.00  0.00     0.053 C 
BRANCH  17  18
ATOM     18  C   UNL     1     -29.775 -12.765   1.413  1.00  0.00     0.041 C 
ATOM     19  O   UNL     1     -30.348 -11.647   1.502  1.00  0.00    -0.550 OA
ATOM     20  O   UNL     1     -29.867 -13.493   0.234  1.00  0.00    -0.550 OA
ENDBRANCH  17  18
ENDBRANCH  16  17
ENDBRANCH  15  16
ENDBRANCH  14  15
ENDBRANCH  13  14
ENDBRANCH  12  13
ENDBRANCH  11  12
ENDBRANCH   1  11
TORSDOF 15
ENDMDL
MODEL 4
REMARK VINA RESULT:    -3.788      2.910      4.964
REMARK INTER + INTRA:          -8.338
REMARK INTER:                  -6.111
REMARK INTRA:                  -2.227
REMARK UNBOUND:                -1.228
REMARK SMILES O=C([O-])CCCCCCCCCCCCCCC(=O)[O-]
REMARK SMILES IDX 10 1 9 2 8 3 7 4 6 5 5 6 4 7 2 8 1 9 3 10 11 11 12 12 13 13
REMARK SMILES IDX 14 14 15 15 16 16 17 17 18 18 19 19 20 20
REMARK H PARENT
REMARK Flexibility Score: inf
ROOT
ATOM      1  C   UNL     1     -30.924 -17.118   2.122  1.00  0.00     0.000 C 
ENDROOT
BRANCH   1   2
ATOM      2  C   UNL     1     -29.551 -16.701   1.569  1.00  0.00     0.000 C 
BRANCH   2   3
ATOM      3  C   UNL     1     -28.394 -17.503   2.191  1.00  0.00     0.000 C 
BRANCH   3   4
ATOM      4  C   UNL     1     -28.450 -17.524   3.727  1.00  0.00     0.000 C 
BRANCH   4   5
ATOM      5  C   UNL     1     -27.458 -16.544   4.370  1.00  0.00     0.000 C 
BRANCH   5   6
ATOM      6  C   UNL     1     -26.314 -16.210   3.406  1.00  0.00     0.006 C 
BRANCH   6   7
ATOM      7  C   UNL     1     -25.109 -15.639   4.158  1.00  0.00     0.053 C 
BRANCH   7   8
ATOM      8  C   UNL     1     -24.603 -14.406   3.479  1.00  0.00     0.041 C 
ATOM      9  O   UNL     1     -24.963 -13.268   3.880  1.00  0.00    -0.550 OA
ATOM     10  O   UNL     1     -23.776 -14.514   2.367  1.00  0.00    -0.550 OA
ENDBRANCH   7   8
ENDBRANCH   6   7
ENDBRANCH   5   6
ENDBRANCH   4   5
ENDBRANCH   3   4
ENDBRANCH   2   3
ENDBRANCH   1   2
BRANCH   1  11
ATOM     11  C   UNL     1     -31.742 -15.919   2.634  1.00  0.00     0.000 C 
BRANCH  11  12
ATOM     12  C   UNL     1     -31.646 -15.740   4.160  1.00  0.00     0.000 C 
BRANCH  12  13
ATOM     13  C   UNL     1     -30.701 -14.616   4.629  1.00  0.00     0.000 C 
BRANCH  13  14
ATOM     14  C   UNL     1     -30.510 -13.457   3.631  1.00  0.00     0.000 C 
BRANCH  14  15
ATOM     15  C   UNL     1     -29.087 -13.314   3.065  1.00  0.00     0.000 C 
BRANCH  15  16
ATOM     16  C   UNL     1     -29.044 -12.509   1.754  1.00  0.00     0.006 C 
BRANCH  16  17
ATOM     17  C   UNL     1     -29.953 -13.110   0.675  1.00  0.00     0.053 C 
BRANCH  17  18
ATOM     18  C   UNL     1     -30.510 -12.058  -0.236  1.00  0.00     0.041 C 
ATOM     19  O   UNL     1     -31.683 -11.631  -0.072  1.00  0.00    -0.550 OA
ATOM     20  O   UNL     1     -29.720 -11.528  -1.248  1.00  0.00    -0.550 OA
ENDBRANCH  17  18
ENDBRANCH  16  17
ENDBRANCH  15  16
ENDBRANCH  14  15
ENDBRANCH  13  14
ENDBRANCH  12  13
ENDBRANCH  11  12
ENDBRANCH   1  11
TORSDOF 15
ENDMDL
MODEL 5
REMARK VINA RESULT:    -3.769      4.143      6.446
REMARK INTER + INTRA:          -8.301
REMARK INTER:                  -6.427
REMARK INTRA:                  -1.874
REMARK UNBOUND:                -1.228
REMARK SMILES O=C([O-])CCCCCCCCCCCCCCC(=O)[O-]
REMARK SMILES IDX 10 1 9 2 8 3 7 4 6 5 5 6 4 7 2 8 1 9 3 10 11 11 12 12 13 13
REMARK SMILES IDX 14 14 15 15 16 16 17 17 18 18 19 19 20 20
REMARK H PARENT
REMARK Flexibility Score: inf
ROOT
ATOM      1  C   UNL     1     -25.183 -13.440   4.634  1.00  0.00     0.000 C 
ENDROOT
BRANCH   1   2
ATOM      2  C   UNL     1     -26.116 -12.249   4.362  1.00  0.00     0.000 C 
BRANCH   2   3
ATOM      3  C   UNL     1     -27.275 -12.609   3.415  1.00  0.00     0.000 C 
BRANCH   3   4
ATOM      4  C   UNL     1     -28.602 -11.954   3.832  1.00  0.00     0.000 C 
BRANCH   4   5
ATOM      5  C   UNL     1     -29.678 -12.046   2.741  1.00  0.00     0.000 C 
BRANCH   5   6
ATOM      6  C   UNL     1     -29.046 -12.295   1.367  1.00  0.00     0.006 C 
BRANCH   6   7
ATOM      7  C   UNL     1     -30.111 -12.650   0.326  1.00  0.00     0.053 C 
BRANCH   7   8
ATOM      8  C   UNL     1     -30.694 -11.408  -0.272  1.00  0.00     0.041 C 
ATOM      9  O   UNL     1     -29.952 -10.577  -0.858  1.00  0.00    -0.550 OA
ATOM     10  O   UNL     1     -32.051 -11.141  -0.135  1.00  0.00    -0.550 OA
ENDBRANCH   7   8
ENDBRANCH   6   7
ENDBRANCH   5   6
ENDBRANCH   4   5
ENDBRANCH   3   4
ENDBRANCH   2   3
ENDBRANCH   1   2
BRANCH   1  11
ATOM     11  C   UNL     1     -24.849 -14.231   3.357  1.00  0.00     0.000 C 
BRANCH  11  12
ATOM     12  C   UNL     1     -25.182 -15.729   3.480  1.00  0.00     0.000 C 
BRANCH  12  13
ATOM     13  C   UNL     1     -25.986 -16.121   4.736  1.00  0.00     0.000 C 
BRANCH  13  14
ATOM     14  C   UNL     1     -27.480 -16.413   4.496  1.00  0.00     0.000 C 
BRANCH  14  15
ATOM     15  C   UNL     1     -27.876 -16.613   3.023  1.00  0.00     0.000 C 
BRANCH  15  16
ATOM     16  C   UNL     1     -29.065 -15.734   2.600  1.00  0.00     0.006 C 
BRANCH  16  17
ATOM     17  C   UNL     1     -29.789 -16.292   1.367  1.00  0.00     0.053 C 
BRANCH  17  18
ATOM     18  C   UNL     1     -30.842 -17.290   1.743  1.00  0.00     0.041 C 
ATOM     19  O   UNL     1     -30.992 -17.634   2.944  1.00  0.00    -0.550 OA
ATOM     20  O   UNL     1     -31.679 -17.817   0.767  1.00  0.00    -0.550 OA
ENDBRANCH  17  18
ENDBRANCH  16  17
ENDBRANCH  15  16
ENDBRANCH  14  15
ENDBRANCH  13  14
ENDBRANCH  12  13
ENDBRANCH  11  12
ENDBRANCH   1  11
TORSDOF 15
ENDMDL
MODEL 6
REMARK VINA RESULT:    -3.660      3.680      6.754
REMARK INTER + INTRA:          -8.098
REMARK INTER:                  -6.053
REMARK INTRA:                  -2.045
REMARK UNBOUND:                -1.228
REMARK SMILES O=C([O-])CCCCCCCCCCCCCCC(=O)[O-]
REMARK SMILES IDX 10 1 9 2 8 3 7 4 6 5 5 6 4 7 2 8 1 9 3 10 11 11 12 12 13 13
REMARK SMILES IDX 14 14 15 15 16 16 17 17 18 18 19 19 20 20
REMARK H PARENT
REMARK Flexibility Score: inf
ROOT
ATOM      1  C   UNL     1     -24.221 -14.705   4.139  1.00  0.00     0.000 C 
ENDROOT
BRANCH   1   2
ATOM      2  C   UNL     1     -25.247 -15.548   3.364  1.00  0.00     0.000 C 
BRANCH   2   3
ATOM      3  C   UNL     1     -26.334 -16.145   4.275  1.00  0.00     0.000 C 
BRANCH   3   4
ATOM      4  C   UNL     1     -27.688 -16.284   3.563  1.00  0.00     0.000 C 
BRANCH   4   5
ATOM      5  C   UNL     1     -27.720 -17.458   2.572  1.00  0.00     0.000 C 
BRANCH   5   6
ATOM      6  C   UNL     1     -29.149 -17.728   2.087  1.00  0.00     0.006 C 
BRANCH   6   7
ATOM      7  C   UNL     1     -29.821 -16.438   1.610  1.00  0.00     0.053 C 
BRANCH   7   8
ATOM      8  C   UNL     1     -31.230 -16.366   2.109  1.00  0.00     0.041 C 
ATOM      9  O   UNL     1     -32.004 -17.349   1.969  1.00  0.00    -0.550 OA
ATOM     10  O   UNL     1     -31.706 -15.192   2.680  1.00  0.00    -0.550 OA
ENDBRANCH   7   8
ENDBRANCH   6   7
ENDBRANCH   5   6
ENDBRANCH   4   5
ENDBRANCH   3   4
ENDBRANCH   2   3
ENDBRANCH   1   2
BRANCH   1  11
ATOM     11  C   UNL     1     -24.589 -14.549   5.626  1.00  0.00     0.000 C 
BRANCH  11  12
ATOM     12  C   UNL     1     -24.948 -13.101   6.002  1.00  0.00     0.000 C 
BRANCH  12  13
ATOM     13  C   UNL     1     -24.727 -12.059   4.887  1.00  0.00     0.000 C 
BRANCH  13  14
ATOM     14  C   UNL     1     -25.963 -11.216   4.520  1.00  0.00     0.000 C 
BRANCH  14  15
ATOM     15  C   UNL     1     -27.284 -12.000   4.433  1.00  0.00     0.000 C 
BRANCH  15  16
ATOM     16  C   UNL     1     -27.537 -12.591   3.035  1.00  0.00     0.006 C 
BRANCH  16  17
ATOM     17  C   UNL     1     -29.021 -12.894   2.794  1.00  0.00     0.053 C 
BRANCH  17  18
ATOM     18  C   UNL     1     -29.507 -12.311   1.502  1.00  0.00     0.041 C 
ATOM     19  O   UNL     1     -29.613 -11.064   1.367  1.00  0.00    -0.550 OA
ATOM     20  O   UNL     1     -29.815 -13.147   0.436  1.00  0.00    -0.550 OA
ENDBRANCH  17  18
ENDBRANCH  16  17
ENDBRANCH  15  16
ENDBRANCH  14  15
ENDBRANCH  13  14
ENDBRANCH  12  13
ENDBRANCH  11  12
ENDBRANCH   1  11
TORSDOF 15
ENDMDL
MODEL 7
REMARK VINA RESULT:    -3.622      2.677      7.848
REMARK INTER + INTRA:          -8.027
REMARK INTER:                  -6.068
REMARK INTRA:                  -1.958
REMARK UNBOUND:                -1.228
REMARK SMILES O=C([O-])CCCCCCCCCCCCCCC(=O)[O-]
REMARK SMILES IDX 10 1 9 2 8 3 7 4 6 5 5 6 4 7 2 8 1 9 3 10 11 11 12 12 13 13
REMARK SMILES IDX 14 14 15 15 16 16 17 17 18 18 19 19 20 20
REMARK H PARENT
REMARK Flexibility Score: inf
ROOT
ATOM      1  C   UNL     1     -31.811 -17.493   2.049  1.00  0.00     0.000 C 
ENDROOT
BRANCH   1   2
ATOM      2  C   UNL     1     -31.782 -17.322   3.576  1.00  0.00     0.000 C 
BRANCH   2   3
ATOM      3  C   UNL     1     -31.605 -15.854   4.005  1.00  0.00     0.000 C 
BRANCH   3   4
ATOM      4  C   UNL     1     -32.627 -14.919   3.339  1.00  0.00     0.000 C 
BRANCH   4   5
ATOM      5  C   UNL     1     -31.964 -13.751   2.593  1.00  0.00     0.000 C 
BRANCH   5   6
ATOM      6  C   UNL     1     -30.440 -13.913   2.565  1.00  0.00     0.006 C 
BRANCH   6   7
ATOM      7  C   UNL     1     -29.916 -13.949   1.127  1.00  0.00     0.053 C 
BRANCH   7   8
ATOM      8  C   UNL     1     -29.966 -12.583   0.517  1.00  0.00     0.041 C 
ATOM      9  O   UNL     1     -29.342 -11.628   1.049  1.00  0.00    -0.550 OA
ATOM     10  O   UNL     1     -30.745 -12.353  -0.611  1.00  0.00    -0.550 OA
ENDBRANCH   7   8
ENDBRANCH   6   7
ENDBRANCH   5   6
ENDBRANCH   4   5
ENDBRANCH   3   4
ENDBRANCH   2   3
ENDBRANCH   1   2
BRANCH   1  11
ATOM     11  C   UNL     1     -30.401 -17.550   1.434  1.00  0.00     0.000 C 
BRANCH  11  12
ATOM     12  C   UNL     1     -29.362 -18.173   2.383  1.00  0.00     0.000 C 
BRANCH  12  13
ATOM     13  C   UNL     1     -28.037 -17.394   2.505  1.00  0.00     0.000 C 
BRANCH  13  14
ATOM     14  C   UNL     1     -27.899 -16.525   3.771  1.00  0.00     0.000 C 
BRANCH  14  15
ATOM     15  C   UNL     1     -26.905 -15.357   3.654  1.00  0.00     0.000 C 
BRANCH  15  16
ATOM     16  C   UNL     1     -25.442 -15.824   3.561  1.00  0.00     0.006 C 
BRANCH  16  17
ATOM     17  C   UNL     1     -24.486 -14.670   3.234  1.00  0.00     0.053 C 
BRANCH  17  18
ATOM     18  C   UNL     1     -24.088 -13.910   4.463  1.00  0.00     0.041 C 
ATOM     19  O   UNL     1     -24.293 -14.396   5.606  1.00  0.00    -0.550 OA
ATOM     20  O   UNL     1     -23.462 -12.675   4.343  1.00  0.00    -0.550 OA
ENDBRANCH  17  18
ENDBRANCH  16  17
ENDBRANCH  15  16
ENDBRANCH  14  15
ENDBRANCH  13  14
ENDBRANCH  12  13
ENDBRANCH  11  12
ENDBRANCH   1  11
TORSDOF 15
ENDMDL
MODEL 8
REMARK VINA RESULT:    -3.592      2.860      3.849
REMARK INTER + INTRA:          -7.970
REMARK INTER:                  -5.769
REMARK INTRA:                  -2.200
REMARK UNBOUND:                -1.228
REMARK SMILES O=C([O-])CCCCCCCCCCCCCCC(=O)[O-]
REMARK SMILES IDX 10 1 9 2 8 3 7 4 6 5 5 6 4 7 2 8 1 9 3 10 11 11 12 12 13 13
REMARK SMILES IDX 14 14 15 15 16 16 17 17 18 18 19 19 20 20
REMARK H PARENT
REMARK Flexibility Score: inf
ROOT
ATOM      1  C   UNL     1     -28.145 -16.984   5.149  1.00  0.00     0.000 C 
ENDROOT
BRANCH   1   2
ATOM      2  C   UNL     1     -29.010 -15.723   5.303  1.00  0.00     0.000 C 
BRANCH   2   3
ATOM      3  C   UNL     1     -28.176 -14.467   5.612  1.00  0.00     0.000 C 
BRANCH   3   4
ATOM      4  C   UNL     1     -28.232 -13.429   4.480  1.00  0.00     0.000 C 
BRANCH   4   5
ATOM      5  C   UNL     1     -26.988 -13.465   3.580  1.00  0.00     0.000 C 
BRANCH   5   6
ATOM      6  C   UNL     1     -25.787 -14.053   4.329  1.00  0.00     0.006 C 
BRANCH   6   7
ATOM      7  C   UNL     1     -25.179 -15.229   3.560  1.00  0.00     0.053 C 
BRANCH   7   8
ATOM      8  C   UNL     1     -23.750 -14.948   3.216  1.00  0.00     0.041 C 
ATOM      9  O   UNL     1     -23.066 -15.808   2.600  1.00  0.00    -0.550 OA
ATOM     10  O   UNL     1     -23.157 -13.759   3.622  1.00  0.00    -0.550 OA
ENDBRANCH   7   8
ENDBRANCH   6   7
ENDBRANCH   5   6
ENDBRANCH   4   5
ENDBRANCH   3   4
ENDBRANCH   2   3
ENDBRANCH   1   2
BRANCH   1  11
ATOM     11  C   UNL     1     -28.455 -17.757   3.854  1.00  0.00     0.000 C 
BRANCH  11  12
ATOM     12  C   UNL     1     -28.396 -16.867   2.600  1.00  0.00     0.000 C 
BRANCH  12  13
ATOM     13  C   UNL     1     -29.765 -16.476   2.008  1.00  0.00     0.000 C 
BRANCH  13  14
ATOM     14  C   UNL     1     -29.877 -15.020   1.515  1.00  0.00     0.000 C 
BRANCH  14  15
ATOM     15  C   UNL     1     -30.974 -14.184   2.195  1.00  0.00     0.000 C 
BRANCH  15  16
ATOM     16  C   UNL     1     -31.048 -12.745   1.657  1.00  0.00     0.006 C 
BRANCH  16  17
ATOM     17  C   UNL     1     -29.876 -12.414   0.723  1.00  0.00     0.053 C 
BRANCH  17  18
ATOM     18  C   UNL     1     -29.793 -10.947   0.430  1.00  0.00     0.041 C 
ATOM     19  O   UNL     1     -29.971 -10.104   1.348  1.00  0.00    -0.550 OA
ATOM     20  O   UNL     1     -29.489 -10.512  -0.854  1.00  0.00    -0.550 OA
ENDBRANCH  17  18
ENDBRANCH  16  17
ENDBRANCH  15  16
ENDBRANCH  14  15
ENDBRANCH  13  14
ENDBRANCH  12  13
ENDBRANCH  11  12
ENDBRANCH   1  11
TORSDOF 15
ENDMDL
MODEL 9
REMARK VINA RESULT:    -3.556     15.020     17.105
REMARK INTER + INTRA:          -7.903
REMARK INTER:                  -5.411
REMARK INTRA:                  -2.492
REMARK UNBOUND:                -1.228
REMARK SMILES O=C([O-])CCCCCCCCCCCCCCC(=O)[O-]
REMARK SMILES IDX 10 1 9 2 8 3 7 4 6 5 5 6 4 7 2 8 1 9 3 10 11 11 12 12 13 13
REMARK SMILES IDX 14 14 15 15 16 16 17 17 18 18 19 19 20 20
REMARK H PARENT
REMARK Flexibility Score: inf
ROOT
ATOM      1  C   UNL     1     -19.388 -29.712  -0.785  1.00  0.00     0.000 C 
ENDROOT
BRANCH   1   2
ATOM      2  C   UNL     1     -18.832 -28.355  -0.321  1.00  0.00     0.000 C 
BRANCH   2   3
ATOM      3  C   UNL     1     -18.141 -27.579  -1.457  1.00  0.00     0.000 C 
BRANCH   3   4
ATOM      4  C   UNL     1     -19.139 -27.040  -2.494  1.00  0.00     0.000 C 
BRANCH   4   5
ATOM      5  C   UNL     1     -20.134 -26.036  -1.893  1.00  0.00     0.000 C 
BRANCH   5   6
ATOM      6  C   UNL     1     -21.532 -26.225  -2.492  1.00  0.00     0.006 C 
BRANCH   6   7
ATOM      7  C   UNL     1     -21.636 -27.558  -3.239  1.00  0.00     0.053 C 
BRANCH   7   8
ATOM      8  C   UNL     1     -23.061 -28.008  -3.314  1.00  0.00     0.041 C 
ATOM      9  O   UNL     1     -23.389 -29.147  -2.887  1.00  0.00    -0.550 OA
ATOM     10  O   UNL     1     -24.018 -27.193  -3.905  1.00  0.00    -0.550 OA
ENDBRANCH   7   8
ENDBRANCH   6   7
ENDBRANCH   5   6
ENDBRANCH   4   5
ENDBRANCH   3   4
ENDBRANCH   2   3
ENDBRANCH   1   2
BRANCH   1  11
ATOM     11  C   UNL     1     -20.885 -29.876  -0.465  1.00  0.00     0.000 C 
BRANCH  11  12
ATOM     12  C   UNL     1     -21.326 -29.057   0.761  1.00  0.00     0.000 C 
BRANCH  12  13
ATOM     13  C   UNL     1     -22.557 -28.155   0.539  1.00  0.00     0.000 C 
BRANCH  13  14
ATOM     14  C   UNL     1     -22.398 -26.698   1.013  1.00  0.00     0.000 C 
BRANCH  14  15
ATOM     15  C   UNL     1     -21.378 -26.488   2.145  1.00  0.00     0.000 C 
BRANCH  15  16
ATOM     16  C   UNL     1     -22.026 -26.489   3.540  1.00  0.00     0.006 C 
BRANCH  16  17
ATOM     17  C   UNL     1     -21.243 -27.349   4.541  1.00  0.00     0.053 C 
BRANCH  17  18
ATOM     18  C   UNL     1     -21.921 -28.660   4.800  1.00  0.00     0.041 C 
ATOM     19  O   UNL     1     -21.549 -29.391   5.755  1.00  0.00    -0.550 OA
ATOM     20  O   UNL     1     -22.986 -29.061   4.003  1.00  0.00    -0.550 OA
ENDBRANCH  17  18
ENDBRANCH  16  17
ENDBRANCH  15  16
ENDBRANCH  14  15
ENDBRANCH  13  14
ENDBRANCH  12  13
ENDBRANCH  11  12
ENDBRANCH   1  11
TORSDOF 15
ENDMDL
