MODEL 1
REMARK VINA RESULT:    -3.873      0.000      0.000
REMARK INTER + INTRA:          -4.816
REMARK INTER:                  -4.666
REMARK INTRA:                  -0.150
REMARK UNBOUND:                -0.150
REMARK SMILES CC[C@@H](C)[C@@H]([NH3+])C(=O)[O-]
REMARK SMILES IDX 3 1 4 2 5 3 6 4 7 8 8 9 9 10 2 11 1 12
REMARK H PARENT 6 5 6 6 6 7
REMARK Flexibility Score: inf
ROOT
ATOM      1  C   UNL     1      22.059  -4.044   0.302  1.00  0.00     0.050 C 
ATOM      2  C   UNL     1      21.829  -5.541   0.595  1.00  0.00     0.014 C 
ENDROOT
BRANCH   1   3
ATOM      3  C   UNL     1      23.359  -3.779  -0.522  1.00  0.00     0.230 C 
BRANCH   3   4
ATOM      4  N   UNL     1      23.072  -3.524  -1.941  1.00  0.00    -0.350 N 
ATOM      5  H   UNL     1      22.915  -4.413  -2.469  1.00  0.00     0.345 HD
ATOM      6  H   UNL     1      22.212  -2.936  -2.023  1.00  0.00     0.345 HD
ATOM      7  H   UNL     1      23.864  -3.001  -2.379  1.00  0.00     0.345 HD
ENDBRANCH   3   4
BRANCH   3   8
ATOM      8  C   UNL     1      24.201  -2.671   0.065  1.00  0.00     0.099 C 
ATOM      9  O   UNL     1      25.281  -2.928   0.661  1.00  0.00    -0.544 OA
ATOM     10  O   UNL     1      23.803  -1.348  -0.083  1.00  0.00    -0.544 OA
ENDBRANCH   3   8
ENDBRANCH   1   3
BRANCH   1  11
ATOM     11  C   UNL     1      20.829  -3.417  -0.403  1.00  0.00     0.006 C 
ATOM     12  C   UNL     1      20.266  -2.205   0.340  1.00  0.00     0.004 C 
ENDBRANCH   1  11
TORSDOF 4
ENDMDL
MODEL 2
REMARK VINA RESULT:    -3.778      0.946      2.041
REMARK INTER + INTRA:          -4.701
REMARK INTER:                  -4.619
REMARK INTRA:                  -0.082
REMARK UNBOUND:                -0.150
REMARK SMILES CC[C@@H](C)[C@@H]([NH3+])C(=O)[O-]
REMARK SMILES IDX 3 1 4 2 5 3 6 4 7 8 8 9 9 10 2 11 1 12
REMARK H PARENT 6 5 6 6 6 7
REMARK Flexibility Score: inf
ROOT
ATOM      1  C   UNL     1      21.966  -3.777   0.294  1.00  0.00     0.050 C 
ATOM      2  C   UNL     1      22.135  -3.654   1.822  1.00  0.00     0.014 C 
ENDROOT
BRANCH   1   3
ATOM      3  C   UNL     1      23.316  -3.653  -0.479  1.00  0.00     0.230 C 
BRANCH   3   4
ATOM      4  N   UNL     1      23.114  -3.541  -1.931  1.00  0.00    -0.350 N 
ATOM      5  H   UNL     1      22.930  -4.472  -2.369  1.00  0.00     0.345 HD
ATOM      6  H   UNL     1      22.296  -2.919  -2.122  1.00  0.00     0.345 HD
ATOM      7  H   UNL     1      23.957  -3.112  -2.379  1.00  0.00     0.345 HD
ENDBRANCH   3   4
BRANCH   3   8
ATOM      8  C   UNL     1      24.177  -2.523   0.034  1.00  0.00     0.099 C 
ATOM      9  O   UNL     1      23.836  -1.323  -0.138  1.00  0.00    -0.544 OA
ATOM     10  O   UNL     1      25.343  -2.806   0.735  1.00  0.00    -0.544 OA
ENDBRANCH   3   8
ENDBRANCH   1   3
BRANCH   1  11
ATOM     11  C   UNL     1      21.240  -5.094  -0.084  1.00  0.00     0.006 C 
ATOM     12  C   UNL     1      21.637  -6.274   0.804  1.00  0.00     0.004 C 
ENDBRANCH   1  11
TORSDOF 4
ENDMDL
MODEL 3
REMARK VINA RESULT:    -3.704      2.431      3.628
REMARK INTER + INTRA:          -4.612
REMARK INTER:                  -4.515
REMARK INTRA:                  -0.097
REMARK UNBOUND:                -0.150
REMARK SMILES CC[C@@H](C)[C@@H]([NH3+])C(=O)[O-]
REMARK SMILES IDX 3 1 4 2 5 3 6 4 7 8 8 9 9 10 2 11 1 12
REMARK H PARENT 6 5 6 6 6 7
REMARK Flexibility Score: inf
ROOT
ATOM      1  C   UNL     1      23.460  -3.576   0.669  1.00  0.00     0.050 C 
ATOM      2  C   UNL     1      22.885  -3.092   2.016  1.00  0.00     0.014 C 
ENDROOT
BRANCH   1   3
ATOM      3  C   UNL     1      22.542  -3.228  -0.545  1.00  0.00     0.230 C 
BRANCH   3   4
ATOM      4  N   UNL     1      23.185  -3.535  -1.831  1.00  0.00    -0.350 N 
ATOM      5  H   UNL     1      22.926  -4.488  -2.174  1.00  0.00     0.345 HD
ATOM      6  H   UNL     1      22.885  -2.834  -2.546  1.00  0.00     0.345 HD
ATOM      7  H   UNL     1      24.225  -3.475  -1.737  1.00  0.00     0.345 HD
ENDBRANCH   3   4
BRANCH   3   8
ATOM      8  C   UNL     1      21.184  -3.882  -0.452  1.00  0.00     0.099 C 
ATOM      9  O   UNL     1      20.133  -3.188  -0.449  1.00  0.00    -0.544 OA
ATOM     10  O   UNL     1      21.086  -5.267  -0.403  1.00  0.00    -0.544 OA
ENDBRANCH   3   8
ENDBRANCH   1   3
BRANCH   1  11
ATOM     11  C   UNL     1      24.893  -3.028   0.444  1.00  0.00     0.006 C 
ATOM     12  C   UNL     1      25.335  -2.042   1.527  1.00  0.00     0.004 C 
ENDBRANCH   1  11
TORSDOF 4
ENDMDL
MODEL 4
REMARK VINA RESULT:    -3.573     14.104     15.095
REMARK INTER + INTRA:          -4.455
REMARK INTER:                  -4.521
REMARK INTRA:                   0.066
REMARK UNBOUND:                -0.150
REMARK SMILES CC[C@@H](C)[C@@H]([NH3+])C(=O)[O-]
REMARK SMILES IDX 3 1 4 2 5 3 6 4 7 8 8 9 9 10 2 11 1 12
REMARK H PARENT 6 5 6 6 6 7
REMARK Flexibility Score: inf
ROOT
ATOM      1  C   UNL     1      34.005  -3.450  11.034  1.00  0.00     0.050 C 
ATOM      2  C   UNL     1      34.367  -4.798  11.691  1.00  0.00     0.014 C 
ENDROOT
BRANCH   1   3
ATOM      3  C   UNL     1      33.083  -3.611   9.785  1.00  0.00     0.230 C 
BRANCH   3   4
ATOM      4  N   UNL     1      33.675  -3.015   8.578  1.00  0.00    -0.350 N 
ATOM      5  H   UNL     1      34.491  -2.404   8.810  1.00  0.00     0.345 HD
ATOM      6  H   UNL     1      34.002  -3.774   7.939  1.00  0.00     0.345 HD
ATOM      7  H   UNL     1      32.958  -2.449   8.068  1.00  0.00     0.345 HD
ENDBRANCH   3   4
BRANCH   3   8
ATOM      8  C   UNL     1      32.687  -5.048   9.537  1.00  0.00     0.099 C 
ATOM      9  O   UNL     1      33.345  -5.770   8.741  1.00  0.00    -0.544 OA
ATOM     10  O   UNL     1      31.607  -5.595  10.218  1.00  0.00    -0.544 OA
ENDBRANCH   3   8
ENDBRANCH   1   3
BRANCH   1  11
ATOM     11  C   UNL     1      33.368  -2.479  12.062  1.00  0.00     0.006 C 
ATOM     12  C   UNL     1      31.939  -2.865  12.445  1.00  0.00     0.004 C 
ENDBRANCH   1  11
TORSDOF 4
ENDMDL
MODEL 5
REMARK VINA RESULT:    -3.528     13.658     14.684
REMARK INTER + INTRA:          -4.400
REMARK INTER:                  -4.238
REMARK INTRA:                  -0.162
REMARK UNBOUND:                -0.150
REMARK SMILES CC[C@@H](C)[C@@H]([NH3+])C(=O)[O-]
REMARK SMILES IDX 3 1 4 2 5 3 6 4 7 8 8 9 9 10 2 11 1 12
REMARK H PARENT 6 5 6 6 6 7
REMARK Flexibility Score: inf
ROOT
ATOM      1  C   UNL     1      32.318  -3.928  10.548  1.00  0.00     0.050 C 
ATOM      2  C   UNL     1      30.844  -3.486  10.660  1.00  0.00     0.014 C 
ENDROOT
BRANCH   1   3
ATOM      3  C   UNL     1      32.769  -4.169   9.073  1.00  0.00     0.230 C 
BRANCH   3   4
ATOM      4  N   UNL     1      33.703  -3.135   8.604  1.00  0.00    -0.350 N 
ATOM      5  H   UNL     1      33.787  -2.350   9.289  1.00  0.00     0.345 HD
ATOM      6  H   UNL     1      34.650  -3.556   8.468  1.00  0.00     0.345 HD
ATOM      7  H   UNL     1      33.384  -2.753   7.684  1.00  0.00     0.345 HD
ENDBRANCH   3   4
BRANCH   3   8
ATOM      8  C   UNL     1      33.344  -5.550   8.860  1.00  0.00     0.099 C 
ATOM      9  O   UNL     1      33.568  -6.313   9.838  1.00  0.00    -0.544 OA
ATOM     10  O   UNL     1      33.598  -6.001   7.571  1.00  0.00    -0.544 OA
ENDBRANCH   3   8
ENDBRANCH   1   3
BRANCH   1  11
ATOM     11  C   UNL     1      33.260  -2.916  11.249  1.00  0.00     0.006 C 
ATOM     12  C   UNL     1      34.188  -3.570  12.274  1.00  0.00     0.004 C 
ENDBRANCH   1  11
TORSDOF 4
ENDMDL
MODEL 6
REMARK VINA RESULT:    -3.519      2.823      4.102
REMARK INTER + INTRA:          -4.389
REMARK INTER:                  -4.308
REMARK INTRA:                  -0.081
REMARK UNBOUND:                -0.150
REMARK SMILES CC[C@@H](C)[C@@H]([NH3+])C(=O)[O-]
REMARK SMILES IDX 3 1 4 2 5 3 6 4 7 8 8 9 9 10 2 11 1 12
REMARK H PARENT 6 5 6 6 6 7
REMARK Flexibility Score: inf
ROOT
ATOM      1  C   UNL     1      23.762  -0.940   1.174  1.00  0.00     0.050 C 
ATOM      2  C   UNL     1      23.168   0.323   0.517  1.00  0.00     0.014 C 
ENDROOT
BRANCH   1   3
ATOM      3  C   UNL     1      24.247  -1.996   0.132  1.00  0.00     0.230 C 
BRANCH   3   4
ATOM      4  N   UNL     1      25.477  -2.676   0.564  1.00  0.00    -0.350 N 
ATOM      5  H   UNL     1      26.052  -2.989  -0.251  1.00  0.00     0.345 HD
ATOM      6  H   UNL     1      26.052  -2.021   1.141  1.00  0.00     0.345 HD
ATOM      7  H   UNL     1      25.241  -3.505   1.156  1.00  0.00     0.345 HD
ENDBRANCH   3   4
BRANCH   3   8
ATOM      8  C   UNL     1      23.174  -2.999  -0.221  1.00  0.00     0.099 C 
ATOM      9  O   UNL     1      22.161  -3.146   0.514  1.00  0.00    -0.544 OA
ATOM     10  O   UNL     1      23.282  -3.746  -1.388  1.00  0.00    -0.544 OA
ENDBRANCH   3   8
ENDBRANCH   1   3
BRANCH   1  11
ATOM     11  C   UNL     1      24.906  -0.576   2.155  1.00  0.00     0.006 C 
ATOM     12  C   UNL     1      24.698   0.774   2.843  1.00  0.00     0.004 C 
ENDBRANCH   1  11
TORSDOF 4
ENDMDL
MODEL 7
REMARK VINA RESULT:    -3.513     14.647     15.560
REMARK INTER + INTRA:          -4.382
REMARK INTER:                  -4.362
REMARK INTRA:                  -0.020
REMARK UNBOUND:                -0.150
REMARK SMILES CC[C@@H](C)[C@@H]([NH3+])C(=O)[O-]
REMARK SMILES IDX 3 1 4 2 5 3 6 4 7 8 8 9 9 10 2 11 1 12
REMARK H PARENT 6 5 6 6 6 7
REMARK Flexibility Score: inf
ROOT
ATOM      1  C   UNL     1      32.203  -2.971  12.594  1.00  0.00     0.050 C 
ATOM      2  C   UNL     1      32.256  -4.196  13.530  1.00  0.00     0.014 C 
ENDROOT
BRANCH   1   3
ATOM      3  C   UNL     1      33.532  -2.749  11.806  1.00  0.00     0.230 C 
BRANCH   3   4
ATOM      4  N   UNL     1      34.717  -3.044  12.625  1.00  0.00    -0.350 N 
ATOM      5  H   UNL     1      35.288  -3.817  12.215  1.00  0.00     0.345 HD
ATOM      6  H   UNL     1      35.317  -2.190  12.689  1.00  0.00     0.345 HD
ATOM      7  H   UNL     1      34.427  -3.308  13.595  1.00  0.00     0.345 HD
ENDBRANCH   3   4
BRANCH   3   8
ATOM      8  C   UNL     1      33.571  -3.519  10.507  1.00  0.00     0.099 C 
ATOM      9  O   UNL     1      33.530  -2.918   9.400  1.00  0.00    -0.544 OA
ATOM     10  O   UNL     1      33.689  -4.903  10.526  1.00  0.00    -0.544 OA
ENDBRANCH   3   8
ENDBRANCH   1   3
BRANCH   1  11
ATOM     11  C   UNL     1      31.000  -3.062  11.621  1.00  0.00     0.006 C 
ATOM     12  C   UNL     1      29.809  -2.207  12.058  1.00  0.00     0.004 C 
ENDBRANCH   1  11
TORSDOF 4
ENDMDL
MODEL 8
REMARK VINA RESULT:    -3.459      2.108      3.225
REMARK INTER + INTRA:          -4.317
REMARK INTER:                  -4.287
REMARK INTRA:                  -0.030
REMARK UNBOUND:                -0.150
REMARK SMILES CC[C@@H](C)[C@@H]([NH3+])C(=O)[O-]
REMARK SMILES IDX 3 1 4 2 5 3 6 4 7 8 8 9 9 10 2 11 1 12
REMARK H PARENT 6 5 6 6 6 7
REMARK Flexibility Score: inf
ROOT
ATOM      1  C   UNL     1      24.029  -1.908  -0.078  1.00  0.00     0.050 C 
ATOM      2  C   UNL     1      25.033  -2.620   0.852  1.00  0.00     0.014 C 
ENDROOT
BRANCH   1   3
ATOM      3  C   UNL     1      22.870  -2.841  -0.550  1.00  0.00     0.230 C 
BRANCH   3   4
ATOM      4  N   UNL     1      23.186  -3.519  -1.816  1.00  0.00    -0.350 N 
ATOM      5  H   UNL     1      23.034  -4.551  -1.750  1.00  0.00     0.345 HD
ATOM      6  H   UNL     1      22.572  -3.144  -2.574  1.00  0.00     0.345 HD
ATOM      7  H   UNL     1      24.180  -3.335  -2.084  1.00  0.00     0.345 HD
ENDBRANCH   3   4
BRANCH   3   8
ATOM      8  C   UNL     1      22.461  -3.840   0.508  1.00  0.00     0.099 C 
ATOM      9  O   UNL     1      22.712  -5.066   0.369  1.00  0.00    -0.544 OA
ATOM     10  O   UNL     1      21.831  -3.400   1.666  1.00  0.00    -0.544 OA
ENDBRANCH   3   8
ENDBRANCH   1   3
BRANCH   1  11
ATOM     11  C   UNL     1      23.462  -0.627   0.587  1.00  0.00     0.006 C 
ATOM     12  C   UNL     1      24.270  -0.175   1.805  1.00  0.00     0.004 C 
ENDBRANCH   1  11
TORSDOF 4
ENDMDL
MODEL 9
REMARK VINA RESULT:    -3.413     15.289     16.361
REMARK INTER + INTRA:          -4.261
REMARK INTER:                  -4.144
REMARK INTRA:                  -0.117
REMARK UNBOUND:                -0.150
REMARK SMILES CC[C@@H](C)[C@@H]([NH3+])C(=O)[O-]
REMARK SMILES IDX 3 1 4 2 5 3 6 4 7 8 8 9 9 10 2 11 1 12
REMARK H PARENT 6 5 6 6 6 7
REMARK Flexibility Score: inf
ROOT
ATOM      1  C   UNL     1      32.933  -3.832  11.053  1.00  0.00     0.050 C 
ATOM      2  C   UNL     1      32.878  -3.400   9.573  1.00  0.00     0.014 C 
ENDROOT
BRANCH   1   3
ATOM      3  C   UNL     1      34.391  -4.019  11.578  1.00  0.00     0.230 C 
BRANCH   3   4
ATOM      4  N   UNL     1      34.730  -3.048  12.628  1.00  0.00    -0.350 N 
ATOM      5  H   UNL     1      35.641  -2.573  12.437  1.00  0.00     0.345 HD
ATOM      6  H   UNL     1      33.982  -2.318  12.682  1.00  0.00     0.345 HD
ATOM      7  H   UNL     1      34.781  -3.526  13.557  1.00  0.00     0.345 HD
ENDBRANCH   3   4
BRANCH   3   8
ATOM      8  C   UNL     1      34.665  -5.430  12.041  1.00  0.00     0.099 C 
ATOM      9  O   UNL     1      34.498  -5.757  13.246  1.00  0.00    -0.544 OA
ATOM     10  O   UNL     1      35.072  -6.392  11.124  1.00  0.00    -0.544 OA
ENDBRANCH   3   8
ENDBRANCH   1   3
BRANCH   1  11
ATOM     11  C   UNL     1      32.150  -2.842  11.954  1.00  0.00     0.006 C 
ATOM     12  C   UNL     1      31.215  -3.541  12.942  1.00  0.00     0.004 C 
ENDBRANCH   1  11
TORSDOF 4
ENDMDL
