MODEL 1
REMARK VINA RESULT:   174.569      0.000      0.000
REMARK INTER + INTRA:         189.864
REMARK INTER:                 189.877
REMARK INTRA:                  -0.013
REMARK UNBOUND:                -0.013
REMARK SMILES C[C@@H]1[C@H]2C3=CC[C@H]4[C@@]5(C)CC[C@H](O)C(C)(C)[C@@H]5CC[C@@]4(C)[C@@]3(C)CC[C@@]2(C(=O)[O-])CC[C@@H]1C
REMARK SMILES IDX 26 1 30 2 25 3 3 4 31 5 24 6 4 7 2 8 32 9 22 10 5 11 1 12
REMARK SMILES IDX 33 13 23 14 20 15 6 16 7 17 19 18 21 19 8 20 18 21 17 22
REMARK SMILES IDX 10 23 9 24 14 25 11 26 12 27 15 28 16 29 27 30 28 31 29 32
REMARK SMILES IDX 13 33
REMARK H PARENT 13 34
REMARK Flexibility Score: inf
ROOT
ATOM      1  C   UNL     1     -15.902   0.241  15.860  1.00  0.00     0.017 C 
ATOM      2  C   UNL     1     -17.198   0.466  15.008  1.00  0.00     0.014 C 
ATOM      3  C   UNL     1     -14.763   1.034  15.183  1.00  0.00     0.014 C 
ATOM      4  C   UNL     1     -15.486  -1.277  15.902  1.00  0.00     0.030 C 
ATOM      5  C   UNL     1     -18.123  -0.748  15.032  1.00  0.00     0.004 C 
ATOM      6  C   UNL     1     -13.460   1.024  15.974  1.00  0.00     0.013 C 
ATOM      7  C   UNL     1     -14.016  -1.493  16.326  1.00  0.00    -0.063 C 
ATOM      8  C   UNL     1     -15.889  -1.960  14.540  1.00  0.00    -0.003 C 
ATOM      9  C   UNL     1     -17.452  -1.985  14.385  1.00  0.00    -0.011 C 
ATOM     10  C   UNL     1     -12.994  -0.368  16.570  1.00  0.00    -0.006 C 
ATOM     11  C   UNL     1     -13.675  -2.726  16.732  1.00  0.00    -0.027 C 
ATOM     12  C   UNL     1     -15.260  -3.334  14.232  1.00  0.00     0.008 C 
ATOM     13  C   UNL     1     -18.115  -3.260  14.940  1.00  0.00     0.008 C 
ATOM     14  C   UNL     1     -12.936  -0.181  18.123  1.00  0.00     0.017 C 
ATOM     15  C   UNL     1     -11.546  -0.807  16.020  1.00  0.00    -0.020 C 
ATOM     16  C   UNL     1     -12.273  -3.243  16.710  1.00  0.00     0.032 C 
ATOM     17  C   UNL     1     -11.100  -2.209  16.642  1.00  0.00     0.006 C 
ATOM     18  C   UNL     1     -11.594  -0.947  14.463  1.00  0.00     0.008 C 
ATOM     19  C   UNL     1     -10.512   0.307  16.417  1.00  0.00     0.012 C 
ATOM     20  C   UNL     1      -9.778  -2.854  15.987  1.00  0.00    -0.025 C 
ATOM     21  C   UNL     1     -10.326  -1.542  13.826  1.00  0.00     0.005 C 
ATOM     22  C   UNL     1      -9.966  -2.924  14.422  1.00  0.00     0.003 C 
ATOM     23  C   UNL     1      -9.539  -4.308  16.532  1.00  0.00     0.010 C 
ATOM     24  C   UNL     1      -8.527  -2.015  16.417  1.00  0.00     0.012 C 
ATOM     25  C   UNL     1      -8.854  -3.726  13.624  1.00  0.00    -0.006 C 
ATOM     26  C   UNL     1      -8.427  -5.079  15.802  1.00  0.00     0.033 C 
ATOM     27  C   UNL     1      -8.682  -5.135  14.286  1.00  0.00     0.120 C 
ATOM     28  C   UNL     1      -7.498  -2.976  13.535  1.00  0.00     0.014 C 
ATOM     29  C   UNL     1      -9.333  -3.965  12.163  1.00  0.00     0.014 C 
ENDROOT
BRANCH   1  30
ATOM     30  C   UNL     1     -16.185   0.776  17.261  1.00  0.00     0.048 C 
ATOM     31  O   UNL     1     -16.745   0.043  18.121  1.00  0.00    -0.550 OA
ATOM     32  O   UNL     1     -15.730   2.030  17.652  1.00  0.00    -0.550 OA
ENDBRANCH   1  30
BRANCH  27  33
ATOM     33  O   UNL     1      -7.690  -5.903  13.642  1.00  0.00    -0.393 OA
ATOM     34  H   UNL     1      -8.011  -6.124  12.730  1.00  0.00     0.210 HD
ENDBRANCH  27  33
TORSDOF 2
ENDMDL
