MODEL 1
REMARK VINA RESULT:     5.375      0.000      0.000
REMARK INTER + INTRA:           8.100
REMARK INTER:                   8.517
REMARK INTRA:                  -0.417
REMARK UNBOUND:                -0.417
REMARK SMILES CCCCCCCCCCCC(=O)[O-]
REMARK SMILES IDX 7 1 8 2 9 3 10 4 11 5 12 6 13 7 14 8 6 9 5 10 4 11 3 12 2 13
REMARK SMILES IDX 1 14
REMARK H PARENT
REMARK Flexibility Score: inf
ROOT
ATOM      1  C   UNL     1     -34.375  14.590  17.755  1.00  0.00     0.000 C 
ENDROOT
BRANCH   1   2
ATOM      2  C   UNL     1     -33.985  13.497  16.749  1.00  0.00     0.000 C 
BRANCH   2   3
ATOM      3  C   UNL     1     -33.118  12.394  17.378  1.00  0.00     0.000 C 
BRANCH   3   4
ATOM      4  C   UNL     1     -33.217  12.365  18.911  1.00  0.00     0.006 C 
BRANCH   4   5
ATOM      5  C   UNL     1     -33.162  10.927  19.436  1.00  0.00     0.053 C 
BRANCH   5   6
ATOM      6  C   UNL     1     -33.893  10.816  20.736  1.00  0.00     0.041 C 
ATOM      7  O   UNL     1     -34.279   9.692  21.152  1.00  0.00    -0.550 OA
ATOM      8  O   UNL     1     -34.192  11.960  21.465  1.00  0.00    -0.550 OA
ENDBRANCH   5   6
ENDBRANCH   4   5
ENDBRANCH   3   4
ENDBRANCH   2   3
ENDBRANCH   1   2
BRANCH   1   9
ATOM      9  C   UNL     1     -35.124  15.734  17.060  1.00  0.00     0.000 C 
BRANCH   9  10
ATOM     10  C   UNL     1     -35.509  16.829  18.062  1.00  0.00    -0.000 C 
BRANCH  10  11
ATOM     11  C   UNL     1     -37.032  16.966  18.169  1.00  0.00    -0.000 C 
BRANCH  11  12
ATOM     12  C   UNL     1     -37.707  15.590  18.210  1.00  0.00    -0.000 C 
BRANCH  12  13
ATOM     13  C   UNL     1     -39.099  15.679  18.844  1.00  0.00    -0.003 C 
ATOM     14  C   UNL     1     -40.107  16.294  17.877  1.00  0.00     0.004 C 
ENDBRANCH  12  13
ENDBRANCH  11  12
ENDBRANCH  10  11
ENDBRANCH   9  10
ENDBRANCH   1   9
TORSDOF 10
ENDMDL
MODEL 2
REMARK VINA RESULT:     5.377      2.743      6.156
REMARK INTER + INTRA:           8.102
REMARK INTER:                   8.391
REMARK INTRA:                  -0.289
REMARK UNBOUND:                -0.417
REMARK SMILES CCCCCCCCCCCC(=O)[O-]
REMARK SMILES IDX 7 1 8 2 9 3 10 4 11 5 12 6 13 7 14 8 6 9 5 10 4 11 3 12 2 13
REMARK SMILES IDX 1 14
REMARK H PARENT
REMARK Flexibility Score: inf
ROOT
ATOM      1  C   UNL     1     -34.470  14.741  17.879  1.00  0.00     0.000 C 
ENDROOT
BRANCH   1   2
ATOM      2  C   UNL     1     -34.905  15.988  17.095  1.00  0.00     0.000 C 
BRANCH   2   3
ATOM      3  C   UNL     1     -35.322  17.149  18.011  1.00  0.00     0.000 C 
BRANCH   3   4
ATOM      4  C   UNL     1     -36.836  17.185  18.270  1.00  0.00     0.006 C 
BRANCH   4   5
ATOM      5  C   UNL     1     -37.489  15.854  17.888  1.00  0.00     0.053 C 
BRANCH   5   6
ATOM      6  C   UNL     1     -38.841  15.732  18.518  1.00  0.00     0.041 C 
ATOM      7  O   UNL     1     -38.994  15.049  19.564  1.00  0.00    -0.550 OA
ATOM      8  O   UNL     1     -39.942  16.334  17.920  1.00  0.00    -0.550 OA
ENDBRANCH   5   6
ENDBRANCH   4   5
ENDBRANCH   3   4
ENDBRANCH   2   3
ENDBRANCH   1   2
BRANCH   1   9
ATOM      9  C   UNL     1     -34.425  13.508  16.969  1.00  0.00     0.000 C 
BRANCH   9  10
ATOM     10  C   UNL     1     -33.105  12.746  17.138  1.00  0.00    -0.000 C 
BRANCH  10  11
ATOM     11  C   UNL     1     -33.281  11.541  18.068  1.00  0.00    -0.000 C 
BRANCH  11  12
ATOM     12  C   UNL     1     -32.826  11.874  19.495  1.00  0.00    -0.000 C 
BRANCH  12  13
ATOM     13  C   UNL     1     -33.942  11.598  20.507  1.00  0.00    -0.003 C 
ATOM     14  C   UNL     1     -34.027  10.111  20.842  1.00  0.00     0.004 C 
ENDBRANCH  12  13
ENDBRANCH  11  12
ENDBRANCH  10  11
ENDBRANCH   9  10
ENDBRANCH   1   9
TORSDOF 10
ENDMDL
MODEL 3
REMARK VINA RESULT:     5.837      0.667      1.056
REMARK INTER + INTRA:           8.832
REMARK INTER:                   9.323
REMARK INTRA:                  -0.491
REMARK UNBOUND:                -0.417
REMARK SMILES CCCCCCCCCCCC(=O)[O-]
REMARK SMILES IDX 7 1 8 2 9 3 10 4 11 5 12 6 13 7 14 8 6 9 5 10 4 11 3 12 2 13
REMARK SMILES IDX 1 14
REMARK H PARENT
REMARK Flexibility Score: inf
ROOT
ATOM      1  C   UNL     1     -35.066  15.337  17.094  1.00  0.00     0.000 C 
ENDROOT
BRANCH   1   2
ATOM      2  C   UNL     1     -34.434  14.285  18.018  1.00  0.00     0.000 C 
BRANCH   2   3
ATOM      3  C   UNL     1     -33.608  13.241  17.250  1.00  0.00     0.000 C 
BRANCH   3   4
ATOM      4  C   UNL     1     -33.590  11.871  17.944  1.00  0.00     0.006 C 
BRANCH   4   5
ATOM      5  C   UNL     1     -32.850  11.945  19.283  1.00  0.00     0.053 C 
BRANCH   5   6
ATOM      6  C   UNL     1     -33.701  11.398  20.384  1.00  0.00     0.041 C 
ATOM      7  O   UNL     1     -34.029  10.183  20.389  1.00  0.00    -0.550 OA
ATOM      8  O   UNL     1     -34.175  12.243  21.381  1.00  0.00    -0.550 OA
ENDBRANCH   5   6
ENDBRANCH   4   5
ENDBRANCH   3   4
ENDBRANCH   2   3
ENDBRANCH   1   2
BRANCH   1   9
ATOM      9  C   UNL     1     -35.134  16.705  17.785  1.00  0.00     0.000 C 
BRANCH   9  10
ATOM     10  C   UNL     1     -36.578  17.064  18.155  1.00  0.00    -0.000 C 
BRANCH  10  11
ATOM     11  C   UNL     1     -37.538  15.927  17.787  1.00  0.00    -0.000 C 
BRANCH  11  12
ATOM     12  C   UNL     1     -38.539  15.663  18.919  1.00  0.00    -0.000 C 
BRANCH  12  13
ATOM     13  C   UNL     1     -39.974  15.610  18.384  1.00  0.00    -0.003 C 
ATOM     14  C   UNL     1     -40.242  16.757  17.413  1.00  0.00     0.004 C 
ENDBRANCH  12  13
ENDBRANCH  11  12
ENDBRANCH  10  11
ENDBRANCH   9  10
ENDBRANCH   1   9
TORSDOF 10
ENDMDL
MODEL 4
REMARK VINA RESULT:     7.670      1.305      2.465
REMARK INTER + INTRA:          11.736
REMARK INTER:                  11.954
REMARK INTRA:                  -0.218
REMARK UNBOUND:                -0.417
REMARK SMILES CCCCCCCCCCCC(=O)[O-]
REMARK SMILES IDX 7 1 8 2 9 3 10 4 11 5 12 6 13 7 14 8 6 9 5 10 4 11 3 12 2 13
REMARK SMILES IDX 1 14
REMARK H PARENT
REMARK Flexibility Score: inf
ROOT
ATOM      1  C   UNL     1     -34.157  14.087  16.830  1.00  0.00     0.000 C 
ENDROOT
BRANCH   1   2
ATOM      2  C   UNL     1     -33.169  13.125  17.506  1.00  0.00     0.000 C 
BRANCH   2   3
ATOM      3  C   UNL     1     -33.621  11.658  17.425  1.00  0.00     0.000 C 
BRANCH   3   4
ATOM      4  C   UNL     1     -33.295  10.865  18.700  1.00  0.00     0.006 C 
BRANCH   4   5
ATOM      5  C   UNL     1     -33.253  11.787  19.922  1.00  0.00     0.053 C 
BRANCH   5   6
ATOM      6  C   UNL     1     -33.973  11.163  21.075  1.00  0.00     0.041 C 
ATOM      7  O   UNL     1     -34.303   9.949  21.034  1.00  0.00    -0.550 OA
ATOM      8  O   UNL     1     -34.324  11.936  22.175  1.00  0.00    -0.550 OA
ENDBRANCH   5   6
ENDBRANCH   4   5
ENDBRANCH   3   4
ENDBRANCH   2   3
ENDBRANCH   1   2
BRANCH   1   9
ATOM      9  C   UNL     1     -35.029  14.799  17.872  1.00  0.00     0.000 C 
BRANCH   9  10
ATOM     10  C   UNL     1     -36.216  15.506  17.207  1.00  0.00    -0.000 C 
BRANCH  10  11
ATOM     11  C   UNL     1     -36.966  16.386  18.213  1.00  0.00    -0.000 C 
BRANCH  11  12
ATOM     12  C   UNL     1     -36.349  17.789  18.284  1.00  0.00    -0.000 C 
BRANCH  12  13
ATOM     13  C   UNL     1     -34.958  17.811  17.644  1.00  0.00    -0.003 C 
ATOM     14  C   UNL     1     -33.890  18.208  18.660  1.00  0.00     0.004 C 
ENDBRANCH  12  13
ENDBRANCH  11  12
ENDBRANCH  10  11
ENDBRANCH   9  10
ENDBRANCH   1   9
TORSDOF 10
ENDMDL
MODEL 5
REMARK VINA RESULT:     7.996      3.258      7.153
REMARK INTER + INTRA:          12.253
REMARK INTER:                  12.553
REMARK INTRA:                  -0.299
REMARK UNBOUND:                -0.417
REMARK SMILES CCCCCCCCCCCC(=O)[O-]
REMARK SMILES IDX 7 1 8 2 9 3 10 4 11 5 12 6 13 7 14 8 6 9 5 10 4 11 3 12 2 13
REMARK SMILES IDX 1 14
REMARK H PARENT
REMARK Flexibility Score: inf
ROOT
ATOM      1  C   UNL     1     -33.348  12.384  18.975  1.00  0.00     0.000 C 
ENDROOT
BRANCH   1   2
ATOM      2  C   UNL     1     -33.349  12.269  17.444  1.00  0.00     0.000 C 
BRANCH   2   3
ATOM      3  C   UNL     1     -33.872  13.540  16.755  1.00  0.00     0.000 C 
BRANCH   3   4
ATOM      4  C   UNL     1     -34.573  14.497  17.730  1.00  0.00     0.006 C 
BRANCH   4   5
ATOM      5  C   UNL     1     -35.320  15.600  16.973  1.00  0.00     0.053 C 
BRANCH   5   6
ATOM      6  C   UNL     1     -35.701  16.708  17.903  1.00  0.00     0.041 C 
ATOM      7  O   UNL     1     -34.818  17.463  18.387  1.00  0.00    -0.550 OA
ATOM      8  O   UNL     1     -37.030  16.876  18.275  1.00  0.00    -0.550 OA
ENDBRANCH   5   6
ENDBRANCH   4   5
ENDBRANCH   3   4
ENDBRANCH   2   3
ENDBRANCH   1   2
BRANCH   1   9
ATOM      9  C   UNL     1     -32.806  11.102  19.621  1.00  0.00     0.000 C 
BRANCH   9  10
ATOM     10  C   UNL     1     -33.854  10.465  20.542  1.00  0.00    -0.000 C 
BRANCH  10  11
ATOM     11  C   UNL     1     -33.320   9.173  21.170  1.00  0.00    -0.000 C 
BRANCH  11  12
ATOM     12  C   UNL     1     -34.308   8.613  22.202  1.00  0.00    -0.000 C 
BRANCH  12  13
ATOM     13  C   UNL     1     -34.219   7.086  22.276  1.00  0.00    -0.003 C 
ATOM     14  C   UNL     1     -34.807   6.562  23.584  1.00  0.00     0.004 C 
ENDBRANCH  12  13
ENDBRANCH  11  12
ENDBRANCH  10  11
ENDBRANCH   9  10
ENDBRANCH   1   9
TORSDOF 10
ENDMDL
MODEL 6
REMARK VINA RESULT:     8.265      3.335      6.483
REMARK INTER + INTRA:          12.680
REMARK INTER:                  13.101
REMARK INTRA:                  -0.421
REMARK UNBOUND:                -0.417
REMARK SMILES CCCCCCCCCCCC(=O)[O-]
REMARK SMILES IDX 7 1 8 2 9 3 10 4 11 5 12 6 13 7 14 8 6 9 5 10 4 11 3 12 2 13
REMARK SMILES IDX 1 14
REMARK H PARENT
REMARK Flexibility Score: inf
ROOT
ATOM      1  C   UNL     1     -32.643  12.097  18.554  1.00  0.00     0.000 C 
ENDROOT
BRANCH   1   2
ATOM      2  C   UNL     1     -33.624  12.334  17.396  1.00  0.00     0.000 C 
BRANCH   2   3
ATOM      3  C   UNL     1     -33.728  13.815  17.001  1.00  0.00     0.000 C 
BRANCH   3   4
ATOM      4  C   UNL     1     -34.740  14.589  17.860  1.00  0.00     0.006 C 
BRANCH   4   5
ATOM      5  C   UNL     1     -35.447  15.668  17.035  1.00  0.00     0.053 C 
BRANCH   5   6
ATOM      6  C   UNL     1     -35.785  16.846  17.893  1.00  0.00     0.041 C 
ATOM      7  O   UNL     1     -36.982  17.079  18.207  1.00  0.00    -0.550 OA
ATOM      8  O   UNL     1     -34.783  17.717  18.305  1.00  0.00    -0.550 OA
ENDBRANCH   5   6
ENDBRANCH   4   5
ENDBRANCH   3   4
ENDBRANCH   2   3
ENDBRANCH   1   2
BRANCH   1   9
ATOM      9  C   UNL     1     -33.215  11.092  19.562  1.00  0.00     0.000 C 
BRANCH   9  10
ATOM     10  C   UNL     1     -34.004  11.807  20.665  1.00  0.00    -0.000 C 
BRANCH  10  11
ATOM     11  C   UNL     1     -34.129  10.924  21.912  1.00  0.00    -0.000 C 
BRANCH  11  12
ATOM     12  C   UNL     1     -34.436  11.768  23.156  1.00  0.00    -0.000 C 
BRANCH  12  13
ATOM     13  C   UNL     1     -33.770  11.174  24.401  1.00  0.00    -0.003 C 
ATOM     14  C   UNL     1     -34.810  10.670  25.397  1.00  0.00     0.004 C 
ENDBRANCH  12  13
ENDBRANCH  11  12
ENDBRANCH  10  11
ENDBRANCH   9  10
ENDBRANCH   1   9
TORSDOF 10
ENDMDL
MODEL 7
REMARK VINA RESULT:     8.292      3.166      6.758
REMARK INTER + INTRA:          12.722
REMARK INTER:                  13.270
REMARK INTRA:                  -0.548
REMARK UNBOUND:                -0.417
REMARK SMILES CCCCCCCCCCCC(=O)[O-]
REMARK SMILES IDX 7 1 8 2 9 3 10 4 11 5 12 6 13 7 14 8 6 9 5 10 4 11 3 12 2 13
REMARK SMILES IDX 1 14
REMARK H PARENT
REMARK Flexibility Score: inf
ROOT
ATOM      1  C   UNL     1     -34.358  14.769  16.846  1.00  0.00     0.000 C 
ENDROOT
BRANCH   1   2
ATOM      2  C   UNL     1     -34.922  15.343  18.154  1.00  0.00     0.000 C 
BRANCH   2   3
ATOM      3  C   UNL     1     -35.272  16.836  18.043  1.00  0.00     0.000 C 
BRANCH   3   4
ATOM      4  C   UNL     1     -36.777  17.105  18.194  1.00  0.00     0.006 C 
BRANCH   4   5
ATOM      5  C   UNL     1     -37.597  15.879  17.781  1.00  0.00     0.053 C 
BRANCH   5   6
ATOM      6  C   UNL     1     -38.943  15.905  18.432  1.00  0.00     0.041 C 
ATOM      7  O   UNL     1     -39.112  15.379  19.563  1.00  0.00    -0.550 OA
ATOM      8  O   UNL     1     -40.026  16.466  17.765  1.00  0.00    -0.550 OA
ENDBRANCH   5   6
ENDBRANCH   4   5
ENDBRANCH   3   4
ENDBRANCH   2   3
ENDBRANCH   1   2
BRANCH   1   9
ATOM      9  C   UNL     1     -34.182  13.248  16.946  1.00  0.00     0.000 C 
BRANCH   9  10
ATOM     10  C   UNL     1     -33.682  12.842  18.337  1.00  0.00    -0.000 C 
BRANCH  10  11
ATOM     11  C   UNL     1     -32.444  11.944  18.236  1.00  0.00    -0.000 C 
BRANCH  11  12
ATOM     12  C   UNL     1     -31.540  12.380  17.076  1.00  0.00    -0.000 C 
BRANCH  12  13
ATOM     13  C   UNL     1     -30.189  12.886  17.591  1.00  0.00    -0.003 C 
ATOM     14  C   UNL     1     -29.213  13.119  16.442  1.00  0.00     0.004 C 
ENDBRANCH  12  13
ENDBRANCH  11  12
ENDBRANCH  10  11
ENDBRANCH   9  10
ENDBRANCH   1   9
TORSDOF 10
ENDMDL
