MODEL 1
REMARK VINA RESULT:    -6.097      0.000      0.000
REMARK INTER + INTRA:          -7.624
REMARK INTER:                  -7.345
REMARK INTRA:                  -0.279
REMARK UNBOUND:                -0.279
REMARK SMILES O=c1c(O)c(-c2ccc(O)c(O)c2)oc2cc(O)cc(O)c12
REMARK SMILES IDX 5 1 3 2 2 3 1 4 22 5 20 6 19 7 17 8 16 9 15 10 14 11 6 12
REMARK SMILES IDX 7 13 8 14 9 15 13 16 11 17 10 18 12 20 4 22 21 24 18 26
REMARK H PARENT 10 19 12 21 4 23 21 25 18 27
REMARK Flexibility Score: inf
ROOT
ATOM      1  C   UNL     1      15.512 -21.176  18.073  1.00  0.00     0.180 A 
ATOM      2  C   UNL     1      14.739 -20.885  16.937  1.00  0.00     0.208 A 
ATOM      3  C   UNL     1      14.528 -19.543  16.582  1.00  0.00     0.238 A 
ATOM      4  O   UNL     1      13.899 -19.291  15.521  1.00  0.00    -0.285 OA
ATOM      5  C   UNL     1      15.046 -18.508  17.397  1.00  0.00     0.111 A 
ATOM      6  C   UNL     1      14.857 -17.112  17.158  1.00  0.00     0.134 A 
ATOM      7  C   UNL     1      15.505 -16.178  17.974  1.00  0.00     0.093 A 
ATOM      8  C   UNL     1      16.286 -16.586  19.059  1.00  0.00     0.123 A 
ATOM      9  C   UNL     1      16.432 -17.943  19.333  1.00  0.00     0.094 A 
ATOM     10  C   UNL     1      15.828 -18.901  18.515  1.00  0.00     0.146 A 
ATOM     11  O   UNL     1      16.012 -20.184  18.801  1.00  0.00    -0.452 OA
ENDROOT
BRANCH   1  12
ATOM     12  C   UNL     1      15.789 -22.565  18.503  1.00  0.00     0.025 A 
ATOM     13  C   UNL     1      17.044 -23.162  18.288  1.00  0.00     0.016 A 
ATOM     14  C   UNL     1      17.290 -24.466  18.726  1.00  0.00     0.051 A 
ATOM     15  C   UNL     1      16.296 -25.188  19.395  1.00  0.00     0.157 A 
ATOM     16  C   UNL     1      14.800 -23.285  19.194  1.00  0.00     0.062 A 
ATOM     17  C   UNL     1      15.045 -24.594  19.632  1.00  0.00     0.158 A 
BRANCH  15  18
ATOM     18  O   UNL     1      16.570 -26.488  19.817  1.00  0.00    -0.504 OA
ATOM     19  H   UNL     1      17.166 -26.681  20.614  1.00  0.00     0.293 HD
ENDBRANCH  15  18
BRANCH  17  20
ATOM     20  O   UNL     1      14.052 -25.305  20.305  1.00  0.00    -0.504 OA
ATOM     21  H   UNL     1      14.111 -25.487  21.300  1.00  0.00     0.293 HD
ENDBRANCH  17  20
ENDBRANCH   1  12
BRANCH   2  22
ATOM     22  O   UNL     1      14.172 -21.919  16.186  1.00  0.00    -0.502 OA
ATOM     23  H   UNL     1      13.185 -22.140  16.223  1.00  0.00     0.293 HD
ENDBRANCH   2  22
BRANCH   6  24
ATOM     24  O   UNL     1      14.029 -16.595  16.158  1.00  0.00    -0.507 OA
ATOM     25  H   UNL     1      13.991 -16.930  15.208  1.00  0.00     0.293 HD
ENDBRANCH   6  24
BRANCH   8  26
ATOM     26  O   UNL     1      16.913 -15.648  19.876  1.00  0.00    -0.508 OA
ATOM     27  H   UNL     1      16.601 -14.685  19.914  1.00  0.00     0.293 HD
ENDBRANCH   8  26
TORSDOF 6
ENDMDL
MODEL 2
REMARK VINA RESULT:    -6.089      2.225      7.519
REMARK INTER + INTRA:          -7.614
REMARK INTER:                  -7.325
REMARK INTRA:                  -0.289
REMARK UNBOUND:                -0.279
REMARK SMILES O=c1c(O)c(-c2ccc(O)c(O)c2)oc2cc(O)cc(O)c12
REMARK SMILES IDX 5 1 3 2 2 3 1 4 22 5 20 6 19 7 17 8 16 9 15 10 14 11 6 12
REMARK SMILES IDX 7 13 8 14 9 15 13 16 11 17 10 18 12 20 4 22 21 24 18 26
REMARK H PARENT 10 19 12 21 4 23 21 25 18 27
REMARK Flexibility Score: inf
ROOT
ATOM      1  C   UNL     1      15.812 -16.983  17.585  1.00  0.00     0.180 A 
ATOM      2  C   UNL     1      14.745 -17.364  16.754  1.00  0.00     0.208 A 
ATOM      3  C   UNL     1      14.470 -18.730  16.581  1.00  0.00     0.238 A 
ATOM      4  O   UNL     1      13.467 -19.062  15.896  1.00  0.00    -0.285 OA
ATOM      5  C   UNL     1      15.299 -19.699  17.196  1.00  0.00     0.111 A 
ATOM      6  C   UNL     1      15.141 -21.112  17.055  1.00  0.00     0.134 A 
ATOM      7  C   UNL     1      15.956 -21.976  17.795  1.00  0.00     0.093 A 
ATOM      8  C   UNL     1      16.966 -21.480  18.625  1.00  0.00     0.123 A 
ATOM      9  C   UNL     1      17.164 -20.106  18.727  1.00  0.00     0.094 A 
ATOM     10  C   UNL     1      16.342 -19.217  18.030  1.00  0.00     0.146 A 
ATOM     11  O   UNL     1      16.552 -17.915  18.174  1.00  0.00    -0.452 OA
ENDROOT
BRANCH   1  12
ATOM     12  C   UNL     1      16.155 -15.563  17.826  1.00  0.00     0.025 A 
ATOM     13  C   UNL     1      15.802 -14.918  19.025  1.00  0.00     0.016 A 
ATOM     14  C   UNL     1      16.159 -13.585  19.241  1.00  0.00     0.051 A 
ATOM     15  C   UNL     1      16.882 -12.880  18.273  1.00  0.00     0.157 A 
ATOM     16  C   UNL     1      16.900 -14.859  16.866  1.00  0.00     0.062 A 
ATOM     17  C   UNL     1      17.257 -13.520  17.081  1.00  0.00     0.158 A 
BRANCH  15  18
ATOM     18  O   UNL     1      17.222 -11.550  18.516  1.00  0.00    -0.504 OA
ATOM     19  H   UNL     1      16.647 -10.780  18.195  1.00  0.00     0.293 HD
ENDBRANCH  15  18
BRANCH  17  20
ATOM     20  O   UNL     1      17.985 -12.826  16.114  1.00  0.00    -0.504 OA
ATOM     21  H   UNL     1      18.798 -12.273  16.358  1.00  0.00     0.293 HD
ENDBRANCH  17  20
ENDBRANCH   1  12
BRANCH   2  22
ATOM     22  O   UNL     1      13.985 -16.394  16.094  1.00  0.00    -0.502 OA
ATOM     23  H   UNL     1      14.070 -16.219  15.101  1.00  0.00     0.293 HD
ENDBRANCH   2  22
BRANCH   6  24
ATOM     24  O   UNL     1      14.224 -21.714  16.188  1.00  0.00    -0.507 OA
ATOM     25  H   UNL     1      14.303 -22.651  15.823  1.00  0.00     0.293 HD
ENDBRANCH   6  24
BRANCH   8  26
ATOM     26  O   UNL     1      17.784 -22.348  19.345  1.00  0.00    -0.508 OA
ATOM     27  H   UNL     1      18.605 -22.770  18.928  1.00  0.00     0.293 HD
ENDBRANCH   8  26
TORSDOF 6
ENDMDL
MODEL 3
REMARK VINA RESULT:    -6.059      3.234      5.918
REMARK INTER + INTRA:          -7.577
REMARK INTER:                  -7.246
REMARK INTRA:                  -0.331
REMARK UNBOUND:                -0.279
REMARK SMILES O=c1c(O)c(-c2ccc(O)c(O)c2)oc2cc(O)cc(O)c12
REMARK SMILES IDX 5 1 3 2 2 3 1 4 22 5 20 6 19 7 17 8 16 9 15 10 14 11 6 12
REMARK SMILES IDX 7 13 8 14 9 15 13 16 11 17 10 18 12 20 4 22 21 24 18 26
REMARK H PARENT 10 19 12 21 4 23 21 25 18 27
REMARK Flexibility Score: inf
ROOT
ATOM      1  C   UNL     1      16.429 -16.370  17.189  1.00  0.00     0.180 A 
ATOM      2  C   UNL     1      16.089 -15.591  18.308  1.00  0.00     0.208 A 
ATOM      3  C   UNL     1      16.668 -14.321  18.456  1.00  0.00     0.238 A 
ATOM      4  O   UNL     1      16.302 -13.599  19.420  1.00  0.00    -0.285 OA
ATOM      5  C   UNL     1      17.622 -13.867  17.513  1.00  0.00     0.111 A 
ATOM      6  C   UNL     1      18.306 -12.615  17.587  1.00  0.00     0.134 A 
ATOM      7  C   UNL     1      19.151 -12.227  16.541  1.00  0.00     0.093 A 
ATOM      8  C   UNL     1      19.386 -13.072  15.453  1.00  0.00     0.123 A 
ATOM      9  C   UNL     1      18.766 -14.317  15.398  1.00  0.00     0.094 A 
ATOM     10  C   UNL     1      17.889 -14.718  16.409  1.00  0.00     0.146 A 
ATOM     11  O   UNL     1      17.303 -15.904  16.305  1.00  0.00    -0.452 OA
ENDROOT
BRANCH   1  12
ATOM     12  C   UNL     1      15.850 -17.713  16.957  1.00  0.00     0.025 A 
ATOM     13  C   UNL     1      14.625 -17.876  16.288  1.00  0.00     0.016 A 
ATOM     14  C   UNL     1      14.111 -19.155  16.058  1.00  0.00     0.051 A 
ATOM     15  C   UNL     1      14.815 -20.288  16.480  1.00  0.00     0.157 A 
ATOM     16  C   UNL     1      16.566 -18.852  17.360  1.00  0.00     0.062 A 
ATOM     17  C   UNL     1      16.050 -20.136  17.132  1.00  0.00     0.158 A 
BRANCH  15  18
ATOM     18  O   UNL     1      14.276 -21.550  16.239  1.00  0.00    -0.504 OA
ATOM     19  H   UNL     1      13.658 -21.732  15.457  1.00  0.00     0.293 HD
ENDBRANCH  15  18
BRANCH  17  20
ATOM     20  O   UNL     1      16.762 -21.261  17.549  1.00  0.00    -0.504 OA
ATOM     21  H   UNL     1      16.754 -21.566  18.515  1.00  0.00     0.293 HD
ENDBRANCH  17  20
ENDBRANCH   1  12
BRANCH   2  22
ATOM     22  O   UNL     1      15.202 -16.088  19.268  1.00  0.00    -0.502 OA
ATOM     23  H   UNL     1      15.093 -15.662  20.180  1.00  0.00     0.293 HD
ENDBRANCH   2  22
BRANCH   6  24
ATOM     24  O   UNL     1      18.213 -11.735  18.669  1.00  0.00    -0.507 OA
ATOM     25  H   UNL     1      18.958 -11.139  18.996  1.00  0.00     0.293 HD
ENDBRANCH   6  24
BRANCH   8  26
ATOM     26  O   UNL     1      20.242 -12.684  14.424  1.00  0.00    -0.508 OA
ATOM     27  H   UNL     1      20.029 -11.896  13.825  1.00  0.00     0.293 HD
ENDBRANCH   8  26
TORSDOF 6
ENDMDL
MODEL 4
REMARK VINA RESULT:    -6.016      2.006      3.218
REMARK INTER + INTRA:          -7.526
REMARK INTER:                  -7.264
REMARK INTRA:                  -0.263
REMARK UNBOUND:                -0.279
REMARK SMILES O=c1c(O)c(-c2ccc(O)c(O)c2)oc2cc(O)cc(O)c12
REMARK SMILES IDX 5 1 3 2 2 3 1 4 22 5 20 6 19 7 17 8 16 9 15 10 14 11 6 12
REMARK SMILES IDX 7 13 8 14 9 15 13 16 11 17 10 18 12 20 4 22 21 24 18 26
REMARK H PARENT 10 19 12 21 4 23 21 25 18 27
REMARK Flexibility Score: inf
ROOT
ATOM      1  C   UNL     1      15.445 -22.464  18.269  1.00  0.00     0.180 A 
ATOM      2  C   UNL     1      14.913 -22.159  19.534  1.00  0.00     0.208 A 
ATOM      3  C   UNL     1      14.585 -20.826  19.831  1.00  0.00     0.238 A 
ATOM      4  O   UNL     1      14.040 -20.571  20.937  1.00  0.00    -0.285 OA
ATOM      5  C   UNL     1      14.845 -19.808  18.883  1.00  0.00     0.111 A 
ATOM      6  C   UNL     1      14.595 -18.417  19.093  1.00  0.00     0.134 A 
ATOM      7  C   UNL     1      14.793 -17.513  18.044  1.00  0.00     0.093 A 
ATOM      8  C   UNL     1      15.292 -17.939  16.810  1.00  0.00     0.123 A 
ATOM      9  C   UNL     1      15.591 -19.284  16.612  1.00  0.00     0.094 A 
ATOM     10  C   UNL     1      15.369 -20.217  17.628  1.00  0.00     0.146 A 
ATOM     11  O   UNL     1      15.647 -21.492  17.388  1.00  0.00    -0.452 OA
ENDROOT
BRANCH   1  12
ATOM     12  C   UNL     1      15.801 -23.846  17.877  1.00  0.00     0.025 A 
ATOM     13  C   UNL     1      15.013 -24.577  16.970  1.00  0.00     0.016 A 
ATOM     14  C   UNL     1      15.384 -25.871  16.596  1.00  0.00     0.051 A 
ATOM     15  C   UNL     1      16.550 -26.450  17.108  1.00  0.00     0.157 A 
ATOM     16  C   UNL     1      16.983 -24.422  18.373  1.00  0.00     0.062 A 
ATOM     17  C   UNL     1      17.355 -25.721  17.999  1.00  0.00     0.158 A 
BRANCH  15  18
ATOM     18  O   UNL     1      16.893 -27.743  16.718  1.00  0.00    -0.504 OA
ATOM     19  H   UNL     1      16.489 -28.184  15.899  1.00  0.00     0.293 HD
ENDBRANCH  15  18
BRANCH  17  20
ATOM     20  O   UNL     1      18.523 -26.289  18.508  1.00  0.00    -0.504 OA
ATOM     21  H   UNL     1      19.332 -25.723  18.738  1.00  0.00     0.293 HD
ENDBRANCH  17  20
ENDBRANCH   1  12
BRANCH   2  22
ATOM     22  O   UNL     1      14.734 -23.167  20.485  1.00  0.00    -0.502 OA
ATOM     23  H   UNL     1      14.681 -22.976  21.477  1.00  0.00     0.293 HD
ENDBRANCH   2  22
BRANCH   6  24
ATOM     24  O   UNL     1      14.180 -17.873  20.312  1.00  0.00    -0.507 OA
ATOM     25  H   UNL     1      13.276 -17.460  20.483  1.00  0.00     0.293 HD
ENDBRANCH   6  24
BRANCH   8  26
ATOM     26  O   UNL     1      15.503 -17.028  15.776  1.00  0.00    -0.508 OA
ATOM     27  H   UNL     1      14.824 -16.310  15.556  1.00  0.00     0.293 HD
ENDBRANCH   8  26
TORSDOF 6
ENDMDL
MODEL 5
REMARK VINA RESULT:    -5.893      2.296      7.581
REMARK INTER + INTRA:          -7.378
REMARK INTER:                  -7.056
REMARK INTRA:                  -0.322
REMARK UNBOUND:                -0.279
REMARK SMILES O=c1c(O)c(-c2ccc(O)c(O)c2)oc2cc(O)cc(O)c12
REMARK SMILES IDX 5 1 3 2 2 3 1 4 22 5 20 6 19 7 17 8 16 9 15 10 14 11 6 12
REMARK SMILES IDX 7 13 8 14 9 15 13 16 11 17 10 18 12 20 4 22 21 24 18 26
REMARK H PARENT 10 19 12 21 4 23 21 25 18 27
REMARK Flexibility Score: inf
ROOT
ATOM      1  C   UNL     1      16.224 -22.196  18.168  1.00  0.00     0.180 A 
ATOM      2  C   UNL     1      17.014 -22.210  19.330  1.00  0.00     0.208 A 
ATOM      3  C   UNL     1      17.577 -23.424  19.756  1.00  0.00     0.238 A 
ATOM      4  O   UNL     1      18.345 -23.416  20.754  1.00  0.00    -0.285 OA
ATOM      5  C   UNL     1      17.297 -24.618  19.048  1.00  0.00     0.111 A 
ATOM      6  C   UNL     1      17.777 -25.913  19.415  1.00  0.00     0.134 A 
ATOM      7  C   UNL     1      17.523 -27.006  18.579  1.00  0.00     0.093 A 
ATOM      8  C   UNL     1      16.752 -26.865  17.421  1.00  0.00     0.123 A 
ATOM      9  C   UNL     1      16.234 -25.618  17.084  1.00  0.00     0.094 A 
ATOM     10  C   UNL     1      16.502 -24.500  17.878  1.00  0.00     0.146 A 
ATOM     11  O   UNL     1      16.005 -23.327  17.507  1.00  0.00    -0.452 OA
ENDROOT
BRANCH   1  12
ATOM     12  C   UNL     1      15.608 -20.954  17.649  1.00  0.00     0.025 A 
ATOM     13  C   UNL     1      14.321 -20.553  18.048  1.00  0.00     0.016 A 
ATOM     14  C   UNL     1      13.771 -19.362  17.564  1.00  0.00     0.051 A 
ATOM     15  C   UNL     1      14.499 -18.550  16.689  1.00  0.00     0.157 A 
ATOM     16  C   UNL     1      16.345 -20.125  16.787  1.00  0.00     0.062 A 
ATOM     17  C   UNL     1      15.794 -18.931  16.300  1.00  0.00     0.158 A 
BRANCH  15  18
ATOM     18  O   UNL     1      13.923 -17.370  16.221  1.00  0.00    -0.504 OA
ATOM     19  H   UNL     1      13.279 -17.358  15.439  1.00  0.00     0.293 HD
ENDBRANCH  15  18
BRANCH  17  20
ATOM     20  O   UNL     1      16.529 -18.123  15.433  1.00  0.00    -0.504 OA
ATOM     21  H   UNL     1      17.531 -18.009  15.535  1.00  0.00     0.293 HD
ENDBRANCH  17  20
ENDBRANCH   1  12
BRANCH   2  22
ATOM     22  O   UNL     1      17.217 -21.035  20.059  1.00  0.00    -0.502 OA
ATOM     23  H   UNL     1      16.484 -20.352  20.205  1.00  0.00     0.293 HD
ENDBRANCH   2  22
BRANCH   6  24
ATOM     24  O   UNL     1      18.480 -26.182  20.593  1.00  0.00    -0.507 OA
ATOM     25  H   UNL     1      18.234 -25.832  21.506  1.00  0.00     0.293 HD
ENDBRANCH   6  24
BRANCH   8  26
ATOM     26  O   UNL     1      16.490 -27.963  16.605  1.00  0.00    -0.508 OA
ATOM     27  H   UNL     1      16.192 -28.851  16.990  1.00  0.00     0.293 HD
ENDBRANCH   8  26
TORSDOF 6
ENDMDL
MODEL 6
REMARK VINA RESULT:    -5.864     14.006     16.982
REMARK INTER + INTRA:          -7.343
REMARK INTER:                  -7.067
REMARK INTRA:                  -0.276
REMARK UNBOUND:                -0.279
REMARK SMILES O=c1c(O)c(-c2ccc(O)c(O)c2)oc2cc(O)cc(O)c12
REMARK SMILES IDX 5 1 3 2 2 3 1 4 22 5 20 6 19 7 17 8 16 9 15 10 14 11 6 12
REMARK SMILES IDX 7 13 8 14 9 15 13 16 11 17 10 18 12 20 4 22 21 24 18 26
REMARK H PARENT 10 19 12 21 4 23 21 25 18 27
REMARK Flexibility Score: inf
ROOT
ATOM      1  C   UNL     1       4.468 -13.597   9.019  1.00  0.00     0.180 A 
ATOM      2  C   UNL     1       4.534 -14.890   8.472  1.00  0.00     0.208 A 
ATOM      3  C   UNL     1       4.334 -15.996   9.314  1.00  0.00     0.238 A 
ATOM      4  O   UNL     1       4.320 -17.148   8.804  1.00  0.00    -0.285 OA
ATOM      5  C   UNL     1       4.126 -15.799  10.700  1.00  0.00     0.111 A 
ATOM      6  C   UNL     1       3.956 -16.849  11.654  1.00  0.00     0.134 A 
ATOM      7  C   UNL     1       3.652 -16.532  12.983  1.00  0.00     0.093 A 
ATOM      8  C   UNL     1       3.572 -15.202  13.407  1.00  0.00     0.123 A 
ATOM      9  C   UNL     1       3.791 -14.172  12.497  1.00  0.00     0.094 A 
ATOM     10  C   UNL     1       4.059 -14.456  11.155  1.00  0.00     0.146 A 
ATOM     11  O   UNL     1       4.239 -13.443  10.318  1.00  0.00    -0.452 OA
ENDROOT
BRANCH   1  12
ATOM     12  C   UNL     1       4.655 -12.382   8.194  1.00  0.00     0.025 A 
ATOM     13  C   UNL     1       3.648 -11.926   7.324  1.00  0.00     0.016 A 
ATOM     14  C   UNL     1       3.837 -10.763   6.574  1.00  0.00     0.051 A 
ATOM     15  C   UNL     1       5.024 -10.031   6.689  1.00  0.00     0.157 A 
ATOM     16  C   UNL     1       5.836 -11.634   8.324  1.00  0.00     0.062 A 
ATOM     17  C   UNL     1       6.027 -10.466   7.570  1.00  0.00     0.158 A 
BRANCH  15  18
ATOM     18  O   UNL     1       5.185  -8.875   5.927  1.00  0.00    -0.504 OA
ATOM     19  H   UNL     1       4.472  -8.156   5.882  1.00  0.00     0.293 HD
ENDBRANCH  15  18
BRANCH  17  20
ATOM     20  O   UNL     1       7.210  -9.738   7.696  1.00  0.00    -0.504 OA
ATOM     21  H   UNL     1       7.209  -8.725   7.719  1.00  0.00     0.293 HD
ENDBRANCH  17  20
ENDBRANCH   1  12
BRANCH   2  22
ATOM     22  O   UNL     1       4.816 -15.068   7.115  1.00  0.00    -0.502 OA
ATOM     23  H   UNL     1       4.368 -15.782   6.555  1.00  0.00     0.293 HD
ENDBRANCH   2  22
BRANCH   6  24
ATOM     24  O   UNL     1       4.100 -18.207  11.357  1.00  0.00    -0.507 OA
ATOM     25  H   UNL     1       3.340 -18.863  11.265  1.00  0.00     0.293 HD
ENDBRANCH   6  24
BRANCH   8  26
ATOM     26  O   UNL     1       3.286 -14.896  14.736  1.00  0.00    -0.508 OA
ATOM     27  H   UNL     1       3.477 -13.980  15.122  1.00  0.00     0.293 HD
ENDBRANCH   8  26
TORSDOF 6
ENDMDL
MODEL 7
REMARK VINA RESULT:    -5.840      1.731      7.135
REMARK INTER + INTRA:          -7.314
REMARK INTER:                  -7.009
REMARK INTRA:                  -0.305
REMARK UNBOUND:                -0.279
REMARK SMILES O=c1c(O)c(-c2ccc(O)c(O)c2)oc2cc(O)cc(O)c12
REMARK SMILES IDX 5 1 3 2 2 3 1 4 22 5 20 6 19 7 17 8 16 9 15 10 14 11 6 12
REMARK SMILES IDX 7 13 8 14 9 15 13 16 11 17 10 18 12 20 4 22 21 24 18 26
REMARK H PARENT 10 19 12 21 4 23 21 25 18 27
REMARK Flexibility Score: inf
ROOT
ATOM      1  C   UNL     1      15.230 -21.826  18.762  1.00  0.00     0.180 A 
ATOM      2  C   UNL     1      16.410 -22.558  18.542  1.00  0.00     0.208 A 
ATOM      3  C   UNL     1      16.586 -23.782  19.208  1.00  0.00     0.238 A 
ATOM      4  O   UNL     1      17.610 -24.468  18.948  1.00  0.00    -0.285 OA
ATOM      5  C   UNL     1      15.609 -24.232  20.128  1.00  0.00     0.111 A 
ATOM      6  C   UNL     1      15.704 -25.434  20.892  1.00  0.00     0.134 A 
ATOM      7  C   UNL     1      14.627 -25.831  21.693  1.00  0.00     0.093 A 
ATOM      8  C   UNL     1      13.481 -25.038  21.805  1.00  0.00     0.123 A 
ATOM      9  C   UNL     1      13.401 -23.836  21.107  1.00  0.00     0.094 A 
ATOM     10  C   UNL     1      14.445 -23.431  20.271  1.00  0.00     0.146 A 
ATOM     11  O   UNL     1      14.317 -22.289  19.607  1.00  0.00    -0.452 OA
ENDROOT
BRANCH   1  12
ATOM     12  C   UNL     1      14.966 -20.535  18.087  1.00  0.00     0.025 A 
ATOM     13  C   UNL     1      14.511 -20.484  16.758  1.00  0.00     0.016 A 
ATOM     14  C   UNL     1      14.244 -19.255  16.150  1.00  0.00     0.051 A 
ATOM     15  C   UNL     1      14.414 -18.062  16.860  1.00  0.00     0.157 A 
ATOM     16  C   UNL     1      15.116 -19.337  18.804  1.00  0.00     0.062 A 
ATOM     17  C   UNL     1      14.849 -18.102  18.195  1.00  0.00     0.158 A 
BRANCH  15  18
ATOM     18  O   UNL     1      14.142 -16.850  16.226  1.00  0.00    -0.504 OA
ATOM     19  H   UNL     1      13.733 -16.807  15.300  1.00  0.00     0.293 HD
ENDBRANCH  15  18
BRANCH  17  20
ATOM     20  O   UNL     1      15.014 -16.917  18.912  1.00  0.00    -0.504 OA
ATOM     21  H   UNL     1      15.302 -16.058  18.458  1.00  0.00     0.293 HD
ENDBRANCH  17  20
ENDBRANCH   1  12
BRANCH   2  22
ATOM     22  O   UNL     1      17.398 -22.061  17.688  1.00  0.00    -0.502 OA
ATOM     23  H   UNL     1      17.219 -21.844  16.716  1.00  0.00     0.293 HD
ENDBRANCH   2  22
BRANCH   6  24
ATOM     24  O   UNL     1      16.835 -26.255  20.922  1.00  0.00    -0.507 OA
ATOM     25  H   UNL     1      17.644 -26.147  20.329  1.00  0.00     0.293 HD
ENDBRANCH   6  24
BRANCH   8  26
ATOM     26  O   UNL     1      12.421 -25.433  22.618  1.00  0.00    -0.508 OA
ATOM     27  H   UNL     1      12.577 -25.899  23.504  1.00  0.00     0.293 HD
ENDBRANCH   8  26
TORSDOF 6
ENDMDL
MODEL 8
REMARK VINA RESULT:    -5.830      3.810      6.321
REMARK INTER + INTRA:          -7.301
REMARK INTER:                  -6.978
REMARK INTRA:                  -0.323
REMARK UNBOUND:                -0.279
REMARK SMILES O=c1c(O)c(-c2ccc(O)c(O)c2)oc2cc(O)cc(O)c12
REMARK SMILES IDX 5 1 3 2 2 3 1 4 22 5 20 6 19 7 17 8 16 9 15 10 14 11 6 12
REMARK SMILES IDX 7 13 8 14 9 15 13 16 11 17 10 18 12 20 4 22 21 24 18 26
REMARK H PARENT 10 19 12 21 4 23 21 25 18 27
REMARK Flexibility Score: inf
ROOT
ATOM      1  C   UNL     1      16.099 -15.799  18.263  1.00  0.00     0.180 A 
ATOM      2  C   UNL     1      17.279 -15.844  19.024  1.00  0.00     0.208 A 
ATOM      3  C   UNL     1      17.728 -14.672  19.654  1.00  0.00     0.238 A 
ATOM      4  O   UNL     1      18.743 -14.737  20.396  1.00  0.00    -0.285 OA
ATOM      5  C   UNL     1      17.024 -13.458  19.470  1.00  0.00     0.111 A 
ATOM      6  C   UNL     1      17.412 -12.200  20.024  1.00  0.00     0.134 A 
ATOM      7  C   UNL     1      16.580 -11.087  19.860  1.00  0.00     0.093 A 
ATOM      8  C   UNL     1      15.404 -11.170  19.110  1.00  0.00     0.123 A 
ATOM      9  C   UNL     1      15.044 -12.378  18.520  1.00  0.00     0.094 A 
ATOM     10  C   UNL     1      15.835 -13.516  18.696  1.00  0.00     0.146 A 
ATOM     11  O   UNL     1      15.442 -14.652  18.134  1.00  0.00    -0.452 OA
ENDROOT
BRANCH   1  12
ATOM     12  C   UNL     1      15.556 -16.995  17.580  1.00  0.00     0.025 A 
ATOM     13  C   UNL     1      15.939 -17.328  16.269  1.00  0.00     0.016 A 
ATOM     14  C   UNL     1      15.433 -18.476  15.655  1.00  0.00     0.051 A 
ATOM     15  C   UNL     1      14.549 -19.315  16.342  1.00  0.00     0.157 A 
ATOM     16  C   UNL     1      14.685 -17.851  18.275  1.00  0.00     0.062 A 
ATOM     17  C   UNL     1      14.175 -19.003  17.659  1.00  0.00     0.158 A 
BRANCH  15  18
ATOM     18  O   UNL     1      14.058 -20.452  15.702  1.00  0.00    -0.504 OA
ATOM     19  H   UNL     1      13.444 -20.396  14.898  1.00  0.00     0.293 HD
ENDBRANCH  15  18
BRANCH  17  20
ATOM     20  O   UNL     1      13.300 -19.839  18.353  1.00  0.00    -0.504 OA
ATOM     21  H   UNL     1      12.538 -20.316  17.884  1.00  0.00     0.293 HD
ENDBRANCH  17  20
ENDBRANCH   1  12
BRANCH   2  22
ATOM     22  O   UNL     1      18.003 -17.035  19.133  1.00  0.00    -0.502 OA
ATOM     23  H   UNL     1      18.908 -17.164  18.699  1.00  0.00     0.293 HD
ENDBRANCH   2  22
BRANCH   6  24
ATOM     24  O   UNL     1      18.609 -11.985  20.714  1.00  0.00    -0.507 OA
ATOM     25  H   UNL     1      19.297 -12.695  20.914  1.00  0.00     0.293 HD
ENDBRANCH   6  24
BRANCH   8  26
ATOM     26  O   UNL     1      14.591 -10.052  18.939  1.00  0.00    -0.508 OA
ATOM     27  H   UNL     1      13.795  -9.876  19.541  1.00  0.00     0.293 HD
ENDBRANCH   8  26
TORSDOF 6
ENDMDL
MODEL 9
REMARK VINA RESULT:    -5.698      2.515      3.022
REMARK INTER + INTRA:          -7.143
REMARK INTER:                  -6.846
REMARK INTRA:                  -0.297
REMARK UNBOUND:                -0.279
REMARK SMILES O=c1c(O)c(-c2ccc(O)c(O)c2)oc2cc(O)cc(O)c12
REMARK SMILES IDX 5 1 3 2 2 3 1 4 22 5 20 6 19 7 17 8 16 9 15 10 14 11 6 12
REMARK SMILES IDX 7 13 8 14 9 15 13 16 11 17 10 18 12 20 4 22 21 24 18 26
REMARK H PARENT 10 19 12 21 4 23 21 25 18 27
REMARK Flexibility Score: inf
ROOT
ATOM      1  C   UNL     1      15.640 -20.149  17.962  1.00  0.00     0.180 A 
ATOM      2  C   UNL     1      14.819 -19.011  17.880  1.00  0.00     0.208 A 
ATOM      3  C   UNL     1      15.344 -17.831  17.329  1.00  0.00     0.238 A 
ATOM      4  O   UNL     1      14.581 -16.839  17.189  1.00  0.00    -0.285 OA
ATOM      5  C   UNL     1      16.699 -17.785  16.919  1.00  0.00     0.111 A 
ATOM      6  C   UNL     1      17.349 -16.630  16.388  1.00  0.00     0.134 A 
ATOM      7  C   UNL     1      18.663 -16.732  15.919  1.00  0.00     0.093 A 
ATOM      8  C   UNL     1      19.373 -17.931  16.017  1.00  0.00     0.123 A 
ATOM      9  C   UNL     1      18.767 -19.049  16.583  1.00  0.00     0.094 A 
ATOM     10  C   UNL     1      17.443 -18.989  17.027  1.00  0.00     0.146 A 
ATOM     11  O   UNL     1      16.898 -20.085  17.540  1.00  0.00    -0.452 OA
ENDROOT
BRANCH   1  12
ATOM     12  C   UNL     1      15.155 -21.432  18.517  1.00  0.00     0.025 A 
ATOM     13  C   UNL     1      15.406 -21.794  19.853  1.00  0.00     0.016 A 
ATOM     14  C   UNL     1      14.916 -23.000  20.362  1.00  0.00     0.051 A 
ATOM     15  C   UNL     1      14.158 -23.854  19.553  1.00  0.00     0.157 A 
ATOM     16  C   UNL     1      14.376 -22.282  17.714  1.00  0.00     0.062 A 
ATOM     17  C   UNL     1      13.884 -23.493  18.224  1.00  0.00     0.158 A 
BRANCH  15  18
ATOM     18  O   UNL     1      13.685 -25.051  20.088  1.00  0.00    -0.504 OA
ATOM     19  H   UNL     1      13.993 -25.397  20.989  1.00  0.00     0.293 HD
ENDBRANCH  15  18
BRANCH  17  20
ATOM     20  O   UNL     1      13.124 -24.336  17.414  1.00  0.00    -0.504 OA
ATOM     21  H   UNL     1      13.216 -24.328  16.405  1.00  0.00     0.293 HD
ENDBRANCH  17  20
ENDBRANCH   1  12
BRANCH   2  22
ATOM     22  O   UNL     1      13.507 -19.053  18.359  1.00  0.00    -0.502 OA
ATOM     23  H   UNL     1      12.773 -19.570  17.891  1.00  0.00     0.293 HD
ENDBRANCH   2  22
BRANCH   6  24
ATOM     24  O   UNL     1      16.763 -15.362  16.325  1.00  0.00    -0.507 OA
ATOM     25  H   UNL     1      16.356 -14.953  15.498  1.00  0.00     0.293 HD
ENDBRANCH   6  24
BRANCH   8  26
ATOM     26  O   UNL     1      20.687 -18.019  15.562  1.00  0.00    -0.508 OA
ATOM     27  H   UNL     1      21.199 -18.893  15.583  1.00  0.00     0.293 HD
ENDBRANCH   8  26
TORSDOF 6
ENDMDL
