MODEL 1
REMARK VINA RESULT:    -4.223      0.000      0.000
REMARK INTER + INTRA:          -5.717
REMARK INTER:                  -5.458
REMARK INTRA:                  -0.259
REMARK UNBOUND:                -0.259
REMARK SMILES C=CC(=O)CCCCC
REMARK SMILES IDX 6 1 7 2 8 3 9 4 5 5 3 6 4 7 2 8 1 9
REMARK H PARENT
REMARK Flexibility Score: inf
ROOT
ATOM      1  C   UNL     1      25.288  54.165   6.186  1.00  0.00     0.008 C 
ENDROOT
BRANCH   1   2
ATOM      2  C   UNL     1      25.712  55.376   5.338  1.00  0.00     0.000 C 
BRANCH   2   3
ATOM      3  C   UNL     1      25.308  56.714   5.976  1.00  0.00    -0.003 C 
ATOM      4  C   UNL     1      25.529  57.905   5.042  1.00  0.00     0.004 C 
ENDBRANCH   2   3
ENDBRANCH   1   2
BRANCH   1   5
ATOM      5  C   UNL     1      25.189  54.506   7.679  1.00  0.00     0.080 C 
BRANCH   5   6
ATOM      6  C   UNL     1      25.765  53.420   8.542  1.00  0.00     0.155 C 
ATOM      7  O   UNL     1      25.638  53.497   9.795  1.00  0.00    -0.295 OA
BRANCH   6   8
ATOM      8  C   UNL     1      26.447  52.263   7.928  1.00  0.00     0.039 C 
ATOM      9  C   UNL     1      27.743  52.015   8.114  1.00  0.00     0.012 C 
ENDBRANCH   6   8
ENDBRANCH   5   6
ENDBRANCH   1   5
TORSDOF 5
ENDMDL
MODEL 2
REMARK VINA RESULT:    -4.207      6.484      7.266
REMARK INTER + INTRA:          -5.696
REMARK INTER:                  -5.279
REMARK INTRA:                  -0.417
REMARK UNBOUND:                -0.259
REMARK SMILES C=CC(=O)CCCCC
REMARK SMILES IDX 6 1 7 2 8 3 9 4 5 5 3 6 4 7 2 8 1 9
REMARK H PARENT
REMARK Flexibility Score: inf
ROOT
ATOM      1  C   UNL     1      30.070  55.975  11.001  1.00  0.00     0.008 C 
ENDROOT
BRANCH   1   2
ATOM      2  C   UNL     1      28.574  55.614  10.996  1.00  0.00     0.000 C 
BRANCH   2   3
ATOM      3  C   UNL     1      27.682  56.801  10.601  1.00  0.00    -0.003 C 
ATOM      4  C   UNL     1      26.332  56.362  10.033  1.00  0.00     0.004 C 
ENDBRANCH   2   3
ENDBRANCH   1   2
BRANCH   1   5
ATOM      5  C   UNL     1      30.322  57.419  10.545  1.00  0.00     0.080 C 
BRANCH   5   6
ATOM      6  C   UNL     1      30.899  58.262  11.645  1.00  0.00     0.155 C 
ATOM      7  O   UNL     1      32.037  57.975  12.108  1.00  0.00    -0.295 OA
BRANCH   6   8
ATOM      8  C   UNL     1      30.155  59.430  12.157  1.00  0.00     0.039 C 
ATOM      9  C   UNL     1      29.113  59.310  12.978  1.00  0.00     0.012 C 
ENDBRANCH   6   8
ENDBRANCH   5   6
ENDBRANCH   1   5
TORSDOF 5
ENDMDL
MODEL 3
REMARK VINA RESULT:    -4.199      2.036      4.949
REMARK INTER + INTRA:          -5.686
REMARK INTER:                  -5.447
REMARK INTRA:                  -0.239
REMARK UNBOUND:                -0.259
REMARK SMILES C=CC(=O)CCCCC
REMARK SMILES IDX 6 1 7 2 8 3 9 4 5 5 3 6 4 7 2 8 1 9
REMARK H PARENT
REMARK Flexibility Score: inf
ROOT
ATOM      1  C   UNL     1      24.907  54.581   7.238  1.00  0.00     0.008 C 
ENDROOT
BRANCH   1   2
ATOM      2  C   UNL     1      25.891  53.944   8.236  1.00  0.00     0.000 C 
BRANCH   2   3
ATOM      3  C   UNL     1      26.096  52.443   7.984  1.00  0.00    -0.003 C 
ATOM      4  C   UNL     1      27.563  52.022   8.082  1.00  0.00     0.004 C 
ENDBRANCH   2   3
ENDBRANCH   1   2
BRANCH   1   5
ATOM      5  C   UNL     1      25.342  54.376   5.781  1.00  0.00     0.080 C 
BRANCH   5   6
ATOM      6  C   UNL     1      25.894  55.636   5.177  1.00  0.00     0.155 C 
ATOM      7  O   UNL     1      26.810  55.554   4.314  1.00  0.00    -0.295 OA
BRANCH   6   8
ATOM      8  C   UNL     1      25.351  56.951   5.570  1.00  0.00     0.039 C 
ATOM      9  C   UNL     1      25.191  57.948   4.701  1.00  0.00     0.012 C 
ENDBRANCH   6   8
ENDBRANCH   5   6
ENDBRANCH   1   5
TORSDOF 5
ENDMDL
MODEL 4
REMARK VINA RESULT:    -4.158      6.688      7.495
REMARK INTER + INTRA:          -5.633
REMARK INTER:                  -5.000
REMARK INTRA:                  -0.633
REMARK UNBOUND:                -0.259
REMARK SMILES C=CC(=O)CCCCC
REMARK SMILES IDX 6 1 7 2 8 3 9 4 5 5 3 6 4 7 2 8 1 9
REMARK H PARENT
REMARK Flexibility Score: inf
ROOT
ATOM      1  C   UNL     1      29.869  59.391  12.047  1.00  0.00     0.008 C 
ENDROOT
BRANCH   1   2
ATOM      2  C   UNL     1      31.041  58.405  11.898  1.00  0.00     0.000 C 
BRANCH   2   3
ATOM      3  C   UNL     1      30.926  57.539  10.635  1.00  0.00    -0.003 C 
ATOM      4  C   UNL     1      30.686  56.062  10.950  1.00  0.00     0.004 C 
ENDBRANCH   2   3
ENDBRANCH   1   2
BRANCH   1   5
ATOM      5  C   UNL     1      28.963  59.044  13.236  1.00  0.00     0.080 C 
BRANCH   5   6
ATOM      6  C   UNL     1      28.107  57.842  12.958  1.00  0.00     0.155 C 
ATOM      7  O   UNL     1      28.245  56.810  13.670  1.00  0.00    -0.295 OA
BRANCH   6   8
ATOM      8  C   UNL     1      27.098  57.879  11.881  1.00  0.00     0.039 C 
ATOM      9  C   UNL     1      27.055  56.970  10.909  1.00  0.00     0.012 C 
ENDBRANCH   6   8
ENDBRANCH   5   6
ENDBRANCH   1   5
TORSDOF 5
ENDMDL
MODEL 5
REMARK VINA RESULT:    -4.151     10.585     11.290
REMARK INTER + INTRA:          -5.624
REMARK INTER:                  -5.079
REMARK INTRA:                  -0.545
REMARK UNBOUND:                -0.259
REMARK SMILES C=CC(=O)CCCCC
REMARK SMILES IDX 6 1 7 2 8 3 9 4 5 5 3 6 4 7 2 8 1 9
REMARK H PARENT
REMARK Flexibility Score: inf
ROOT
ATOM      1  C   UNL     1      29.969  51.171  16.709  1.00  0.00     0.008 C 
ENDROOT
BRANCH   1   2
ATOM      2  C   UNL     1      28.468  51.500  16.648  1.00  0.00     0.000 C 
BRANCH   2   3
ATOM      3  C   UNL     1      27.597  50.405  17.282  1.00  0.00    -0.003 C 
ATOM      4  C   UNL     1      26.474  49.933  16.357  1.00  0.00     0.004 C 
ENDBRANCH   2   3
ENDBRANCH   1   2
BRANCH   1   5
ATOM      5  C   UNL     1      30.231  49.733  17.178  1.00  0.00     0.080 C 
BRANCH   5   6
ATOM      6  C   UNL     1      30.830  48.888  16.090  1.00  0.00     0.155 C 
ATOM      7  O   UNL     1      31.975  49.177  15.646  1.00  0.00    -0.295 OA
BRANCH   6   8
ATOM      8  C   UNL     1      30.099  47.716  15.569  1.00  0.00     0.039 C 
ATOM      9  C   UNL     1      29.104  47.827  14.690  1.00  0.00     0.012 C 
ENDBRANCH   6   8
ENDBRANCH   5   6
ENDBRANCH   1   5
TORSDOF 5
ENDMDL
MODEL 6
REMARK VINA RESULT:    -4.062      1.878      2.830
REMARK INTER + INTRA:          -5.509
REMARK INTER:                  -5.179
REMARK INTRA:                  -0.330
REMARK UNBOUND:                -0.259
REMARK SMILES C=CC(=O)CCCCC
REMARK SMILES IDX 6 1 7 2 8 3 9 4 5 5 3 6 4 7 2 8 1 9
REMARK H PARENT
REMARK Flexibility Score: inf
ROOT
ATOM      1  C   UNL     1      25.593  54.103   6.643  1.00  0.00     0.008 C 
ENDROOT
BRANCH   1   2
ATOM      2  C   UNL     1      25.591  55.154   5.519  1.00  0.00     0.000 C 
BRANCH   2   3
ATOM      3  C   UNL     1      25.265  56.565   6.032  1.00  0.00    -0.003 C 
ATOM      4  C   UNL     1      25.244  57.609   4.915  1.00  0.00     0.004 C 
ENDBRANCH   2   3
ENDBRANCH   1   2
BRANCH   1   5
ATOM      5  C   UNL     1      24.255  53.359   6.747  1.00  0.00     0.080 C 
BRANCH   5   6
ATOM      6  C   UNL     1      23.631  53.515   8.105  1.00  0.00     0.155 C 
ATOM      7  O   UNL     1      23.100  52.513   8.656  1.00  0.00    -0.295 OA
BRANCH   6   8
ATOM      8  C   UNL     1      23.665  54.819   8.795  1.00  0.00     0.039 C 
ATOM      9  C   UNL     1      22.558  55.483   9.125  1.00  0.00     0.012 C 
ENDBRANCH   6   8
ENDBRANCH   5   6
ENDBRANCH   1   5
TORSDOF 5
ENDMDL
MODEL 7
REMARK VINA RESULT:    -4.056      6.113      6.786
REMARK INTER + INTRA:          -5.501
REMARK INTER:                  -4.964
REMARK INTRA:                  -0.537
REMARK UNBOUND:                -0.259
REMARK SMILES C=CC(=O)CCCCC
REMARK SMILES IDX 6 1 7 2 8 3 9 4 5 5 3 6 4 7 2 8 1 9
REMARK H PARENT
REMARK Flexibility Score: inf
ROOT
ATOM      1  C   UNL     1      30.213  57.500  10.588  1.00  0.00     0.008 C 
ENDROOT
BRANCH   1   2
ATOM      2  C   UNL     1      30.849  58.271  11.758  1.00  0.00     0.000 C 
BRANCH   2   3
ATOM      3  C   UNL     1      30.078  59.553  12.108  1.00  0.00    -0.003 C 
ATOM      4  C   UNL     1      29.014  59.328  13.183  1.00  0.00     0.004 C 
ENDBRANCH   2   3
ENDBRANCH   1   2
BRANCH   1   5
ATOM      5  C   UNL     1      29.827  56.067  10.977  1.00  0.00     0.080 C 
BRANCH   5   6
ATOM      6  C   UNL     1      28.338  55.882  11.033  1.00  0.00     0.155 C 
ATOM      7  O   UNL     1      27.868  54.807  11.496  1.00  0.00    -0.295 OA
BRANCH   6   8
ATOM      8  C   UNL     1      27.436  56.959  10.579  1.00  0.00     0.039 C 
ATOM      9  C   UNL     1      26.459  57.444  11.343  1.00  0.00     0.012 C 
ENDBRANCH   6   8
ENDBRANCH   5   6
ENDBRANCH   1   5
TORSDOF 5
ENDMDL
MODEL 8
REMARK VINA RESULT:    -3.975      6.309      6.763
REMARK INTER + INTRA:          -5.396
REMARK INTER:                  -5.049
REMARK INTRA:                  -0.346
REMARK UNBOUND:                -0.259
REMARK SMILES C=CC(=O)CCCCC
REMARK SMILES IDX 6 1 7 2 8 3 9 4 5 5 3 6 4 7 2 8 1 9
REMARK H PARENT
REMARK Flexibility Score: inf
ROOT
ATOM      1  C   UNL     1      30.697  57.506  10.652  1.00  0.00     0.008 C 
ENDROOT
BRANCH   1   2
ATOM      2  C   UNL     1      30.980  58.331  11.919  1.00  0.00     0.000 C 
BRANCH   2   3
ATOM      3  C   UNL     1      30.028  59.527  12.069  1.00  0.00    -0.003 C 
ATOM      4  C   UNL     1      29.100  59.396  13.277  1.00  0.00     0.004 C 
ENDBRANCH   2   3
ENDBRANCH   1   2
BRANCH   1   5
ATOM      5  C   UNL     1      29.240  57.032  10.579  1.00  0.00     0.080 C 
BRANCH   5   6
ATOM      6  C   UNL     1      29.002  55.816  11.429  1.00  0.00     0.155 C 
ATOM      7  O   UNL     1      28.444  55.951  12.553  1.00  0.00    -0.295 OA
BRANCH   6   8
ATOM      8  C   UNL     1      29.390  54.478  10.941  1.00  0.00     0.039 C 
ATOM      9  C   UNL     1      30.507  53.869  11.337  1.00  0.00     0.012 C 
ENDBRANCH   6   8
ENDBRANCH   5   6
ENDBRANCH   1   5
TORSDOF 5
ENDMDL
MODEL 9
REMARK VINA RESULT:    -3.959     11.457     13.019
REMARK INTER + INTRA:          -5.376
REMARK INTER:                  -4.924
REMARK INTRA:                  -0.452
REMARK UNBOUND:                -0.259
REMARK SMILES C=CC(=O)CCCCC
REMARK SMILES IDX 6 1 7 2 8 3 9 4 5 5 3 6 4 7 2 8 1 9
REMARK H PARENT
REMARK Flexibility Score: inf
ROOT
ATOM      1  C   UNL     1      25.554  54.864  19.695  1.00  0.00     0.008 C 
ENDROOT
BRANCH   1   2
ATOM      2  C   UNL     1      27.066  54.945  19.969  1.00  0.00     0.000 C 
BRANCH   2   3
ATOM      3  C   UNL     1      27.902  54.906  18.681  1.00  0.00    -0.003 C 
ATOM      4  C   UNL     1      27.518  53.747  17.761  1.00  0.00     0.004 C 
ENDBRANCH   2   3
ENDBRANCH   1   2
BRANCH   1   5
ATOM      5  C   UNL     1      24.799  54.128  20.809  1.00  0.00     0.080 C 
BRANCH   5   6
ATOM      6  C   UNL     1      25.372  52.764  21.069  1.00  0.00     0.155 C 
ATOM      7  O   UNL     1      25.925  52.531  22.179  1.00  0.00    -0.295 OA
BRANCH   6   8
ATOM      8  C   UNL     1      25.264  51.703  20.049  1.00  0.00     0.039 C 
ATOM      9  C   UNL     1      24.164  51.523  19.318  1.00  0.00     0.012 C 
ENDBRANCH   6   8
ENDBRANCH   5   6
ENDBRANCH   1   5
TORSDOF 5
ENDMDL
