MODEL 1
REMARK VINA RESULT:    -4.118      0.000      0.000
REMARK INTER + INTRA:          -9.621
REMARK INTER:                  -7.728
REMARK INTRA:                  -1.892
REMARK UNBOUND:                -1.892
REMARK SMILES O=C([O-])CCCCCCCCCCCCCCC(=O)[O-]
REMARK SMILES IDX 10 1 9 2 8 3 7 4 6 5 5 6 4 7 2 8 1 9 3 10 11 11 12 12 13 13
REMARK SMILES IDX 14 14 15 15 16 16 17 17 18 18 19 19 20 20
REMARK H PARENT
REMARK Flexibility Score: inf
ROOT
ATOM      1  C   UNL     1       4.228   7.780  -1.007  1.00  0.00     0.000 C 
ENDROOT
BRANCH   1   2
ATOM      2  C   UNL     1       4.004   7.535  -2.508  1.00  0.00     0.000 C 
BRANCH   2   3
ATOM      3  C   UNL     1       3.058   6.353  -2.781  1.00  0.00     0.000 C 
BRANCH   3   4
ATOM      4  C   UNL     1       1.748   6.792  -3.458  1.00  0.00     0.000 C 
BRANCH   4   5
ATOM      5  C   UNL     1       1.701   8.308  -3.721  1.00  0.00     0.000 C 
BRANCH   5   6
ATOM      6  C   UNL     1       0.832   9.059  -2.701  1.00  0.00     0.006 C 
BRANCH   6   7
ATOM      7  C   UNL     1      -0.161   8.140  -1.978  1.00  0.00     0.053 C 
BRANCH   7   8
ATOM      8  C   UNL     1      -1.200   8.951  -1.269  1.00  0.00     0.041 C 
ATOM      9  O   UNL     1      -2.373   9.015  -1.722  1.00  0.00    -0.550 OA
ATOM     10  O   UNL     1      -0.886   9.595  -0.079  1.00  0.00    -0.550 OA
ENDBRANCH   7   8
ENDBRANCH   6   7
ENDBRANCH   5   6
ENDBRANCH   4   5
ENDBRANCH   3   4
ENDBRANCH   2   3
ENDBRANCH   1   2
BRANCH   1  11
ATOM     11  C   UNL     1       3.401   6.834  -0.122  1.00  0.00     0.000 C 
BRANCH  11  12
ATOM     12  C   UNL     1       2.320   7.609   0.647  1.00  0.00     0.000 C 
BRANCH  12  13
ATOM     13  C   UNL     1       1.169   6.710   1.136  1.00  0.00     0.000 C 
BRANCH  13  14
ATOM     14  C   UNL     1       0.337   7.292   2.293  1.00  0.00     0.000 C 
BRANCH  14  15
ATOM     15  C   UNL     1      -0.239   6.210   3.220  1.00  0.00     0.000 C 
BRANCH  15  16
ATOM     16  C   UNL     1      -0.063   4.813   2.612  1.00  0.00     0.006 C 
BRANCH  16  17
ATOM     17  C   UNL     1       0.510   3.835   3.643  1.00  0.00     0.053 C 
BRANCH  17  18
ATOM     18  C   UNL     1       1.923   4.198   3.979  1.00  0.00     0.041 C 
ATOM     19  O   UNL     1       2.818   4.149   3.094  1.00  0.00    -0.550 OA
ATOM     20  O   UNL     1       2.242   4.637   5.258  1.00  0.00    -0.550 OA
ENDBRANCH  17  18
ENDBRANCH  16  17
ENDBRANCH  15  16
ENDBRANCH  14  15
ENDBRANCH  13  14
ENDBRANCH  12  13
ENDBRANCH  11  12
ENDBRANCH   1  11
TORSDOF 15
ENDMDL
MODEL 2
REMARK VINA RESULT:    -4.092      2.668      4.844
REMARK INTER + INTRA:          -9.573
REMARK INTER:                  -7.980
REMARK INTRA:                  -1.593
REMARK UNBOUND:                -1.892
REMARK SMILES O=C([O-])CCCCCCCCCCCCCCC(=O)[O-]
REMARK SMILES IDX 10 1 9 2 8 3 7 4 6 5 5 6 4 7 2 8 1 9 3 10 11 11 12 12 13 13
REMARK SMILES IDX 14 14 15 15 16 16 17 17 18 18 19 19 20 20
REMARK H PARENT
REMARK Flexibility Score: inf
ROOT
ATOM      1  C   UNL     1       1.729   6.318  -2.994  1.00  0.00     0.000 C 
ENDROOT
BRANCH   1   2
ATOM      2  C   UNL     1       2.848   6.454  -4.038  1.00  0.00     0.000 C 
BRANCH   2   3
ATOM      3  C   UNL     1       4.253   6.346  -3.418  1.00  0.00     0.000 C 
BRANCH   3   4
ATOM      4  C   UNL     1       4.687   7.644  -2.715  1.00  0.00     0.000 C 
BRANCH   4   5
ATOM      5  C   UNL     1       5.048   7.419  -1.236  1.00  0.00     0.000 C 
BRANCH   5   6
ATOM      6  C   UNL     1       4.805   5.972  -0.780  1.00  0.00     0.006 C 
BRANCH   6   7
ATOM      7  C   UNL     1       5.243   5.725   0.669  1.00  0.00     0.053 C 
BRANCH   7   8
ATOM      8  C   UNL     1       6.513   4.933   0.701  1.00  0.00     0.041 C 
ATOM      9  O   UNL     1       6.501   3.731   1.075  1.00  0.00    -0.550 OA
ATOM     10  O   UNL     1       7.701   5.509   0.269  1.00  0.00    -0.550 OA
ENDBRANCH   7   8
ENDBRANCH   6   7
ENDBRANCH   5   6
ENDBRANCH   4   5
ENDBRANCH   3   4
ENDBRANCH   2   3
ENDBRANCH   1   2
BRANCH   1  11
ATOM     11  C   UNL     1       1.069   7.664  -2.653  1.00  0.00     0.000 C 
BRANCH  11  12
ATOM     12  C   UNL     1       0.406   7.613  -1.268  1.00  0.00     0.000 C 
BRANCH  12  13
ATOM     13  C   UNL     1       1.417   7.414  -0.124  1.00  0.00     0.000 C 
BRANCH  13  14
ATOM     14  C   UNL     1       0.996   6.388   0.944  1.00  0.00     0.000 C 
BRANCH  14  15
ATOM     15  C   UNL     1       0.666   7.034   2.298  1.00  0.00     0.000 C 
BRANCH  15  16
ATOM     16  C   UNL     1      -0.262   6.135   3.126  1.00  0.00     0.006 C 
BRANCH  16  17
ATOM     17  C   UNL     1       0.532   5.042   3.846  1.00  0.00     0.053 C 
BRANCH  17  18
ATOM     18  C   UNL     1      -0.114   3.707   3.646  1.00  0.00     0.041 C 
ATOM     19  O   UNL     1      -0.231   2.908   4.613  1.00  0.00    -0.550 OA
ATOM     20  O   UNL     1      -0.632   3.365   2.403  1.00  0.00    -0.550 OA
ENDBRANCH  17  18
ENDBRANCH  16  17
ENDBRANCH  15  16
ENDBRANCH  14  15
ENDBRANCH  13  14
ENDBRANCH  12  13
ENDBRANCH  11  12
ENDBRANCH   1  11
TORSDOF 15
ENDMDL
MODEL 3
REMARK VINA RESULT:    -4.060      3.006      5.984
REMARK INTER + INTRA:          -9.513
REMARK INTER:                  -7.925
REMARK INTRA:                  -1.587
REMARK UNBOUND:                -1.892
REMARK SMILES O=C([O-])CCCCCCCCCCCCCCC(=O)[O-]
REMARK SMILES IDX 10 1 9 2 8 3 7 4 6 5 5 6 4 7 2 8 1 9 3 10 11 11 12 12 13 13
REMARK SMILES IDX 14 14 15 15 16 16 17 17 18 18 19 19 20 20
REMARK H PARENT
REMARK Flexibility Score: inf
ROOT
ATOM      1  C   UNL     1       0.663   7.184  -2.070  1.00  0.00     0.000 C 
ENDROOT
BRANCH   1   2
ATOM      2  C   UNL     1       0.297   8.333  -1.117  1.00  0.00     0.000 C 
BRANCH   2   3
ATOM      3  C   UNL     1       0.678   8.035   0.345  1.00  0.00     0.000 C 
BRANCH   3   4
ATOM      4  C   UNL     1       1.264   6.625   0.524  1.00  0.00     0.000 C 
BRANCH   4   5
ATOM      5  C   UNL     1       1.750   6.368   1.962  1.00  0.00     0.000 C 
BRANCH   5   6
ATOM      6  C   UNL     1       0.787   5.477   2.762  1.00  0.00     0.006 C 
BRANCH   6   7
ATOM      7  C   UNL     1       1.457   4.200   3.286  1.00  0.00     0.053 C 
BRANCH   7   8
ATOM      8  C   UNL     1       2.313   4.511   4.474  1.00  0.00     0.041 C 
ATOM      9  O   UNL     1       1.787   4.696   5.603  1.00  0.00    -0.550 OA
ATOM     10  O   UNL     1       3.696   4.545   4.345  1.00  0.00    -0.550 OA
ENDBRANCH   7   8
ENDBRANCH   6   7
ENDBRANCH   5   6
ENDBRANCH   4   5
ENDBRANCH   3   4
ENDBRANCH   2   3
ENDBRANCH   1   2
BRANCH   1  11
ATOM     11  C   UNL     1       1.633   7.620  -3.179  1.00  0.00     0.000 C 
BRANCH  11  12
ATOM     12  C   UNL     1       2.366   6.408  -3.774  1.00  0.00     0.000 C 
BRANCH  12  13
ATOM     13  C   UNL     1       3.874   6.405  -3.464  1.00  0.00     0.000 C 
BRANCH  13  14
ATOM     14  C   UNL     1       4.257   6.985  -2.090  1.00  0.00     0.000 C 
BRANCH  14  15
ATOM     15  C   UNL     1       4.984   5.973  -1.193  1.00  0.00     0.000 C 
BRANCH  15  16
ATOM     16  C   UNL     1       5.152   6.519   0.231  1.00  0.00     0.006 C 
BRANCH  16  17
ATOM     17  C   UNL     1       5.214   5.379   1.251  1.00  0.00     0.053 C 
BRANCH  17  18
ATOM     18  C   UNL     1       6.449   4.559   1.047  1.00  0.00     0.041 C 
ATOM     19  O   UNL     1       6.366   3.309   0.921  1.00  0.00    -0.550 OA
ATOM     20  O   UNL     1       7.687   5.181   0.945  1.00  0.00    -0.550 OA
ENDBRANCH  17  18
ENDBRANCH  16  17
ENDBRANCH  15  16
ENDBRANCH  14  15
ENDBRANCH  13  14
ENDBRANCH  12  13
ENDBRANCH  11  12
ENDBRANCH   1  11
TORSDOF 15
ENDMDL
MODEL 4
REMARK VINA RESULT:    -4.052      2.503      5.563
REMARK INTER + INTRA:          -9.497
REMARK INTER:                  -7.895
REMARK INTRA:                  -1.603
REMARK UNBOUND:                -1.892
REMARK SMILES O=C([O-])CCCCCCCCCCCCCCC(=O)[O-]
REMARK SMILES IDX 10 1 9 2 8 3 7 4 6 5 5 6 4 7 2 8 1 9 3 10 11 11 12 12 13 13
REMARK SMILES IDX 14 14 15 15 16 16 17 17 18 18 19 19 20 20
REMARK H PARENT
REMARK Flexibility Score: inf
ROOT
ATOM      1  C   UNL     1       0.485   9.232  -2.454  1.00  0.00     0.000 C 
ENDROOT
BRANCH   1   2
ATOM      2  C   UNL     1      -0.362   8.263  -1.614  1.00  0.00     0.000 C 
BRANCH   2   3
ATOM      3  C   UNL     1      -0.489   8.706  -0.146  1.00  0.00     0.000 C 
BRANCH   3   4
ATOM      4  C   UNL     1       0.718   8.277   0.705  1.00  0.00     0.000 C 
BRANCH   4   5
ATOM      5  C   UNL     1       1.031   6.776   0.567  1.00  0.00     0.000 C 
BRANCH   5   6
ATOM      6  C   UNL     1       1.370   6.116   1.912  1.00  0.00     0.006 C 
BRANCH   6   7
ATOM      7  C   UNL     1       0.120   5.718   2.709  1.00  0.00     0.053 C 
BRANCH   7   8
ATOM      8  C   UNL     1       0.174   4.266   3.069  1.00  0.00     0.041 C 
ATOM      9  O   UNL     1       0.878   3.879   4.038  1.00  0.00    -0.550 OA
ATOM     10  O   UNL     1      -0.596   3.347   2.367  1.00  0.00    -0.550 OA
ENDBRANCH   7   8
ENDBRANCH   6   7
ENDBRANCH   5   6
ENDBRANCH   4   5
ENDBRANCH   3   4
ENDBRANCH   2   3
ENDBRANCH   1   2
BRANCH   1  11
ATOM     11  C   UNL     1       1.509   8.509  -3.342  1.00  0.00     0.000 C 
BRANCH  11  12
ATOM     12  C   UNL     1       1.362   6.985  -3.218  1.00  0.00     0.000 C 
BRANCH  12  13
ATOM     13  C   UNL     1       2.702   6.271  -2.965  1.00  0.00     0.000 C 
BRANCH  13  14
ATOM     14  C   UNL     1       3.658   7.003  -2.005  1.00  0.00     0.000 C 
BRANCH  14  15
ATOM     15  C   UNL     1       4.929   6.198  -1.695  1.00  0.00     0.000 C 
BRANCH  15  16
ATOM     16  C   UNL     1       5.662   6.772  -0.476  1.00  0.00     0.006 C 
BRANCH  16  17
ATOM     17  C   UNL     1       6.683   5.771   0.072  1.00  0.00     0.053 C 
BRANCH  17  18
ATOM     18  C   UNL     1       6.015   4.781   0.974  1.00  0.00     0.041 C 
ATOM     19  O   UNL     1       6.523   3.642   1.152  1.00  0.00    -0.550 OA
ATOM     20  O   UNL     1       4.858   5.134   1.656  1.00  0.00    -0.550 OA
ENDBRANCH  17  18
ENDBRANCH  16  17
ENDBRANCH  15  16
ENDBRANCH  14  15
ENDBRANCH  13  14
ENDBRANCH  12  13
ENDBRANCH  11  12
ENDBRANCH   1  11
TORSDOF 15
ENDMDL
MODEL 5
REMARK VINA RESULT:    -4.046      2.647      4.573
REMARK INTER + INTRA:          -9.486
REMARK INTER:                  -8.047
REMARK INTRA:                  -1.439
REMARK UNBOUND:                -1.892
REMARK SMILES O=C([O-])CCCCCCCCCCCCCCC(=O)[O-]
REMARK SMILES IDX 10 1 9 2 8 3 7 4 6 5 5 6 4 7 2 8 1 9 3 10 11 11 12 12 13 13
REMARK SMILES IDX 14 14 15 15 16 16 17 17 18 18 19 19 20 20
REMARK H PARENT
REMARK Flexibility Score: inf
ROOT
ATOM      1  C   UNL     1       1.435   8.336  -2.372  1.00  0.00     0.000 C 
ENDROOT
BRANCH   1   2
ATOM      2  C   UNL     1       1.007   6.873  -2.572  1.00  0.00     0.000 C 
BRANCH   2   3
ATOM      3  C   UNL     1       2.087   6.031  -3.275  1.00  0.00     0.000 C 
BRANCH   3   4
ATOM      4  C   UNL     1       3.435   6.765  -3.372  1.00  0.00     0.000 C 
BRANCH   4   5
ATOM      5  C   UNL     1       4.569   6.012  -2.652  1.00  0.00     0.000 C 
BRANCH   5   6
ATOM      6  C   UNL     1       4.597   6.288  -1.141  1.00  0.00     0.006 C 
BRANCH   6   7
ATOM      7  C   UNL     1       5.965   5.998  -0.510  1.00  0.00     0.053 C 
BRANCH   7   8
ATOM      8  C   UNL     1       5.821   5.032   0.624  1.00  0.00     0.041 C 
ATOM      9  O   UNL     1       6.638   4.084   0.757  1.00  0.00    -0.550 OA
ATOM     10  O   UNL     1       4.812   5.209   1.563  1.00  0.00    -0.550 OA
ENDBRANCH   7   8
ENDBRANCH   6   7
ENDBRANCH   5   6
ENDBRANCH   4   5
ENDBRANCH   3   4
ENDBRANCH   2   3
ENDBRANCH   1   2
BRANCH   1  11
ATOM     11  C   UNL     1       0.313   9.208  -1.787  1.00  0.00     0.000 C 
BRANCH  11  12
ATOM     12  C   UNL     1      -0.547   8.405  -0.799  1.00  0.00     0.000 C 
BRANCH  12  13
ATOM     13  C   UNL     1      -0.344   8.838   0.664  1.00  0.00     0.000 C 
BRANCH  13  14
ATOM     14  C   UNL     1       0.741   8.059   1.429  1.00  0.00     0.000 C 
BRANCH  14  15
ATOM     15  C   UNL     1       0.826   6.583   1.013  1.00  0.00     0.000 C 
BRANCH  15  16
ATOM     16  C   UNL     1       1.093   5.682   2.226  1.00  0.00     0.006 C 
BRANCH  16  17
ATOM     17  C   UNL     1      -0.196   5.425   3.012  1.00  0.00     0.053 C 
BRANCH  17  18
ATOM     18  C   UNL     1      -0.386   3.959   3.241  1.00  0.00     0.041 C 
ATOM     19  O   UNL     1      -0.788   3.217   2.306  1.00  0.00    -0.550 OA
ATOM     20  O   UNL     1      -0.070   3.402   4.474  1.00  0.00    -0.550 OA
ENDBRANCH  17  18
ENDBRANCH  16  17
ENDBRANCH  15  16
ENDBRANCH  14  15
ENDBRANCH  13  14
ENDBRANCH  12  13
ENDBRANCH  11  12
ENDBRANCH   1  11
TORSDOF 15
ENDMDL
MODEL 6
REMARK VINA RESULT:    -4.043      2.697      6.722
REMARK INTER + INTRA:          -9.480
REMARK INTER:                  -7.952
REMARK INTRA:                  -1.528
REMARK UNBOUND:                -1.892
REMARK SMILES O=C([O-])CCCCCCCCCCCCCCC(=O)[O-]
REMARK SMILES IDX 10 1 9 2 8 3 7 4 6 5 5 6 4 7 2 8 1 9 3 10 11 11 12 12 13 13
REMARK SMILES IDX 14 14 15 15 16 16 17 17 18 18 19 19 20 20
REMARK H PARENT
REMARK Flexibility Score: inf
ROOT
ATOM      1  C   UNL     1       0.128   9.112   0.550  1.00  0.00     0.000 C 
ENDROOT
BRANCH   1   2
ATOM      2  C   UNL     1       0.606   7.657   0.415  1.00  0.00     0.000 C 
BRANCH   2   3
ATOM      3  C   UNL     1       1.120   7.076   1.744  1.00  0.00     0.000 C 
BRANCH   3   4
ATOM      4  C   UNL     1       0.169   7.361   2.918  1.00  0.00     0.000 C 
BRANCH   4   5
ATOM      5  C   UNL     1      -0.504   6.084   3.453  1.00  0.00     0.000 C 
BRANCH   5   6
ATOM      6  C   UNL     1       0.206   4.802   2.991  1.00  0.00     0.006 C 
BRANCH   6   7
ATOM      7  C   UNL     1       0.345   3.763   4.111  1.00  0.00     0.053 C 
BRANCH   7   8
ATOM      8  C   UNL     1       1.264   4.268   5.179  1.00  0.00     0.041 C 
ATOM      9  O   UNL     1       0.831   4.471   6.344  1.00  0.00    -0.550 OA
ATOM     10  O   UNL     1       2.610   4.467   4.900  1.00  0.00    -0.550 OA
ENDBRANCH   7   8
ENDBRANCH   6   7
ENDBRANCH   5   6
ENDBRANCH   4   5
ENDBRANCH   3   4
ENDBRANCH   2   3
ENDBRANCH   1   2
BRANCH   1  11
ATOM     11  C   UNL     1      -0.834   9.527  -0.573  1.00  0.00     0.000 C 
BRANCH  11  12
ATOM     12  C   UNL     1      -0.535   8.753  -1.866  1.00  0.00     0.000 C 
BRANCH  12  13
ATOM     13  C   UNL     1       0.417   9.506  -2.812  1.00  0.00     0.000 C 
BRANCH  13  14
ATOM     14  C   UNL     1       1.797   8.851  -3.004  1.00  0.00     0.000 C 
BRANCH  14  15
ATOM     15  C   UNL     1       1.740   7.567  -3.844  1.00  0.00     0.000 C 
BRANCH  15  16
ATOM     16  C   UNL     1       2.144   6.344  -3.009  1.00  0.00     0.006 C 
BRANCH  16  17
ATOM     17  C   UNL     1       3.258   6.699  -2.021  1.00  0.00     0.053 C 
BRANCH  17  18
ATOM     18  C   UNL     1       4.525   5.990  -2.383  1.00  0.00     0.041 C 
ATOM     19  O   UNL     1       4.922   5.973  -3.579  1.00  0.00    -0.550 OA
ATOM     20  O   UNL     1       5.295   5.392  -1.393  1.00  0.00    -0.550 OA
ENDBRANCH  17  18
ENDBRANCH  16  17
ENDBRANCH  15  16
ENDBRANCH  14  15
ENDBRANCH  13  14
ENDBRANCH  12  13
ENDBRANCH  11  12
ENDBRANCH   1  11
TORSDOF 15
ENDMDL
MODEL 7
REMARK VINA RESULT:    -3.986      3.010      4.456
REMARK INTER + INTRA:          -9.374
REMARK INTER:                  -8.011
REMARK INTRA:                  -1.363
REMARK UNBOUND:                -1.892
REMARK SMILES O=C([O-])CCCCCCCCCCCCCCC(=O)[O-]
REMARK SMILES IDX 10 1 9 2 8 3 7 4 6 5 5 6 4 7 2 8 1 9 3 10 11 11 12 12 13 13
REMARK SMILES IDX 14 14 15 15 16 16 17 17 18 18 19 19 20 20
REMARK H PARENT
REMARK Flexibility Score: inf
ROOT
ATOM      1  C   UNL     1       0.772   6.945  -2.045  1.00  0.00     0.000 C 
ENDROOT
BRANCH   1   2
ATOM      2  C   UNL     1       1.603   6.091  -3.016  1.00  0.00     0.000 C 
BRANCH   2   3
ATOM      3  C   UNL     1       2.697   6.903  -3.731  1.00  0.00     0.000 C 
BRANCH   3   4
ATOM      4  C   UNL     1       4.064   6.198  -3.706  1.00  0.00     0.000 C 
BRANCH   4   5
ATOM      5  C   UNL     1       4.943   6.660  -2.530  1.00  0.00     0.000 C 
BRANCH   5   6
ATOM      6  C   UNL     1       5.096   5.581  -1.447  1.00  0.00     0.006 C 
BRANCH   6   7
ATOM      7  C   UNL     1       5.620   6.144  -0.119  1.00  0.00     0.053 C 
BRANCH   7   8
ATOM      8  C   UNL     1       5.922   5.031   0.835  1.00  0.00     0.041 C 
ATOM      9  O   UNL     1       6.998   4.386   0.737  1.00  0.00    -0.550 OA
ATOM     10  O   UNL     1       5.036   4.740   1.866  1.00  0.00    -0.550 OA
ENDBRANCH   7   8
ENDBRANCH   6   7
ENDBRANCH   5   6
ENDBRANCH   4   5
ENDBRANCH   3   4
ENDBRANCH   2   3
ENDBRANCH   1   2
BRANCH   1  11
ATOM     11  C   UNL     1       1.617   7.992  -1.303  1.00  0.00     0.000 C 
BRANCH  11  12
ATOM     12  C   UNL     1       2.078   7.459   0.061  1.00  0.00     0.000 C 
BRANCH  12  13
ATOM     13  C   UNL     1       0.907   7.068   0.981  1.00  0.00     0.000 C 
BRANCH  13  14
ATOM     14  C   UNL     1       1.225   5.965   2.007  1.00  0.00     0.000 C 
BRANCH  14  15
ATOM     15  C   UNL     1      -0.007   5.518   2.807  1.00  0.00     0.000 C 
BRANCH  15  16
ATOM     16  C   UNL     1      -0.000   3.999   3.026  1.00  0.00     0.006 C 
BRANCH  16  17
ATOM     17  C   UNL     1      -0.148   3.658   4.512  1.00  0.00     0.053 C 
BRANCH  17  18
ATOM     18  C   UNL     1       0.754   4.520   5.339  1.00  0.00     0.041 C 
ATOM     19  O   UNL     1       0.268   5.349   6.152  1.00  0.00    -0.550 OA
ATOM     20  O   UNL     1       2.133   4.371   5.247  1.00  0.00    -0.550 OA
ENDBRANCH  17  18
ENDBRANCH  16  17
ENDBRANCH  15  16
ENDBRANCH  14  15
ENDBRANCH  13  14
ENDBRANCH  12  13
ENDBRANCH  11  12
ENDBRANCH   1  11
TORSDOF 15
ENDMDL
MODEL 8
REMARK VINA RESULT:    -3.944      2.816      6.231
REMARK INTER + INTRA:          -9.294
REMARK INTER:                  -7.471
REMARK INTRA:                  -1.823
REMARK UNBOUND:                -1.892
REMARK SMILES O=C([O-])CCCCCCCCCCCCCCC(=O)[O-]
REMARK SMILES IDX 10 1 9 2 8 3 7 4 6 5 5 6 4 7 2 8 1 9 3 10 11 11 12 12 13 13
REMARK SMILES IDX 14 14 15 15 16 16 17 17 18 18 19 19 20 20
REMARK H PARENT
REMARK Flexibility Score: inf
ROOT
ATOM      1  C   UNL     1       1.008   7.002  -0.443  1.00  0.00     0.000 C 
ENDROOT
BRANCH   1   2
ATOM      2  C   UNL     1       0.835   8.287   0.382  1.00  0.00     0.000 C 
BRANCH   2   3
ATOM      3  C   UNL     1       1.934   8.460   1.446  1.00  0.00     0.000 C 
BRANCH   3   4
ATOM      4  C   UNL     1       1.412   8.230   2.874  1.00  0.00     0.000 C 
BRANCH   4   5
ATOM      5  C   UNL     1      -0.104   7.966   2.911  1.00  0.00     0.000 C 
BRANCH   5   6
ATOM      6  C   UNL     1      -0.452   6.601   3.523  1.00  0.00     0.006 C 
BRANCH   6   7
ATOM      7  C   UNL     1       0.027   5.425   2.662  1.00  0.00     0.053 C 
BRANCH   7   8
ATOM      8  C   UNL     1      -0.401   4.126   3.270  1.00  0.00     0.041 C 
ATOM      9  O   UNL     1      -0.530   4.021   4.518  1.00  0.00    -0.550 OA
ATOM     10  O   UNL     1      -0.707   3.044   2.453  1.00  0.00    -0.550 OA
ENDBRANCH   7   8
ENDBRANCH   6   7
ENDBRANCH   5   6
ENDBRANCH   4   5
ENDBRANCH   3   4
ENDBRANCH   2   3
ENDBRANCH   1   2
BRANCH   1  11
ATOM     11  C   UNL     1       0.449   7.132  -1.868  1.00  0.00     0.000 C 
BRANCH  11  12
ATOM     12  C   UNL     1       1.343   6.396  -2.877  1.00  0.00     0.000 C 
BRANCH  12  13
ATOM     13  C   UNL     1       2.134   7.351  -3.789  1.00  0.00     0.000 C 
BRANCH  13  14
ATOM     14  C   UNL     1       2.082   8.834  -3.380  1.00  0.00     0.000 C 
BRANCH  14  15
ATOM     15  C   UNL     1       3.244   9.245  -2.463  1.00  0.00     0.000 C 
BRANCH  15  16
ATOM     16  C   UNL     1       4.428   8.281  -2.609  1.00  0.00     0.006 C 
BRANCH  16  17
ATOM     17  C   UNL     1       4.756   7.609  -1.272  1.00  0.00     0.053 C 
BRANCH  17  18
ATOM     18  C   UNL     1       5.064   6.159  -1.476  1.00  0.00     0.041 C 
ATOM     19  O   UNL     1       5.311   5.419  -0.488  1.00  0.00    -0.550 OA
ATOM     20  O   UNL     1       5.028   5.614  -2.753  1.00  0.00    -0.550 OA
ENDBRANCH  17  18
ENDBRANCH  16  17
ENDBRANCH  15  16
ENDBRANCH  14  15
ENDBRANCH  13  14
ENDBRANCH  12  13
ENDBRANCH  11  12
ENDBRANCH   1  11
TORSDOF 15
ENDMDL
MODEL 9
REMARK VINA RESULT:    -3.861      1.187      2.227
REMARK INTER + INTRA:          -9.139
REMARK INTER:                  -6.913
REMARK INTRA:                  -2.226
REMARK UNBOUND:                -1.892
REMARK SMILES O=C([O-])CCCCCCCCCCCCCCC(=O)[O-]
REMARK SMILES IDX 10 1 9 2 8 3 7 4 6 5 5 6 4 7 2 8 1 9 3 10 11 11 12 12 13 13
REMARK SMILES IDX 14 14 15 15 16 16 17 17 18 18 19 19 20 20
REMARK H PARENT
REMARK Flexibility Score: inf
ROOT
ATOM      1  C   UNL     1       5.024   5.998  -2.236  1.00  0.00     0.000 C 
ENDROOT
BRANCH   1   2
ATOM      2  C   UNL     1       4.186   6.971  -3.082  1.00  0.00     0.000 C 
BRANCH   2   3
ATOM      3  C   UNL     1       2.953   6.299  -3.712  1.00  0.00     0.000 C 
BRANCH   3   4
ATOM      4  C   UNL     1       1.753   7.254  -3.819  1.00  0.00     0.000 C 
BRANCH   4   5
ATOM      5  C   UNL     1       2.061   8.652  -3.253  1.00  0.00     0.000 C 
BRANCH   5   6
ATOM      6  C   UNL     1       0.837   9.307  -2.595  1.00  0.00     0.006 C 
BRANCH   6   7
ATOM      7  C   UNL     1      -0.176   8.280  -2.071  1.00  0.00     0.053 C 
BRANCH   7   8
ATOM      8  C   UNL     1      -1.216   8.954  -1.233  1.00  0.00     0.041 C 
ATOM      9  O   UNL     1      -0.965   9.262  -0.038  1.00  0.00    -0.550 OA
ATOM     10  O   UNL     1      -2.445   9.290  -1.787  1.00  0.00    -0.550 OA
ENDBRANCH   7   8
ENDBRANCH   6   7
ENDBRANCH   5   6
ENDBRANCH   4   5
ENDBRANCH   3   4
ENDBRANCH   2   3
ENDBRANCH   1   2
BRANCH   1  11
ATOM     11  C   UNL     1       5.596   6.653  -0.970  1.00  0.00     0.000 C 
BRANCH  11  12
ATOM     12  C   UNL     1       4.988   8.046  -0.751  1.00  0.00     0.000 C 
BRANCH  12  13
ATOM     13  C   UNL     1       4.223   8.166   0.580  1.00  0.00     0.000 C 
BRANCH  13  14
ATOM     14  C   UNL     1       2.689   8.178   0.449  1.00  0.00     0.000 C 
BRANCH  14  15
ATOM     15  C   UNL     1       2.100   6.789   0.164  1.00  0.00     0.000 C 
BRANCH  15  16
ATOM     16  C   UNL     1       0.862   6.527   1.030  1.00  0.00     0.006 C 
BRANCH  16  17
ATOM     17  C   UNL     1       1.242   6.413   2.509  1.00  0.00     0.053 C 
BRANCH  17  18
ATOM     18  C   UNL     1       0.617   5.197   3.119  1.00  0.00     0.041 C 
ATOM     19  O   UNL     1       0.840   4.057   2.631  1.00  0.00    -0.550 OA
ATOM     20  O   UNL     1      -0.171   5.317   4.256  1.00  0.00    -0.550 OA
ENDBRANCH  17  18
ENDBRANCH  16  17
ENDBRANCH  15  16
ENDBRANCH  14  15
ENDBRANCH  13  14
ENDBRANCH  12  13
ENDBRANCH  11  12
ENDBRANCH   1  11
TORSDOF 15
ENDMDL
