MODEL 1
REMARK VINA RESULT:    -3.905      0.000      0.000
REMARK INTER + INTRA:          -4.877
REMARK INTER:                  -4.589
REMARK INTRA:                  -0.288
REMARK UNBOUND:                -0.288
REMARK SMILES O=c1cc(-c2ccc(O)c(O)c2)oc2cc(O)cc(O)c12
REMARK SMILES IDX 4 1 3 2 2 3 1 4 21 5 19 6 18 7 16 8 15 9 14 10 13 11 5 12
REMARK SMILES IDX 6 13 7 14 8 15 12 16 10 17 9 18 11 20 20 22 17 24
REMARK H PARENT 9 19 11 21 20 23 17 25
REMARK Flexibility Score: inf
ROOT
ATOM      1  C   UNL     1      -6.813  20.951  19.811  1.00  0.00     0.138 A 
ATOM      2  C   UNL     1      -5.488  20.503  19.675  1.00  0.00     0.100 A 
ATOM      3  C   UNL     1      -4.952  20.322  18.399  1.00  0.00     0.197 A 
ATOM      4  O   UNL     1      -3.762  19.921  18.288  1.00  0.00    -0.289 OA
ATOM      5  C   UNL     1      -5.744  20.594  17.267  1.00  0.00     0.107 A 
ATOM      6  C   UNL     1      -5.278  20.436  15.939  1.00  0.00     0.134 A 
ATOM      7  C   UNL     1      -6.130  20.734  14.865  1.00  0.00     0.093 A 
ATOM      8  C   UNL     1      -7.432  21.186  15.090  1.00  0.00     0.123 A 
ATOM      9  C   UNL     1      -7.898  21.344  16.400  1.00  0.00     0.094 A 
ATOM     10  C   UNL     1      -7.065  21.052  17.485  1.00  0.00     0.146 A 
ATOM     11  O   UNL     1      -7.532  21.208  18.720  1.00  0.00    -0.456 OA
ENDROOT
BRANCH   1  12
ATOM     12  C   UNL     1      -7.435  21.162  21.142  1.00  0.00     0.021 A 
ATOM     13  C   UNL     1      -8.471  22.096  21.335  1.00  0.00     0.016 A 
ATOM     14  C   UNL     1      -9.031  22.282  22.601  1.00  0.00     0.051 A 
ATOM     15  C   UNL     1      -8.562  21.546  23.698  1.00  0.00     0.157 A 
ATOM     16  C   UNL     1      -6.960  20.438  22.250  1.00  0.00     0.062 A 
ATOM     17  C   UNL     1      -7.521  20.621  23.520  1.00  0.00     0.158 A 
BRANCH  15  18
ATOM     18  O   UNL     1      -9.125  21.733  24.959  1.00  0.00    -0.504 OA
ATOM     19  H   UNL     1      -9.574  22.604  25.217  1.00  0.00     0.293 HD
ENDBRANCH  15  18
BRANCH  17  20
ATOM     20  O   UNL     1      -7.028  19.876  24.592  1.00  0.00    -0.504 OA
ATOM     21  H   UNL     1      -7.018  18.865  24.583  1.00  0.00     0.293 HD
ENDBRANCH  17  20
ENDBRANCH   1  12
BRANCH   6  22
ATOM     22  O   UNL     1      -3.983  19.987  15.683  1.00  0.00    -0.507 OA
ATOM     23  H   UNL     1      -3.258  20.614  15.352  1.00  0.00     0.293 HD
ENDBRANCH   6  22
BRANCH   8  24
ATOM     24  O   UNL     1      -8.256  21.474  14.006  1.00  0.00    -0.508 OA
ATOM     25  H   UNL     1      -8.153  20.995  13.118  1.00  0.00     0.293 HD
ENDBRANCH   8  24
TORSDOF 5
ENDMDL
MODEL 2
REMARK VINA RESULT:    -2.580      2.938      7.046
REMARK INTER + INTRA:          -3.320
REMARK INTER:                  -3.031
REMARK INTRA:                  -0.290
REMARK UNBOUND:                -0.288
REMARK SMILES O=c1cc(-c2ccc(O)c(O)c2)oc2cc(O)cc(O)c12
REMARK SMILES IDX 4 1 3 2 2 3 1 4 21 5 19 6 18 7 16 8 15 9 14 10 13 11 5 12
REMARK SMILES IDX 6 13 7 14 8 15 12 16 10 17 9 18 11 20 20 22 17 24
REMARK H PARENT 9 19 11 21 20 23 17 25
REMARK Flexibility Score: inf
ROOT
ATOM      1  C   UNL     1      -4.136  20.477  16.753  1.00  0.00     0.138 A 
ATOM      2  C   UNL     1      -4.831  20.662  15.545  1.00  0.00     0.100 A 
ATOM      3  C   UNL     1      -6.226  20.653  15.547  1.00  0.00     0.197 A 
ATOM      4  O   UNL     1      -6.840  20.821  14.459  1.00  0.00    -0.289 OA
ATOM      5  C   UNL     1      -6.919  20.461  16.759  1.00  0.00     0.107 A 
ATOM      6  C   UNL     1      -8.332  20.437  16.849  1.00  0.00     0.134 A 
ATOM      7  C   UNL     1      -8.944  20.246  18.096  1.00  0.00     0.093 A 
ATOM      8  C   UNL     1      -8.176  20.081  19.251  1.00  0.00     0.123 A 
ATOM      9  C   UNL     1      -6.780  20.105  19.168  1.00  0.00     0.094 A 
ATOM     10  C   UNL     1      -6.149  20.293  17.935  1.00  0.00     0.146 A 
ATOM     11  O   UNL     1      -4.821  20.308  17.882  1.00  0.00    -0.456 OA
ENDROOT
BRANCH   1  12
ATOM     12  C   UNL     1      -2.653  20.479  16.811  1.00  0.00     0.021 A 
ATOM     13  C   UNL     1      -1.953  19.875  17.873  1.00  0.00     0.016 A 
ATOM     14  C   UNL     1      -0.557  19.902  17.907  1.00  0.00     0.051 A 
ATOM     15  C   UNL     1       0.165  20.538  16.888  1.00  0.00     0.157 A 
ATOM     16  C   UNL     1      -1.922  21.127  15.799  1.00  0.00     0.062 A 
ATOM     17  C   UNL     1      -0.523  21.154  15.830  1.00  0.00     0.158 A 
BRANCH  15  18
ATOM     18  O   UNL     1       1.558  20.560  16.924  1.00  0.00    -0.504 OA
ATOM     19  H   UNL     1       2.099  19.716  17.072  1.00  0.00     0.293 HD
ENDBRANCH  15  18
BRANCH  17  20
ATOM     20  O   UNL     1       0.165  21.799  14.803  1.00  0.00    -0.504 OA
ATOM     21  H   UNL     1       0.220  22.808  14.743  1.00  0.00     0.293 HD
ENDBRANCH  17  20
ENDBRANCH   1  12
BRANCH   6  22
ATOM     22  O   UNL     1      -9.125  20.600  15.713  1.00  0.00    -0.507 OA
ATOM     23  H   UNL     1      -8.781  20.376  14.786  1.00  0.00     0.293 HD
ENDBRANCH   6  22
BRANCH   8  24
ATOM     24  O   UNL     1      -8.811  19.894  20.476  1.00  0.00    -0.508 OA
ATOM     25  H   UNL     1      -8.725  19.026  20.991  1.00  0.00     0.293 HD
ENDBRANCH   8  24
TORSDOF 5
ENDMDL
MODEL 3
REMARK VINA RESULT:    -2.370     13.780     17.637
REMARK INTER + INTRA:          -3.074
REMARK INTER:                  -2.756
REMARK INTRA:                  -0.318
REMARK UNBOUND:                -0.288
REMARK SMILES O=c1cc(-c2ccc(O)c(O)c2)oc2cc(O)cc(O)c12
REMARK SMILES IDX 4 1 3 2 2 3 1 4 21 5 19 6 18 7 16 8 15 9 14 10 13 11 5 12
REMARK SMILES IDX 6 13 7 14 8 15 12 16 10 17 9 18 11 20 20 22 17 24
REMARK H PARENT 9 19 11 21 20 23 17 25
REMARK Flexibility Score: inf
ROOT
ATOM      1  C   UNL     1       8.666  20.885  12.751  1.00  0.00     0.138 A 
ATOM      2  C   UNL     1       9.424  21.367  13.832  1.00  0.00     0.100 A 
ATOM      3  C   UNL     1       8.834  21.469  15.093  1.00  0.00     0.197 A 
ATOM      4  O   UNL     1       9.523  21.901  16.056  1.00  0.00    -0.289 OA
ATOM      5  C   UNL     1       7.489  21.086  15.265  1.00  0.00     0.107 A 
ATOM      6  C   UNL     1       6.815  21.160  16.507  1.00  0.00     0.134 A 
ATOM      7  C   UNL     1       5.476  20.753  16.595  1.00  0.00     0.093 A 
ATOM      8  C   UNL     1       4.800  20.275  15.471  1.00  0.00     0.123 A 
ATOM      9  C   UNL     1       5.461  20.200  14.240  1.00  0.00     0.094 A 
ATOM     10  C   UNL     1       6.796  20.601  14.130  1.00  0.00     0.146 A 
ATOM     11  O   UNL     1       7.401  20.522  12.950  1.00  0.00    -0.456 OA
ENDROOT
BRANCH   1  12
ATOM     12  C   UNL     1       9.242  20.753  11.389  1.00  0.00     0.021 A 
ATOM     13  C   UNL     1      10.612  20.960  11.142  1.00  0.00     0.016 A 
ATOM     14  C   UNL     1      11.125  20.839   9.847  1.00  0.00     0.051 A 
ATOM     15  C   UNL     1      10.278  20.518   8.778  1.00  0.00     0.157 A 
ATOM     16  C   UNL     1       8.397  20.445  10.308  1.00  0.00     0.062 A 
ATOM     17  C   UNL     1       8.907  20.322   9.011  1.00  0.00     0.158 A 
BRANCH  15  18
ATOM     18  O   UNL     1      10.794  20.397   7.489  1.00  0.00    -0.504 OA
ATOM     19  H   UNL     1      11.792  20.408   7.312  1.00  0.00     0.293 HD
ENDBRANCH  15  18
BRANCH  17  20
ATOM     20  O   UNL     1       8.037  20.006   7.967  1.00  0.00    -0.504 OA
ATOM     21  H   UNL     1       7.975  20.571   7.130  1.00  0.00     0.293 HD
ENDBRANCH  17  20
ENDBRANCH   1  12
BRANCH   6  22
ATOM     22  O   UNL     1       7.465  21.632  17.648  1.00  0.00    -0.507 OA
ATOM     23  H   UNL     1       6.950  21.941  18.465  1.00  0.00     0.293 HD
ENDBRANCH   6  22
BRANCH   8  24
ATOM     24  O   UNL     1       3.470  19.877  15.586  1.00  0.00    -0.508 OA
ATOM     25  H   UNL     1       2.727  20.358  15.092  1.00  0.00     0.293 HD
ENDBRANCH   8  24
TORSDOF 5
ENDMDL
MODEL 4
REMARK VINA RESULT:    -2.201      3.052      6.915
REMARK INTER + INTRA:          -2.875
REMARK INTER:                  -2.566
REMARK INTRA:                  -0.309
REMARK UNBOUND:                -0.288
REMARK SMILES O=c1cc(-c2ccc(O)c(O)c2)oc2cc(O)cc(O)c12
REMARK SMILES IDX 4 1 3 2 2 3 1 4 21 5 19 6 18 7 16 8 15 9 14 10 13 11 5 12
REMARK SMILES IDX 6 13 7 14 8 15 12 16 10 17 9 18 11 20 20 22 17 24
REMARK H PARENT 9 19 11 21 20 23 17 25
REMARK Flexibility Score: inf
ROOT
ATOM      1  C   UNL     1      -3.747  20.421  17.374  1.00  0.00     0.138 A 
ATOM      2  C   UNL     1      -4.160  20.177  18.694  1.00  0.00     0.100 A 
ATOM      3  C   UNL     1      -5.523  20.096  18.983  1.00  0.00     0.197 A 
ATOM      4  O   UNL     1      -5.884  19.875  20.171  1.00  0.00    -0.289 OA
ATOM      5  C   UNL     1      -6.464  20.257  17.948  1.00  0.00     0.107 A 
ATOM      6  C   UNL     1      -7.863  20.191  18.155  1.00  0.00     0.134 A 
ATOM      7  C   UNL     1      -8.735  20.358  17.068  1.00  0.00     0.093 A 
ATOM      8  C   UNL     1      -8.237  20.587  15.783  1.00  0.00     0.123 A 
ATOM      9  C   UNL     1      -6.855  20.652  15.573  1.00  0.00     0.094 A 
ATOM     10  C   UNL     1      -5.970  20.490  16.642  1.00  0.00     0.146 A 
ATOM     11  O   UNL     1      -4.662  20.559  16.417  1.00  0.00    -0.456 OA
ENDROOT
BRANCH   1  12
ATOM     12  C   UNL     1      -2.311  20.515  17.008  1.00  0.00     0.021 A 
ATOM     13  C   UNL     1      -1.311  19.875  17.765  1.00  0.00     0.016 A 
ATOM     14  C   UNL     1       0.034  19.990  17.403  1.00  0.00     0.051 A 
ATOM     15  C   UNL     1       0.404  20.750  16.286  1.00  0.00     0.157 A 
ATOM     16  C   UNL     1      -1.930  21.288  15.897  1.00  0.00     0.062 A 
ATOM     17  C   UNL     1      -0.584  21.403  15.531  1.00  0.00     0.158 A 
BRANCH  15  18
ATOM     18  O   UNL     1       1.746  20.860  15.927  1.00  0.00    -0.504 OA
ATOM     19  H   UNL     1       2.354  21.554  16.348  1.00  0.00     0.293 HD
ENDBRANCH  15  18
BRANCH  17  20
ATOM     20  O   UNL     1      -0.248  22.171  14.416  1.00  0.00    -0.504 OA
ATOM     21  H   UNL     1       0.639  22.654  14.344  1.00  0.00     0.293 HD
ENDBRANCH  17  20
ENDBRANCH   1  12
BRANCH   6  22
ATOM     22  O   UNL     1      -8.390  19.964  19.427  1.00  0.00    -0.507 OA
ATOM     23  H   UNL     1      -8.013  19.250  20.040  1.00  0.00     0.293 HD
ENDBRANCH   6  22
BRANCH   8  24
ATOM     24  O   UNL     1      -9.124  20.748  14.722  1.00  0.00    -0.508 OA
ATOM     25  H   UNL     1      -9.141  21.597  14.168  1.00  0.00     0.293 HD
ENDBRANCH   8  24
TORSDOF 5
ENDMDL
MODEL 5
REMARK VINA RESULT:    -0.964     12.117     14.599
REMARK INTER + INTRA:          -1.421
REMARK INTER:                  -1.138
REMARK INTRA:                  -0.283
REMARK UNBOUND:                -0.288
REMARK SMILES O=c1cc(-c2ccc(O)c(O)c2)oc2cc(O)cc(O)c12
REMARK SMILES IDX 4 1 3 2 2 3 1 4 21 5 19 6 18 7 16 8 15 9 14 10 13 11 5 12
REMARK SMILES IDX 6 13 7 14 8 15 12 16 10 17 9 18 11 20 20 22 17 24
REMARK H PARENT 9 19 11 21 20 23 17 25
REMARK Flexibility Score: inf
ROOT
ATOM      1  C   UNL     1       6.299  20.348  14.582  1.00  0.00     0.138 A 
ATOM      2  C   UNL     1       7.518  20.305  15.279  1.00  0.00     0.100 A 
ATOM      3  C   UNL     1       8.712  20.175  14.567  1.00  0.00     0.197 A 
ATOM      4  O   UNL     1       9.800  20.138  15.202  1.00  0.00    -0.289 OA
ATOM      5  C   UNL     1       8.678  20.092  13.162  1.00  0.00     0.107 A 
ATOM      6  C   UNL     1       9.841  19.957  12.365  1.00  0.00     0.134 A 
ATOM      7  C   UNL     1       9.721  19.886  10.969  1.00  0.00     0.093 A 
ATOM      8  C   UNL     1       8.468  19.948  10.356  1.00  0.00     0.123 A 
ATOM      9  C   UNL     1       7.316  20.081  11.138  1.00  0.00     0.094 A 
ATOM     10  C   UNL     1       7.413  20.152  12.531  1.00  0.00     0.146 A 
ATOM     11  O   UNL     1       6.303  20.276  13.252  1.00  0.00    -0.456 OA
ENDROOT
BRANCH   1  12
ATOM     12  C   UNL     1       4.999  20.486  15.285  1.00  0.00     0.021 A 
ATOM     13  C   UNL     1       3.823  19.889  14.793  1.00  0.00     0.016 A 
ATOM     14  C   UNL     1       2.612  20.045  15.471  1.00  0.00     0.051 A 
ATOM     15  C   UNL     1       2.550  20.806  16.646  1.00  0.00     0.157 A 
ATOM     16  C   UNL     1       4.926  21.261  16.457  1.00  0.00     0.062 A 
ATOM     17  C   UNL     1       3.714  21.418  17.139  1.00  0.00     0.158 A 
BRANCH  15  18
ATOM     18  O   UNL     1       1.340  20.958  17.319  1.00  0.00    -0.504 OA
ATOM     19  H   UNL     1       1.028  21.863  17.655  1.00  0.00     0.293 HD
ENDBRANCH  15  18
BRANCH  17  20
ATOM     20  O   UNL     1       3.686  22.186  18.303  1.00  0.00    -0.504 OA
ATOM     21  H   UNL     1       4.147  23.085  18.365  1.00  0.00     0.293 HD
ENDBRANCH  17  20
ENDBRANCH   1  12
BRANCH   6  22
ATOM     22  O   UNL     1      11.106  19.893  12.949  1.00  0.00    -0.507 OA
ATOM     23  H   UNL     1      11.574  20.722  13.299  1.00  0.00     0.293 HD
ENDBRANCH   6  22
BRANCH   8  24
ATOM     24  O   UNL     1       8.378  19.876   8.968  1.00  0.00    -0.508 OA
ATOM     25  H   UNL     1       7.505  19.655   8.504  1.00  0.00     0.293 HD
ENDBRANCH   8  24
TORSDOF 5
ENDMDL
