MODEL 1
REMARK VINA RESULT:    -5.358      0.000      0.000
REMARK INTER + INTRA:          -5.671
REMARK INTER:                  -5.671
REMARK INTRA:                   0.000
REMARK UNBOUND:                 0.000
REMARK SMILES O=c1ccc2cc(O)c(O)cc2o1
REMARK SMILES IDX 4 1 3 2 2 3 1 4 13 5 12 6 11 7 9 8 7 9 6 10 5 11 8 12 10 14
REMARK H PARENT 8 13 10 15
REMARK Flexibility Score: inf
ROOT
ATOM      1  C   UNL     1      14.694   7.031  14.277  1.00  0.00     0.019 A 
ATOM      2  C   UNL     1      14.366   5.945  13.465  1.00  0.00     0.094 A 
ATOM      3  C   UNL     1      15.037   4.732  13.652  1.00  0.00     0.336 A 
ATOM      4  O   UNL     1      14.756   3.741  12.929  1.00  0.00    -0.246 OA
ATOM      5  O   UNL     1      15.975   4.618  14.589  1.00  0.00    -0.423 OA
ATOM      6  C   UNL     1      16.318   5.629  15.385  1.00  0.00     0.142 A 
ATOM      7  C   UNL     1      17.310   5.451  16.353  1.00  0.00     0.098 A 
ATOM      8  C   UNL     1      17.676   6.512  17.196  1.00  0.00     0.161 A 
ATOM      9  C   UNL     1      17.042   7.761  17.064  1.00  0.00     0.158 A 
ATOM     10  C   UNL     1      16.048   7.943  16.095  1.00  0.00     0.062 A 
ATOM     11  C   UNL     1      15.682   6.883  15.255  1.00  0.00     0.022 A 
ENDROOT
BRANCH   9  12
ATOM     12  O   UNL     1      17.387   8.833  17.887  1.00  0.00    -0.504 OA
ATOM     13  H   UNL     1      17.037   9.770  17.727  1.00  0.00     0.293 HD
ENDBRANCH   9  12
BRANCH   8  14
ATOM     14  O   UNL     1      18.666   6.330  18.160  1.00  0.00    -0.504 OA
ATOM     15  H   UNL     1      19.253   5.504  18.168  1.00  0.00     0.293 HD
ENDBRANCH   8  14
TORSDOF 2
ENDMDL
MODEL 2
REMARK VINA RESULT:    -5.346     15.380     15.817
REMARK INTER + INTRA:          -5.659
REMARK INTER:                  -5.659
REMARK INTRA:                   0.000
REMARK UNBOUND:                 0.000
REMARK SMILES O=c1ccc2cc(O)c(O)cc2o1
REMARK SMILES IDX 4 1 3 2 2 3 1 4 13 5 12 6 11 7 9 8 7 9 6 10 5 11 8 12 10 14
REMARK H PARENT 8 13 10 15
REMARK Flexibility Score: inf
ROOT
ATOM      1  C   UNL     1      13.027  -8.758  16.239  1.00  0.00     0.019 A 
ATOM      2  C   UNL     1      12.895  -8.892  17.620  1.00  0.00     0.094 A 
ATOM      3  C   UNL     1      14.035  -9.152  18.388  1.00  0.00     0.336 A 
ATOM      4  O   UNL     1      13.937  -9.276  19.636  1.00  0.00    -0.246 OA
ATOM      5  O   UNL     1      15.227  -9.271  17.806  1.00  0.00    -0.423 OA
ATOM      6  C   UNL     1      15.396  -9.150  16.492  1.00  0.00     0.142 A 
ATOM      7  C   UNL     1      16.672  -9.285  15.937  1.00  0.00     0.098 A 
ATOM      8  C   UNL     1      16.858  -9.158  14.551  1.00  0.00     0.161 A 
ATOM      9  C   UNL     1      15.755  -8.896  13.718  1.00  0.00     0.158 A 
ATOM     10  C   UNL     1      14.476  -8.762  14.271  1.00  0.00     0.062 A 
ATOM     11  C   UNL     1      14.291  -8.887  15.654  1.00  0.00     0.022 A 
ENDROOT
BRANCH   9  12
ATOM     12  O   UNL     1      15.912  -8.767  12.338  1.00  0.00    -0.504 OA
ATOM     13  H   UNL     1      15.136  -8.872  11.695  1.00  0.00     0.293 HD
ENDBRANCH   9  12
BRANCH   8  14
ATOM     14  O   UNL     1      18.132  -9.293  14.002  1.00  0.00    -0.504 OA
ATOM     15  H   UNL     1      18.805  -8.536  14.030  1.00  0.00     0.293 HD
ENDBRANCH   8  14
TORSDOF 2
ENDMDL
MODEL 3
REMARK VINA RESULT:    -5.344      2.380      2.781
REMARK INTER + INTRA:          -5.657
REMARK INTER:                  -5.657
REMARK INTRA:                   0.000
REMARK UNBOUND:                 0.000
REMARK SMILES O=c1ccc2cc(O)c(O)cc2o1
REMARK SMILES IDX 4 1 3 2 2 3 1 4 13 5 12 6 11 7 9 8 7 9 6 10 5 11 8 12 10 14
REMARK H PARENT 8 13 10 15
REMARK Flexibility Score: inf
ROOT
ATOM      1  C   UNL     1      13.552   7.259  15.833  1.00  0.00     0.019 A 
ATOM      2  C   UNL     1      13.699   7.554  14.479  1.00  0.00     0.094 A 
ATOM      3  C   UNL     1      14.939   8.003  14.013  1.00  0.00     0.336 A 
ATOM      4  O   UNL     1      15.091   8.275  12.793  1.00  0.00    -0.246 OA
ATOM      5  O   UNL     1      15.962   8.146  14.852  1.00  0.00    -0.423 OA
ATOM      6  C   UNL     1      15.865   7.875  16.151  1.00  0.00     0.142 A 
ATOM      7  C   UNL     1      16.975   8.043  16.985  1.00  0.00     0.098 A 
ATOM      8  C   UNL     1      16.879   7.759  18.356  1.00  0.00     0.161 A 
ATOM      9  C   UNL     1      15.662   7.303  18.893  1.00  0.00     0.158 A 
ATOM     10  C   UNL     1      14.549   7.133  18.061  1.00  0.00     0.062 A 
ATOM     11  C   UNL     1      14.644   7.417  16.692  1.00  0.00     0.022 A 
ENDROOT
BRANCH   9  12
ATOM     12  O   UNL     1      15.539   7.014  20.253  1.00  0.00    -0.504 OA
ATOM     13  H   UNL     1      14.770   7.365  20.811  1.00  0.00     0.293 HD
ENDBRANCH   9  12
BRANCH   8  14
ATOM     14  O   UNL     1      17.988   7.928  19.184  1.00  0.00    -0.504 OA
ATOM     15  H   UNL     1      17.905   7.900  20.193  1.00  0.00     0.293 HD
ENDBRANCH   8  14
TORSDOF 2
ENDMDL
MODEL 4
REMARK VINA RESULT:    -5.244     12.819     14.465
REMARK INTER + INTRA:          -5.551
REMARK INTER:                  -5.551
REMARK INTRA:                   0.000
REMARK UNBOUND:                 0.000
REMARK SMILES O=c1ccc2cc(O)c(O)cc2o1
REMARK SMILES IDX 4 1 3 2 2 3 1 4 13 5 12 6 11 7 9 8 7 9 6 10 5 11 8 12 10 14
REMARK H PARENT 8 13 10 15
REMARK Flexibility Score: inf
ROOT
ATOM      1  C   UNL     1      13.811  -8.191  18.209  1.00  0.00     0.019 A 
ATOM      2  C   UNL     1      13.347  -7.082  18.916  1.00  0.00     0.094 A 
ATOM      3  C   UNL     1      14.070  -5.886  18.851  1.00  0.00     0.336 A 
ATOM      4  O   UNL     1      13.668  -4.874  19.483  1.00  0.00    -0.246 OA
ATOM      5  O   UNL     1      15.183  -5.810  18.125  1.00  0.00    -0.423 OA
ATOM      6  C   UNL     1      15.659  -6.844  17.436  1.00  0.00     0.142 A 
ATOM      7  C   UNL     1      16.834  -6.705  16.690  1.00  0.00     0.098 A 
ATOM      8  C   UNL     1      17.341  -7.791  15.960  1.00  0.00     0.161 A 
ATOM      9  C   UNL     1      16.665  -9.025  15.979  1.00  0.00     0.158 A 
ATOM     10  C   UNL     1      15.489  -9.167  16.725  1.00  0.00     0.062 A 
ATOM     11  C   UNL     1      14.982  -8.082  17.453  1.00  0.00     0.022 A 
ENDROOT
BRANCH   9  12
ATOM     12  O   UNL     1      17.149 -10.120  15.263  1.00  0.00    -0.504 OA
ATOM     13  H   UNL     1      18.132 -10.231  15.048  1.00  0.00     0.293 HD
ENDBRANCH   9  12
BRANCH   8  14
ATOM     14  O   UNL     1      18.512  -7.648  15.218  1.00  0.00    -0.504 OA
ATOM     15  H   UNL     1      18.492  -7.372  14.243  1.00  0.00     0.293 HD
ENDBRANCH   8  14
TORSDOF 2
ENDMDL
MODEL 5
REMARK VINA RESULT:    -5.154     14.875     15.568
REMARK INTER + INTRA:          -5.455
REMARK INTER:                  -5.455
REMARK INTRA:                   0.000
REMARK UNBOUND:                 0.000
REMARK SMILES O=c1ccc2cc(O)c(O)cc2o1
REMARK SMILES IDX 4 1 3 2 2 3 1 4 13 5 12 6 11 7 9 8 7 9 6 10 5 11 8 12 10 14
REMARK H PARENT 8 13 10 15
REMARK Flexibility Score: inf
ROOT
ATOM      1  C   UNL     1      14.883  -9.278  17.718  1.00  0.00     0.019 A 
ATOM      2  C   UNL     1      13.607  -8.976  18.193  1.00  0.00     0.094 A 
ATOM      3  C   UNL     1      12.669  -8.428  17.312  1.00  0.00     0.336 A 
ATOM      4  O   UNL     1      11.512  -8.148  17.721  1.00  0.00    -0.246 OA
ATOM      5  O   UNL     1      12.991  -8.199  16.041  1.00  0.00    -0.423 OA
ATOM      6  C   UNL     1      14.196  -8.473  15.548  1.00  0.00     0.142 A 
ATOM      7  C   UNL     1      14.478  -8.211  14.204  1.00  0.00     0.098 A 
ATOM      8  C   UNL     1      15.747  -8.498  13.678  1.00  0.00     0.161 A 
ATOM      9  C   UNL     1      16.740  -9.051  14.506  1.00  0.00     0.158 A 
ATOM     10  C   UNL     1      16.461  -9.314  15.853  1.00  0.00     0.062 A 
ATOM     11  C   UNL     1      15.194  -9.029  16.378  1.00  0.00     0.022 A 
ENDROOT
BRANCH   9  12
ATOM     12  O   UNL     1      18.010  -9.345  14.009  1.00  0.00    -0.504 OA
ATOM     13  H   UNL     1      18.149  -9.733  13.084  1.00  0.00     0.293 HD
ENDBRANCH   9  12
BRANCH   8  14
ATOM     14  O   UNL     1      16.023  -8.236  12.337  1.00  0.00    -0.504 OA
ATOM     15  H   UNL     1      16.731  -8.754  11.829  1.00  0.00     0.293 HD
ENDBRANCH   8  14
TORSDOF 2
ENDMDL
MODEL 6
REMARK VINA RESULT:    -5.153      2.088      2.919
REMARK INTER + INTRA:          -5.455
REMARK INTER:                  -5.455
REMARK INTRA:                   0.000
REMARK UNBOUND:                 0.000
REMARK SMILES O=c1ccc2cc(O)c(O)cc2o1
REMARK SMILES IDX 4 1 3 2 2 3 1 4 13 5 12 6 11 7 9 8 7 9 6 10 5 11 8 12 10 14
REMARK H PARENT 8 13 10 15
REMARK Flexibility Score: inf
ROOT
ATOM      1  C   UNL     1      14.686   5.673  13.562  1.00  0.00     0.019 A 
ATOM      2  C   UNL     1      14.417   6.806  12.794  1.00  0.00     0.094 A 
ATOM      3  C   UNL     1      15.085   7.999  13.089  1.00  0.00     0.336 A 
ATOM      4  O   UNL     1      14.857   9.032  12.408  1.00  0.00    -0.246 OA
ATOM      5  O   UNL     1      15.964   8.050  14.088  1.00  0.00    -0.423 OA
ATOM      6  C   UNL     1      16.249   6.993  14.844  1.00  0.00     0.142 A 
ATOM      7  C   UNL     1      17.181   7.106  15.880  1.00  0.00     0.098 A 
ATOM      8  C   UNL     1      17.487   5.995  16.681  1.00  0.00     0.161 A 
ATOM      9  C   UNL     1      16.853   4.763  16.441  1.00  0.00     0.158 A 
ATOM     10  C   UNL     1      15.919   4.646  15.405  1.00  0.00     0.062 A 
ATOM     11  C   UNL     1      15.614   5.755  14.604  1.00  0.00     0.022 A 
ENDROOT
BRANCH   9  12
ATOM     12  O   UNL     1      17.138   3.643  17.224  1.00  0.00    -0.504 OA
ATOM     13  H   UNL     1      16.413   3.014  17.547  1.00  0.00     0.293 HD
ENDBRANCH   9  12
BRANCH   8  14
ATOM     14  O   UNL     1      18.417   6.113  17.713  1.00  0.00    -0.504 OA
ATOM     15  H   UNL     1      18.662   7.014  18.107  1.00  0.00     0.293 HD
ENDBRANCH   8  14
TORSDOF 2
ENDMDL
MODEL 7
REMARK VINA RESULT:    -5.131      2.805      4.703
REMARK INTER + INTRA:          -5.431
REMARK INTER:                  -5.431
REMARK INTRA:                   0.000
REMARK UNBOUND:                 0.000
REMARK SMILES O=c1ccc2cc(O)c(O)cc2o1
REMARK SMILES IDX 4 1 3 2 2 3 1 4 13 5 12 6 11 7 9 8 7 9 6 10 5 11 8 12 10 14
REMARK H PARENT 8 13 10 15
REMARK Flexibility Score: inf
ROOT
ATOM      1  C   UNL     1      16.024   6.930  19.274  1.00  0.00     0.019 A 
ATOM      2  C   UNL     1      14.832   7.247  19.924  1.00  0.00     0.094 A 
ATOM      3  C   UNL     1      13.758   7.733  19.172  1.00  0.00     0.336 A 
ATOM      4  O   UNL     1      12.674   8.026  19.739  1.00  0.00    -0.246 OA
ATOM      5  O   UNL     1      13.875   7.890  17.855  1.00  0.00    -0.423 OA
ATOM      6  C   UNL     1      14.994   7.599  17.196  1.00  0.00     0.142 A 
ATOM      7  C   UNL     1      15.058   7.784  15.812  1.00  0.00     0.098 A 
ATOM      8  C   UNL     1      16.235   7.478  15.111  1.00  0.00     0.161 A 
ATOM      9  C   UNL     1      17.355   6.985  15.804  1.00  0.00     0.158 A 
ATOM     10  C   UNL     1      17.294   6.799  17.191  1.00  0.00     0.062 A 
ATOM     11  C   UNL     1      16.119   7.103  17.891  1.00  0.00     0.022 A 
ENDROOT
BRANCH   9  12
ATOM     12  O   UNL     1      18.538   6.675  15.132  1.00  0.00    -0.504 OA
ATOM     13  H   UNL     1      18.870   5.722  15.037  1.00  0.00     0.293 HD
ENDBRANCH   9  12
BRANCH   8  14
ATOM     14  O   UNL     1      16.295   7.664  13.731  1.00  0.00    -0.504 OA
ATOM     15  H   UNL     1      15.714   8.350  13.262  1.00  0.00     0.293 HD
ENDBRANCH   8  14
TORSDOF 2
ENDMDL
MODEL 8
REMARK VINA RESULT:    -5.117      2.332      2.807
REMARK INTER + INTRA:          -5.416
REMARK INTER:                  -5.416
REMARK INTRA:                   0.000
REMARK UNBOUND:                 0.000
REMARK SMILES O=c1ccc2cc(O)c(O)cc2o1
REMARK SMILES IDX 4 1 3 2 2 3 1 4 13 5 12 6 11 7 9 8 7 9 6 10 5 11 8 12 10 14
REMARK H PARENT 8 13 10 15
REMARK Flexibility Score: inf
ROOT
ATOM      1  C   UNL     1      15.811   8.007  14.870  1.00  0.00     0.019 A 
ATOM      2  C   UNL     1      14.677   7.769  14.094  1.00  0.00     0.094 A 
ATOM      3  C   UNL     1      13.514   7.306  14.717  1.00  0.00     0.336 A 
ATOM      4  O   UNL     1      12.480   7.085  14.035  1.00  0.00    -0.246 OA
ATOM      5  O   UNL     1      13.492   7.095  16.032  1.00  0.00    -0.423 OA
ATOM      6  C   UNL     1      14.551   7.310  16.808  1.00  0.00     0.142 A 
ATOM      7  C   UNL     1      14.469   7.071  18.183  1.00  0.00     0.098 A 
ATOM      8  C   UNL     1      15.582   7.295  19.008  1.00  0.00     0.161 A 
ATOM      9  C   UNL     1      16.786   7.762  18.448  1.00  0.00     0.158 A 
ATOM     10  C   UNL     1      16.871   8.001  17.071  1.00  0.00     0.062 A 
ATOM     11  C   UNL     1      15.759   7.778  16.248  1.00  0.00     0.022 A 
ENDROOT
BRANCH   9  12
ATOM     12  O   UNL     1      17.908   7.992  19.245  1.00  0.00    -0.504 OA
ATOM     13  H   UNL     1      18.787   8.312  18.858  1.00  0.00     0.293 HD
ENDBRANCH   9  12
BRANCH   8  14
ATOM     14  O   UNL     1      15.496   7.056  20.379  1.00  0.00    -0.504 OA
ATOM     15  H   UNL     1      15.531   6.116  20.756  1.00  0.00     0.293 HD
ENDBRANCH   8  14
TORSDOF 2
ENDMDL
MODEL 9
REMARK VINA RESULT:    -5.107     12.717     14.195
REMARK INTER + INTRA:          -5.405
REMARK INTER:                  -5.405
REMARK INTRA:                   0.000
REMARK UNBOUND:                 0.000
REMARK SMILES O=c1ccc2cc(O)c(O)cc2o1
REMARK SMILES IDX 4 1 3 2 2 3 1 4 13 5 12 6 11 7 9 8 7 9 6 10 5 11 8 12 10 14
REMARK H PARENT 8 13 10 15
REMARK Flexibility Score: inf
ROOT
ATOM      1  C   UNL     1      14.711  -9.187  18.486  1.00  0.00     0.019 A 
ATOM      2  C   UNL     1      13.555  -9.003  19.243  1.00  0.00     0.094 A 
ATOM      3  C   UNL     1      13.029  -7.714  19.376  1.00  0.00     0.336 A 
ATOM      4  O   UNL     1      11.986  -7.527  20.055  1.00  0.00    -0.246 OA
ATOM      5  O   UNL     1      13.627  -6.679  18.789  1.00  0.00    -0.423 OA
ATOM      6  C   UNL     1      14.731  -6.810  18.059  1.00  0.00     0.142 A 
ATOM      7  C   UNL     1      15.315  -5.687  17.466  1.00  0.00     0.098 A 
ATOM      8  C   UNL     1      16.479  -5.819  16.693  1.00  0.00     0.161 A 
ATOM      9  C   UNL     1      17.062  -7.087  16.516  1.00  0.00     0.158 A 
ATOM     10  C   UNL     1      16.480  -8.214  17.109  1.00  0.00     0.062 A 
ATOM     11  C   UNL     1      15.317  -8.082  17.880  1.00  0.00     0.022 A 
ENDROOT
BRANCH   9  12
ATOM     12  O   UNL     1      18.220  -7.246  15.755  1.00  0.00    -0.504 OA
ATOM     13  H   UNL     1      18.332  -8.007  15.097  1.00  0.00     0.293 HD
ENDBRANCH   9  12
BRANCH   8  14
ATOM     14  O   UNL     1      17.058  -4.696  16.104  1.00  0.00    -0.504 OA
ATOM     15  H   UNL     1      17.527  -4.750  15.207  1.00  0.00     0.293 HD
ENDBRANCH   8  14
TORSDOF 2
ENDMDL
