MODEL 1
REMARK VINA RESULT:    -4.312      0.000      0.000
REMARK INTER + INTRA:         -10.619
REMARK INTER:                  -8.344
REMARK INTRA:                  -2.274
REMARK UNBOUND:                -2.274
REMARK SMILES CCCCCCCCCCCCCCCCCC(=O)[O-]
REMARK SMILES IDX 10 1 11 2 12 3 13 4 14 5 15 6 16 7 17 8 18 9 19 10 20 11
REMARK SMILES IDX 9 12 8 13 7 14 6 15 5 16 4 17 3 18 2 19 1 20
REMARK H PARENT
REMARK Flexibility Score: inf
ROOT
ATOM      1  C   UNL     1     -46.350 -33.077  40.078  1.00  0.00     0.000 C 
ENDROOT
BRANCH   1   2
ATOM      2  C   UNL     1     -47.130 -33.723  38.920  1.00  0.00     0.000 C 
BRANCH   2   3
ATOM      3  C   UNL     1     -46.710 -33.177  37.546  1.00  0.00     0.000 C 
BRANCH   3   4
ATOM      4  C   UNL     1     -45.212 -33.361  37.262  1.00  0.00     0.000 C 
BRANCH   4   5
ATOM      5  C   UNL     1     -44.954 -34.683  36.526  1.00  0.00     0.000 C 
BRANCH   5   6
ATOM      6  C   UNL     1     -44.405 -35.783  37.448  1.00  0.00     0.000 C 
BRANCH   6   7
ATOM      7  C   UNL     1     -45.084 -37.142  37.222  1.00  0.00     0.006 C 
BRANCH   7   8
ATOM      8  C   UNL     1     -46.608 -37.013  37.316  1.00  0.00     0.053 C 
BRANCH   8   9
ATOM      9  C   UNL     1     -47.083 -37.379  38.687  1.00  0.00     0.041 C 
ATOM     10  O   UNL     1     -48.308 -37.571  38.902  1.00  0.00    -0.550 OA
ATOM     11  O   UNL     1     -46.166 -37.552  39.717  1.00  0.00    -0.550 OA
ENDBRANCH   8   9
ENDBRANCH   7   8
ENDBRANCH   6   7
ENDBRANCH   5   6
ENDBRANCH   4   5
ENDBRANCH   3   4
ENDBRANCH   2   3
ENDBRANCH   1   2
BRANCH   1  12
ATOM     12  C   UNL     1     -45.519 -34.094  40.882  1.00  0.00     0.000 C 
BRANCH  12  13
ATOM     13  C   UNL     1     -43.993 -33.982  40.707  1.00  0.00    -0.000 C 
BRANCH  13  14
ATOM     14  C   UNL     1     -43.546 -32.589  40.230  1.00  0.00    -0.000 C 
BRANCH  14  15
ATOM     15  C   UNL     1     -42.142 -32.595  39.599  1.00  0.00    -0.000 C 
BRANCH  15  16
ATOM     16  C   UNL     1     -41.615 -33.989  39.205  1.00  0.00    -0.000 C 
BRANCH  16  17
ATOM     17  C   UNL     1     -40.146 -33.987  38.725  1.00  0.00    -0.000 C 
BRANCH  17  18
ATOM     18  C   UNL     1     -39.598 -35.398  38.434  1.00  0.00    -0.000 C 
BRANCH  18  19
ATOM     19  C   UNL     1     -39.578 -35.756  36.936  1.00  0.00    -0.003 C 
ATOM     20  C   UNL     1     -40.920 -35.506  36.250  1.00  0.00     0.004 C 
ENDBRANCH  18  19
ENDBRANCH  17  18
ENDBRANCH  16  17
ENDBRANCH  15  16
ENDBRANCH  14  15
ENDBRANCH  13  14
ENDBRANCH  12  13
ENDBRANCH   1  12
TORSDOF 16
ENDMDL
MODEL 2
REMARK VINA RESULT:    -4.162      1.277      2.080
REMARK INTER + INTRA:         -10.329
REMARK INTER:                  -8.479
REMARK INTRA:                  -1.850
REMARK UNBOUND:                -2.274
REMARK SMILES CCCCCCCCCCCCCCCCCC(=O)[O-]
REMARK SMILES IDX 10 1 11 2 12 3 13 4 14 5 15 6 16 7 17 8 18 9 19 10 20 11
REMARK SMILES IDX 9 12 8 13 7 14 6 15 5 16 4 17 3 18 2 19 1 20
REMARK H PARENT
REMARK Flexibility Score: inf
ROOT
ATOM      1  C   UNL     1     -45.571 -32.406  37.490  1.00  0.00     0.000 C 
ENDROOT
BRANCH   1   2
ATOM      2  C   UNL     1     -45.963 -33.867  37.213  1.00  0.00     0.000 C 
BRANCH   2   3
ATOM      3  C   UNL     1     -44.844 -34.660  36.519  1.00  0.00     0.000 C 
BRANCH   3   4
ATOM      4  C   UNL     1     -44.339 -35.841  37.361  1.00  0.00     0.000 C 
BRANCH   4   5
ATOM      5  C   UNL     1     -44.745 -37.178  36.724  1.00  0.00     0.000 C 
BRANCH   5   6
ATOM      6  C   UNL     1     -46.170 -37.610  37.103  1.00  0.00     0.000 C 
BRANCH   6   7
ATOM      7  C   UNL     1     -46.482 -37.388  38.590  1.00  0.00     0.006 C 
BRANCH   7   8
ATOM      8  C   UNL     1     -47.994 -37.319  38.826  1.00  0.00     0.053 C 
BRANCH   8   9
ATOM      9  C   UNL     1     -48.289 -37.087  40.275  1.00  0.00     0.041 C 
ATOM     10  O   UNL     1     -47.423 -37.356  41.148  1.00  0.00    -0.550 OA
ATOM     11  O   UNL     1     -49.505 -36.532  40.657  1.00  0.00    -0.550 OA
ENDBRANCH   8   9
ENDBRANCH   7   8
ENDBRANCH   6   7
ENDBRANCH   5   6
ENDBRANCH   4   5
ENDBRANCH   3   4
ENDBRANCH   2   3
ENDBRANCH   1   2
BRANCH   1  12
ATOM     12  C   UNL     1     -45.714 -32.016  38.973  1.00  0.00     0.000 C 
BRANCH  12  13
ATOM     13  C   UNL     1     -44.563 -32.476  39.887  1.00  0.00    -0.000 C 
BRANCH  13  14
ATOM     14  C   UNL     1     -43.424 -31.447  39.979  1.00  0.00    -0.000 C 
BRANCH  14  15
ATOM     15  C   UNL     1     -42.099 -31.968  39.392  1.00  0.00    -0.000 C 
BRANCH  15  16
ATOM     16  C   UNL     1     -42.143 -33.421  38.884  1.00  0.00    -0.000 C 
BRANCH  16  17
ATOM     17  C   UNL     1     -40.794 -34.167  39.008  1.00  0.00    -0.000 C 
BRANCH  17  18
ATOM     18  C   UNL     1     -39.997 -34.206  37.689  1.00  0.00    -0.000 C 
BRANCH  18  19
ATOM     19  C   UNL     1     -39.920 -35.607  37.054  1.00  0.00    -0.003 C 
ATOM     20  C   UNL     1     -41.010 -35.842  36.009  1.00  0.00     0.004 C 
ENDBRANCH  18  19
ENDBRANCH  17  18
ENDBRANCH  16  17
ENDBRANCH  15  16
ENDBRANCH  14  15
ENDBRANCH  13  14
ENDBRANCH  12  13
ENDBRANCH   1  12
TORSDOF 16
ENDMDL
MODEL 3
REMARK VINA RESULT:    -4.092      2.707      4.666
REMARK INTER + INTRA:         -10.193
REMARK INTER:                  -7.744
REMARK INTRA:                  -2.449
REMARK UNBOUND:                -2.274
REMARK SMILES CCCCCCCCCCCCCCCCCC(=O)[O-]
REMARK SMILES IDX 10 1 11 2 12 3 13 4 14 5 15 6 16 7 17 8 18 9 19 10 20 11
REMARK SMILES IDX 9 12 8 13 7 14 6 15 5 16 4 17 3 18 2 19 1 20
REMARK H PARENT
REMARK Flexibility Score: inf
ROOT
ATOM      1  C   UNL     1     -45.988 -37.052  36.914  1.00  0.00     0.000 C 
ENDROOT
BRANCH   1   2
ATOM      2  C   UNL     1     -46.300 -37.732  38.258  1.00  0.00     0.000 C 
BRANCH   2   3
ATOM      3  C   UNL     1     -46.418 -36.729  39.416  1.00  0.00     0.000 C 
BRANCH   3   4
ATOM      4  C   UNL     1     -47.391 -35.579  39.115  1.00  0.00     0.000 C 
BRANCH   4   5
ATOM      5  C   UNL     1     -47.466 -34.604  40.299  1.00  0.00     0.000 C 
BRANCH   5   6
ATOM      6  C   UNL     1     -48.208 -33.303  39.953  1.00  0.00     0.000 C 
BRANCH   6   7
ATOM      7  C   UNL     1     -47.825 -32.750  38.572  1.00  0.00     0.006 C 
BRANCH   7   8
ATOM      8  C   UNL     1     -46.891 -31.544  38.706  1.00  0.00     0.053 C 
BRANCH   8   9
ATOM      9  C   UNL     1     -46.619 -30.938  37.364  1.00  0.00     0.041 C 
ATOM     10  O   UNL     1     -46.622 -31.660  36.333  1.00  0.00    -0.550 OA
ATOM     11  O   UNL     1     -46.408 -29.570  37.249  1.00  0.00    -0.550 OA
ENDBRANCH   8   9
ENDBRANCH   7   8
ENDBRANCH   6   7
ENDBRANCH   5   6
ENDBRANCH   4   5
ENDBRANCH   3   4
ENDBRANCH   2   3
ENDBRANCH   1   2
BRANCH   1  12
ATOM     12  C   UNL     1     -44.491 -37.099  36.552  1.00  0.00     0.000 C 
BRANCH  12  13
ATOM     13  C   UNL     1     -43.807 -35.727  36.406  1.00  0.00    -0.000 C 
BRANCH  13  14
ATOM     14  C   UNL     1     -44.704 -34.560  36.853  1.00  0.00    -0.000 C 
BRANCH  14  15
ATOM     15  C   UNL     1     -44.154 -33.821  38.087  1.00  0.00    -0.000 C 
BRANCH  15  16
ATOM     16  C   UNL     1     -43.283 -34.682  39.022  1.00  0.00    -0.000 C 
BRANCH  16  17
ATOM     17  C   UNL     1     -41.986 -33.981  39.486  1.00  0.00    -0.000 C 
BRANCH  17  18
ATOM     18  C   UNL     1     -40.946 -33.815  38.360  1.00  0.00    -0.000 C 
BRANCH  18  19
ATOM     19  C   UNL     1     -40.378 -35.149  37.841  1.00  0.00    -0.003 C 
ATOM     20  C   UNL     1     -39.289 -35.720  38.749  1.00  0.00     0.004 C 
ENDBRANCH  18  19
ENDBRANCH  17  18
ENDBRANCH  16  17
ENDBRANCH  15  16
ENDBRANCH  14  15
ENDBRANCH  13  14
ENDBRANCH  12  13
ENDBRANCH   1  12
TORSDOF 16
ENDMDL
MODEL 4
REMARK VINA RESULT:    -4.035      2.100      3.940
REMARK INTER + INTRA:         -10.084
REMARK INTER:                  -7.847
REMARK INTRA:                  -2.236
REMARK UNBOUND:                -2.274
REMARK SMILES CCCCCCCCCCCCCCCCCC(=O)[O-]
REMARK SMILES IDX 10 1 11 2 12 3 13 4 14 5 15 6 16 7 17 8 18 9 19 10 20 11
REMARK SMILES IDX 9 12 8 13 7 14 6 15 5 16 4 17 3 18 2 19 1 20
REMARK H PARENT
REMARK Flexibility Score: inf
ROOT
ATOM      1  C   UNL     1     -44.522 -37.354  36.528  1.00  0.00     0.000 C 
ENDROOT
BRANCH   1   2
ATOM      2  C   UNL     1     -45.662 -38.102  37.239  1.00  0.00     0.000 C 
BRANCH   2   3
ATOM      3  C   UNL     1     -46.841 -37.183  37.598  1.00  0.00     0.000 C 
BRANCH   3   4
ATOM      4  C   UNL     1     -47.491 -37.543  38.942  1.00  0.00     0.000 C 
BRANCH   4   5
ATOM      5  C   UNL     1     -46.569 -37.168  40.112  1.00  0.00     0.000 C 
BRANCH   5   6
ATOM      6  C   UNL     1     -46.279 -35.661  40.182  1.00  0.00     0.000 C 
BRANCH   6   7
ATOM      7  C   UNL     1     -47.557 -34.814  40.274  1.00  0.00     0.006 C 
BRANCH   7   8
ATOM      8  C   UNL     1     -47.618 -33.791  39.135  1.00  0.00     0.053 C 
BRANCH   8   9
ATOM      9  C   UNL     1     -48.573 -32.689  39.469  1.00  0.00     0.041 C 
ATOM     10  O   UNL     1     -49.216 -32.110  38.554  1.00  0.00    -0.550 OA
ATOM     11  O   UNL     1     -48.787 -32.332  40.795  1.00  0.00    -0.550 OA
ENDBRANCH   8   9
ENDBRANCH   7   8
ENDBRANCH   6   7
ENDBRANCH   5   6
ENDBRANCH   4   5
ENDBRANCH   3   4
ENDBRANCH   2   3
ENDBRANCH   1   2
BRANCH   1  12
ATOM     12  C   UNL     1     -44.673 -35.822  36.601  1.00  0.00     0.000 C 
BRANCH  12  13
ATOM     13  C   UNL     1     -43.738 -35.117  37.601  1.00  0.00    -0.000 C 
BRANCH  13  14
ATOM     14  C   UNL     1     -44.176 -33.676  37.916  1.00  0.00    -0.000 C 
BRANCH  14  15
ATOM     15  C   UNL     1     -43.593 -33.151  39.241  1.00  0.00    -0.000 C 
BRANCH  15  16
ATOM     16  C   UNL     1     -42.138 -32.653  39.156  1.00  0.00    -0.000 C 
BRANCH  16  17
ATOM     17  C   UNL     1     -41.100 -33.667  39.692  1.00  0.00    -0.000 C 
BRANCH  17  18
ATOM     18  C   UNL     1     -39.978 -33.981  38.684  1.00  0.00    -0.000 C 
BRANCH  18  19
ATOM     19  C   UNL     1     -39.974 -35.442  38.197  1.00  0.00    -0.003 C 
ATOM     20  C   UNL     1     -40.154 -35.561  36.685  1.00  0.00     0.004 C 
ENDBRANCH  18  19
ENDBRANCH  17  18
ENDBRANCH  16  17
ENDBRANCH  15  16
ENDBRANCH  14  15
ENDBRANCH  13  14
ENDBRANCH  12  13
ENDBRANCH   1  12
TORSDOF 16
ENDMDL
MODEL 5
REMARK VINA RESULT:    -4.014      2.410      6.189
REMARK INTER + INTRA:         -10.044
REMARK INTER:                  -8.129
REMARK INTRA:                  -1.914
REMARK UNBOUND:                -2.274
REMARK SMILES CCCCCCCCCCCCCCCCCC(=O)[O-]
REMARK SMILES IDX 10 1 11 2 12 3 13 4 14 5 15 6 16 7 17 8 18 9 19 10 20 11
REMARK SMILES IDX 9 12 8 13 7 14 6 15 5 16 4 17 3 18 2 19 1 20
REMARK H PARENT
REMARK Flexibility Score: inf
ROOT
ATOM      1  C   UNL     1     -44.701 -37.415  36.497  1.00  0.00     0.000 C 
ENDROOT
BRANCH   1   2
ATOM      2  C   UNL     1     -44.240 -35.948  36.488  1.00  0.00     0.000 C 
BRANCH   2   3
ATOM      3  C   UNL     1     -42.849 -35.759  37.114  1.00  0.00     0.000 C 
BRANCH   3   4
ATOM      4  C   UNL     1     -41.749 -35.530  36.066  1.00  0.00     0.000 C 
BRANCH   4   5
ATOM      5  C   UNL     1     -40.385 -35.330  36.742  1.00  0.00     0.000 C 
BRANCH   5   6
ATOM      6  C   UNL     1     -40.480 -35.290  38.275  1.00  0.00     0.000 C 
BRANCH   6   7
ATOM      7  C   UNL     1     -39.819 -34.041  38.878  1.00  0.00     0.006 C 
BRANCH   7   8
ATOM      8  C   UNL     1     -40.628 -32.783  38.548  1.00  0.00     0.053 C 
BRANCH   8   9
ATOM      9  C   UNL     1     -41.947 -32.806  39.255  1.00  0.00     0.041 C 
ATOM     10  O   UNL     1     -42.002 -33.077  40.483  1.00  0.00    -0.550 OA
ATOM     11  O   UNL     1     -43.111 -32.485  38.566  1.00  0.00    -0.550 OA
ENDBRANCH   8   9
ENDBRANCH   7   8
ENDBRANCH   6   7
ENDBRANCH   5   6
ENDBRANCH   4   5
ENDBRANCH   3   4
ENDBRANCH   2   3
ENDBRANCH   1   2
BRANCH   1  12
ATOM     12  C   UNL     1     -45.669 -37.733  37.652  1.00  0.00     0.000 C 
BRANCH  12  13
ATOM     13  C   UNL     1     -46.956 -36.888  37.682  1.00  0.00    -0.000 C 
BRANCH  13  14
ATOM     14  C   UNL     1     -47.583 -36.801  39.085  1.00  0.00    -0.000 C 
BRANCH  14  15
ATOM     15  C   UNL     1     -47.533 -35.380  39.674  1.00  0.00    -0.000 C 
BRANCH  15  16
ATOM     16  C   UNL     1     -46.249 -34.590  39.354  1.00  0.00    -0.000 C 
BRANCH  16  17
ATOM     17  C   UNL     1     -46.508 -33.131  38.913  1.00  0.00    -0.000 C 
BRANCH  17  18
ATOM     18  C   UNL     1     -46.432 -32.933  37.387  1.00  0.00    -0.000 C 
BRANCH  18  19
ATOM     19  C   UNL     1     -47.609 -32.124  36.809  1.00  0.00    -0.003 C 
ATOM     20  C   UNL     1     -48.630 -31.726  37.874  1.00  0.00     0.004 C 
ENDBRANCH  18  19
ENDBRANCH  17  18
ENDBRANCH  16  17
ENDBRANCH  15  16
ENDBRANCH  14  15
ENDBRANCH  13  14
ENDBRANCH  12  13
ENDBRANCH   1  12
TORSDOF 16
ENDMDL
MODEL 6
REMARK VINA RESULT:    -4.008      7.316      9.790
REMARK INTER + INTRA:         -10.032
REMARK INTER:                  -7.022
REMARK INTRA:                  -3.010
REMARK UNBOUND:                -2.274
REMARK SMILES CCCCCCCCCCCCCCCCCC(=O)[O-]
REMARK SMILES IDX 10 1 11 2 12 3 13 4 14 5 15 6 16 7 17 8 18 9 19 10 20 11
REMARK SMILES IDX 9 12 8 13 7 14 6 15 5 16 4 17 3 18 2 19 1 20
REMARK H PARENT
REMARK Flexibility Score: inf
ROOT
ATOM      1  C   UNL     1     -40.601 -24.444  42.086  1.00  0.00     0.000 C 
ENDROOT
BRANCH   1   2
ATOM      2  C   UNL     1     -39.323 -24.552  41.237  1.00  0.00     0.000 C 
BRANCH   2   3
ATOM      3  C   UNL     1     -39.362 -25.733  40.255  1.00  0.00     0.000 C 
BRANCH   3   4
ATOM      4  C   UNL     1     -38.565 -26.950  40.750  1.00  0.00     0.000 C 
BRANCH   4   5
ATOM      5  C   UNL     1     -39.510 -28.066  41.220  1.00  0.00     0.000 C 
BRANCH   5   6
ATOM      6  C   UNL     1     -40.792 -28.156  40.378  1.00  0.00     0.000 C 
BRANCH   6   7
ATOM      7  C   UNL     1     -41.894 -28.981  41.060  1.00  0.00     0.006 C 
BRANCH   7   8
ATOM      8  C   UNL     1     -43.107 -29.138  40.139  1.00  0.00     0.053 C 
BRANCH   8   9
ATOM      9  C   UNL     1     -43.039 -30.436  39.398  1.00  0.00     0.041 C 
ATOM     10  O   UNL     1     -42.448 -30.501  38.288  1.00  0.00    -0.550 OA
ATOM     11  O   UNL     1     -43.591 -31.585  39.954  1.00  0.00    -0.550 OA
ENDBRANCH   8   9
ENDBRANCH   7   8
ENDBRANCH   6   7
ENDBRANCH   5   6
ENDBRANCH   4   5
ENDBRANCH   3   4
ENDBRANCH   2   3
ENDBRANCH   1   2
BRANCH   1  12
ATOM     12  C   UNL     1     -41.876 -24.302  41.234  1.00  0.00     0.000 C 
BRANCH  12  13
ATOM     13  C   UNL     1     -42.928 -25.409  41.438  1.00  0.00    -0.000 C 
BRANCH  13  14
ATOM     14  C   UNL     1     -43.925 -25.510  40.271  1.00  0.00    -0.000 C 
BRANCH  14  15
ATOM     15  C   UNL     1     -43.363 -24.942  38.955  1.00  0.00    -0.000 C 
BRANCH  15  16
ATOM     16  C   UNL     1     -42.675 -25.977  38.044  1.00  0.00    -0.000 C 
BRANCH  16  17
ATOM     17  C   UNL     1     -41.439 -25.426  37.297  1.00  0.00    -0.000 C 
BRANCH  17  18
ATOM     18  C   UNL     1     -41.152 -23.943  37.605  1.00  0.00    -0.000 C 
BRANCH  18  19
ATOM     19  C   UNL     1     -39.729 -23.496  37.222  1.00  0.00    -0.003 C 
ATOM     20  C   UNL     1     -39.134 -22.503  38.220  1.00  0.00     0.004 C 
ENDBRANCH  18  19
ENDBRANCH  17  18
ENDBRANCH  16  17
ENDBRANCH  15  16
ENDBRANCH  14  15
ENDBRANCH  13  14
ENDBRANCH  12  13
ENDBRANCH   1  12
TORSDOF 16
ENDMDL
MODEL 7
REMARK VINA RESULT:    -4.002      3.000      5.242
REMARK INTER + INTRA:         -10.020
REMARK INTER:                  -7.339
REMARK INTRA:                  -2.681
REMARK UNBOUND:                -2.274
REMARK SMILES CCCCCCCCCCCCCCCCCC(=O)[O-]
REMARK SMILES IDX 10 1 11 2 12 3 13 4 14 5 15 6 16 7 17 8 18 9 19 10 20 11
REMARK SMILES IDX 9 12 8 13 7 14 6 15 5 16 4 17 3 18 2 19 1 20
REMARK H PARENT
REMARK Flexibility Score: inf
ROOT
ATOM      1  C   UNL     1     -47.128 -37.603  38.943  1.00  0.00     0.000 C 
ENDROOT
BRANCH   1   2
ATOM      2  C   UNL     1     -46.707 -36.871  37.657  1.00  0.00     0.000 C 
BRANCH   2   3
ATOM      3  C   UNL     1     -45.584 -37.600  36.902  1.00  0.00     0.000 C 
BRANCH   3   4
ATOM      4  C   UNL     1     -44.371 -36.699  36.623  1.00  0.00     0.000 C 
BRANCH   4   5
ATOM      5  C   UNL     1     -44.786 -35.221  36.580  1.00  0.00     0.000 C 
BRANCH   5   6
ATOM      6  C   UNL     1     -44.042 -34.364  37.616  1.00  0.00     0.000 C 
BRANCH   6   7
ATOM      7  C   UNL     1     -42.820 -35.078  38.212  1.00  0.00     0.006 C 
BRANCH   7   8
ATOM      8  C   UNL     1     -42.032 -34.139  39.130  1.00  0.00     0.053 C 
BRANCH   8   9
ATOM      9  C   UNL     1     -40.831 -33.597  38.420  1.00  0.00     0.041 C 
ATOM     10  O   UNL     1     -40.017 -34.381  37.866  1.00  0.00    -0.550 OA
ATOM     11  O   UNL     1     -40.636 -32.224  38.333  1.00  0.00    -0.550 OA
ENDBRANCH   8   9
ENDBRANCH   7   8
ENDBRANCH   6   7
ENDBRANCH   5   6
ENDBRANCH   4   5
ENDBRANCH   3   4
ENDBRANCH   2   3
ENDBRANCH   1   2
BRANCH   1  12
ATOM     12  C   UNL     1     -47.084 -36.699  40.189  1.00  0.00     0.000 C 
BRANCH  12  13
ATOM     13  C   UNL     1     -45.715 -36.610  40.889  1.00  0.00    -0.000 C 
BRANCH  13  14
ATOM     14  C   UNL     1     -45.201 -35.166  41.019  1.00  0.00    -0.000 C 
BRANCH  14  15
ATOM     15  C   UNL     1     -46.240 -34.120  40.576  1.00  0.00    -0.000 C 
BRANCH  15  16
ATOM     16  C   UNL     1     -46.025 -32.708  41.155  1.00  0.00    -0.000 C 
BRANCH  16  17
ATOM     17  C   UNL     1     -45.780 -31.625  40.080  1.00  0.00    -0.000 C 
BRANCH  17  18
ATOM     18  C   UNL     1     -44.291 -31.264  39.907  1.00  0.00    -0.000 C 
BRANCH  18  19
ATOM     19  C   UNL     1     -43.914 -30.867  38.467  1.00  0.00    -0.003 C 
ATOM     20  C   UNL     1     -45.131 -30.736  37.553  1.00  0.00     0.004 C 
ENDBRANCH  18  19
ENDBRANCH  17  18
ENDBRANCH  16  17
ENDBRANCH  15  16
ENDBRANCH  14  15
ENDBRANCH  13  14
ENDBRANCH  12  13
ENDBRANCH   1  12
TORSDOF 16
ENDMDL
MODEL 8
REMARK VINA RESULT:    -3.970      8.882     11.300
REMARK INTER + INTRA:          -9.957
REMARK INTER:                  -6.661
REMARK INTRA:                  -3.296
REMARK UNBOUND:                -2.274
REMARK SMILES CCCCCCCCCCCCCCCCCC(=O)[O-]
REMARK SMILES IDX 10 1 11 2 12 3 13 4 14 5 15 6 16 7 17 8 18 9 19 10 20 11
REMARK SMILES IDX 9 12 8 13 7 14 6 15 5 16 4 17 3 18 2 19 1 20
REMARK H PARENT
REMARK Flexibility Score: inf
ROOT
ATOM      1  C   UNL     1     -41.970 -25.115  41.648  1.00  0.00     0.000 C 
ENDROOT
BRANCH   1   2
ATOM      2  C   UNL     1     -40.789 -24.147  41.830  1.00  0.00     0.000 C 
BRANCH   2   3
ATOM      3  C   UNL     1     -39.521 -24.615  41.098  1.00  0.00     0.000 C 
BRANCH   3   4
ATOM      4  C   UNL     1     -39.306 -23.898  39.756  1.00  0.00     0.000 C 
BRANCH   4   5
ATOM      5  C   UNL     1     -40.201 -22.653  39.653  1.00  0.00     0.000 C 
BRANCH   5   6
ATOM      6  C   UNL     1     -40.744 -22.425  38.234  1.00  0.00     0.000 C 
BRANCH   6   7
ATOM      7  C   UNL     1     -39.968 -23.213  37.168  1.00  0.00     0.006 C 
BRANCH   7   8
ATOM      8  C   UNL     1     -40.485 -22.886  35.764  1.00  0.00     0.053 C 
BRANCH   8   9
ATOM      9  C   UNL     1     -41.625 -23.785  35.401  1.00  0.00     0.041 C 
ATOM     10  O   UNL     1     -42.808 -23.357  35.448  1.00  0.00    -0.550 OA
ATOM     11  O   UNL     1     -41.377 -25.082  34.968  1.00  0.00    -0.550 OA
ENDBRANCH   8   9
ENDBRANCH   7   8
ENDBRANCH   6   7
ENDBRANCH   5   6
ENDBRANCH   4   5
ENDBRANCH   3   4
ENDBRANCH   2   3
ENDBRANCH   1   2
BRANCH   1  12
ATOM     12  C   UNL     1     -43.196 -24.450  40.994  1.00  0.00     0.000 C 
BRANCH  12  13
ATOM     13  C   UNL     1     -43.857 -25.259  39.863  1.00  0.00    -0.000 C 
BRANCH  13  14
ATOM     14  C   UNL     1     -43.109 -25.139  38.524  1.00  0.00    -0.000 C 
BRANCH  14  15
ATOM     15  C   UNL     1     -42.527 -26.481  38.043  1.00  0.00    -0.000 C 
BRANCH  15  16
ATOM     16  C   UNL     1     -41.001 -26.618  38.196  1.00  0.00    -0.000 C 
BRANCH  16  17
ATOM     17  C   UNL     1     -40.550 -27.987  38.754  1.00  0.00    -0.000 C 
BRANCH  17  18
ATOM     18  C   UNL     1     -40.632 -28.076  40.291  1.00  0.00    -0.000 C 
BRANCH  18  19
ATOM     19  C   UNL     1     -41.594 -29.167  40.797  1.00  0.00    -0.003 C 
ATOM     20  C   UNL     1     -43.016 -28.649  41.007  1.00  0.00     0.004 C 
ENDBRANCH  18  19
ENDBRANCH  17  18
ENDBRANCH  16  17
ENDBRANCH  15  16
ENDBRANCH  14  15
ENDBRANCH  13  14
ENDBRANCH  12  13
ENDBRANCH   1  12
TORSDOF 16
ENDMDL
MODEL 9
REMARK VINA RESULT:    -3.941      6.994      9.265
REMARK INTER + INTRA:          -9.902
REMARK INTER:                  -6.836
REMARK INTRA:                  -3.065
REMARK UNBOUND:                -2.274
REMARK SMILES CCCCCCCCCCCCCCCCCC(=O)[O-]
REMARK SMILES IDX 10 1 11 2 12 3 13 4 14 5 15 6 16 7 17 8 18 9 19 10 20 11
REMARK SMILES IDX 9 12 8 13 7 14 6 15 5 16 4 17 3 18 2 19 1 20
REMARK H PARENT
REMARK Flexibility Score: inf
ROOT
ATOM      1  C   UNL     1     -40.008 -23.961  41.373  1.00  0.00     0.000 C 
ENDROOT
BRANCH   1   2
ATOM      2  C   UNL     1     -41.141 -24.923  41.768  1.00  0.00     0.000 C 
BRANCH   2   3
ATOM      3  C   UNL     1     -42.416 -24.711  40.937  1.00  0.00     0.000 C 
BRANCH   3   4
ATOM      4  C   UNL     1     -43.555 -25.660  41.338  1.00  0.00     0.000 C 
BRANCH   4   5
ATOM      5  C   UNL     1     -43.050 -27.107  41.439  1.00  0.00     0.000 C 
BRANCH   5   6
ATOM      6  C   UNL     1     -43.412 -27.952  40.209  1.00  0.00     0.000 C 
BRANCH   6   7
ATOM      7  C   UNL     1     -43.137 -29.449  40.415  1.00  0.00     0.006 C 
BRANCH   7   8
ATOM      8  C   UNL     1     -42.985 -30.167  39.070  1.00  0.00     0.053 C 
BRANCH   8   9
ATOM      9  C   UNL     1     -41.978 -31.269  39.174  1.00  0.00     0.041 C 
ATOM     10  O   UNL     1     -40.978 -31.286  38.410  1.00  0.00    -0.550 OA
ATOM     11  O   UNL     1     -42.121 -32.253  40.145  1.00  0.00    -0.550 OA
ENDBRANCH   8   9
ENDBRANCH   7   8
ENDBRANCH   6   7
ENDBRANCH   5   6
ENDBRANCH   4   5
ENDBRANCH   3   4
ENDBRANCH   2   3
ENDBRANCH   1   2
BRANCH   1  12
ATOM     12  C   UNL     1     -40.341 -23.123  40.125  1.00  0.00     0.000 C 
BRANCH  12  13
ATOM     13  C   UNL     1     -39.242 -23.086  39.046  1.00  0.00    -0.000 C 
BRANCH  13  14
ATOM     14  C   UNL     1     -39.200 -24.364  38.190  1.00  0.00    -0.000 C 
BRANCH  14  15
ATOM     15  C   UNL     1     -40.602 -24.875  37.810  1.00  0.00    -0.000 C 
BRANCH  15  16
ATOM     16  C   UNL     1     -40.813 -26.389  38.002  1.00  0.00    -0.000 C 
BRANCH  16  17
ATOM     17  C   UNL     1     -39.563 -27.131  38.530  1.00  0.00    -0.000 C 
BRANCH  17  18
ATOM     18  C   UNL     1     -39.842 -27.970  39.793  1.00  0.00    -0.000 C 
BRANCH  18  19
ATOM     19  C   UNL     1     -38.838 -27.723  40.934  1.00  0.00    -0.003 C 
ATOM     20  C   UNL     1     -37.675 -26.825  40.513  1.00  0.00     0.004 C 
ENDBRANCH  18  19
ENDBRANCH  17  18
ENDBRANCH  16  17
ENDBRANCH  15  16
ENDBRANCH  14  15
ENDBRANCH  13  14
ENDBRANCH  12  13
ENDBRANCH   1  12
TORSDOF 16
ENDMDL
