MODEL 1
REMARK VINA RESULT:     2.014      0.000      0.000
REMARK INTER + INTRA:           2.073
REMARK INTER:                   2.073
REMARK INTRA:                   0.000
REMARK UNBOUND:                 0.000
REMARK SMILES C[C@@H]1CC[C@]2(OC1)O[C@@H]1C[C@@H]3[C@H]4CC=C5C[C@@H](O)CC[C@]5(C)[C@H]4CC[C@@]3(C)[C@H]1[C@@H]2C
REMARK SMILES IDX 1 1 2 2 3 3 4 4 5 5 29 6 28 7 9 8 8 9 10 10 11 11 26 12
REMARK SMILES IDX 25 13 24 14 23 15 12 16 13 17 14 18 15 19 21 20 20 21 19 22
REMARK SMILES IDX 17 23 16 24 22 25 27 26 30 27 6 28 7 29 18 30
REMARK H PARENT 18 31
REMARK Flexibility Score: inf
ROOT
ATOM      1  C   UNL     1       3.936  69.310 169.083  1.00  0.00     0.010 C 
ATOM      2  C   UNL     1       2.640  69.212 168.268  1.00  0.00     0.012 C 
ATOM      3  C   UNL     1       2.728  70.063 166.993  1.00  0.00     0.011 C 
ATOM      4  C   UNL     1       1.361  70.254 166.309  1.00  0.00     0.066 C 
ATOM      5  C   UNL     1       0.203  69.539 167.053  1.00  0.00     0.171 C 
ATOM      6  C   UNL     1      -1.231  69.887 166.458  1.00  0.00     0.052 C 
ATOM      7  C   UNL     1      -1.487  68.611 165.714  1.00  0.00     0.033 C 
ATOM      8  C   UNL     1      -0.919  67.653 166.697  1.00  0.00     0.126 C 
ATOM      9  O   UNL     1       0.377  68.113 166.928  1.00  0.00    -0.346 OA
ATOM     10  C   UNL     1      -1.198  66.301 166.051  1.00  0.00     0.037 C 
ATOM     11  C   UNL     1      -2.701  66.530 165.781  1.00  0.00     0.002 C 
ATOM     12  C   UNL     1      -2.816  67.972 165.223  1.00  0.00    -0.024 C 
ATOM     13  C   UNL     1      -4.133  68.516 165.774  1.00  0.00     0.008 C 
ATOM     14  C   UNL     1      -5.331  67.595 165.377  1.00  0.00     0.005 C 
ATOM     15  C   UNL     1      -5.079  66.055 164.998  1.00  0.00     0.003 C 
ATOM     16  C   UNL     1      -3.568  65.538 165.016  1.00  0.00     0.000 C 
ATOM     17  C   UNL     1      -3.379  64.117 165.593  1.00  0.00     0.031 C 
ATOM     18  C   UNL     1      -4.498  63.214 165.196  1.00  0.00    -0.027 C 
ATOM     19  C   UNL     1      -5.781  63.622 165.218  1.00  0.00    -0.065 C 
ATOM     20  C   UNL     1      -6.119  65.066 165.668  1.00  0.00    -0.008 C 
ATOM     21  C   UNL     1      -7.588  65.478 165.270  1.00  0.00     0.014 C 
ATOM     22  C   UNL     1      -8.207  64.643 164.153  1.00  0.00     0.033 C 
ATOM     23  C   UNL     1      -8.228  63.171 164.546  1.00  0.00     0.118 C 
ATOM     24  C   UNL     1      -6.801  62.635 164.667  1.00  0.00     0.063 C 
ATOM     25  C   UNL     1      -6.020  65.128 167.218  1.00  0.00     0.016 C 
ATOM     26  C   UNL     1      -2.830  68.064 163.666  1.00  0.00     0.012 C 
ATOM     27  C   UNL     1      -1.352  71.125 165.553  1.00  0.00     0.014 C 
ATOM     28  O   UNL     1       0.210  69.916 168.421  1.00  0.00    -0.349 OA
ATOM     29  C   UNL     1       1.414  69.620 169.125  1.00  0.00     0.167 C 
ENDROOT
BRANCH  23  30
ATOM     30  O   UNL     1      -8.924  63.001 165.755  1.00  0.00    -0.393 OA
ATOM     31  H   UNL     1      -8.503  62.235 166.223  1.00  0.00     0.210 HD
ENDBRANCH  23  30
TORSDOF 1
ENDMDL
MODEL 2
REMARK VINA RESULT:     4.699      2.462      9.467
REMARK INTER + INTRA:           4.836
REMARK INTER:                   4.836
REMARK INTRA:                   0.000
REMARK UNBOUND:                 0.000
REMARK SMILES C[C@@H]1CC[C@]2(OC1)O[C@@H]1C[C@@H]3[C@H]4CC=C5C[C@@H](O)CC[C@]5(C)[C@H]4CC[C@@]3(C)[C@H]1[C@@H]2C
REMARK SMILES IDX 1 1 2 2 3 3 4 4 5 5 29 6 28 7 9 8 8 9 10 10 11 11 26 12
REMARK SMILES IDX 25 13 24 14 23 15 12 16 13 17 14 18 15 19 21 20 20 21 19 22
REMARK SMILES IDX 17 23 16 24 22 25 27 26 30 27 6 28 7 29 18 30
REMARK H PARENT 18 31
REMARK Flexibility Score: inf
ROOT
ATOM      1  C   UNL     1      -6.035  65.222 167.374  1.00  0.00     0.010 C 
ATOM      2  C   UNL     1      -4.909  66.126 166.857  1.00  0.00     0.012 C 
ATOM      3  C   UNL     1      -5.478  67.364 166.149  1.00  0.00     0.011 C 
ATOM      4  C   UNL     1      -4.414  68.133 165.343  1.00  0.00     0.066 C 
ATOM      5  C   UNL     1      -3.004  67.493 165.433  1.00  0.00     0.171 C 
ATOM      6  C   UNL     1      -1.947  68.172 164.457  1.00  0.00     0.052 C 
ATOM      7  C   UNL     1      -1.183  68.974 165.467  1.00  0.00     0.033 C 
ATOM      8  C   UNL     1      -1.163  67.986 166.577  1.00  0.00     0.126 C 
ATOM      9  O   UNL     1      -2.502  67.652 166.775  1.00  0.00    -0.346 OA
ATOM     10  C   UNL     1      -0.336  68.693 167.643  1.00  0.00     0.037 C 
ATOM     11  C   UNL     1       0.862  69.057 166.740  1.00  0.00     0.002 C 
ATOM     12  C   UNL     1       0.250  69.574 165.412  1.00  0.00    -0.024 C 
ATOM     13  C   UNL     1       1.199  69.097 164.315  1.00  0.00     0.008 C 
ATOM     14  C   UNL     1       2.654  69.604 164.571  1.00  0.00     0.005 C 
ATOM     15  C   UNL     1       3.120  70.015 166.051  1.00  0.00     0.003 C 
ATOM     16  C   UNL     1       2.031  69.912 167.214  1.00  0.00     0.000 C 
ATOM     17  C   UNL     1       2.570  69.370 168.557  1.00  0.00     0.031 C 
ATOM     18  C   UNL     1       3.947  69.872 168.833  1.00  0.00    -0.027 C 
ATOM     19  C   UNL     1       4.890  69.923 167.873  1.00  0.00    -0.065 C 
ATOM     20  C   UNL     1       4.549  69.451 166.437  1.00  0.00    -0.008 C 
ATOM     21  C   UNL     1       5.622  69.934 165.388  1.00  0.00     0.014 C 
ATOM     22  C   UNL     1       6.473  71.117 165.839  1.00  0.00     0.033 C 
ATOM     23  C   UNL     1       7.207  70.775 167.130  1.00  0.00     0.118 C 
ATOM     24  C   UNL     1       6.207  70.575 168.270  1.00  0.00     0.063 C 
ATOM     25  C   UNL     1       4.550  67.897 166.425  1.00  0.00     0.016 C 
ATOM     26  C   UNL     1       0.101  71.124 165.329  1.00  0.00     0.012 C 
ATOM     27  C   UNL     1      -2.485  69.042 163.308  1.00  0.00     0.014 C 
ATOM     28  O   UNL     1      -3.083  66.115 165.099  1.00  0.00    -0.349 OA
ATOM     29  C   UNL     1      -3.953  65.341 165.922  1.00  0.00     0.167 C 
ENDROOT
BRANCH  23  30
ATOM     30  O   UNL     1       7.991  69.623 166.952  1.00  0.00    -0.393 OA
ATOM     31  H   UNL     1       8.938  69.905 167.032  1.00  0.00     0.210 HD
ENDBRANCH  23  30
TORSDOF 1
ENDMDL
