MODEL 1
REMARK VINA RESULT:    -5.849      0.000      0.000
REMARK INTER + INTRA:          -9.167
REMARK INTER:                  -8.072
REMARK INTRA:                  -1.095
REMARK UNBOUND:                -1.095
REMARK SMILES O=C([O-])[C@H]1O[C@H](Oc2cc3oc(-c4ccccc4)cc(=O)c3c(O)c2O)[C@H](O)[C@@H](O)[C@@H]1O
REMARK SMILES IDX 7 1 6 2 4 3 31 4 5 5 29 6 27 7 2 8 1 9 3 10 32 11 30 13
REMARK SMILES IDX 28 15 8 17 25 18 9 19 23 20 10 21 22 22 11 23 20 24 12 25
REMARK SMILES IDX 19 26 21 27 26 28 24 30 13 32 14 33 18 34 15 35 17 36 16 37
REMARK H PARENT 32 12 30 14 28 16 26 29 24 31
REMARK Flexibility Score: inf
ROOT
ATOM      1  O   UNL     1      -6.128  21.458  -8.830  1.00  0.00    -0.458 OA
ENDROOT
BRANCH   1   2
ATOM      2  C   UNL     1      -7.331  22.219  -8.967  1.00  0.00     0.339 C 
ATOM      3  C   UNL     1      -8.679  23.276 -10.592  1.00  0.00     0.199 C 
ATOM      4  C   UNL     1      -9.982  22.656 -10.023  1.00  0.00     0.180 C 
ATOM      5  O   UNL     1      -7.550  22.442 -10.351  1.00  0.00    -0.328 OA
ATOM      6  C   UNL     1      -9.815  22.246  -8.546  1.00  0.00     0.181 C 
ATOM      7  C   UNL     1      -8.516  21.445  -8.349  1.00  0.00     0.214 C 
BRANCH   3   8
ATOM      8  C   UNL     1      -8.427  24.706 -10.169  1.00  0.00     0.073 C 
ATOM      9  O   UNL     1      -9.355  25.411  -9.691  1.00  0.00    -0.547 OA
ATOM     10  O   UNL     1      -7.186  25.287 -10.400  1.00  0.00    -0.547 OA
ENDBRANCH   3   8
BRANCH   4  11
ATOM     11  O   UNL     1     -10.317  21.530 -10.795  1.00  0.00    -0.387 OA
ATOM     12  H   UNL     1      -9.467  21.071 -11.023  1.00  0.00     0.211 HD
ENDBRANCH   4  11
BRANCH   6  13
ATOM     13  O   UNL     1      -9.802  23.397  -7.739  1.00  0.00    -0.387 OA
ATOM     14  H   UNL     1     -10.117  24.150  -8.305  1.00  0.00     0.211 HD
ENDBRANCH   6  13
BRANCH   7  15
ATOM     15  O   UNL     1      -8.644  20.184  -8.958  1.00  0.00    -0.384 OA
ATOM     16  H   UNL     1      -8.999  19.565  -8.269  1.00  0.00     0.211 HD
ENDBRANCH   7  15
ENDBRANCH   1   2
BRANCH   1  17
ATOM     17  C   UNL     1      -4.841  21.975  -8.591  1.00  0.00     0.172 A 
ATOM     18  C   UNL     1      -4.259  21.762  -7.328  1.00  0.00     0.201 A 
ATOM     19  C   UNL     1      -4.121  22.683  -9.569  1.00  0.00     0.098 A 
ATOM     20  C   UNL     1      -2.973  22.259  -7.041  1.00  0.00     0.176 A 
ATOM     21  C   UNL     1      -2.847  23.181  -9.295  1.00  0.00     0.146 A 
ATOM     22  C   UNL     1      -2.258  22.976  -8.027  1.00  0.00     0.111 A 
ATOM     23  O   UNL     1      -2.197  23.847 -10.243  1.00  0.00    -0.456 OA
ATOM     24  C   UNL     1      -0.970  23.510  -7.812  1.00  0.00     0.197 A 
ATOM     25  C   UNL     1      -0.978  24.357 -10.077  1.00  0.00     0.138 A 
ATOM     26  C   UNL     1      -0.331  24.204  -8.841  1.00  0.00     0.100 A 
ATOM     27  O   UNL     1      -0.381  23.380  -6.705  1.00  0.00    -0.289 OA
BRANCH  18  28
ATOM     28  O   UNL     1      -4.952  21.057  -6.342  1.00  0.00    -0.502 OA
ATOM     29  H   UNL     1      -5.244  20.095  -6.465  1.00  0.00     0.293 HD
ENDBRANCH  18  28
BRANCH  20  30
ATOM     30  O   UNL     1      -2.409  22.041  -5.780  1.00  0.00    -0.504 OA
ATOM     31  H   UNL     1      -2.807  22.425  -4.932  1.00  0.00     0.293 HD
ENDBRANCH  20  30
BRANCH  25  32
ATOM     32  C   UNL     1      -0.349  25.085 -11.208  1.00  0.00     0.017 A 
ATOM     33  C   UNL     1       0.508  24.439 -12.122  1.00  0.00     0.012 A 
ATOM     34  C   UNL     1      -0.636  26.449 -11.397  1.00  0.00     0.012 A 
ATOM     35  C   UNL     1       1.077  25.149 -13.182  1.00  0.00     0.001 A 
ATOM     36  C   UNL     1      -0.062  27.155 -12.460  1.00  0.00     0.001 A 
ATOM     37  C   UNL     1       0.795  26.507 -13.350  1.00  0.00     0.000 A 
ENDBRANCH  25  32
ENDBRANCH   1  17
TORSDOF 9
ENDMDL
MODEL 2
REMARK VINA RESULT:    -5.564      1.116      1.556
REMARK INTER + INTRA:          -8.773
REMARK INTER:                  -7.566
REMARK INTRA:                  -1.207
REMARK UNBOUND:                -1.095
REMARK SMILES O=C([O-])[C@H]1O[C@H](Oc2cc3oc(-c4ccccc4)cc(=O)c3c(O)c2O)[C@H](O)[C@@H](O)[C@@H]1O
REMARK SMILES IDX 7 1 6 2 4 3 31 4 5 5 29 6 27 7 2 8 1 9 3 10 32 11 30 13
REMARK SMILES IDX 28 15 8 17 25 18 9 19 23 20 10 21 22 22 11 23 20 24 12 25
REMARK SMILES IDX 19 26 21 27 26 28 24 30 13 32 14 33 18 34 15 35 17 36 16 37
REMARK H PARENT 32 12 30 14 28 16 26 29 24 31
REMARK Flexibility Score: inf
ROOT
ATOM      1  O   UNL     1      -5.906  21.161  -8.253  1.00  0.00    -0.458 OA
ENDROOT
BRANCH   1   2
ATOM      2  C   UNL     1      -7.161  21.839  -8.149  1.00  0.00     0.339 C 
ATOM      3  C   UNL     1      -9.408  21.696  -8.858  1.00  0.00     0.199 C 
ATOM      4  C   UNL     1      -9.954  21.968  -7.431  1.00  0.00     0.180 C 
ATOM      5  O   UNL     1      -8.136  21.059  -8.823  1.00  0.00    -0.328 OA
ATOM      6  C   UNL     1      -8.915  22.700  -6.559  1.00  0.00     0.181 C 
ATOM      7  C   UNL     1      -7.541  22.016  -6.662  1.00  0.00     0.214 C 
BRANCH   3   8
ATOM      8  C   UNL     1      -9.412  22.902  -9.772  1.00  0.00     0.073 C 
ATOM      9  O   UNL     1      -9.960  23.979  -9.417  1.00  0.00    -0.547 OA
ATOM     10  O   UNL     1      -8.897  22.795 -11.059  1.00  0.00    -0.547 OA
ENDBRANCH   3   8
BRANCH   4  11
ATOM     11  O   UNL     1     -10.292  20.738  -6.839  1.00  0.00    -0.387 OA
ATOM     12  H   UNL     1     -10.602  20.936  -5.916  1.00  0.00     0.211 HD
ENDBRANCH   4  11
BRANCH   6  13
ATOM     13  O   UNL     1      -8.821  24.042  -6.969  1.00  0.00    -0.387 OA
ATOM     14  H   UNL     1      -8.174  24.485  -6.359  1.00  0.00     0.211 HD
ENDBRANCH   6  13
BRANCH   7  15
ATOM     15  O   UNL     1      -7.588  20.766  -6.020  1.00  0.00    -0.384 OA
ATOM     16  H   UNL     1      -7.564  20.942  -5.044  1.00  0.00     0.211 HD
ENDBRANCH   7  15
ENDBRANCH   1   2
BRANCH   1  17
ATOM     17  C   UNL     1      -4.633  21.740  -8.095  1.00  0.00     0.172 A 
ATOM     18  C   UNL     1      -3.935  21.503  -6.897  1.00  0.00     0.201 A 
ATOM     19  C   UNL     1      -4.039  22.533  -9.092  1.00  0.00     0.098 A 
ATOM     20  C   UNL     1      -2.657  22.060  -6.692  1.00  0.00     0.176 A 
ATOM     21  C   UNL     1      -2.775  23.091  -8.899  1.00  0.00     0.146 A 
ATOM     22  C   UNL     1      -2.069  22.862  -7.696  1.00  0.00     0.111 A 
ATOM     23  O   UNL     1      -2.244  23.837  -9.863  1.00  0.00    -0.456 OA
ATOM     24  C   UNL     1      -0.799  23.459  -7.562  1.00  0.00     0.197 A 
ATOM     25  C   UNL     1      -1.045  24.408  -9.772  1.00  0.00     0.138 A 
ATOM     26  C   UNL     1      -0.288  24.236  -8.603  1.00  0.00     0.100 A 
ATOM     27  O   UNL     1      -0.110  23.312  -6.516  1.00  0.00    -0.289 OA
BRANCH  18  28
ATOM     28  O   UNL     1      -4.502  20.714  -5.894  1.00  0.00    -0.502 OA
ATOM     29  H   UNL     1      -4.034  20.535  -5.014  1.00  0.00     0.293 HD
ENDBRANCH  18  28
BRANCH  20  30
ATOM     30  O   UNL     1      -1.978  21.817  -5.495  1.00  0.00    -0.504 OA
ATOM     31  H   UNL     1      -1.524  22.552  -4.967  1.00  0.00     0.293 HD
ENDBRANCH  20  30
BRANCH  25  32
ATOM     32  C   UNL     1      -0.555  25.223 -10.912  1.00  0.00     0.017 A 
ATOM     33  C   UNL     1       0.311  24.689 -11.888  1.00  0.00     0.012 A 
ATOM     34  C   UNL     1      -0.987  26.555 -11.047  1.00  0.00     0.012 A 
ATOM     35  C   UNL     1       0.748  25.478 -12.956  1.00  0.00     0.001 A 
ATOM     36  C   UNL     1      -0.546  27.340 -12.117  1.00  0.00     0.001 A 
ATOM     37  C   UNL     1       0.322  26.804 -13.068  1.00  0.00     0.000 A 
ENDBRANCH  25  32
ENDBRANCH   1  17
TORSDOF 9
ENDMDL
MODEL 3
REMARK VINA RESULT:    -5.549      3.957      8.105
REMARK INTER + INTRA:          -8.752
REMARK INTER:                  -7.500
REMARK INTRA:                  -1.252
REMARK UNBOUND:                -1.095
REMARK SMILES O=C([O-])[C@H]1O[C@H](Oc2cc3oc(-c4ccccc4)cc(=O)c3c(O)c2O)[C@H](O)[C@@H](O)[C@@H]1O
REMARK SMILES IDX 7 1 6 2 4 3 31 4 5 5 29 6 27 7 2 8 1 9 3 10 32 11 30 13
REMARK SMILES IDX 28 15 8 17 25 18 9 19 23 20 10 21 22 22 11 23 20 24 12 25
REMARK SMILES IDX 19 26 21 27 26 28 24 30 13 32 14 33 18 34 15 35 17 36 16 37
REMARK H PARENT 32 12 30 14 28 16 26 29 24 31
REMARK Flexibility Score: inf
ROOT
ATOM      1  O   UNL     1      -4.500  21.849  -8.332  1.00  0.00    -0.458 OA
ENDROOT
BRANCH   1   2
ATOM      2  C   UNL     1      -3.794  21.840  -7.088  1.00  0.00     0.339 C 
ATOM      3  C   UNL     1      -4.091  22.280  -4.788  1.00  0.00     0.199 C 
ATOM      4  C   UNL     1      -3.402  20.955  -4.368  1.00  0.00     0.180 C 
ATOM      5  O   UNL     1      -4.717  22.169  -6.061  1.00  0.00    -0.328 OA
ATOM      6  C   UNL     1      -2.468  20.428  -5.477  1.00  0.00     0.181 C 
ATOM      7  C   UNL     1      -3.182  20.444  -6.840  1.00  0.00     0.214 C 
BRANCH   3   8
ATOM      8  C   UNL     1      -3.206  23.504  -4.696  1.00  0.00     0.073 C 
ATOM      9  O   UNL     1      -2.136  23.479  -4.032  1.00  0.00    -0.547 OA
ATOM     10  O   UNL     1      -3.623  24.701  -5.266  1.00  0.00    -0.547 OA
ENDBRANCH   3   8
BRANCH   4  11
ATOM     11  O   UNL     1      -4.396  20.001  -4.090  1.00  0.00    -0.387 OA
ATOM     12  H   UNL     1      -4.122  19.528  -3.262  1.00  0.00     0.211 HD
ENDBRANCH   4  11
BRANCH   6  13
ATOM     13  O   UNL     1      -1.308  21.220  -5.528  1.00  0.00    -0.387 OA
ATOM     14  H   UNL     1      -0.917  21.101  -6.433  1.00  0.00     0.211 HD
ENDBRANCH   6  13
BRANCH   7  15
ATOM     15  O   UNL     1      -4.188  19.462  -6.856  1.00  0.00    -0.384 OA
ATOM     16  H   UNL     1      -3.798  18.643  -6.453  1.00  0.00     0.211 HD
ENDBRANCH   7  15
ENDBRANCH   1   2
BRANCH   1  17
ATOM     17  C   UNL     1      -5.875  22.092  -8.505  1.00  0.00     0.172 A 
ATOM     18  C   UNL     1      -6.706  21.012  -8.855  1.00  0.00     0.201 A 
ATOM     19  C   UNL     1      -6.440  23.367  -8.332  1.00  0.00     0.098 A 
ATOM     20  C   UNL     1      -8.089  21.206  -9.040  1.00  0.00     0.176 A 
ATOM     21  C   UNL     1      -7.809  23.570  -8.514  1.00  0.00     0.146 A 
ATOM     22  C   UNL     1      -8.650  22.492  -8.871  1.00  0.00     0.111 A 
ATOM     23  O   UNL     1      -8.309  24.790  -8.344  1.00  0.00    -0.456 OA
ATOM     24  C   UNL     1     -10.022  22.766  -9.045  1.00  0.00     0.197 A 
ATOM     25  C   UNL     1      -9.600  25.081  -8.492  1.00  0.00     0.138 A 
ATOM     26  C   UNL     1     -10.496  24.064  -8.857  1.00  0.00     0.100 A 
ATOM     27  O   UNL     1     -10.836  21.860  -9.374  1.00  0.00    -0.289 OA
BRANCH  18  28
ATOM     28  O   UNL     1      -6.169  19.735  -9.027  1.00  0.00    -0.502 OA
ATOM     29  H   UNL     1      -6.586  18.910  -8.614  1.00  0.00     0.293 HD
ENDBRANCH  18  28
BRANCH  20  30
ATOM     30  O   UNL     1      -8.901  20.123  -9.390  1.00  0.00    -0.504 OA
ATOM     31  H   UNL     1      -9.801  19.955  -8.958  1.00  0.00     0.293 HD
ENDBRANCH  20  30
BRANCH  25  32
ATOM     32  C   UNL     1     -10.044  26.481  -8.279  1.00  0.00     0.017 A 
ATOM     33  C   UNL     1     -10.485  27.290  -9.346  1.00  0.00     0.012 A 
ATOM     34  C   UNL     1     -10.059  27.012  -6.976  1.00  0.00     0.012 A 
ATOM     35  C   UNL     1     -10.907  28.602  -9.112  1.00  0.00     0.001 A 
ATOM     36  C   UNL     1     -10.482  28.326  -6.748  1.00  0.00     0.001 A 
ATOM     37  C   UNL     1     -10.903  29.120  -7.815  1.00  0.00     0.000 A 
ENDBRANCH  25  32
ENDBRANCH   1  17
TORSDOF 9
ENDMDL
MODEL 4
REMARK VINA RESULT:    -5.521      1.365      2.000
REMARK INTER + INTRA:          -8.714
REMARK INTER:                  -7.686
REMARK INTRA:                  -1.028
REMARK UNBOUND:                -1.095
REMARK SMILES O=C([O-])[C@H]1O[C@H](Oc2cc3oc(-c4ccccc4)cc(=O)c3c(O)c2O)[C@H](O)[C@@H](O)[C@@H]1O
REMARK SMILES IDX 7 1 6 2 4 3 31 4 5 5 29 6 27 7 2 8 1 9 3 10 32 11 30 13
REMARK SMILES IDX 28 15 8 17 25 18 9 19 23 20 10 21 22 22 11 23 20 24 12 25
REMARK SMILES IDX 19 26 21 27 26 28 24 30 13 32 14 33 18 34 15 35 17 36 16 37
REMARK H PARENT 32 12 30 14 28 16 26 29 24 31
REMARK Flexibility Score: inf
ROOT
ATOM      1  O   UNL     1      -6.656  21.107  -8.442  1.00  0.00    -0.458 OA
ENDROOT
BRANCH   1   2
ATOM      2  C   UNL     1      -7.877  21.685  -7.975  1.00  0.00     0.339 C 
ATOM      3  C   UNL     1      -8.850  23.764  -7.424  1.00  0.00     0.199 C 
ATOM      4  C   UNL     1     -10.138  23.462  -8.235  1.00  0.00     0.180 C 
ATOM      5  O   UNL     1      -7.717  23.095  -7.966  1.00  0.00    -0.328 OA
ATOM      6  C   UNL     1     -10.342  21.945  -8.425  1.00  0.00     0.181 C 
ATOM      7  C   UNL     1      -9.041  21.278  -8.904  1.00  0.00     0.214 C 
BRANCH   3   8
ATOM      8  C   UNL     1      -8.980  23.542  -5.933  1.00  0.00     0.073 C 
ATOM      9  O   UNL     1     -10.113  23.452  -5.390  1.00  0.00    -0.547 OA
ATOM     10  O   UNL     1      -7.843  23.537  -5.134  1.00  0.00    -0.547 OA
ENDBRANCH   3   8
BRANCH   4  11
ATOM     11  O   UNL     1     -10.036  24.089  -9.489  1.00  0.00    -0.387 OA
ATOM     12  H   UNL     1      -9.647  23.424 -10.116  1.00  0.00     0.211 HD
ENDBRANCH   4  11
BRANCH   6  13
ATOM     13  O   UNL     1     -10.761  21.373  -7.211  1.00  0.00    -0.387 OA
ATOM     14  H   UNL     1     -11.404  22.009  -6.799  1.00  0.00     0.211 HD
ENDBRANCH   6  13
BRANCH   7  15
ATOM     15  O   UNL     1      -8.770  21.674 -10.226  1.00  0.00    -0.384 OA
ATOM     16  H   UNL     1      -9.609  22.056 -10.591  1.00  0.00     0.211 HD
ENDBRANCH   7  15
ENDBRANCH   1   2
BRANCH   1  17
ATOM     17  C   UNL     1      -5.357  21.583  -8.179  1.00  0.00     0.172 A 
ATOM     18  C   UNL     1      -4.761  21.254  -6.948  1.00  0.00     0.201 A 
ATOM     19  C   UNL     1      -4.640  22.360  -9.105  1.00  0.00     0.098 A 
ATOM     20  C   UNL     1      -3.463  21.706  -6.639  1.00  0.00     0.176 A 
ATOM     21  C   UNL     1      -3.354  22.813  -8.809  1.00  0.00     0.146 A 
ATOM     22  C   UNL     1      -2.751  22.493  -7.572  1.00  0.00     0.111 A 
ATOM     23  O   UNL     1      -2.706  23.549  -9.707  1.00  0.00    -0.456 OA
ATOM     24  C   UNL     1      -1.452  22.988  -7.333  1.00  0.00     0.197 A 
ATOM     25  C   UNL     1      -1.477  24.023  -9.517  1.00  0.00     0.138 A 
ATOM     26  C   UNL     1      -0.816  23.757  -8.308  1.00  0.00     0.100 A 
ATOM     27  O   UNL     1      -0.849  22.755  -6.250  1.00  0.00    -0.289 OA
BRANCH  18  28
ATOM     28  O   UNL     1      -5.452  20.478  -6.015  1.00  0.00    -0.502 OA
ATOM     29  H   UNL     1      -5.103  19.587  -5.685  1.00  0.00     0.293 HD
ENDBRANCH  18  28
BRANCH  20  30
ATOM     30  O   UNL     1      -2.886  21.373  -5.411  1.00  0.00    -0.504 OA
ATOM     31  H   UNL     1      -1.899  21.176  -5.308  1.00  0.00     0.293 HD
ENDBRANCH  20  30
BRANCH  25  32
ATOM     32  C   UNL     1      -0.852  24.836 -10.591  1.00  0.00     0.017 A 
ATOM     33  C   UNL     1       0.037  24.270 -11.528  1.00  0.00     0.012 A 
ATOM     34  C   UNL     1      -1.175  26.201 -10.704  1.00  0.00     0.012 A 
ATOM     35  C   UNL     1       0.602  25.058 -12.534  1.00  0.00     0.001 A 
ATOM     36  C   UNL     1      -0.606  26.984 -11.712  1.00  0.00     0.001 A 
ATOM     37  C   UNL     1       0.283  26.415 -12.625  1.00  0.00     0.000 A 
ENDBRANCH  25  32
ENDBRANCH   1  17
TORSDOF 9
ENDMDL
MODEL 5
REMARK VINA RESULT:    -5.494      3.619      7.448
REMARK INTER + INTRA:          -8.677
REMARK INTER:                  -7.604
REMARK INTRA:                  -1.072
REMARK UNBOUND:                -1.095
REMARK SMILES O=C([O-])[C@H]1O[C@H](Oc2cc3oc(-c4ccccc4)cc(=O)c3c(O)c2O)[C@H](O)[C@@H](O)[C@@H]1O
REMARK SMILES IDX 7 1 6 2 4 3 31 4 5 5 29 6 27 7 2 8 1 9 3 10 32 11 30 13
REMARK SMILES IDX 28 15 8 17 25 18 9 19 23 20 10 21 22 22 11 23 20 24 12 25
REMARK SMILES IDX 19 26 21 27 26 28 24 30 13 32 14 33 18 34 15 35 17 36 16 37
REMARK H PARENT 32 12 30 14 28 16 26 29 24 31
REMARK Flexibility Score: inf
ROOT
ATOM      1  O   UNL     1      -3.827  21.465  -8.590  1.00  0.00    -0.458 OA
ENDROOT
BRANCH   1   2
ATOM      2  C   UNL     1      -3.199  21.763  -7.341  1.00  0.00     0.339 C 
ATOM      3  C   UNL     1      -3.450  23.108  -5.417  1.00  0.00     0.199 C 
ATOM      4  C   UNL     1      -3.170  21.920  -4.458  1.00  0.00     0.180 C 
ATOM      5  O   UNL     1      -4.033  22.672  -6.640  1.00  0.00    -0.328 OA
ATOM      6  C   UNL     1      -2.376  20.801  -5.162  1.00  0.00     0.181 C 
ATOM      7  C   UNL     1      -3.005  20.466  -6.526  1.00  0.00     0.214 C 
BRANCH   3   8
ATOM      8  C   UNL     1      -2.266  24.021  -5.648  1.00  0.00     0.073 C 
ATOM      9  O   UNL     1      -1.284  24.018  -4.858  1.00  0.00    -0.547 OA
ATOM     10  O   UNL     1      -2.299  24.946  -6.684  1.00  0.00    -0.547 OA
ENDBRANCH   3   8
BRANCH   4  11
ATOM     11  O   UNL     1      -4.399  21.416  -3.998  1.00  0.00    -0.387 OA
ATOM     12  H   UNL     1      -4.670  21.974  -3.223  1.00  0.00     0.211 HD
ENDBRANCH   4  11
BRANCH   6  13
ATOM     13  O   UNL     1      -1.041  21.208  -5.331  1.00  0.00    -0.387 OA
ATOM     14  H   UNL     1      -0.659  21.329  -4.423  1.00  0.00     0.211 HD
ENDBRANCH   6  13
BRANCH   7  15
ATOM     15  O   UNL     1      -4.242  19.826  -6.329  1.00  0.00    -0.384 OA
ATOM     16  H   UNL     1      -4.371  19.744  -5.348  1.00  0.00     0.211 HD
ENDBRANCH   7  15
ENDBRANCH   1   2
BRANCH   1  17
ATOM     17  C   UNL     1      -5.168  21.727  -8.930  1.00  0.00     0.172 A 
ATOM     18  C   UNL     1      -6.061  20.643  -9.010  1.00  0.00     0.201 A 
ATOM     19  C   UNL     1      -5.639  23.027  -9.180  1.00  0.00     0.098 A 
ATOM     20  C   UNL     1      -7.412  20.854  -9.347  1.00  0.00     0.176 A 
ATOM     21  C   UNL     1      -6.975  23.247  -9.516  1.00  0.00     0.146 A 
ATOM     22  C   UNL     1      -7.878  22.163  -9.604  1.00  0.00     0.111 A 
ATOM     23  O   UNL     1      -7.386  24.490  -9.748  1.00  0.00    -0.456 OA
ATOM     24  C   UNL     1      -9.213  22.454  -9.953  1.00  0.00     0.197 A 
ATOM     25  C   UNL     1      -8.640  24.799 -10.071  1.00  0.00     0.138 A 
ATOM     26  C   UNL     1      -9.593  23.775 -10.189  1.00  0.00     0.100 A 
ATOM     27  O   UNL     1     -10.077  21.542 -10.062  1.00  0.00    -0.289 OA
BRANCH  18  28
ATOM     28  O   UNL     1      -5.617  19.343  -8.760  1.00  0.00    -0.502 OA
ATOM     29  H   UNL     1      -5.070  19.103  -7.942  1.00  0.00     0.293 HD
ENDBRANCH  18  28
BRANCH  20  30
ATOM     30  O   UNL     1      -8.287  19.767  -9.424  1.00  0.00    -0.504 OA
ATOM     31  H   UNL     1      -8.008  18.870  -9.803  1.00  0.00     0.293 HD
ENDBRANCH  20  30
BRANCH  25  32
ATOM     32  C   UNL     1      -8.984  26.224 -10.310  1.00  0.00     0.017 A 
ATOM     33  C   UNL     1      -8.423  26.953 -11.379  1.00  0.00     0.012 A 
ATOM     34  C   UNL     1      -9.917  26.861  -9.472  1.00  0.00     0.012 A 
ATOM     35  C   UNL     1      -8.774  28.290 -11.585  1.00  0.00     0.001 A 
ATOM     36  C   UNL     1     -10.264  28.199  -9.683  1.00  0.00     0.001 A 
ATOM     37  C   UNL     1      -9.691  28.914 -10.736  1.00  0.00     0.000 A 
ENDBRANCH  25  32
ENDBRANCH   1  17
TORSDOF 9
ENDMDL
MODEL 6
REMARK VINA RESULT:    -5.419      2.412      4.882
REMARK INTER + INTRA:          -8.572
REMARK INTER:                  -7.521
REMARK INTRA:                  -1.051
REMARK UNBOUND:                -1.095
REMARK SMILES O=C([O-])[C@H]1O[C@H](Oc2cc3oc(-c4ccccc4)cc(=O)c3c(O)c2O)[C@H](O)[C@@H](O)[C@@H]1O
REMARK SMILES IDX 7 1 6 2 4 3 31 4 5 5 29 6 27 7 2 8 1 9 3 10 32 11 30 13
REMARK SMILES IDX 28 15 8 17 25 18 9 19 23 20 10 21 22 22 11 23 20 24 12 25
REMARK SMILES IDX 19 26 21 27 26 28 24 30 13 32 14 33 18 34 15 35 17 36 16 37
REMARK H PARENT 32 12 30 14 28 16 26 29 24 31
REMARK Flexibility Score: inf
ROOT
ATOM      1  O   UNL     1      -9.143  24.414  -9.835  1.00  0.00    -0.458 OA
ENDROOT
BRANCH   1   2
ATOM      2  C   UNL     1      -8.987  25.835  -9.821  1.00  0.00     0.339 C 
ATOM      3  C   UNL     1      -9.026  27.716 -11.246  1.00  0.00     0.199 C 
ATOM      4  C   UNL     1      -9.932  28.523 -10.281  1.00  0.00     0.180 C 
ATOM      5  O   UNL     1      -9.248  26.315 -11.131  1.00  0.00    -0.328 OA
ATOM      6  C   UNL     1      -9.831  27.994  -8.836  1.00  0.00     0.181 C 
ATOM      7  C   UNL     1      -9.969  26.462  -8.808  1.00  0.00     0.214 C 
BRANCH   3   8
ATOM      8  C   UNL     1      -7.556  28.065 -11.166  1.00  0.00     0.073 C 
ATOM      9  O   UNL     1      -7.173  29.124 -10.602  1.00  0.00    -0.547 OA
ATOM     10  O   UNL     1      -6.619  27.264 -11.809  1.00  0.00    -0.547 OA
ENDBRANCH   3   8
BRANCH   4  11
ATOM     11  O   UNL     1     -11.261  28.430 -10.729  1.00  0.00    -0.387 OA
ATOM     12  H   UNL     1     -11.537  27.481 -10.625  1.00  0.00     0.211 HD
ENDBRANCH   4  11
BRANCH   6  13
ATOM     13  O   UNL     1      -8.597  28.380  -8.281  1.00  0.00    -0.387 OA
ATOM     14  H   UNL     1      -7.918  27.734  -8.611  1.00  0.00     0.211 HD
ENDBRANCH   6  13
BRANCH   7  15
ATOM     15  O   UNL     1     -11.291  26.104  -9.126  1.00  0.00    -0.384 OA
ATOM     16  H   UNL     1     -11.439  25.193  -8.759  1.00  0.00     0.211 HD
ENDBRANCH   7  15
ENDBRANCH   1   2
BRANCH   1  17
ATOM     17  C   UNL     1      -8.126  23.463  -9.623  1.00  0.00     0.172 A 
ATOM     18  C   UNL     1      -8.483  22.104  -9.565  1.00  0.00     0.201 A 
ATOM     19  C   UNL     1      -6.776  23.827  -9.479  1.00  0.00     0.098 A 
ATOM     20  C   UNL     1      -7.502  21.116  -9.355  1.00  0.00     0.176 A 
ATOM     21  C   UNL     1      -5.796  22.856  -9.269  1.00  0.00     0.146 A 
ATOM     22  C   UNL     1      -6.147  21.489  -9.204  1.00  0.00     0.111 A 
ATOM     23  O   UNL     1      -4.530  23.237  -9.134  1.00  0.00    -0.456 OA
ATOM     24  C   UNL     1      -5.110  20.559  -8.984  1.00  0.00     0.197 A 
ATOM     25  C   UNL     1      -3.526  22.385  -8.935  1.00  0.00     0.138 A 
ATOM     26  C   UNL     1      -3.796  21.010  -8.847  1.00  0.00     0.100 A 
ATOM     27  O   UNL     1      -5.342  19.323  -8.902  1.00  0.00    -0.289 OA
BRANCH  18  28
ATOM     28  O   UNL     1      -9.818  21.718  -9.712  1.00  0.00    -0.502 OA
ATOM     29  H   UNL     1     -10.586  22.276  -9.362  1.00  0.00     0.293 HD
ENDBRANCH  18  28
BRANCH  20  30
ATOM     30  O   UNL     1      -7.873  19.769  -9.297  1.00  0.00    -0.504 OA
ATOM     31  H   UNL     1      -8.414  19.386  -8.532  1.00  0.00     0.293 HD
ENDBRANCH  20  30
BRANCH  25  32
ATOM     32  C   UNL     1      -2.149  22.925  -8.797  1.00  0.00     0.017 A 
ATOM     33  C   UNL     1      -1.614  23.279  -7.541  1.00  0.00     0.012 A 
ATOM     34  C   UNL     1      -1.341  23.060  -9.940  1.00  0.00     0.012 A 
ATOM     35  C   UNL     1      -0.312  23.776  -7.442  1.00  0.00     0.001 A 
ATOM     36  C   UNL     1      -0.039  23.558  -9.834  1.00  0.00     0.001 A 
ATOM     37  C   UNL     1       0.475  23.918  -8.587  1.00  0.00     0.000 A 
ENDBRANCH  25  32
ENDBRANCH   1  17
TORSDOF 9
ENDMDL
MODEL 7
REMARK VINA RESULT:    -5.388      3.048      5.144
REMARK INTER + INTRA:          -8.530
REMARK INTER:                  -7.381
REMARK INTRA:                  -1.149
REMARK UNBOUND:                -1.095
REMARK SMILES O=C([O-])[C@H]1O[C@H](Oc2cc3oc(-c4ccccc4)cc(=O)c3c(O)c2O)[C@H](O)[C@@H](O)[C@@H]1O
REMARK SMILES IDX 7 1 6 2 4 3 31 4 5 5 29 6 27 7 2 8 1 9 3 10 32 11 30 13
REMARK SMILES IDX 28 15 8 17 25 18 9 19 23 20 10 21 22 22 11 23 20 24 12 25
REMARK SMILES IDX 19 26 21 27 26 28 24 30 13 32 14 33 18 34 15 35 17 36 16 37
REMARK H PARENT 32 12 30 14 28 16 26 29 24 31
REMARK Flexibility Score: inf
ROOT
ATOM      1  O   UNL     1      -8.448  25.546  -9.965  1.00  0.00    -0.458 OA
ENDROOT
BRANCH   1   2
ATOM      2  C   UNL     1      -8.629  24.238  -9.418  1.00  0.00     0.339 C 
ATOM      3  C   UNL     1     -10.251  22.874  -8.377  1.00  0.00     0.199 C 
ATOM      4  C   UNL     1      -9.935  21.666  -9.298  1.00  0.00     0.180 C 
ATOM      5  O   UNL     1      -9.987  24.114  -9.025  1.00  0.00    -0.328 OA
ATOM      6  C   UNL     1      -8.516  21.767  -9.895  1.00  0.00     0.181 C 
ATOM      7  C   UNL     1      -8.271  23.171 -10.475  1.00  0.00     0.214 C 
BRANCH   3   8
ATOM      8  C   UNL     1      -9.612  22.804  -7.007  1.00  0.00     0.073 C 
ATOM      9  O   UNL     1      -9.169  21.714  -6.557  1.00  0.00    -0.547 OA
ATOM     10  O   UNL     1      -9.602  23.929  -6.191  1.00  0.00    -0.547 OA
ENDBRANCH   3   8
BRANCH   4  11
ATOM     11  O   UNL     1     -10.886  21.630 -10.333  1.00  0.00    -0.387 OA
ATOM     12  H   UNL     1     -11.444  20.823 -10.185  1.00  0.00     0.211 HD
ENDBRANCH   4  11
BRANCH   6  13
ATOM     13  O   UNL     1      -7.567  21.481  -8.898  1.00  0.00    -0.387 OA
ATOM     14  H   UNL     1      -6.817  21.006  -9.343  1.00  0.00     0.211 HD
ENDBRANCH   6  13
BRANCH   7  15
ATOM     15  O   UNL     1      -9.054  23.347 -11.629  1.00  0.00    -0.384 OA
ATOM     16  H   UNL     1      -9.267  22.441 -11.974  1.00  0.00     0.211 HD
ENDBRANCH   7  15
ENDBRANCH   1   2
BRANCH   1  17
ATOM     17  C   UNL     1      -7.219  26.143 -10.304  1.00  0.00     0.172 A 
ATOM     18  C   UNL     1      -7.168  26.967 -11.443  1.00  0.00     0.201 A 
ATOM     19  C   UNL     1      -6.055  25.951  -9.541  1.00  0.00     0.098 A 
ATOM     20  C   UNL     1      -5.961  27.587 -11.823  1.00  0.00     0.176 A 
ATOM     21  C   UNL     1      -4.854  26.558  -9.909  1.00  0.00     0.146 A 
ATOM     22  C   UNL     1      -4.792  27.383 -11.055  1.00  0.00     0.111 A 
ATOM     23  O   UNL     1      -3.772  26.352  -9.165  1.00  0.00    -0.456 OA
ATOM     24  C   UNL     1      -3.547  27.962 -11.375  1.00  0.00     0.197 A 
ATOM     25  C   UNL     1      -2.584  26.890  -9.433  1.00  0.00     0.138 A 
ATOM     26  C   UNL     1      -2.440  27.712 -10.562  1.00  0.00     0.100 A 
ATOM     27  O   UNL     1      -3.406  28.702 -12.386  1.00  0.00    -0.289 OA
BRANCH  18  28
ATOM     28  O   UNL     1      -8.313  27.178 -12.214  1.00  0.00    -0.502 OA
ATOM     29  H   UNL     1      -8.276  27.301 -13.218  1.00  0.00     0.293 HD
ENDBRANCH  18  28
BRANCH  20  30
ATOM     30  O   UNL     1      -5.925  28.400 -12.959  1.00  0.00    -0.504 OA
ATOM     31  H   UNL     1      -5.223  29.117 -13.094  1.00  0.00     0.293 HD
ENDBRANCH  20  30
BRANCH  25  32
ATOM     32  C   UNL     1      -1.443  26.587  -8.532  1.00  0.00     0.017 A 
ATOM     33  C   UNL     1      -1.583  25.729  -7.422  1.00  0.00     0.012 A 
ATOM     34  C   UNL     1      -0.180  27.142  -8.804  1.00  0.00     0.012 A 
ATOM     35  C   UNL     1      -0.489  25.456  -6.597  1.00  0.00     0.001 A 
ATOM     36  C   UNL     1       0.912  26.864  -7.975  1.00  0.00     0.001 A 
ATOM     37  C   UNL     1       0.757  26.025  -6.871  1.00  0.00     0.000 A 
ENDBRANCH  25  32
ENDBRANCH   1  17
TORSDOF 9
ENDMDL
MODEL 8
REMARK VINA RESULT:    -5.229      3.094      3.443
REMARK INTER + INTRA:          -8.310
REMARK INTER:                  -7.158
REMARK INTRA:                  -1.152
REMARK UNBOUND:                -1.095
REMARK SMILES O=C([O-])[C@H]1O[C@H](Oc2cc3oc(-c4ccccc4)cc(=O)c3c(O)c2O)[C@H](O)[C@@H](O)[C@@H]1O
REMARK SMILES IDX 7 1 6 2 4 3 31 4 5 5 29 6 27 7 2 8 1 9 3 10 32 11 30 13
REMARK SMILES IDX 28 15 8 17 25 18 9 19 23 20 10 21 22 22 11 23 20 24 12 25
REMARK SMILES IDX 19 26 21 27 26 28 24 30 13 32 14 33 18 34 15 35 17 36 16 37
REMARK H PARENT 32 12 30 14 28 16 26 29 24 31
REMARK Flexibility Score: inf
ROOT
ATOM      1  O   UNL     1      -6.173  21.234  -8.251  1.00  0.00    -0.458 OA
ENDROOT
BRANCH   1   2
ATOM      2  C   UNL     1      -7.275  22.102  -8.530  1.00  0.00     0.339 C 
ATOM      3  C   UNL     1      -8.202  23.421 -10.253  1.00  0.00     0.199 C 
ATOM      4  C   UNL     1      -9.629  22.859 -10.019  1.00  0.00     0.180 C 
ATOM      5  O   UNL     1      -7.199  22.478  -9.896  1.00  0.00    -0.328 OA
ATOM      6  C   UNL     1      -9.786  22.294  -8.592  1.00  0.00     0.181 C 
ATOM      7  C   UNL     1      -8.605  21.372  -8.241  1.00  0.00     0.214 C 
BRANCH   3   8
ATOM      8  C   UNL     1      -7.952  24.778  -9.631  1.00  0.00     0.073 C 
ATOM      9  O   UNL     1      -8.911  25.512  -9.274  1.00  0.00    -0.547 OA
ATOM     10  O   UNL     1      -6.654  25.268  -9.543  1.00  0.00    -0.547 OA
ENDBRANCH   3   8
BRANCH   4  11
ATOM     11  O   UNL     1      -9.873  21.846 -10.962  1.00  0.00    -0.387 OA
ATOM     12  H   UNL     1      -9.035  21.319 -11.046  1.00  0.00     0.211 HD
ENDBRANCH   4  11
BRANCH   6  13
ATOM     13  O   UNL     1      -9.863  23.355  -7.674  1.00  0.00    -0.387 OA
ATOM     14  H   UNL     1     -10.627  23.160  -7.070  1.00  0.00     0.211 HD
ENDBRANCH   6  13
BRANCH   7  15
ATOM     15  O   UNL     1      -8.687  20.192  -9.002  1.00  0.00    -0.384 OA
ATOM     16  H   UNL     1      -9.403  20.332  -9.675  1.00  0.00     0.211 HD
ENDBRANCH   7  15
ENDBRANCH   1   2
BRANCH   1  17
ATOM     17  C   UNL     1      -4.981  21.590  -7.592  1.00  0.00     0.172 A 
ATOM     18  C   UNL     1      -4.176  20.564  -7.066  1.00  0.00     0.201 A 
ATOM     19  C   UNL     1      -4.569  22.927  -7.454  1.00  0.00     0.098 A 
ATOM     20  C   UNL     1      -2.973  20.869  -6.399  1.00  0.00     0.176 A 
ATOM     21  C   UNL     1      -3.381  23.241  -6.794  1.00  0.00     0.146 A 
ATOM     22  C   UNL     1      -2.569  22.216  -6.258  1.00  0.00     0.111 A 
ATOM     23  O   UNL     1      -3.023  24.516  -6.680  1.00  0.00    -0.456 OA
ATOM     24  C   UNL     1      -1.384  22.601  -5.598  1.00  0.00     0.197 A 
ATOM     25  C   UNL     1      -1.908  24.913  -6.072  1.00  0.00     0.138 A 
ATOM     26  C   UNL     1      -1.055  23.954  -5.503  1.00  0.00     0.100 A 
ATOM     27  O   UNL     1      -0.611  21.748  -5.083  1.00  0.00    -0.289 OA
BRANCH  18  28
ATOM     28  O   UNL     1      -4.561  19.227  -7.196  1.00  0.00    -0.502 OA
ATOM     29  H   UNL     1      -4.793  18.649  -6.398  1.00  0.00     0.293 HD
ENDBRANCH  18  28
BRANCH  20  30
ATOM     30  O   UNL     1      -2.186  19.838  -5.880  1.00  0.00    -0.504 OA
ATOM     31  H   UNL     1      -2.582  19.028  -5.420  1.00  0.00     0.293 HD
ENDBRANCH  20  30
BRANCH  25  32
ATOM     32  C   UNL     1      -1.612  26.367  -6.002  1.00  0.00     0.017 A 
ATOM     33  C   UNL     1      -0.800  26.911  -4.986  1.00  0.00     0.012 A 
ATOM     34  C   UNL     1      -2.126  27.226  -6.991  1.00  0.00     0.012 A 
ATOM     35  C   UNL     1      -0.532  28.282  -4.953  1.00  0.00     0.001 A 
ATOM     36  C   UNL     1      -1.854  28.597  -6.953  1.00  0.00     0.001 A 
ATOM     37  C   UNL     1      -1.060  29.125  -5.934  1.00  0.00     0.000 A 
ENDBRANCH  25  32
ENDBRANCH   1  17
TORSDOF 9
ENDMDL
MODEL 9
REMARK VINA RESULT:    -5.031      2.394      5.141
REMARK INTER + INTRA:          -8.038
REMARK INTER:                  -7.240
REMARK INTRA:                  -0.798
REMARK UNBOUND:                -1.095
REMARK SMILES O=C([O-])[C@H]1O[C@H](Oc2cc3oc(-c4ccccc4)cc(=O)c3c(O)c2O)[C@H](O)[C@@H](O)[C@@H]1O
REMARK SMILES IDX 7 1 6 2 4 3 31 4 5 5 29 6 27 7 2 8 1 9 3 10 32 11 30 13
REMARK SMILES IDX 28 15 8 17 25 18 9 19 23 20 10 21 22 22 11 23 20 24 12 25
REMARK SMILES IDX 19 26 21 27 26 28 24 30 13 32 14 33 18 34 15 35 17 36 16 37
REMARK H PARENT 32 12 30 14 28 16 26 29 24 31
REMARK Flexibility Score: inf
ROOT
ATOM      1  O   UNL     1      -8.638  24.870 -11.082  1.00  0.00    -0.458 OA
ENDROOT
BRANCH   1   2
ATOM      2  C   UNL     1      -9.053  26.083 -10.449  1.00  0.00     0.339 C 
ATOM      3  C   UNL     1      -8.575  27.458  -8.591  1.00  0.00     0.199 C 
ATOM      4  C   UNL     1      -8.572  28.749  -9.451  1.00  0.00     0.180 C 
ATOM      5  O   UNL     1      -8.187  26.318  -9.349  1.00  0.00    -0.328 OA
ATOM      6  C   UNL     1      -9.379  28.563 -10.752  1.00  0.00     0.181 C 
ATOM      7  C   UNL     1      -8.981  27.253 -11.454  1.00  0.00     0.214 C 
BRANCH   3   8
ATOM      8  C   UNL     1      -9.857  27.219  -7.823  1.00  0.00     0.073 C 
ATOM      9  O   UNL     1     -10.671  28.158  -7.615  1.00  0.00    -0.547 OA
ATOM     10  O   UNL     1     -10.098  25.975  -7.251  1.00  0.00    -0.547 OA
ENDBRANCH   3   8
BRANCH   4  11
ATOM     11  O   UNL     1      -7.241  29.079  -9.760  1.00  0.00    -0.387 OA
ATOM     12  H   UNL     1      -6.733  28.227  -9.804  1.00  0.00     0.211 HD
ENDBRANCH   4  11
BRANCH   6  13
ATOM     13  O   UNL     1     -10.753  28.555 -10.454  1.00  0.00    -0.387 OA
ATOM     14  H   UNL     1     -11.068  27.620 -10.570  1.00  0.00     0.211 HD
ENDBRANCH   6  13
BRANCH   7  15
ATOM     15  O   UNL     1      -7.678  27.373 -11.969  1.00  0.00    -0.384 OA
ATOM     16  H   UNL     1      -7.060  27.376 -11.193  1.00  0.00     0.211 HD
ENDBRANCH   7  15
ENDBRANCH   1   2
BRANCH   1  17
ATOM     17  C   UNL     1      -7.736  23.925 -10.559  1.00  0.00     0.172 A 
ATOM     18  C   UNL     1      -8.199  22.619 -10.321  1.00  0.00     0.201 A 
ATOM     19  C   UNL     1      -6.395  24.241 -10.280  1.00  0.00     0.098 A 
ATOM     20  C   UNL     1      -7.334  21.638  -9.798  1.00  0.00     0.176 A 
ATOM     21  C   UNL     1      -5.530  23.278  -9.761  1.00  0.00     0.146 A 
ATOM     22  C   UNL     1      -5.989  21.964  -9.513  1.00  0.00     0.111 A 
ATOM     23  O   UNL     1      -4.269  23.613  -9.506  1.00  0.00    -0.456 OA
ATOM     24  C   UNL     1      -5.065  21.040  -8.982  1.00  0.00     0.197 A 
ATOM     25  C   UNL     1      -3.370  22.763  -9.014  1.00  0.00     0.138 A 
ATOM     26  C   UNL     1      -3.753  21.443  -8.731  1.00  0.00     0.100 A 
ATOM     27  O   UNL     1      -5.399  19.852  -8.723  1.00  0.00    -0.289 OA
BRANCH  18  28
ATOM     28  O   UNL     1      -9.526  22.279 -10.596  1.00  0.00    -0.502 OA
ATOM     29  H   UNL     1     -10.188  22.041  -9.868  1.00  0.00     0.293 HD
ENDBRANCH  18  28
BRANCH  20  30
ATOM     30  O   UNL     1      -7.810  20.345  -9.564  1.00  0.00    -0.504 OA
ATOM     31  H   UNL     1      -8.717  20.165  -9.151  1.00  0.00     0.293 HD
ENDBRANCH  20  30
BRANCH  25  32
ATOM     32  C   UNL     1      -1.989  23.250  -8.766  1.00  0.00     0.017 A 
ATOM     33  C   UNL     1      -1.552  23.618  -7.478  1.00  0.00     0.012 A 
ATOM     34  C   UNL     1      -1.077  23.319  -9.836  1.00  0.00     0.012 A 
ATOM     35  C   UNL     1      -0.243  24.064  -7.274  1.00  0.00     0.001 A 
ATOM     36  C   UNL     1       0.231  23.767  -9.627  1.00  0.00     0.001 A 
ATOM     37  C   UNL     1       0.647  24.141  -8.348  1.00  0.00     0.000 A 
ENDBRANCH  25  32
ENDBRANCH   1  17
TORSDOF 9
ENDMDL
