MODEL 1
REMARK VINA RESULT:    -3.664      0.000      0.000
REMARK INTER + INTRA:          -4.404
REMARK INTER:                  -4.307
REMARK INTRA:                  -0.097
REMARK UNBOUND:                -0.097
REMARK SMILES CCCCC(=O)[O-]
REMARK SMILES IDX 4 1 5 2 6 3 7 4 3 5 2 6 1 7
REMARK H PARENT
REMARK Flexibility Score: inf
ROOT
ATOM      1  C   UNL     1     -17.053  34.710 -19.660  1.00  0.00     0.053 C 
ENDROOT
BRANCH   1   2
ATOM      2  C   UNL     1     -18.246  34.552 -18.769  1.00  0.00     0.041 C 
ATOM      3  O   UNL     1     -18.190  34.917 -17.565  1.00  0.00    -0.550 OA
ATOM      4  O   UNL     1     -19.409  33.971 -19.258  1.00  0.00    -0.550 OA
ENDBRANCH   1   2
BRANCH   1   5
ATOM      5  C   UNL     1     -15.997  33.622 -19.408  1.00  0.00     0.006 C 
BRANCH   5   6
ATOM      6  C   UNL     1     -14.605  34.169 -19.044  1.00  0.00    -0.003 C 
ATOM      7  C   UNL     1     -14.657  35.274 -17.990  1.00  0.00     0.004 C 
ENDBRANCH   5   6
ENDBRANCH   1   5
TORSDOF 3
ENDMDL
MODEL 2
REMARK VINA RESULT:    -3.633      0.344      1.269
REMARK INTER + INTRA:          -4.367
REMARK INTER:                  -4.282
REMARK INTRA:                  -0.085
REMARK UNBOUND:                -0.097
REMARK SMILES CCCCC(=O)[O-]
REMARK SMILES IDX 4 1 5 2 6 3 7 4 3 5 2 6 1 7
REMARK H PARENT
REMARK Flexibility Score: inf
ROOT
ATOM      1  C   UNL     1     -16.796  34.439 -19.855  1.00  0.00     0.053 C 
ENDROOT
BRANCH   1   2
ATOM      2  C   UNL     1     -18.043  34.339 -19.033  1.00  0.00     0.041 C 
ATOM      3  O   UNL     1     -19.106  33.901 -19.546  1.00  0.00    -0.550 OA
ATOM      4  O   UNL     1     -18.040  34.760 -17.710  1.00  0.00    -0.550 OA
ENDBRANCH   1   2
BRANCH   1   5
ATOM      5  C   UNL     1     -15.668  33.552 -19.304  1.00  0.00     0.006 C 
BRANCH   5   6
ATOM      6  C   UNL     1     -14.393  34.323 -18.916  1.00  0.00    -0.003 C 
ATOM      7  C   UNL     1     -14.631  35.344 -17.805  1.00  0.00     0.004 C 
ENDBRANCH   5   6
ENDBRANCH   1   5
TORSDOF 3
ENDMDL
MODEL 3
REMARK VINA RESULT:    -3.167      2.091      3.431
REMARK INTER + INTRA:          -3.819
REMARK INTER:                  -3.713
REMARK INTRA:                  -0.106
REMARK UNBOUND:                -0.097
REMARK SMILES CCCCC(=O)[O-]
REMARK SMILES IDX 4 1 5 2 6 3 7 4 3 5 2 6 1 7
REMARK H PARENT
REMARK Flexibility Score: inf
ROOT
ATOM      1  C   UNL     1     -15.956  34.011 -19.399  1.00  0.00     0.053 C 
ENDROOT
BRANCH   1   2
ATOM      2  C   UNL     1     -15.378  35.046 -18.483  1.00  0.00     0.041 C 
ATOM      3  O   UNL     1     -14.201  34.926 -18.056  1.00  0.00    -0.550 OA
ATOM      4  O   UNL     1     -16.152  36.125 -18.076  1.00  0.00    -0.550 OA
ENDBRANCH   1   2
BRANCH   1   5
ATOM      5  C   UNL     1     -17.493  34.053 -19.420  1.00  0.00     0.006 C 
BRANCH   5   6
ATOM      6  C   UNL     1     -18.094  34.452 -20.780  1.00  0.00    -0.003 C 
ATOM      7  C   UNL     1     -18.145  35.965 -20.985  1.00  0.00     0.004 C 
ENDBRANCH   5   6
ENDBRANCH   1   5
TORSDOF 3
ENDMDL
MODEL 4
REMARK VINA RESULT:    -3.071      2.388      3.580
REMARK INTER + INTRA:          -3.707
REMARK INTER:                  -3.615
REMARK INTRA:                  -0.091
REMARK UNBOUND:                -0.097
REMARK SMILES CCCCC(=O)[O-]
REMARK SMILES IDX 4 1 5 2 6 3 7 4 3 5 2 6 1 7
REMARK H PARENT
REMARK Flexibility Score: inf
ROOT
ATOM      1  C   UNL     1     -16.691  35.548 -18.756  1.00  0.00     0.053 C 
ENDROOT
BRANCH   1   2
ATOM      2  C   UNL     1     -15.372  34.891 -18.495  1.00  0.00     0.041 C 
ATOM      3  O   UNL     1     -14.619  35.322 -17.583  1.00  0.00    -0.550 OA
ATOM      4  O   UNL     1     -14.958  33.823 -19.281  1.00  0.00    -0.550 OA
ENDBRANCH   1   2
BRANCH   1   5
ATOM      5  C   UNL     1     -17.872  34.666 -18.320  1.00  0.00     0.006 C 
BRANCH   5   6
ATOM      6  C   UNL     1     -18.925  34.434 -19.418  1.00  0.00    -0.003 C 
ATOM      7  C   UNL     1     -18.343  34.528 -20.828  1.00  0.00     0.004 C 
ENDBRANCH   5   6
ENDBRANCH   1   5
TORSDOF 3
ENDMDL
MODEL 5
REMARK VINA RESULT:    -2.729     24.844     25.569
REMARK INTER + INTRA:          -3.304
REMARK INTER:                  -3.375
REMARK INTRA:                   0.070
REMARK UNBOUND:                -0.097
REMARK SMILES CCCCC(=O)[O-]
REMARK SMILES IDX 4 1 5 2 6 3 7 4 3 5 2 6 1 7
REMARK H PARENT
REMARK Flexibility Score: inf
ROOT
ATOM      1  C   UNL     1      -6.798  20.034  -1.962  1.00  0.00     0.053 C 
ENDROOT
BRANCH   1   2
ATOM      2  C   UNL     1      -5.565  20.407  -1.199  1.00  0.00     0.041 C 
ATOM      3  O   UNL     1      -5.360  21.606  -0.875  1.00  0.00    -0.550 OA
ATOM      4  O   UNL     1      -4.626  19.436  -0.875  1.00  0.00    -0.550 OA
ENDBRANCH   1   2
BRANCH   1   5
ATOM      5  C   UNL     1      -7.984  19.735  -1.031  1.00  0.00     0.006 C 
BRANCH   5   6
ATOM      6  C   UNL     1      -8.377  18.248  -0.968  1.00  0.00    -0.003 C 
ATOM      7  C   UNL     1      -7.168  17.318  -0.885  1.00  0.00     0.004 C 
ENDBRANCH   5   6
ENDBRANCH   1   5
TORSDOF 3
ENDMDL
MODEL 6
REMARK VINA RESULT:    -2.246      1.967      3.830
REMARK INTER + INTRA:          -2.737
REMARK INTER:                  -2.613
REMARK INTRA:                  -0.124
REMARK UNBOUND:                -0.097
REMARK SMILES CCCCC(=O)[O-]
REMARK SMILES IDX 4 1 5 2 6 3 7 4 3 5 2 6 1 7
REMARK H PARENT
REMARK Flexibility Score: inf
ROOT
ATOM      1  C   UNL     1     -17.540  35.598 -20.289  1.00  0.00     0.053 C 
ENDROOT
BRANCH   1   2
ATOM      2  C   UNL     1     -16.948  34.706 -19.243  1.00  0.00     0.041 C 
ATOM      3  O   UNL     1     -17.213  33.475 -19.236  1.00  0.00    -0.550 OA
ATOM      4  O   UNL     1     -16.129  35.238 -18.256  1.00  0.00    -0.550 OA
ENDBRANCH   1   2
BRANCH   1   5
ATOM      5  C   UNL     1     -19.073  35.667 -20.188  1.00  0.00     0.006 C 
BRANCH   5   6
ATOM      6  C   UNL     1     -19.593  36.124 -18.814  1.00  0.00    -0.003 C 
ATOM      7  C   UNL     1     -20.743  35.261 -18.297  1.00  0.00     0.004 C 
ENDBRANCH   5   6
ENDBRANCH   1   5
TORSDOF 3
ENDMDL
