MODEL 1
REMARK VINA RESULT:    -7.054      0.000      0.000
REMARK INTER + INTRA:          -7.673
REMARK INTER:                  -7.673
REMARK INTRA:                   0.000
REMARK UNBOUND:                 0.000
REMARK SMILES Cc1cc(O)c2c(c1)C(=O)c1cc(O)cc(O)c1C2=O
REMARK SMILES IDX 1 1 2 2 8 3 7 4 6 5 4 6 3 7 19 8 20 9 18 10 11 11 9 12 10 13
REMARK SMILES IDX 12 14 13 15 15 16 16 17 5 18 17 20 14 22
REMARK H PARENT 5 19 17 21 14 23
REMARK Flexibility Score: inf
ROOT
ATOM      1  C   UNL     1     -21.458  -1.584  15.537  1.00  0.00     0.044 C 
ATOM      2  C   UNL     1     -22.424  -1.569  14.388  1.00  0.00    -0.047 A 
ATOM      3  C   UNL     1     -23.059  -0.380  14.017  1.00  0.00     0.016 A 
ATOM      4  C   UNL     1     -23.998  -0.364  12.972  1.00  0.00     0.038 A 
ATOM      5  C   UNL     1     -24.328  -1.566  12.305  1.00  0.00     0.076 A 
ATOM      6  C   UNL     1     -23.647  -2.761  12.655  1.00  0.00     0.127 A 
ATOM      7  C   UNL     1     -22.731  -2.755  13.712  1.00  0.00     0.050 A 
ATOM      8  C   UNL     1     -25.430  -1.535  11.309  1.00  0.00     0.201 C 
ATOM      9  O   UNL     1     -26.134  -2.563  11.121  1.00  0.00    -0.288 OA
ATOM     10  C   UNL     1     -25.819  -0.248  10.677  1.00  0.00     0.076 A 
ATOM     11  C   UNL     1     -25.487   0.952  11.348  1.00  0.00     0.041 A 
ATOM     12  C   UNL     1     -24.643   0.907  12.565  1.00  0.00     0.194 C 
ATOM     13  O   UNL     1     -24.450   1.956  13.239  1.00  0.00    -0.289 OA
ATOM     14  C   UNL     1     -25.957   2.181  10.855  1.00  0.00     0.059 A 
ATOM     15  C   UNL     1     -26.738   2.228   9.697  1.00  0.00     0.120 A 
ATOM     16  C   UNL     1     -27.033   1.052   9.010  1.00  0.00     0.093 A 
ATOM     17  C   UNL     1     -26.560  -0.182   9.468  1.00  0.00     0.131 A 
ENDROOT
BRANCH   6  18
ATOM     18  O   UNL     1     -23.825  -3.961  11.963  1.00  0.00    -0.507 OA
ATOM     19  H   UNL     1     -23.793  -4.036  10.956  1.00  0.00     0.293 HD
ENDBRANCH   6  18
BRANCH  17  20
ATOM     20  O   UNL     1     -26.819  -1.306   8.679  1.00  0.00    -0.507 OA
ATOM     21  H   UNL     1     -26.275  -2.156   8.722  1.00  0.00     0.293 HD
ENDBRANCH  17  20
BRANCH  15  22
ATOM     22  O   UNL     1     -27.215   3.445   9.213  1.00  0.00    -0.508 OA
ATOM     23  H   UNL     1     -27.244   4.273   9.795  1.00  0.00     0.293 HD
ENDBRANCH  15  22
TORSDOF 3
ENDMDL
MODEL 2
REMARK VINA RESULT:    -6.776      2.530      4.136
REMARK INTER + INTRA:          -7.371
REMARK INTER:                  -7.371
REMARK INTRA:                   0.000
REMARK UNBOUND:                 0.000
REMARK SMILES Cc1cc(O)c2c(c1)C(=O)c1cc(O)cc(O)c1C2=O
REMARK SMILES IDX 1 1 2 2 8 3 7 4 6 5 4 6 3 7 19 8 20 9 18 10 11 11 9 12 10 13
REMARK SMILES IDX 12 14 13 15 15 16 16 17 5 18 17 20 14 22
REMARK H PARENT 5 19 17 21 14 23
REMARK Flexibility Score: inf
ROOT
ATOM      1  C   UNL     1     -24.976   2.304  13.291  1.00  0.00     0.044 C 
ATOM      2  C   UNL     1     -24.892   1.263  12.212  1.00  0.00    -0.047 A 
ATOM      3  C   UNL     1     -25.768   1.305  11.123  1.00  0.00     0.016 A 
ATOM      4  C   UNL     1     -25.727   0.311  10.131  1.00  0.00     0.038 A 
ATOM      5  C   UNL     1     -24.812  -0.760  10.247  1.00  0.00     0.076 A 
ATOM      6  C   UNL     1     -23.895  -0.774  11.330  1.00  0.00     0.127 A 
ATOM      7  C   UNL     1     -23.969   0.216  12.314  1.00  0.00     0.050 A 
ATOM      8  C   UNL     1     -24.899  -1.867   9.259  1.00  0.00     0.201 C 
ATOM      9  O   UNL     1     -24.569  -3.035   9.595  1.00  0.00    -0.288 OA
ATOM     10  C   UNL     1     -25.550  -1.633   7.944  1.00  0.00     0.076 A 
ATOM     11  C   UNL     1     -26.465  -0.561   7.833  1.00  0.00     0.041 A 
ATOM     12  C   UNL     1     -26.638   0.381   8.963  1.00  0.00     0.194 C 
ATOM     13  O   UNL     1     -27.541   1.261   8.920  1.00  0.00    -0.289 OA
ATOM     14  C   UNL     1     -27.203  -0.392   6.649  1.00  0.00     0.059 A 
ATOM     15  C   UNL     1     -27.029  -1.267   5.574  1.00  0.00     0.120 A 
ATOM     16  C   UNL     1     -26.098  -2.301   5.664  1.00  0.00     0.093 A 
ATOM     17  C   UNL     1     -25.337  -2.479   6.824  1.00  0.00     0.131 A 
ENDROOT
BRANCH   6  18
ATOM     18  O   UNL     1     -22.882  -1.727  11.449  1.00  0.00    -0.507 OA
ATOM     19  H   UNL     1     -22.109  -1.805  10.802  1.00  0.00     0.293 HD
ENDBRANCH   6  18
BRANCH  17  20
ATOM     20  O   UNL     1     -24.361  -3.479   6.807  1.00  0.00    -0.507 OA
ATOM     21  H   UNL     1     -24.523  -4.411   6.452  1.00  0.00     0.293 HD
ENDBRANCH  17  20
BRANCH  15  22
ATOM     22  O   UNL     1     -27.768  -1.109   4.403  1.00  0.00    -0.508 OA
ATOM     23  H   UNL     1     -27.531  -1.609   3.554  1.00  0.00     0.293 HD
ENDBRANCH  15  22
TORSDOF 3
ENDMDL
MODEL 3
REMARK VINA RESULT:    -6.763      1.634      6.552
REMARK INTER + INTRA:          -7.356
REMARK INTER:                  -7.356
REMARK INTRA:                   0.000
REMARK UNBOUND:                 0.000
REMARK SMILES Cc1cc(O)c2c(c1)C(=O)c1cc(O)cc(O)c1C2=O
REMARK SMILES IDX 1 1 2 2 8 3 7 4 6 5 4 6 3 7 19 8 20 9 18 10 11 11 9 12 10 13
REMARK SMILES IDX 12 14 13 15 15 16 16 17 5 18 17 20 14 22
REMARK H PARENT 5 19 17 21 14 23
REMARK Flexibility Score: inf
ROOT
ATOM      1  C   UNL     1     -28.493   0.245   5.564  1.00  0.00     0.044 C 
ATOM      2  C   UNL     1     -27.793   0.544   6.858  1.00  0.00    -0.047 A 
ATOM      3  C   UNL     1     -27.086  -0.461   7.524  1.00  0.00     0.016 A 
ATOM      4  C   UNL     1     -26.464  -0.204   8.758  1.00  0.00     0.038 A 
ATOM      5  C   UNL     1     -26.577   1.076   9.348  1.00  0.00     0.076 A 
ATOM      6  C   UNL     1     -27.257   2.104   8.646  1.00  0.00     0.127 A 
ATOM      7  C   UNL     1     -27.884   1.817   7.429  1.00  0.00     0.050 A 
ATOM      8  C   UNL     1     -26.033   1.266  10.717  1.00  0.00     0.201 C 
ATOM      9  O   UNL     1     -26.564   2.107  11.491  1.00  0.00    -0.288 OA
ATOM     10  C   UNL     1     -24.994   0.339  11.235  1.00  0.00     0.076 A 
ATOM     11  C   UNL     1     -24.885  -0.940  10.642  1.00  0.00     0.041 A 
ATOM     12  C   UNL     1     -25.689  -1.267   9.442  1.00  0.00     0.194 C 
ATOM     13  O   UNL     1     -25.694  -2.443   8.985  1.00  0.00    -0.289 OA
ATOM     14  C   UNL     1     -24.012  -1.893  11.192  1.00  0.00     0.059 A 
ATOM     15  C   UNL     1     -23.238  -1.581  12.313  1.00  0.00     0.120 A 
ATOM     16  C   UNL     1     -23.312  -0.308  12.876  1.00  0.00     0.093 A 
ATOM     17  C   UNL     1     -24.159   0.665  12.336  1.00  0.00     0.131 A 
ENDROOT
BRANCH   6  18
ATOM     18  O   UNL     1     -27.307   3.423   9.102  1.00  0.00    -0.507 OA
ATOM     19  H   UNL     1     -27.939   3.742   9.823  1.00  0.00     0.293 HD
ENDBRANCH   6  18
BRANCH  17  20
ATOM     20  O   UNL     1     -24.112   1.944  12.897  1.00  0.00    -0.507 OA
ATOM     21  H   UNL     1     -23.420   2.637  12.649  1.00  0.00     0.293 HD
ENDBRANCH  17  20
BRANCH  15  22
ATOM     22  O   UNL     1     -22.379  -2.529  12.868  1.00  0.00    -0.508 OA
ATOM     23  H   UNL     1     -21.943  -2.385  13.772  1.00  0.00     0.293 HD
ENDBRANCH  15  22
TORSDOF 3
ENDMDL
MODEL 4
REMARK VINA RESULT:    -6.536      2.024      5.960
REMARK INTER + INTRA:          -7.109
REMARK INTER:                  -7.109
REMARK INTRA:                   0.000
REMARK UNBOUND:                 0.000
REMARK SMILES Cc1cc(O)c2c(c1)C(=O)c1cc(O)cc(O)c1C2=O
REMARK SMILES IDX 1 1 2 2 8 3 7 4 6 5 4 6 3 7 19 8 20 9 18 10 11 11 9 12 10 13
REMARK SMILES IDX 12 14 13 15 15 16 16 17 5 18 17 20 14 22
REMARK H PARENT 5 19 17 21 14 23
REMARK Flexibility Score: inf
ROOT
ATOM      1  C   UNL     1     -29.696   0.723   5.403  1.00  0.00     0.044 C 
ATOM      2  C   UNL     1     -28.702   0.297   6.445  1.00  0.00    -0.047 A 
ATOM      3  C   UNL     1     -28.253   1.209   7.405  1.00  0.00     0.016 A 
ATOM      4  C   UNL     1     -27.291   0.833   8.357  1.00  0.00     0.038 A 
ATOM      5  C   UNL     1     -26.748  -0.472   8.330  1.00  0.00     0.076 A 
ATOM      6  C   UNL     1     -27.240  -1.407   7.383  1.00  0.00     0.127 A 
ATOM      7  C   UNL     1     -28.184  -1.002   6.434  1.00  0.00     0.050 A 
ATOM      8  C   UNL     1     -25.629  -0.784   9.256  1.00  0.00     0.201 C 
ATOM      9  O   UNL     1     -24.762  -1.637   8.927  1.00  0.00    -0.288 OA
ATOM     10  C   UNL     1     -25.428   0.038  10.477  1.00  0.00     0.076 A 
ATOM     11  C   UNL     1     -25.973   1.343  10.499  1.00  0.00     0.041 A 
ATOM     12  C   UNL     1     -26.844   1.798   9.390  1.00  0.00     0.194 C 
ATOM     13  O   UNL     1     -27.228   2.999   9.340  1.00  0.00    -0.289 OA
ATOM     14  C   UNL     1     -25.689   2.201  11.576  1.00  0.00     0.059 A 
ATOM     15  C   UNL     1     -24.883   1.769  12.632  1.00  0.00     0.120 A 
ATOM     16  C   UNL     1     -24.378   0.469  12.634  1.00  0.00     0.093 A 
ATOM     17  C   UNL     1     -24.662  -0.410  11.584  1.00  0.00     0.131 A 
ENDROOT
BRANCH   6  18
ATOM     18  O   UNL     1     -26.846  -2.746   7.370  1.00  0.00    -0.507 OA
ATOM     19  H   UNL     1     -26.425  -3.198   6.570  1.00  0.00     0.293 HD
ENDBRANCH   6  18
BRANCH  17  20
ATOM     20  O   UNL     1     -24.197  -1.723  11.699  1.00  0.00    -0.507 OA
ATOM     21  H   UNL     1     -24.585  -2.398  12.343  1.00  0.00     0.293 HD
ENDBRANCH  17  20
BRANCH  15  22
ATOM     22  O   UNL     1     -24.590   2.621  13.695  1.00  0.00    -0.508 OA
ATOM     23  H   UNL     1     -23.955   3.404  13.588  1.00  0.00     0.293 HD
ENDBRANCH  15  22
TORSDOF 3
ENDMDL
MODEL 5
REMARK VINA RESULT:    -6.465      2.687      6.459
REMARK INTER + INTRA:          -7.032
REMARK INTER:                  -7.032
REMARK INTRA:                   0.000
REMARK UNBOUND:                 0.000
REMARK SMILES Cc1cc(O)c2c(c1)C(=O)c1cc(O)cc(O)c1C2=O
REMARK SMILES IDX 1 1 2 2 8 3 7 4 6 5 4 6 3 7 19 8 20 9 18 10 11 11 9 12 10 13
REMARK SMILES IDX 12 14 13 15 15 16 16 17 5 18 17 20 14 22
REMARK H PARENT 5 19 17 21 14 23
REMARK Flexibility Score: inf
ROOT
ATOM      1  C   UNL     1     -26.524  -3.330   4.469  1.00  0.00     0.044 C 
ATOM      2  C   UNL     1     -26.681  -2.183   5.425  1.00  0.00    -0.047 A 
ATOM      3  C   UNL     1     -26.082  -2.231   6.688  1.00  0.00     0.016 A 
ATOM      4  C   UNL     1     -26.259  -1.182   7.606  1.00  0.00     0.038 A 
ATOM      5  C   UNL     1     -27.073  -0.079   7.264  1.00  0.00     0.076 A 
ATOM      6  C   UNL     1     -27.641  -0.013   5.965  1.00  0.00     0.127 A 
ATOM      7  C   UNL     1     -27.466  -1.079   5.076  1.00  0.00     0.050 A 
ATOM      8  C   UNL     1     -27.355   0.936   8.312  1.00  0.00     0.201 C 
ATOM      9  O   UNL     1     -28.443   1.570   8.294  1.00  0.00    -0.288 OA
ATOM     10  C   UNL     1     -26.444   1.065   9.479  1.00  0.00     0.076 A 
ATOM     11  C   UNL     1     -25.632  -0.042   9.818  1.00  0.00     0.041 A 
ATOM     12  C   UNL     1     -25.594  -1.228   8.930  1.00  0.00     0.194 C 
ATOM     13  O   UNL     1     -24.974  -2.266   9.290  1.00  0.00    -0.289 OA
ATOM     14  C   UNL     1     -24.861  -0.010  10.992  1.00  0.00     0.059 A 
ATOM     15  C   UNL     1     -24.880   1.115  11.821  1.00  0.00     0.120 A 
ATOM     16  C   UNL     1     -25.647   2.224  11.470  1.00  0.00     0.093 A 
ATOM     17  C   UNL     1     -26.408   2.225  10.296  1.00  0.00     0.131 A 
ENDROOT
BRANCH   6  18
ATOM     18  O   UNL     1     -28.354   1.097   5.508  1.00  0.00    -0.507 OA
ATOM     19  H   UNL     1     -28.186   1.540   4.615  1.00  0.00     0.293 HD
ENDBRANCH   6  18
BRANCH  17  20
ATOM     20  O   UNL     1     -27.079   3.405   9.964  1.00  0.00    -0.507 OA
ATOM     21  H   UNL     1     -28.042   3.432   9.659  1.00  0.00     0.293 HD
ENDBRANCH  17  20
BRANCH  15  22
ATOM     22  O   UNL     1     -24.126   1.145  12.993  1.00  0.00    -0.508 OA
ATOM     23  H   UNL     1     -23.902   2.017  13.458  1.00  0.00     0.293 HD
ENDBRANCH  15  22
TORSDOF 3
ENDMDL
MODEL 6
REMARK VINA RESULT:    -6.458      1.638      3.640
REMARK INTER + INTRA:          -7.024
REMARK INTER:                  -7.024
REMARK INTRA:                   0.000
REMARK UNBOUND:                 0.000
REMARK SMILES Cc1cc(O)c2c(c1)C(=O)c1cc(O)cc(O)c1C2=O
REMARK SMILES IDX 1 1 2 2 8 3 7 4 6 5 4 6 3 7 19 8 20 9 18 10 11 11 9 12 10 13
REMARK SMILES IDX 12 14 13 15 15 16 16 17 5 18 17 20 14 22
REMARK H PARENT 5 19 17 21 14 23
REMARK Flexibility Score: inf
ROOT
ATOM      1  C   UNL     1     -24.706  -6.276  11.082  1.00  0.00     0.044 C 
ATOM      2  C   UNL     1     -24.604  -4.827  11.459  1.00  0.00    -0.047 A 
ATOM      3  C   UNL     1     -25.146  -3.843  10.626  1.00  0.00     0.016 A 
ATOM      4  C   UNL     1     -25.018  -2.481  10.948  1.00  0.00     0.038 A 
ATOM      5  C   UNL     1     -24.310  -2.097  12.110  1.00  0.00     0.076 A 
ATOM      6  C   UNL     1     -23.802  -3.101  12.975  1.00  0.00     0.127 A 
ATOM      7  C   UNL     1     -23.925  -4.448  12.622  1.00  0.00     0.050 A 
ATOM      8  C   UNL     1     -24.069  -0.648  12.337  1.00  0.00     0.201 C 
ATOM      9  O   UNL     1     -23.038  -0.274  12.955  1.00  0.00    -0.288 OA
ATOM     10  C   UNL     1     -24.940   0.358  11.676  1.00  0.00     0.076 A 
ATOM     11  C   UNL     1     -25.645  -0.031  10.514  1.00  0.00     0.041 A 
ATOM     12  C   UNL     1     -25.622  -1.446  10.076  1.00  0.00     0.194 C 
ATOM     13  O   UNL     1     -26.141  -1.775   8.974  1.00  0.00    -0.289 OA
ATOM     14  C   UNL     1     -26.368   0.927   9.782  1.00  0.00     0.059 A 
ATOM     15  C   UNL     1     -26.407   2.259  10.203  1.00  0.00     0.120 A 
ATOM     16  C   UNL     1     -25.746   2.638  11.371  1.00  0.00     0.093 A 
ATOM     17  C   UNL     1     -25.036   1.700  12.128  1.00  0.00     0.131 A 
ENDROOT
BRANCH   6  18
ATOM     18  O   UNL     1     -23.201  -2.807  14.200  1.00  0.00    -0.507 OA
ATOM     19  H   UNL     1     -22.290  -3.151  14.473  1.00  0.00     0.293 HD
ENDBRANCH   6  18
BRANCH  17  20
ATOM     20  O   UNL     1     -24.477   2.134  13.332  1.00  0.00    -0.507 OA
ATOM     21  H   UNL     1     -25.025   2.432  14.127  1.00  0.00     0.293 HD
ENDBRANCH  17  20
BRANCH  15  22
ATOM     22  O   UNL     1     -27.113   3.213   9.473  1.00  0.00    -0.508 OA
ATOM     23  H   UNL     1     -27.184   4.175   9.785  1.00  0.00     0.293 HD
ENDBRANCH  15  22
TORSDOF 3
ENDMDL
MODEL 7
REMARK VINA RESULT:    -6.321      2.979      5.716
REMARK INTER + INTRA:          -6.875
REMARK INTER:                  -6.875
REMARK INTRA:                   0.000
REMARK UNBOUND:                 0.000
REMARK SMILES Cc1cc(O)c2c(c1)C(=O)c1cc(O)cc(O)c1C2=O
REMARK SMILES IDX 1 1 2 2 8 3 7 4 6 5 4 6 3 7 19 8 20 9 18 10 11 11 9 12 10 13
REMARK SMILES IDX 12 14 13 15 15 16 16 17 5 18 17 20 14 22
REMARK H PARENT 5 19 17 21 14 23
REMARK Flexibility Score: inf
ROOT
ATOM      1  C   UNL     1     -24.900   2.125  12.654  1.00  0.00     0.044 C 
ATOM      2  C   UNL     1     -25.595   1.702  11.392  1.00  0.00    -0.047 A 
ATOM      3  C   UNL     1     -25.475   0.388  10.929  1.00  0.00     0.016 A 
ATOM      4  C   UNL     1     -26.085  -0.007   9.726  1.00  0.00     0.038 A 
ATOM      5  C   UNL     1     -26.805   0.938   8.960  1.00  0.00     0.076 A 
ATOM      6  C   UNL     1     -26.961   2.258   9.457  1.00  0.00     0.127 A 
ATOM      7  C   UNL     1     -26.328   2.632  10.647  1.00  0.00     0.050 A 
ATOM      8  C   UNL     1     -27.308   0.521   7.626  1.00  0.00     0.201 C 
ATOM      9  O   UNL     1     -27.422   1.372   6.704  1.00  0.00    -0.288 OA
ATOM     10  C   UNL     1     -27.497  -0.922   7.325  1.00  0.00     0.076 A 
ATOM     11  C   UNL     1     -26.774  -1.863   8.094  1.00  0.00     0.041 A 
ATOM     12  C   UNL     1     -25.979  -1.410   9.259  1.00  0.00     0.194 C 
ATOM     13  O   UNL     1     -25.233  -2.223   9.870  1.00  0.00    -0.289 OA
ATOM     14  C   UNL     1     -26.818  -3.226   7.752  1.00  0.00     0.059 A 
ATOM     15  C   UNL     1     -27.582  -3.659   6.666  1.00  0.00     0.120 A 
ATOM     16  C   UNL     1     -28.328  -2.740   5.930  1.00  0.00     0.093 A 
ATOM     17  C   UNL     1     -28.317  -1.381   6.262  1.00  0.00     0.131 A 
ENDROOT
BRANCH   6  18
ATOM     18  O   UNL     1     -27.758   3.214   8.823  1.00  0.00    -0.507 OA
ATOM     19  H   UNL     1     -27.978   3.193   7.837  1.00  0.00     0.293 HD
ENDBRANCH   6  18
BRANCH  17  20
ATOM     20  O   UNL     1     -29.159  -0.534   5.538  1.00  0.00    -0.507 OA
ATOM     21  H   UNL     1     -29.000  -0.280   4.572  1.00  0.00     0.293 HD
ENDBRANCH  17  20
BRANCH  15  22
ATOM     22  O   UNL     1     -27.618  -5.008   6.317  1.00  0.00    -0.508 OA
ATOM     23  H   UNL     1     -28.412  -5.410   5.831  1.00  0.00     0.293 HD
ENDBRANCH  15  22
TORSDOF 3
ENDMDL
MODEL 8
REMARK VINA RESULT:    -6.226      1.615      5.775
REMARK INTER + INTRA:          -6.773
REMARK INTER:                  -6.773
REMARK INTRA:                   0.000
REMARK UNBOUND:                 0.000
REMARK SMILES Cc1cc(O)c2c(c1)C(=O)c1cc(O)cc(O)c1C2=O
REMARK SMILES IDX 1 1 2 2 8 3 7 4 6 5 4 6 3 7 19 8 20 9 18 10 11 11 9 12 10 13
REMARK SMILES IDX 12 14 13 15 15 16 16 17 5 18 17 20 14 22
REMARK H PARENT 5 19 17 21 14 23
REMARK Flexibility Score: inf
ROOT
ATOM      1  C   UNL     1     -28.986   2.978   7.416  1.00  0.00     0.044 C 
ATOM      2  C   UNL     1     -28.116   1.888   7.970  1.00  0.00    -0.047 A 
ATOM      3  C   UNL     1     -27.327   2.122   9.101  1.00  0.00     0.016 A 
ATOM      4  C   UNL     1     -26.476   1.122   9.601  1.00  0.00     0.038 A 
ATOM      5  C   UNL     1     -26.392  -0.125   8.941  1.00  0.00     0.076 A 
ATOM      6  C   UNL     1     -27.228  -0.373   7.821  1.00  0.00     0.127 A 
ATOM      7  C   UNL     1     -28.052   0.645   7.331  1.00  0.00     0.050 A 
ATOM      8  C   UNL     1     -25.375  -1.101   9.412  1.00  0.00     0.201 C 
ATOM      9  O   UNL     1     -24.860  -1.911   8.597  1.00  0.00    -0.288 OA
ATOM     10  C   UNL     1     -24.832  -0.994  10.791  1.00  0.00     0.076 A 
ATOM     11  C   UNL     1     -24.918   0.255  11.447  1.00  0.00     0.041 A 
ATOM     12  C   UNL     1     -25.668   1.368  10.819  1.00  0.00     0.194 C 
ATOM     13  O   UNL     1     -25.641   2.519  11.336  1.00  0.00    -0.289 OA
ATOM     14  C   UNL     1     -24.294   0.434  12.694  1.00  0.00     0.059 A 
ATOM     15  C   UNL     1     -23.602  -0.619  13.297  1.00  0.00     0.120 A 
ATOM     16  C   UNL     1     -23.550  -1.865  12.673  1.00  0.00     0.093 A 
ATOM     17  C   UNL     1     -24.179  -2.074  11.441  1.00  0.00     0.131 A 
ENDROOT
BRANCH   6  18
ATOM     18  O   UNL     1     -27.295  -1.617   7.190  1.00  0.00    -0.507 OA
ATOM     19  H   UNL     1     -28.028  -1.878   6.545  1.00  0.00     0.293 HD
ENDBRANCH   6  18
BRANCH  17  20
ATOM     20  O   UNL     1     -24.161  -3.370  10.920  1.00  0.00    -0.507 OA
ATOM     21  H   UNL     1     -24.436  -4.187  11.447  1.00  0.00     0.293 HD
ENDBRANCH  17  20
BRANCH  15  22
ATOM     22  O   UNL     1     -22.973  -0.442  14.528  1.00  0.00    -0.508 OA
ATOM     23  H   UNL     1     -22.219  -1.048  14.831  1.00  0.00     0.293 HD
ENDBRANCH  15  22
TORSDOF 3
ENDMDL
MODEL 9
REMARK VINA RESULT:    -6.200      1.875      3.709
REMARK INTER + INTRA:          -6.744
REMARK INTER:                  -6.744
REMARK INTRA:                   0.000
REMARK UNBOUND:                 0.000
REMARK SMILES Cc1cc(O)c2c(c1)C(=O)c1cc(O)cc(O)c1C2=O
REMARK SMILES IDX 1 1 2 2 8 3 7 4 6 5 4 6 3 7 19 8 20 9 18 10 11 11 9 12 10 13
REMARK SMILES IDX 12 14 13 15 15 16 16 17 5 18 17 20 14 22
REMARK H PARENT 5 19 17 21 14 23
REMARK Flexibility Score: inf
ROOT
ATOM      1  C   UNL     1     -22.630  -6.461  14.122  1.00  0.00     0.044 C 
ATOM      2  C   UNL     1     -22.848  -4.984  13.975  1.00  0.00    -0.047 A 
ATOM      3  C   UNL     1     -23.704  -4.493  12.983  1.00  0.00     0.016 A 
ATOM      4  C   UNL     1     -23.881  -3.110  12.809  1.00  0.00     0.038 A 
ATOM      5  C   UNL     1     -23.167  -2.202  13.623  1.00  0.00     0.076 A 
ATOM      6  C   UNL     1     -22.336  -2.705  14.657  1.00  0.00     0.127 A 
ATOM      7  C   UNL     1     -22.161  -4.085  14.798  1.00  0.00     0.050 A 
ATOM      8  C   UNL     1     -23.268  -0.753  13.311  1.00  0.00     0.201 C 
ATOM      9  O   UNL     1     -22.300   0.012  13.564  1.00  0.00    -0.288 OA
ATOM     10  C   UNL     1     -24.427  -0.243  12.534  1.00  0.00     0.076 A 
ATOM     11  C   UNL     1     -25.138  -1.156  11.720  1.00  0.00     0.041 A 
ATOM     12  C   UNL     1     -24.814  -2.601  11.776  1.00  0.00     0.194 C 
ATOM     13  O   UNL     1     -25.354  -3.401  10.963  1.00  0.00    -0.289 OA
ATOM     14  C   UNL     1     -26.150  -0.688  10.865  1.00  0.00     0.059 A 
ATOM     15  C   UNL     1     -26.471   0.672  10.824  1.00  0.00     0.120 A 
ATOM     16  C   UNL     1     -25.800   1.569  11.654  1.00  0.00     0.093 A 
ATOM     17  C   UNL     1     -24.802   1.126  12.528  1.00  0.00     0.131 A 
ENDROOT
BRANCH   6  18
ATOM     18  O   UNL     1     -21.695  -1.876  15.580  1.00  0.00    -0.507 OA
ATOM     19  H   UNL     1     -20.729  -1.990  15.857  1.00  0.00     0.293 HD
ENDBRANCH   6  18
BRANCH  17  20
ATOM     20  O   UNL     1     -24.239   2.067  13.393  1.00  0.00    -0.507 OA
ATOM     21  H   UNL     1     -23.702   1.820  14.213  1.00  0.00     0.293 HD
ENDBRANCH  17  20
BRANCH  15  22
ATOM     22  O   UNL     1     -27.466   1.140   9.968  1.00  0.00    -0.508 OA
ATOM     23  H   UNL     1     -28.099   0.507   9.493  1.00  0.00     0.293 HD
ENDBRANCH  15  22
TORSDOF 3
ENDMDL
