MODEL 1
REMARK VINA RESULT:    -3.016      0.000      0.000
REMARK INTER + INTRA:          -3.580
REMARK INTER:                  -3.545
REMARK INTRA:                  -0.036
REMARK UNBOUND:                -0.036
REMARK SMILES O=C([O-])CCC(=O)[O-]
REMARK SMILES IDX 4 1 2 2 1 3 3 4 5 5 6 6 7 7 8 8
REMARK H PARENT
REMARK Flexibility Score: inf
ROOT
ATOM      1  C   UNL     1      25.934 -12.616 -22.067  1.00  0.00     0.059 C 
ENDROOT
BRANCH   1   2
ATOM      2  C   UNL     1      26.813 -13.072 -20.945  1.00  0.00     0.042 C 
ATOM      3  O   UNL     1      27.723 -13.916 -21.156  1.00  0.00    -0.550 OA
ATOM      4  O   UNL     1      26.596 -12.599 -19.658  1.00  0.00    -0.550 OA
ENDBRANCH   1   2
BRANCH   1   5
ATOM      5  C   UNL     1      24.831 -13.641 -22.333  1.00  0.00     0.059 C 
BRANCH   5   6
ATOM      6  C   UNL     1      24.339 -13.528 -23.741  1.00  0.00     0.042 C 
ATOM      7  O   UNL     1      24.419 -12.431 -24.354  1.00  0.00    -0.550 OA
ATOM      8  O   UNL     1      23.748 -14.622 -24.361  1.00  0.00    -0.550 OA
ENDBRANCH   5   6
ENDBRANCH   1   5
TORSDOF 3
ENDMDL
MODEL 2
REMARK VINA RESULT:    -3.015      4.602      7.030
REMARK INTER + INTRA:          -3.580
REMARK INTER:                  -3.550
REMARK INTRA:                  -0.029
REMARK UNBOUND:                -0.036
REMARK SMILES O=C([O-])CCC(=O)[O-]
REMARK SMILES IDX 4 1 2 2 1 3 3 4 5 5 6 6 7 7 8 8
REMARK H PARENT
REMARK Flexibility Score: inf
ROOT
ATOM      1  C   UNL     1      27.138 -10.294 -18.295  1.00  0.00     0.059 C 
ENDROOT
BRANCH   1   2
ATOM      2  C   UNL     1      26.575 -11.674 -18.164  1.00  0.00     0.042 C 
ATOM      3  O   UNL     1      26.575 -12.455 -19.152  1.00  0.00    -0.550 OA
ATOM      4  O   UNL     1      26.007 -12.081 -16.964  1.00  0.00    -0.550 OA
ENDBRANCH   1   2
BRANCH   1   5
ATOM      5  C   UNL     1      27.738  -9.832 -16.967  1.00  0.00     0.059 C 
BRANCH   5   6
ATOM      6  C   UNL     1      28.373  -8.486 -17.119  1.00  0.00     0.042 C 
ATOM      7  O   UNL     1      27.712  -7.442 -16.876  1.00  0.00    -0.550 OA
ATOM      8  O   UNL     1      29.681  -8.382 -17.575  1.00  0.00    -0.550 OA
ENDBRANCH   5   6
ENDBRANCH   1   5
TORSDOF 3
ENDMDL
MODEL 3
REMARK VINA RESULT:    -2.998      2.798      5.374
REMARK INTER + INTRA:          -3.559
REMARK INTER:                  -3.533
REMARK INTRA:                  -0.026
REMARK UNBOUND:                -0.036
REMARK SMILES O=C([O-])CCC(=O)[O-]
REMARK SMILES IDX 4 1 2 2 1 3 3 4 5 5 6 6 7 7 8 8
REMARK H PARENT
REMARK Flexibility Score: inf
ROOT
ATOM      1  C   UNL     1      26.621 -11.623 -19.688  1.00  0.00     0.059 C 
ENDROOT
BRANCH   1   2
ATOM      2  C   UNL     1      26.736 -12.815 -20.585  1.00  0.00     0.042 C 
ATOM      3  O   UNL     1      27.869 -13.277 -20.884  1.00  0.00    -0.550 OA
ATOM      4  O   UNL     1      25.594 -13.386 -21.131  1.00  0.00    -0.550 OA
ENDBRANCH   1   2
BRANCH   1   5
ATOM      5  C   UNL     1      26.654 -12.052 -18.221  1.00  0.00     0.059 C 
BRANCH   5   6
ATOM      6  C   UNL     1      26.455 -10.870 -17.326  1.00  0.00     0.042 C 
ATOM      7  O   UNL     1      27.449 -10.238 -16.880  1.00  0.00    -0.550 OA
ATOM      8  O   UNL     1      25.173 -10.495 -16.944  1.00  0.00    -0.550 OA
ENDBRANCH   5   6
ENDBRANCH   1   5
TORSDOF 3
ENDMDL
MODEL 4
REMARK VINA RESULT:    -2.967      4.896      6.484
REMARK INTER + INTRA:          -3.523
REMARK INTER:                  -3.363
REMARK INTRA:                  -0.160
REMARK UNBOUND:                -0.036
REMARK SMILES O=C([O-])CCC(=O)[O-]
REMARK SMILES IDX 4 1 2 2 1 3 3 4 5 5 6 6 7 7 8 8
REMARK H PARENT
REMARK Flexibility Score: inf
ROOT
ATOM      1  C   UNL     1      25.244 -10.116 -16.875  1.00  0.00     0.059 C 
ENDROOT
BRANCH   1   2
ATOM      2  C   UNL     1      25.046  -8.765 -17.487  1.00  0.00     0.042 C 
ATOM      3  O   UNL     1      25.448  -7.733 -16.887  1.00  0.00    -0.550 OA
ATOM      4  O   UNL     1      24.375  -8.642 -18.696  1.00  0.00    -0.550 OA
ENDBRANCH   1   2
BRANCH   1   5
ATOM      5  C   UNL     1      26.712 -10.535 -16.964  1.00  0.00     0.059 C 
BRANCH   5   6
ATOM      6  C   UNL     1      27.068 -10.898 -18.371  1.00  0.00     0.042 C 
ATOM      7  O   UNL     1      26.576 -11.927 -18.904  1.00  0.00    -0.550 OA
ATOM      8  O   UNL     1      27.983 -10.127 -19.078  1.00  0.00    -0.550 OA
ENDBRANCH   5   6
ENDBRANCH   1   5
TORSDOF 3
ENDMDL
MODEL 5
REMARK VINA RESULT:    -2.964      4.815      6.639
REMARK INTER + INTRA:          -3.520
REMARK INTER:                  -3.408
REMARK INTRA:                  -0.111
REMARK UNBOUND:                -0.036
REMARK SMILES O=C([O-])CCC(=O)[O-]
REMARK SMILES IDX 4 1 2 2 1 3 3 4 5 5 6 6 7 7 8 8
REMARK H PARENT
REMARK Flexibility Score: inf
ROOT
ATOM      1  C   UNL     1      26.961 -10.089 -18.165  1.00  0.00     0.059 C 
ENDROOT
BRANCH   1   2
ATOM      2  C   UNL     1      26.623 -11.539 -18.021  1.00  0.00     0.042 C 
ATOM      3  O   UNL     1      26.894 -12.348 -18.947  1.00  0.00    -0.550 OA
ATOM      4  O   UNL     1      25.966 -11.990 -16.883  1.00  0.00    -0.550 OA
ENDBRANCH   1   2
BRANCH   1   5
ATOM      5  C   UNL     1      26.638  -9.334 -16.875  1.00  0.00     0.059 C 
BRANCH   5   6
ATOM      6  C   UNL     1      25.566  -8.319 -17.117  1.00  0.00     0.042 C 
ATOM      7  O   UNL     1      24.379  -8.687 -17.321  1.00  0.00    -0.550 OA
ATOM      8  O   UNL     1      25.886  -6.968 -17.165  1.00  0.00    -0.550 OA
ENDBRANCH   5   6
ENDBRANCH   1   5
TORSDOF 3
ENDMDL
MODEL 6
REMARK VINA RESULT:    -2.956      2.939      4.502
REMARK INTER + INTRA:          -3.510
REMARK INTER:                  -3.477
REMARK INTRA:                  -0.032
REMARK UNBOUND:                -0.036
REMARK SMILES O=C([O-])CCC(=O)[O-]
REMARK SMILES IDX 4 1 2 2 1 3 3 4 5 5 6 6 7 7 8 8
REMARK H PARENT
REMARK Flexibility Score: inf
ROOT
ATOM      1  C   UNL     1      26.645 -12.035 -18.193  1.00  0.00     0.059 C 
ENDROOT
BRANCH   1   2
ATOM      2  C   UNL     1      26.433 -10.783 -17.402  1.00  0.00     0.042 C 
ATOM      3  O   UNL     1      27.412 -10.192 -16.875  1.00  0.00    -0.550 OA
ATOM      4  O   UNL     1      25.147 -10.296 -17.205  1.00  0.00    -0.550 OA
ENDBRANCH   1   2
BRANCH   1   5
ATOM      5  C   UNL     1      27.235 -11.707 -19.565  1.00  0.00     0.059 C 
BRANCH   5   6
ATOM      6  C   UNL     1      27.038 -12.852 -20.508  1.00  0.00     0.042 C 
ATOM      7  O   UNL     1      25.881 -13.299 -20.728  1.00  0.00    -0.550 OA
ATOM      8  O   UNL     1      28.136 -13.457 -21.105  1.00  0.00    -0.550 OA
ENDBRANCH   5   6
ENDBRANCH   1   5
TORSDOF 3
ENDMDL
MODEL 7
REMARK VINA RESULT:    -2.940      4.017      5.762
REMARK INTER + INTRA:          -3.492
REMARK INTER:                  -3.407
REMARK INTRA:                  -0.085
REMARK UNBOUND:                -0.036
REMARK SMILES O=C([O-])CCC(=O)[O-]
REMARK SMILES IDX 4 1 2 2 1 3 3 4 5 5 6 6 7 7 8 8
REMARK H PARENT
REMARK Flexibility Score: inf
ROOT
ATOM      1  C   UNL     1      26.329  -9.327 -18.547  1.00  0.00     0.059 C 
ENDROOT
BRANCH   1   2
ATOM      2  C   UNL     1      24.950  -8.748 -18.504  1.00  0.00     0.042 C 
ATOM      3  O   UNL     1      24.293  -8.756 -17.431  1.00  0.00    -0.550 OA
ATOM      4  O   UNL     1      24.373  -8.243 -19.662  1.00  0.00    -0.550 OA
ENDBRANCH   1   2
BRANCH   1   5
ATOM      5  C   UNL     1      26.430 -10.390 -19.642  1.00  0.00     0.059 C 
BRANCH   5   6
ATOM      6  C   UNL     1      26.634 -11.744 -19.040  1.00  0.00     0.042 C 
ATOM      7  O   UNL     1      26.829 -12.744 -19.780  1.00  0.00    -0.550 OA
ATOM      8  O   UNL     1      26.562 -11.910 -17.663  1.00  0.00    -0.550 OA
ENDBRANCH   5   6
ENDBRANCH   1   5
TORSDOF 3
ENDMDL
MODEL 8
REMARK VINA RESULT:    -2.898     19.264     19.924
REMARK INTER + INTRA:          -3.442
REMARK INTER:                  -3.379
REMARK INTRA:                  -0.063
REMARK UNBOUND:                -0.036
REMARK SMILES O=C([O-])CCC(=O)[O-]
REMARK SMILES IDX 4 1 2 2 1 3 3 4 5 5 6 6 7 7 8 8
REMARK H PARENT
REMARK Flexibility Score: inf
ROOT
ATOM      1  C   UNL     1      35.545  -3.624 -35.145  1.00  0.00     0.059 C 
ENDROOT
BRANCH   1   2
ATOM      2  C   UNL     1      36.684  -4.278 -35.862  1.00  0.00     0.042 C 
ATOM      3  O   UNL     1      36.722  -4.282 -37.121  1.00  0.00    -0.550 OA
ATOM      4  O   UNL     1      37.678  -4.927 -35.141  1.00  0.00    -0.550 OA
ENDBRANCH   1   2
BRANCH   1   5
ATOM      5  C   UNL     1      34.582  -2.981 -36.143  1.00  0.00     0.059 C 
BRANCH   5   6
ATOM      6  C   UNL     1      34.424  -1.522 -35.853  1.00  0.00     0.042 C 
ATOM      7  O   UNL     1      34.346  -0.692 -36.798  1.00  0.00    -0.550 OA
ATOM      8  O   UNL     1      34.412  -1.072 -34.539  1.00  0.00    -0.550 OA
ENDBRANCH   5   6
ENDBRANCH   1   5
TORSDOF 3
ENDMDL
