MODEL 1
REMARK VINA RESULT:    -0.337      0.000      0.000
REMARK INTER + INTRA:           1.093
REMARK INTER:                  -0.642
REMARK INTRA:                   1.735
REMARK UNBOUND:                 1.735
REMARK SMILES C[C@@H]1O[C@H](O[C@H]2[C@@H](O)[C@@H](OCCc3ccc(O)c(O)c3)O[C@@H](CO)[C@@H]2OC(=O)C=Cc2ccc(O)c(O)c2)[C@@H](O)[C@@H](O)[C@H]1O
REMARK SMILES IDX 6 1 7 2 9 3 21 4 22 5 25 6 5 7 4 8 1 9 2 10 43 11 3 12 41 13
REMARK SMILES IDX 39 14 44 15 42 17 40 19 8 21 26 23 27 24 28 25 29 26 30 27
REMARK SMILES IDX 31 28 38 29 32 30 36 31 33 32 34 33 37 34 35 36 10 38 11 39
REMARK SMILES IDX 12 40 13 41 20 42 14 43 18 44 15 45 16 46 19 47 17 49 23 51
REMARK SMILES IDX 24 52
REMARK H PARENT 44 16 42 18 40 20 8 22 37 35 35 37 19 48 17 50 24 53
REMARK Flexibility Score: inf
ROOT
ATOM      1  C   UNL     1      19.767 -45.944   7.515  1.00  0.00     0.199 C 
ATOM      2  C   UNL     1      20.579 -45.031   8.415  1.00  0.00     0.203 C 
ATOM      3  C   UNL     1      21.253 -43.839   7.655  1.00  0.00     0.282 C 
ATOM      4  O   UNL     1      21.045 -43.720   6.243  1.00  0.00    -0.340 OA
ATOM      5  C   UNL     1      19.833 -44.202   5.671  1.00  0.00     0.190 C 
ATOM      6  C   UNL     1      18.934 -45.072   6.588  1.00  0.00     0.240 C 
ENDROOT
BRANCH   1   7
ATOM      7  O   UNL     1      20.653 -46.776   6.784  1.00  0.00    -0.340 OA
BRANCH   7   8
ATOM      8  C   UNL     1      20.251 -48.135   6.761  1.00  0.00     0.282 C 
ATOM      9  C   UNL     1      21.702 -51.009   8.515  1.00  0.00     0.041 C 
ATOM     10  C   UNL     1      20.602 -50.159   7.869  1.00  0.00     0.150 C 
ATOM     11  C   UNL     1      19.347 -50.086   8.782  1.00  0.00     0.174 C 
ATOM     12  O   UNL     1      21.112 -48.858   7.630  1.00  0.00    -0.344 OA
ATOM     13  C   UNL     1      18.661 -48.707   8.656  1.00  0.00     0.179 C 
ATOM     14  C   UNL     1      18.762 -48.186   7.213  1.00  0.00     0.202 C 
BRANCH  11  15
ATOM     15  O   UNL     1      18.454 -51.115   8.423  1.00  0.00    -0.388 OA
ATOM     16  H   UNL     1      18.301 -51.039   7.441  1.00  0.00     0.211 HD
ENDBRANCH  11  15
BRANCH  13  17
ATOM     17  O   UNL     1      17.320 -48.780   9.068  1.00  0.00    -0.387 OA
ATOM     18  H   UNL     1      17.068 -47.891   9.421  1.00  0.00     0.211 HD
ENDBRANCH  13  17
BRANCH  14  19
ATOM     19  O   UNL     1      18.038 -49.021   6.342  1.00  0.00    -0.385 OA
ATOM     20  H   UNL     1      17.722 -49.803   6.860  1.00  0.00     0.211 HD
ENDBRANCH  14  19
ENDBRANCH   7   8
ENDBRANCH   1   7
BRANCH   2  21
ATOM     21  O   UNL     1      21.515 -45.807   9.124  1.00  0.00    -0.385 OA
ATOM     22  H   UNL     1      21.038 -46.184   9.916  1.00  0.00     0.211 HD
ENDBRANCH   2  21
BRANCH   6  23
ATOM     23  O   UNL     1      18.106 -44.222   7.389  1.00  0.00    -0.453 OA
BRANCH  23  24
ATOM     24  C   UNL     1      17.233 -44.678   8.380  1.00  0.00     0.331 C 
ATOM     25  O   UNL     1      17.539 -45.666   9.109  1.00  0.00    -0.247 OA
BRANCH  24  26
ATOM     26  C   UNL     1      15.960 -43.973   8.551  1.00  0.00     0.094 C 
ATOM     27  C   UNL     1      14.768 -44.575   8.438  1.00  0.00     0.016 C 
BRANCH  27  28
ATOM     28  C   UNL     1      13.482 -43.879   8.661  1.00  0.00    -0.021 A 
ATOM     29  C   UNL     1      12.242 -44.549   8.604  1.00  0.00     0.058 A 
ATOM     30  C   UNL     1      13.495 -42.501   8.926  1.00  0.00     0.012 A 
ATOM     31  C   UNL     1      11.045 -43.848   8.760  1.00  0.00     0.157 A 
ATOM     32  C   UNL     1      12.297 -41.795   9.070  1.00  0.00     0.051 A 
ATOM     33  C   UNL     1      11.069 -42.463   8.978  1.00  0.00     0.157 A 
BRANCH  31  34
ATOM     34  O   UNL     1       9.836 -44.541   8.699  1.00  0.00    -0.504 OA
ATOM     35  H   UNL     1       8.941 -44.071   8.656  1.00  0.00     0.293 HD
ENDBRANCH  31  34
BRANCH  33  36
ATOM     36  O   UNL     1       9.876 -41.762   9.116  1.00  0.00    -0.504 OA
ATOM     37  H   UNL     1       9.522 -41.476  10.025  1.00  0.00     0.293 HD
ENDBRANCH  33  36
ENDBRANCH  27  28
ENDBRANCH  24  26
ENDBRANCH  23  24
ENDBRANCH   6  23
BRANCH   3  38
ATOM     38  O   UNL     1      22.641 -43.797   7.950  1.00  0.00    -0.350 OA
BRANCH  38  39
ATOM     39  C   UNL     1      23.289 -45.035   7.683  1.00  0.00     0.168 C 
BRANCH  39  40
ATOM     40  C   UNL     1      23.614 -45.153   6.192  1.00  0.00     0.064 C 
BRANCH  40  41
ATOM     41  C   UNL     1      23.764 -46.598   5.796  1.00  0.00    -0.042 A 
ATOM     42  C   UNL     1      23.776 -46.951   4.435  1.00  0.00     0.054 A 
ATOM     43  C   UNL     1      23.816 -47.596   6.768  1.00  0.00     0.008 A 
ATOM     44  C   UNL     1      23.878 -48.288   4.046  1.00  0.00     0.157 A 
ATOM     45  C   UNL     1      23.928 -48.938   6.391  1.00  0.00     0.050 A 
ATOM     46  C   UNL     1      23.975 -49.291   5.025  1.00  0.00     0.157 A 
BRANCH  44  47
ATOM     47  O   UNL     1      23.882 -48.592   2.690  1.00  0.00    -0.504 OA
ATOM     48  H   UNL     1      23.086 -48.410   2.084  1.00  0.00     0.293 HD
ENDBRANCH  44  47
BRANCH  46  49
ATOM     49  O   UNL     1      24.125 -50.618   4.653  1.00  0.00    -0.504 OA
ATOM     50  H   UNL     1      24.575 -50.871   3.773  1.00  0.00     0.293 HD
ENDBRANCH  46  49
ENDBRANCH  40  41
ENDBRANCH  39  40
ENDBRANCH  38  39
ENDBRANCH   3  38
BRANCH   5  51
ATOM     51  C   UNL     1      20.217 -44.934   4.367  1.00  0.00     0.192 C 
BRANCH  51  52
ATOM     52  O   UNL     1      20.491 -46.299   4.585  1.00  0.00    -0.394 OA
ATOM     53  H   UNL     1      20.790 -46.657   3.710  1.00  0.00     0.210 HD
ENDBRANCH  51  52
ENDBRANCH   5  51
TORSDOF 20
ENDMDL
MODEL 2
REMARK VINA RESULT:     0.160      1.534      4.548
REMARK INTER + INTRA:           2.040
REMARK INTER:                  -3.360
REMARK INTRA:                   5.400
REMARK UNBOUND:                 1.735
REMARK SMILES C[C@@H]1O[C@H](O[C@H]2[C@@H](O)[C@@H](OCCc3ccc(O)c(O)c3)O[C@@H](CO)[C@@H]2OC(=O)C=Cc2ccc(O)c(O)c2)[C@@H](O)[C@@H](O)[C@H]1O
REMARK SMILES IDX 6 1 7 2 9 3 21 4 22 5 25 6 5 7 4 8 1 9 2 10 43 11 3 12 41 13
REMARK SMILES IDX 39 14 44 15 42 17 40 19 8 21 26 23 27 24 28 25 29 26 30 27
REMARK SMILES IDX 31 28 38 29 32 30 36 31 33 32 34 33 37 34 35 36 10 38 11 39
REMARK SMILES IDX 12 40 13 41 20 42 14 43 18 44 15 45 16 46 19 47 17 49 23 51
REMARK SMILES IDX 24 52
REMARK H PARENT 44 16 42 18 40 20 8 22 37 35 35 37 19 48 17 50 24 53
REMARK Flexibility Score: inf
ROOT
ATOM      1  C   UNL     1      19.337 -46.187   6.905  1.00  0.00     0.199 C 
ATOM      2  C   UNL     1      18.671 -47.527   6.652  1.00  0.00     0.203 C 
ATOM      3  C   UNL     1      19.203 -48.676   7.573  1.00  0.00     0.282 C 
ATOM      4  O   UNL     1      20.222 -48.370   8.533  1.00  0.00    -0.340 OA
ATOM      5  C   UNL     1      20.288 -47.060   9.089  1.00  0.00     0.190 C 
ATOM      6  C   UNL     1      19.413 -45.975   8.409  1.00  0.00     0.240 C 
ENDROOT
BRANCH   1   7
ATOM      7  O   UNL     1      20.628 -46.198   6.319  1.00  0.00    -0.340 OA
BRANCH   7   8
ATOM      8  C   UNL     1      21.239 -44.919   6.292  1.00  0.00     0.282 C 
ATOM      9  C   UNL     1      20.072 -41.765   7.753  1.00  0.00     0.041 C 
ATOM     10  C   UNL     1      21.089 -42.807   7.274  1.00  0.00     0.150 C 
ATOM     11  C   UNL     1      22.209 -43.018   8.331  1.00  0.00     0.174 C 
ATOM     12  O   UNL     1      20.412 -44.026   7.026  1.00  0.00    -0.344 OA
ATOM     13  C   UNL     1      22.679 -44.490   8.338  1.00  0.00     0.179 C 
ATOM     14  C   UNL     1      22.658 -45.070   6.914  1.00  0.00     0.202 C 
BRANCH  11  15
ATOM     15  O   UNL     1      23.286 -42.158   8.041  1.00  0.00    -0.388 OA
ATOM     16  H   UNL     1      23.656 -41.850   8.914  1.00  0.00     0.211 HD
ENDBRANCH  11  15
BRANCH  13  17
ATOM     17  O   UNL     1      23.961 -44.598   8.903  1.00  0.00    -0.387 OA
ATOM     18  H   UNL     1      24.556 -44.992   8.217  1.00  0.00     0.211 HD
ENDBRANCH  13  17
BRANCH  14  19
ATOM     19  O   UNL     1      23.596 -44.403   6.104  1.00  0.00    -0.385 OA
ATOM     20  H   UNL     1      23.417 -44.650   5.162  1.00  0.00     0.211 HD
ENDBRANCH  14  19
ENDBRANCH   7   8
ENDBRANCH   1   7
BRANCH   2  21
ATOM     21  O   UNL     1      18.788 -47.843   5.286  1.00  0.00    -0.385 OA
ATOM     22  H   UNL     1      19.710 -48.199   5.149  1.00  0.00     0.211 HD
ENDBRANCH   2  21
BRANCH   6  23
ATOM     23  O   UNL     1      18.085 -46.030   8.941  1.00  0.00    -0.453 OA
BRANCH  23  24
ATOM     24  C   UNL     1      16.925 -46.094   8.164  1.00  0.00     0.331 C 
ATOM     25  O   UNL     1      16.874 -46.830   7.137  1.00  0.00    -0.247 OA
BRANCH  24  26
ATOM     26  C   UNL     1      15.774 -45.289   8.582  1.00  0.00     0.094 C 
ATOM     27  C   UNL     1      14.924 -44.722   7.716  1.00  0.00     0.016 C 
BRANCH  27  28
ATOM     28  C   UNL     1      13.731 -43.952   8.133  1.00  0.00    -0.021 A 
ATOM     29  C   UNL     1      12.496 -44.571   8.414  1.00  0.00     0.058 A 
ATOM     30  C   UNL     1      13.830 -42.557   8.243  1.00  0.00     0.012 A 
ATOM     31  C   UNL     1      11.376 -43.808   8.748  1.00  0.00     0.157 A 
ATOM     32  C   UNL     1      12.707 -41.790   8.565  1.00  0.00     0.051 A 
ATOM     33  C   UNL     1      11.475 -42.411   8.809  1.00  0.00     0.157 A 
BRANCH  31  34
ATOM     34  O   UNL     1      10.169 -44.452   9.021  1.00  0.00    -0.504 OA
ATOM     35  H   UNL     1       9.661 -44.977   8.319  1.00  0.00     0.293 HD
ENDBRANCH  31  34
BRANCH  33  36
ATOM     36  O   UNL     1      10.355 -41.649   9.125  1.00  0.00    -0.504 OA
ATOM     37  H   UNL     1      10.425 -40.780   9.647  1.00  0.00     0.293 HD
ENDBRANCH  33  36
ENDBRANCH  27  28
ENDBRANCH  24  26
ENDBRANCH  23  24
ENDBRANCH   6  23
BRANCH   3  38
ATOM     38  O   UNL     1      19.594 -49.789   6.784  1.00  0.00    -0.350 OA
BRANCH  38  39
ATOM     39  C   UNL     1      20.875 -50.289   7.149  1.00  0.00     0.168 C 
BRANCH  39  40
ATOM     40  C   UNL     1      21.465 -51.122   6.010  1.00  0.00     0.064 C 
BRANCH  40  41
ATOM     41  C   UNL     1      22.180 -50.239   5.023  1.00  0.00    -0.042 A 
ATOM     42  C   UNL     1      22.497 -48.914   5.374  1.00  0.00     0.054 A 
ATOM     43  C   UNL     1      22.465 -50.698   3.738  1.00  0.00     0.008 A 
ATOM     44  C   UNL     1      23.128 -48.066   4.462  1.00  0.00     0.157 A 
ATOM     45  C   UNL     1      23.106 -49.862   2.818  1.00  0.00     0.050 A 
ATOM     46  C   UNL     1      23.455 -48.543   3.181  1.00  0.00     0.157 A 
BRANCH  44  47
ATOM     47  O   UNL     1      23.418 -46.764   4.849  1.00  0.00    -0.504 OA
ATOM     48  H   UNL     1      22.702 -46.048   4.950  1.00  0.00     0.293 HD
ENDBRANCH  44  47
BRANCH  46  49
ATOM     49  O   UNL     1      24.124 -47.728   2.282  1.00  0.00    -0.504 OA
ATOM     50  H   UNL     1      24.973 -47.229   2.553  1.00  0.00     0.293 HD
ENDBRANCH  46  49
ENDBRANCH  40  41
ENDBRANCH  39  40
ENDBRANCH  38  39
ENDBRANCH   3  38
BRANCH   5  51
ATOM     51  C   UNL     1      21.781 -46.667   9.124  1.00  0.00     0.192 C 
BRANCH  51  52
ATOM     52  O   UNL     1      22.623 -47.750   8.804  1.00  0.00    -0.394 OA
ATOM     53  H   UNL     1      23.303 -47.387   8.179  1.00  0.00     0.210 HD
ENDBRANCH  51  52
ENDBRANCH   5  51
TORSDOF 20
ENDMDL
