MODEL 1
REMARK VINA RESULT:    54.570      0.000      0.000
REMARK INTER + INTRA:          60.039
REMARK INTER:                  59.356
REMARK INTRA:                   0.683
REMARK UNBOUND:                 0.683
REMARK SMILES CC1(C)CC[C@]2(C(=O)[O-])CC[C@@]3(C)C(=CC[C@H]4[C@]5(C)CC[C@@H](O)C(C)(C)[C@H]5CC[C@@]43C)[C@H]2C1
REMARK SMILES IDX 6 1 5 2 10 3 32 4 4 5 11 6 14 7 33 8 2 9 12 10 15 11 1 12
REMARK SMILES IDX 3 13 13 14 30 15 16 16 17 17 29 18 31 19 18 20 28 21 27 22
REMARK SMILES IDX 20 23 19 24 24 25 21 26 22 27 25 28 26 29 7 30 8 31 9 32
REMARK SMILES IDX 23 33
REMARK H PARENT 23 34
REMARK Flexibility Score: inf
ROOT
ATOM      1  C   UNL     1      50.815 -57.262 320.339  1.00  0.00     0.017 C 
ATOM      2  C   UNL     1      51.189 -57.757 321.780  1.00  0.00     0.014 C 
ATOM      3  C   UNL     1      50.286 -55.814 320.409  1.00  0.00     0.014 C 
ATOM      4  C   UNL     1      49.649 -58.130 319.780  1.00  0.00     0.028 C 
ATOM      5  C   UNL     1      50.716 -59.188 322.125  1.00  0.00     0.007 C 
ATOM      6  C   UNL     1      50.056 -55.212 319.016  1.00  0.00     0.013 C 
ATOM      7  C   UNL     1      48.922 -57.538 318.557  1.00  0.00    -0.064 C 
ATOM      8  C   UNL     1      50.052 -59.629 319.662  1.00  0.00     0.015 C 
ATOM      9  C   UNL     1      50.782 -60.192 320.939  1.00  0.00    -0.035 C 
ATOM     10  C   UNL     1      49.275 -56.126 317.977  1.00  0.00    -0.006 C 
ATOM     11  C   UNL     1      47.800 -58.202 318.142  1.00  0.00    -0.027 C 
ATOM     12  C   UNL     1      52.257 -60.539 320.630  1.00  0.00     0.011 C 
ATOM     13  C   UNL     1      50.089 -61.501 321.385  1.00  0.00     0.011 C 
ATOM     14  C   UNL     1      50.229 -56.363 316.756  1.00  0.00     0.017 C 
ATOM     15  C   UNL     1      47.917 -55.405 317.503  1.00  0.00    -0.020 C 
ATOM     16  C   UNL     1      46.737 -57.656 317.215  1.00  0.00     0.032 C 
ATOM     17  C   UNL     1      47.201 -56.384 316.492  1.00  0.00     0.006 C 
ATOM     18  C   UNL     1      48.155 -53.985 316.848  1.00  0.00     0.008 C 
ATOM     19  C   UNL     1      47.032 -55.166 318.788  1.00  0.00     0.012 C 
ATOM     20  C   UNL     1      46.194 -55.727 315.465  1.00  0.00    -0.025 C 
ATOM     21  C   UNL     1      47.978 -53.798 315.322  1.00  0.00     0.005 C 
ATOM     22  C   UNL     1      47.071 -54.801 314.550  1.00  0.00     0.003 C 
ATOM     23  C   UNL     1      45.565 -56.839 314.564  1.00  0.00     0.010 C 
ATOM     24  C   UNL     1      45.051 -54.974 316.193  1.00  0.00     0.012 C 
ATOM     25  C   UNL     1      46.362 -54.210 313.266  1.00  0.00    -0.006 C 
ATOM     26  C   UNL     1      44.832 -56.307 313.323  1.00  0.00     0.033 C 
ATOM     27  C   UNL     1      45.733 -55.398 312.464  1.00  0.00     0.120 C 
ATOM     28  C   UNL     1      45.297 -53.122 313.588  1.00  0.00     0.014 C 
ATOM     29  C   UNL     1      47.437 -53.554 312.354  1.00  0.00     0.014 C 
ENDROOT
BRANCH   1  30
ATOM     30  C   UNL     1      52.088 -57.274 319.491  1.00  0.00     0.048 C 
ATOM     31  O   UNL     1      52.381 -58.239 318.739  1.00  0.00    -0.550 OA
ATOM     32  O   UNL     1      52.969 -56.201 319.567  1.00  0.00    -0.550 OA
ENDBRANCH   1  30
BRANCH  27  33
ATOM     33  O   UNL     1      45.051 -54.954 311.314  1.00  0.00    -0.393 OA
ATOM     34  H   UNL     1      44.089 -55.171 311.421  1.00  0.00     0.210 HD
ENDBRANCH  27  33
TORSDOF 2
ENDMDL
MODEL 2
REMARK VINA RESULT:    56.166      3.106      5.499
REMARK INTER + INTRA:          61.775
REMARK INTER:                  61.398
REMARK INTRA:                   0.377
REMARK UNBOUND:                 0.683
REMARK SMILES CC1(C)CC[C@]2(C(=O)[O-])CC[C@@]3(C)C(=CC[C@H]4[C@]5(C)CC[C@@H](O)C(C)(C)[C@H]5CC[C@@]43C)[C@H]2C1
REMARK SMILES IDX 6 1 5 2 10 3 32 4 4 5 11 6 14 7 33 8 2 9 12 10 15 11 1 12
REMARK SMILES IDX 3 13 13 14 30 15 16 16 17 17 29 18 31 19 18 20 28 21 27 22
REMARK SMILES IDX 20 23 19 24 24 25 21 26 22 27 25 28 26 29 7 30 8 31 9 32
REMARK SMILES IDX 23 33
REMARK H PARENT 23 34
REMARK Flexibility Score: inf
ROOT
ATOM      1  C   UNL     1      47.404 -55.928 317.392  1.00  0.00     0.017 C 
ATOM      2  C   UNL     1      47.764 -56.443 318.830  1.00  0.00     0.014 C 
ATOM      3  C   UNL     1      46.258 -56.782 316.808  1.00  0.00     0.014 C 
ATOM      4  C   UNL     1      48.627 -56.129 316.450  1.00  0.00     0.028 C 
ATOM      5  C   UNL     1      49.277 -56.567 319.122  1.00  0.00     0.007 C 
ATOM      6  C   UNL     1      45.746 -56.229 315.471  1.00  0.00     0.013 C 
ATOM      7  C   UNL     1      48.314 -56.032 314.944  1.00  0.00    -0.064 C 
ATOM      8  C   UNL     1      49.866 -55.318 316.932  1.00  0.00     0.015 C 
ATOM      9  C   UNL     1      50.151 -55.456 318.474  1.00  0.00    -0.035 C 
ATOM     10  C   UNL     1      46.856 -55.835 314.403  1.00  0.00    -0.006 C 
ATOM     11  C   UNL     1      49.335 -56.356 314.093  1.00  0.00    -0.027 C 
ATOM     12  C   UNL     1      49.917 -54.114 319.207  1.00  0.00     0.011 C 
ATOM     13  C   UNL     1      51.636 -55.837 318.684  1.00  0.00     0.011 C 
ATOM     14  C   UNL     1      46.688 -54.307 314.098  1.00  0.00     0.017 C 
ATOM     15  C   UNL     1      46.679 -56.704 313.060  1.00  0.00    -0.020 C 
ATOM     16  C   UNL     1      49.198 -56.671 312.620  1.00  0.00     0.032 C 
ATOM     17  C   UNL     1      47.825 -56.262 312.068  1.00  0.00     0.006 C 
ATOM     18  C   UNL     1      45.255 -56.543 312.392  1.00  0.00     0.008 C 
ATOM     19  C   UNL     1      46.821 -58.225 313.456  1.00  0.00     0.012 C 
ATOM     20  C   UNL     1      47.561 -56.509 310.529  1.00  0.00    -0.025 C 
ATOM     21  C   UNL     1      45.104 -55.741 311.076  1.00  0.00     0.005 C 
ATOM     22  C   UNL     1      46.350 -55.581 310.156  1.00  0.00     0.003 C 
ATOM     23  C   UNL     1      48.802 -56.038 309.703  1.00  0.00     0.010 C 
ATOM     24  C   UNL     1      47.307 -58.008 310.229  1.00  0.00     0.012 C 
ATOM     25  C   UNL     1      46.030 -55.432 308.615  1.00  0.00    -0.006 C 
ATOM     26  C   UNL     1      48.546 -55.915 308.193  1.00  0.00     0.033 C 
ATOM     27  C   UNL     1      47.344 -55.001 307.881  1.00  0.00     0.120 C 
ATOM     28  C   UNL     1      45.425 -56.717 307.978  1.00  0.00     0.014 C 
ATOM     29  C   UNL     1      44.996 -54.287 308.424  1.00  0.00     0.014 C 
ENDROOT
BRANCH   1  30
ATOM     30  C   UNL     1      46.919 -54.483 317.517  1.00  0.00     0.048 C 
ATOM     31  O   UNL     1      47.517 -53.527 316.959  1.00  0.00    -0.550 OA
ATOM     32  O   UNL     1      45.797 -54.204 318.290  1.00  0.00    -0.550 OA
ENDBRANCH   1  30
BRANCH  27  33
ATOM     33  O   UNL     1      47.154 -54.876 306.491  1.00  0.00    -0.393 OA
ATOM     34  H   UNL     1      47.132 -55.787 306.098  1.00  0.00     0.210 HD
ENDBRANCH  27  33
TORSDOF 2
ENDMDL
