MODEL 1
REMARK VINA RESULT:    -5.302      0.000      0.000
REMARK INTER + INTRA:          -6.718
REMARK INTER:                  -6.387
REMARK INTRA:                  -0.331
REMARK UNBOUND:                -0.331
REMARK SMILES O=c1c(O)c(-c2ccc(O)c(O)c2)oc2cc(O)cc(O)c12
REMARK SMILES IDX 5 1 3 2 2 3 1 4 22 5 20 6 19 7 17 8 16 9 15 10 14 11 6 12
REMARK SMILES IDX 7 13 8 14 9 15 13 16 11 17 10 18 12 20 4 22 21 24 18 26
REMARK H PARENT 10 19 12 21 4 23 21 25 18 27
REMARK Flexibility Score: inf
ROOT
ATOM      1  C   UNL     1      12.149 -11.772  10.728  1.00  0.00     0.180 A 
ATOM      2  C   UNL     1      13.308 -11.493  11.473  1.00  0.00     0.208 A 
ATOM      3  C   UNL     1      13.910 -10.231  11.349  1.00  0.00     0.238 A 
ATOM      4  O   UNL     1      14.915  -9.968  12.060  1.00  0.00    -0.285 OA
ATOM      5  C   UNL     1      13.356  -9.270  10.470  1.00  0.00     0.111 A 
ATOM      6  C   UNL     1      13.906  -7.973  10.234  1.00  0.00     0.134 A 
ATOM      7  C   UNL     1      13.202  -7.057   9.443  1.00  0.00     0.093 A 
ATOM      8  C   UNL     1      12.001  -7.414   8.826  1.00  0.00     0.123 A 
ATOM      9  C   UNL     1      11.486  -8.696   9.001  1.00  0.00     0.094 A 
ATOM     10  C   UNL     1      12.147  -9.620   9.814  1.00  0.00     0.146 A 
ATOM     11  O   UNL     1      11.616 -10.828   9.962  1.00  0.00    -0.452 OA
ENDROOT
BRANCH   1  12
ATOM     12  C   UNL     1      11.473 -13.088  10.788  1.00  0.00     0.025 A 
ATOM     13  C   UNL     1      10.368 -13.259  11.636  1.00  0.00     0.016 A 
ATOM     14  C   UNL     1       9.702 -14.486  11.692  1.00  0.00     0.051 A 
ATOM     15  C   UNL     1      10.118 -15.554  10.892  1.00  0.00     0.157 A 
ATOM     16  C   UNL     1      11.877 -14.157   9.967  1.00  0.00     0.062 A 
ATOM     17  C   UNL     1      11.208 -15.389  10.021  1.00  0.00     0.158 A 
BRANCH  15  18
ATOM     18  O   UNL     1       9.435 -16.767  10.971  1.00  0.00    -0.504 OA
ATOM     19  H   UNL     1       8.739 -17.040  10.287  1.00  0.00     0.293 HD
ENDBRANCH  15  18
BRANCH  17  20
ATOM     20  O   UNL     1      11.619 -16.445   9.209  1.00  0.00    -0.504 OA
ATOM     21  H   UNL     1      11.529 -17.409   9.507  1.00  0.00     0.293 HD
ENDBRANCH  17  20
ENDBRANCH   1  12
BRANCH   2  22
ATOM     22  O   UNL     1      13.826 -12.449  12.353  1.00  0.00    -0.502 OA
ATOM     23  H   UNL     1      13.644 -13.440  12.247  1.00  0.00     0.293 HD
ENDBRANCH   2  22
BRANCH   6  24
ATOM     24  O   UNL     1      15.143  -7.550  10.729  1.00  0.00    -0.507 OA
ATOM     25  H   UNL     1      16.008  -7.569  10.209  1.00  0.00     0.293 HD
ENDBRANCH   6  24
BRANCH   8  26
ATOM     26  O   UNL     1      11.313  -6.501   8.027  1.00  0.00    -0.508 OA
ATOM     27  H   UNL     1      11.734  -6.102   7.196  1.00  0.00     0.293 HD
ENDBRANCH   8  26
TORSDOF 6
ENDMDL
MODEL 2
REMARK VINA RESULT:    -5.176      1.985      6.774
REMARK INTER + INTRA:          -6.566
REMARK INTER:                  -6.413
REMARK INTRA:                  -0.152
REMARK UNBOUND:                -0.331
REMARK SMILES O=c1c(O)c(-c2ccc(O)c(O)c2)oc2cc(O)cc(O)c12
REMARK SMILES IDX 5 1 3 2 2 3 1 4 22 5 20 6 19 7 17 8 16 9 15 10 14 11 6 12
REMARK SMILES IDX 7 13 8 14 9 15 13 16 11 17 10 18 12 20 4 22 21 24 18 26
REMARK H PARENT 10 19 12 21 4 23 21 25 18 27
REMARK Flexibility Score: inf
ROOT
ATOM      1  C   UNL     1      13.342  -9.783  10.841  1.00  0.00     0.180 A 
ATOM      2  C   UNL     1      13.951 -11.024  11.098  1.00  0.00     0.208 A 
ATOM      3  C   UNL     1      13.155 -12.180  11.125  1.00  0.00     0.238 A 
ATOM      4  O   UNL     1      13.714 -13.295  11.301  1.00  0.00    -0.285 OA
ATOM      5  C   UNL     1      11.760 -12.080  10.911  1.00  0.00     0.111 A 
ATOM      6  C   UNL     1      10.851 -13.181  10.955  1.00  0.00     0.134 A 
ATOM      7  C   UNL     1       9.511 -12.985  10.599  1.00  0.00     0.093 A 
ATOM      8  C   UNL     1       9.033 -11.716  10.264  1.00  0.00     0.123 A 
ATOM      9  C   UNL     1       9.899 -10.625  10.275  1.00  0.00     0.094 A 
ATOM     10  C   UNL     1      11.249 -10.795  10.591  1.00  0.00     0.146 A 
ATOM     11  O   UNL     1      12.042  -9.730  10.580  1.00  0.00    -0.452 OA
ENDROOT
BRANCH   1  12
ATOM     12  C   UNL     1      14.111  -8.517  10.822  1.00  0.00     0.025 A 
ATOM     13  C   UNL     1      14.750  -8.079  11.992  1.00  0.00     0.016 A 
ATOM     14  C   UNL     1      15.498  -6.899  11.990  1.00  0.00     0.051 A 
ATOM     15  C   UNL     1      15.633  -6.149  10.819  1.00  0.00     0.157 A 
ATOM     16  C   UNL     1      14.265  -7.773   9.638  1.00  0.00     0.062 A 
ATOM     17  C   UNL     1      15.018  -6.589   9.634  1.00  0.00     0.158 A 
BRANCH  15  18
ATOM     18  O   UNL     1      16.384  -4.974  10.848  1.00  0.00    -0.504 OA
ATOM     19  H   UNL     1      17.317  -4.941  11.241  1.00  0.00     0.293 HD
ENDBRANCH  15  18
BRANCH  17  20
ATOM     20  O   UNL     1      15.159  -5.853   8.459  1.00  0.00    -0.504 OA
ATOM     21  H   UNL     1      15.875  -5.143   8.360  1.00  0.00     0.293 HD
ENDBRANCH  17  20
ENDBRANCH   1  12
BRANCH   2  22
ATOM     22  O   UNL     1      15.334 -11.103  11.286  1.00  0.00    -0.502 OA
ATOM     23  H   UNL     1      15.823 -10.542  11.973  1.00  0.00     0.293 HD
ENDBRANCH   2  22
BRANCH   6  24
ATOM     24  O   UNL     1      11.207 -14.469  11.366  1.00  0.00    -0.507 OA
ATOM     25  H   UNL     1      10.780 -15.319  11.029  1.00  0.00     0.293 HD
ENDBRANCH   6  24
BRANCH   8  26
ATOM     26  O   UNL     1       7.695 -11.527   9.925  1.00  0.00    -0.508 OA
ATOM     27  H   UNL     1       7.354 -10.633   9.589  1.00  0.00     0.293 HD
ENDBRANCH   8  26
TORSDOF 6
ENDMDL
MODEL 3
REMARK VINA RESULT:    -5.052      4.332      9.561
REMARK INTER + INTRA:          -6.416
REMARK INTER:                  -6.115
REMARK INTRA:                  -0.302
REMARK UNBOUND:                -0.331
REMARK SMILES O=c1c(O)c(-c2ccc(O)c(O)c2)oc2cc(O)cc(O)c12
REMARK SMILES IDX 5 1 3 2 2 3 1 4 22 5 20 6 19 7 17 8 16 9 15 10 14 11 6 12
REMARK SMILES IDX 7 13 8 14 9 15 13 16 11 17 10 18 12 20 4 22 21 24 18 26
REMARK H PARENT 10 19 12 21 4 23 21 25 18 27
REMARK Flexibility Score: inf
ROOT
ATOM      1  C   UNL     1      10.263 -17.360   9.647  1.00  0.00     0.180 A 
ATOM      2  C   UNL     1       9.250 -18.088   9.000  1.00  0.00     0.208 A 
ATOM      3  C   UNL     1       9.465 -19.446   8.712  1.00  0.00     0.238 A 
ATOM      4  O   UNL     1       8.534 -20.106   8.181  1.00  0.00    -0.285 OA
ATOM      5  C   UNL     1      10.695 -20.053   9.061  1.00  0.00     0.111 A 
ATOM      6  C   UNL     1      11.037 -21.411   8.781  1.00  0.00     0.134 A 
ATOM      7  C   UNL     1      12.230 -21.941   9.287  1.00  0.00     0.093 A 
ATOM      8  C   UNL     1      13.123 -21.145  10.007  1.00  0.00     0.123 A 
ATOM      9  C   UNL     1      12.826 -19.803  10.234  1.00  0.00     0.094 A 
ATOM     10  C   UNL     1      11.627 -19.254   9.773  1.00  0.00     0.146 A 
ATOM     11  O   UNL     1      11.379 -17.974  10.020  1.00  0.00    -0.452 OA
ENDROOT
BRANCH   1  12
ATOM     12  C   UNL     1      10.119 -15.919   9.962  1.00  0.00     0.025 A 
ATOM     13  C   UNL     1       9.861 -15.523  11.283  1.00  0.00     0.016 A 
ATOM     14  C   UNL     1       9.743 -14.170  11.606  1.00  0.00     0.051 A 
ATOM     15  C   UNL     1       9.896 -13.191  10.619  1.00  0.00     0.157 A 
ATOM     16  C   UNL     1      10.295 -14.934   8.974  1.00  0.00     0.062 A 
ATOM     17  C   UNL     1      10.178 -13.573   9.296  1.00  0.00     0.158 A 
BRANCH  15  18
ATOM     18  O   UNL     1       9.770 -11.847  10.970  1.00  0.00    -0.504 OA
ATOM     19  H   UNL     1       9.990 -11.099  10.324  1.00  0.00     0.293 HD
ENDBRANCH  15  18
BRANCH  17  20
ATOM     20  O   UNL     1      10.346 -12.603   8.310  1.00  0.00    -0.504 OA
ATOM     21  H   UNL     1      10.056 -12.763   7.352  1.00  0.00     0.293 HD
ENDBRANCH  17  20
ENDBRANCH   1  12
BRANCH   2  22
ATOM     22  O   UNL     1       8.034 -17.474   8.684  1.00  0.00    -0.502 OA
ATOM     23  H   UNL     1       7.797 -17.192   7.741  1.00  0.00     0.293 HD
ENDBRANCH   2  22
BRANCH   6  24
ATOM     24  O   UNL     1      10.258 -22.264   7.993  1.00  0.00    -0.507 OA
ATOM     25  H   UNL     1      10.000 -23.206   8.248  1.00  0.00     0.293 HD
ENDBRANCH   6  24
BRANCH   8  26
ATOM     26  O   UNL     1      14.315 -21.676  10.495  1.00  0.00    -0.508 OA
ATOM     27  H   UNL     1      14.434 -22.674  10.632  1.00  0.00     0.293 HD
ENDBRANCH   8  26
TORSDOF 6
ENDMDL
MODEL 4
REMARK VINA RESULT:    -4.945      3.129      5.515
REMARK INTER + INTRA:          -6.287
REMARK INTER:                  -6.104
REMARK INTRA:                  -0.184
REMARK UNBOUND:                -0.331
REMARK SMILES O=c1c(O)c(-c2ccc(O)c(O)c2)oc2cc(O)cc(O)c12
REMARK SMILES IDX 5 1 3 2 2 3 1 4 22 5 20 6 19 7 17 8 16 9 15 10 14 11 6 12
REMARK SMILES IDX 7 13 8 14 9 15 13 16 11 17 10 18 12 20 4 22 21 24 18 26
REMARK H PARENT 10 19 12 21 4 23 21 25 18 27
REMARK Flexibility Score: inf
ROOT
ATOM      1  C   UNL     1      10.841 -16.570   9.973  1.00  0.00     0.180 A 
ATOM      2  C   UNL     1      10.172 -15.772  10.918  1.00  0.00     0.208 A 
ATOM      3  C   UNL     1      10.613 -14.456  11.132  1.00  0.00     0.238 A 
ATOM      4  O   UNL     1       9.977 -13.729  11.939  1.00  0.00    -0.285 OA
ATOM      5  C   UNL     1      11.725 -13.960  10.411  1.00  0.00     0.111 A 
ATOM      6  C   UNL     1      12.282 -12.656  10.576  1.00  0.00     0.134 A 
ATOM      7  C   UNL     1      13.301 -12.226   9.716  1.00  0.00     0.093 A 
ATOM      8  C   UNL     1      13.826 -13.076   8.741  1.00  0.00     0.123 A 
ATOM      9  C   UNL     1      13.329 -14.371   8.611  1.00  0.00     0.094 A 
ATOM     10  C   UNL     1      12.289 -14.817   9.430  1.00  0.00     0.146 A 
ATOM     11  O   UNL     1      11.838 -16.055   9.266  1.00  0.00    -0.452 OA
ENDROOT
BRANCH   1  12
ATOM     12  C   UNL     1      10.450 -17.974   9.711  1.00  0.00     0.025 A 
ATOM     13  C   UNL     1       9.229 -18.244   9.073  1.00  0.00     0.016 A 
ATOM     14  C   UNL     1       8.851 -19.560   8.797  1.00  0.00     0.051 A 
ATOM     15  C   UNL     1       9.691 -20.624   9.138  1.00  0.00     0.157 A 
ATOM     16  C   UNL     1      11.304 -19.044  10.034  1.00  0.00     0.062 A 
ATOM     17  C   UNL     1      10.926 -20.366   9.756  1.00  0.00     0.158 A 
BRANCH  15  18
ATOM     18  O   UNL     1       9.285 -21.927   8.852  1.00  0.00    -0.504 OA
ATOM     19  H   UNL     1       8.559 -22.394   9.381  1.00  0.00     0.293 HD
ENDBRANCH  15  18
BRANCH  17  20
ATOM     20  O   UNL     1      11.775 -21.421  10.086  1.00  0.00    -0.504 OA
ATOM     21  H   UNL     1      12.529 -21.308  10.753  1.00  0.00     0.293 HD
ENDBRANCH  17  20
ENDBRANCH   1  12
BRANCH   2  22
ATOM     22  O   UNL     1       9.062 -16.275  11.604  1.00  0.00    -0.502 OA
ATOM     23  H   UNL     1       8.679 -17.194  11.419  1.00  0.00     0.293 HD
ENDBRANCH   2  22
BRANCH   6  24
ATOM     24  O   UNL     1      11.892 -11.763  11.579  1.00  0.00    -0.507 OA
ATOM     25  H   UNL     1      10.957 -11.404  11.697  1.00  0.00     0.293 HD
ENDBRANCH   6  24
BRANCH   8  26
ATOM     26  O   UNL     1      14.850 -12.646   7.899  1.00  0.00    -0.508 OA
ATOM     27  H   UNL     1      15.509 -11.932   8.188  1.00  0.00     0.293 HD
ENDBRANCH   8  26
TORSDOF 6
ENDMDL
MODEL 5
REMARK VINA RESULT:    -4.894      6.784     10.122
REMARK INTER + INTRA:          -6.226
REMARK INTER:                  -6.093
REMARK INTRA:                  -0.133
REMARK UNBOUND:                -0.331
REMARK SMILES O=c1c(O)c(-c2ccc(O)c(O)c2)oc2cc(O)cc(O)c12
REMARK SMILES IDX 5 1 3 2 2 3 1 4 22 5 20 6 19 7 17 8 16 9 15 10 14 11 6 12
REMARK SMILES IDX 7 13 8 14 9 15 13 16 11 17 10 18 12 20 4 22 21 24 18 26
REMARK H PARENT 10 19 12 21 4 23 21 25 18 27
REMARK Flexibility Score: inf
ROOT
ATOM      1  C   UNL     1      13.144 -20.523  10.421  1.00  0.00     0.180 A 
ATOM      2  C   UNL     1      12.337 -21.447   9.734  1.00  0.00     0.208 A 
ATOM      3  C   UNL     1      11.085 -21.033   9.253  1.00  0.00     0.238 A 
ATOM      4  O   UNL     1      10.391 -21.848   8.592  1.00  0.00    -0.285 OA
ATOM      5  C   UNL     1      10.648 -19.705   9.479  1.00  0.00     0.111 A 
ATOM      6  C   UNL     1       9.381 -19.188   9.072  1.00  0.00     0.134 A 
ATOM      7  C   UNL     1       9.107 -17.824   9.233  1.00  0.00     0.093 A 
ATOM      8  C   UNL     1      10.029 -16.972   9.845  1.00  0.00     0.123 A 
ATOM      9  C   UNL     1      11.245 -17.480  10.300  1.00  0.00     0.094 A 
ATOM     10  C   UNL     1      11.561 -18.828  10.121  1.00  0.00     0.146 A 
ATOM     11  O   UNL     1      12.735 -19.268  10.559  1.00  0.00    -0.452 OA
ENDROOT
BRANCH   1  12
ATOM     12  C   UNL     1      14.465 -20.893  10.978  1.00  0.00     0.025 A 
ATOM     13  C   UNL     1      14.659 -20.874  12.368  1.00  0.00     0.016 A 
ATOM     14  C   UNL     1      15.890 -21.240  12.916  1.00  0.00     0.051 A 
ATOM     15  C   UNL     1      16.941 -21.643  12.088  1.00  0.00     0.157 A 
ATOM     16  C   UNL     1      15.517 -21.321  10.146  1.00  0.00     0.062 A 
ATOM     17  C   UNL     1      16.754 -21.689  10.696  1.00  0.00     0.158 A 
BRANCH  15  18
ATOM     18  O   UNL     1      18.160 -22.000  12.663  1.00  0.00    -0.504 OA
ATOM     19  H   UNL     1      18.670 -22.827  12.375  1.00  0.00     0.293 HD
ENDBRANCH  15  18
BRANCH  17  20
ATOM     20  O   UNL     1      17.793 -22.105   9.864  1.00  0.00    -0.504 OA
ATOM     21  H   UNL     1      17.824 -23.043   9.481  1.00  0.00     0.293 HD
ENDBRANCH  17  20
ENDBRANCH   1  12
BRANCH   2  22
ATOM     22  O   UNL     1      12.797 -22.747   9.503  1.00  0.00    -0.502 OA
ATOM     23  H   UNL     1      13.750 -23.029   9.697  1.00  0.00     0.293 HD
ENDBRANCH   2  22
BRANCH   6  24
ATOM     24  O   UNL     1       8.355 -19.972   8.535  1.00  0.00    -0.507 OA
ATOM     25  H   UNL     1       8.488 -20.869   8.094  1.00  0.00     0.293 HD
ENDBRANCH   6  24
BRANCH   8  26
ATOM     26  O   UNL     1       9.744 -15.619  10.015  1.00  0.00    -0.508 OA
ATOM     27  H   UNL     1       8.790 -15.286  10.106  1.00  0.00     0.293 HD
ENDBRANCH   8  26
TORSDOF 6
ENDMDL
MODEL 6
REMARK VINA RESULT:    -4.885      6.878      9.642
REMARK INTER + INTRA:          -6.215
REMARK INTER:                  -5.925
REMARK INTRA:                  -0.291
REMARK UNBOUND:                -0.331
REMARK SMILES O=c1c(O)c(-c2ccc(O)c(O)c2)oc2cc(O)cc(O)c12
REMARK SMILES IDX 5 1 3 2 2 3 1 4 22 5 20 6 19 7 17 8 16 9 15 10 14 11 6 12
REMARK SMILES IDX 7 13 8 14 9 15 13 16 11 17 10 18 12 20 4 22 21 24 18 26
REMARK H PARENT 10 19 12 21 4 23 21 25 18 27
REMARK Flexibility Score: inf
ROOT
ATOM      1  C   UNL     1      13.090 -19.360  10.307  1.00  0.00     0.180 A 
ATOM      2  C   UNL     1      13.351 -19.691  11.648  1.00  0.00     0.208 A 
ATOM      3  C   UNL     1      14.623 -20.173  11.995  1.00  0.00     0.238 A 
ATOM      4  O   UNL     1      14.869 -20.416  13.205  1.00  0.00    -0.285 OA
ATOM      5  C   UNL     1      15.612 -20.333  10.995  1.00  0.00     0.111 A 
ATOM      6  C   UNL     1      16.923 -20.851  11.226  1.00  0.00     0.134 A 
ATOM      7  C   UNL     1      17.862 -20.843  10.187  1.00  0.00     0.093 A 
ATOM      8  C   UNL     1      17.518 -20.397   8.909  1.00  0.00     0.123 A 
ATOM      9  C   UNL     1      16.224 -19.945   8.659  1.00  0.00     0.094 A 
ATOM     10  C   UNL     1      15.276 -19.907   9.683  1.00  0.00     0.146 A 
ATOM     11  O   UNL     1      14.057 -19.459   9.404  1.00  0.00    -0.452 OA
ENDROOT
BRANCH   1  12
ATOM     12  C   UNL     1      11.765 -18.870   9.860  1.00  0.00     0.025 A 
ATOM     13  C   UNL     1      10.855 -19.767   9.281  1.00  0.00     0.016 A 
ATOM     14  C   UNL     1       9.593 -19.331   8.872  1.00  0.00     0.051 A 
ATOM     15  C   UNL     1       9.214 -17.997   9.050  1.00  0.00     0.157 A 
ATOM     16  C   UNL     1      11.375 -17.532  10.059  1.00  0.00     0.062 A 
ATOM     17  C   UNL     1      10.107 -17.093   9.650  1.00  0.00     0.158 A 
BRANCH  15  18
ATOM     18  O   UNL     1       7.949 -17.589   8.630  1.00  0.00    -0.504 OA
ATOM     19  H   UNL     1       7.407 -18.119   7.959  1.00  0.00     0.293 HD
ENDBRANCH  15  18
BRANCH  17  20
ATOM     20  O   UNL     1       9.731 -15.764   9.844  1.00  0.00    -0.504 OA
ATOM     21  H   UNL     1       8.767 -15.505  10.019  1.00  0.00     0.293 HD
ENDBRANCH  17  20
ENDBRANCH   1  12
BRANCH   2  22
ATOM     22  O   UNL     1      12.366 -19.505  12.623  1.00  0.00    -0.502 OA
ATOM     23  H   UNL     1      12.564 -19.077  13.520  1.00  0.00     0.293 HD
ENDBRANCH   2  22
BRANCH   6  24
ATOM     24  O   UNL     1      17.339 -21.405  12.440  1.00  0.00    -0.507 OA
ATOM     25  H   UNL     1      16.931 -21.194  13.338  1.00  0.00     0.293 HD
ENDBRANCH   6  24
BRANCH   8  26
ATOM     26  O   UNL     1      18.454 -20.406   7.877  1.00  0.00    -0.508 OA
ATOM     27  H   UNL     1      18.924 -21.259   7.595  1.00  0.00     0.293 HD
ENDBRANCH   8  26
TORSDOF 6
ENDMDL
MODEL 7
REMARK VINA RESULT:    -4.844      2.548      5.128
REMARK INTER + INTRA:          -6.166
REMARK INTER:                  -5.843
REMARK INTRA:                  -0.323
REMARK UNBOUND:                -0.331
REMARK SMILES O=c1c(O)c(-c2ccc(O)c(O)c2)oc2cc(O)cc(O)c12
REMARK SMILES IDX 5 1 3 2 2 3 1 4 22 5 20 6 19 7 17 8 16 9 15 10 14 11 6 12
REMARK SMILES IDX 7 13 8 14 9 15 13 16 11 17 10 18 12 20 4 22 21 24 18 26
REMARK H PARENT 10 19 12 21 4 23 21 25 18 27
REMARK Flexibility Score: inf
ROOT
ATOM      1  C   UNL     1      11.559 -15.570   9.862  1.00  0.00     0.180 A 
ATOM      2  C   UNL     1      10.412 -14.847   9.491  1.00  0.00     0.208 A 
ATOM      3  C   UNL     1      10.346 -13.475   9.782  1.00  0.00     0.238 A 
ATOM      4  O   UNL     1       9.341 -12.823   9.399  1.00  0.00    -0.285 OA
ATOM      5  C   UNL     1      11.422 -12.847  10.455  1.00  0.00     0.111 A 
ATOM      6  C   UNL     1      11.446 -11.471  10.837  1.00  0.00     0.134 A 
ATOM      7  C   UNL     1      12.616 -10.926  11.381  1.00  0.00     0.093 A 
ATOM      8  C   UNL     1      13.739 -11.722  11.617  1.00  0.00     0.123 A 
ATOM      9  C   UNL     1      13.704 -13.079  11.303  1.00  0.00     0.094 A 
ATOM     10  C   UNL     1      12.565 -13.644  10.726  1.00  0.00     0.146 A 
ATOM     11  O   UNL     1      12.578 -14.939  10.432  1.00  0.00    -0.452 OA
ENDROOT
BRANCH   1  12
ATOM     12  C   UNL     1      11.690 -17.024   9.610  1.00  0.00     0.025 A 
ATOM     13  C   UNL     1      12.225 -17.468   8.391  1.00  0.00     0.016 A 
ATOM     14  C   UNL     1      12.377 -18.834   8.142  1.00  0.00     0.051 A 
ATOM     15  C   UNL     1      12.013 -19.775   9.109  1.00  0.00     0.157 A 
ATOM     16  C   UNL     1      11.344 -17.970  10.592  1.00  0.00     0.062 A 
ATOM     17  C   UNL     1      11.498 -19.342  10.343  1.00  0.00     0.158 A 
BRANCH  15  18
ATOM     18  O   UNL     1      12.174 -21.132   8.831  1.00  0.00    -0.504 OA
ATOM     19  H   UNL     1      12.669 -21.755   9.458  1.00  0.00     0.293 HD
ENDBRANCH  15  18
BRANCH  17  20
ATOM     20  O   UNL     1      11.146 -20.274  11.319  1.00  0.00    -0.504 OA
ATOM     21  H   UNL     1      10.797 -19.987  12.226  1.00  0.00     0.293 HD
ENDBRANCH  17  20
ENDBRANCH   1  12
BRANCH   2  22
ATOM     22  O   UNL     1       9.370 -15.483   8.808  1.00  0.00    -0.502 OA
ATOM     23  H   UNL     1       9.429 -15.718   7.824  1.00  0.00     0.293 HD
ENDBRANCH   2  22
BRANCH   6  24
ATOM     24  O   UNL     1      10.348 -10.612  10.728  1.00  0.00    -0.507 OA
ATOM     25  H   UNL     1       9.733 -10.564   9.930  1.00  0.00     0.293 HD
ENDBRANCH   6  24
BRANCH   8  26
ATOM     26  O   UNL     1      14.893 -11.175  12.174  1.00  0.00    -0.508 OA
ATOM     27  H   UNL     1      15.020 -10.173  12.253  1.00  0.00     0.293 HD
ENDBRANCH   8  26
TORSDOF 6
ENDMDL
MODEL 8
REMARK VINA RESULT:    -4.836      1.775      7.321
REMARK INTER + INTRA:          -6.157
REMARK INTER:                  -5.879
REMARK INTRA:                  -0.278
REMARK UNBOUND:                -0.331
REMARK SMILES O=c1c(O)c(-c2ccc(O)c(O)c2)oc2cc(O)cc(O)c12
REMARK SMILES IDX 5 1 3 2 2 3 1 4 22 5 20 6 19 7 17 8 16 9 15 10 14 11 6 12
REMARK SMILES IDX 7 13 8 14 9 15 13 16 11 17 10 18 12 20 4 22 21 24 18 26
REMARK H PARENT 10 19 12 21 4 23 21 25 18 27
REMARK Flexibility Score: inf
ROOT
ATOM      1  C   UNL     1      12.148 -13.145  10.881  1.00  0.00     0.180 A 
ATOM      2  C   UNL     1      10.945 -13.414  11.555  1.00  0.00     0.208 A 
ATOM      3  C   UNL     1      10.296 -14.638  11.329  1.00  0.00     0.238 A 
ATOM      4  O   UNL     1       9.248 -14.896  11.977  1.00  0.00    -0.285 OA
ATOM      5  C   UNL     1      10.850 -15.571  10.420  1.00  0.00     0.111 A 
ATOM      6  C   UNL     1      10.258 -16.826  10.084  1.00  0.00     0.134 A 
ATOM      7  C   UNL     1      10.959 -17.726   9.272  1.00  0.00     0.093 A 
ATOM      8  C   UNL     1      12.203 -17.389   8.732  1.00  0.00     0.123 A 
ATOM      9  C   UNL     1      12.762 -16.143   9.006  1.00  0.00     0.094 A 
ATOM     10  C   UNL     1      12.103 -15.238   9.841  1.00  0.00     0.146 A 
ATOM     11  O   UNL     1      12.677 -14.066  10.085  1.00  0.00    -0.452 OA
ENDROOT
BRANCH   1  12
ATOM     12  C   UNL     1      12.877 -11.866  11.049  1.00  0.00     0.025 A 
ATOM     13  C   UNL     1      14.082 -11.847  11.768  1.00  0.00     0.016 A 
ATOM     14  C   UNL     1      14.796 -10.656  11.920  1.00  0.00     0.051 A 
ATOM     15  C   UNL     1      14.327  -9.471  11.345  1.00  0.00     0.157 A 
ATOM     16  C   UNL     1      12.417 -10.677  10.452  1.00  0.00     0.062 A 
ATOM     17  C   UNL     1      13.133  -9.481  10.603  1.00  0.00     0.158 A 
BRANCH  15  18
ATOM     18  O   UNL     1      15.060  -8.297  11.516  1.00  0.00    -0.504 OA
ATOM     19  H   UNL     1      15.887  -8.258  12.099  1.00  0.00     0.293 HD
ENDBRANCH  15  18
BRANCH  17  20
ATOM     20  O   UNL     1      12.667  -8.307  10.015  1.00  0.00    -0.504 OA
ATOM     21  H   UNL     1      12.763  -7.408  10.474  1.00  0.00     0.293 HD
ENDBRANCH  17  20
ENDBRANCH   1  12
BRANCH   2  22
ATOM     22  O   UNL     1      10.426 -12.487  12.465  1.00  0.00    -0.502 OA
ATOM     23  H   UNL     1       9.475 -12.537  12.809  1.00  0.00     0.293 HD
ENDBRANCH   2  22
BRANCH   6  24
ATOM     24  O   UNL     1       8.981 -17.220  10.496  1.00  0.00    -0.507 OA
ATOM     25  H   UNL     1       8.411 -17.907  10.026  1.00  0.00     0.293 HD
ENDBRANCH   6  24
BRANCH   8  26
ATOM     26  O   UNL     1      12.887 -18.284   7.912  1.00  0.00    -0.508 OA
ATOM     27  H   UNL     1      13.898 -18.267   7.838  1.00  0.00     0.293 HD
ENDBRANCH   8  26
TORSDOF 6
ENDMDL
MODEL 9
REMARK VINA RESULT:    -4.735      1.147      2.862
REMARK INTER + INTRA:          -6.035
REMARK INTER:                  -5.733
REMARK INTRA:                  -0.302
REMARK UNBOUND:                -0.331
REMARK SMILES O=c1c(O)c(-c2ccc(O)c(O)c2)oc2cc(O)cc(O)c12
REMARK SMILES IDX 5 1 3 2 2 3 1 4 22 5 20 6 19 7 17 8 16 9 15 10 14 11 6 12
REMARK SMILES IDX 7 13 8 14 9 15 13 16 11 17 10 18 12 20 4 22 21 24 18 26
REMARK H PARENT 10 19 12 21 4 23 21 25 18 27
REMARK Flexibility Score: inf
ROOT
ATOM      1  C   UNL     1      11.406 -11.674  10.102  1.00  0.00     0.180 A 
ATOM      2  C   UNL     1      10.647 -10.889   9.218  1.00  0.00     0.208 A 
ATOM      3  C   UNL     1      10.996  -9.542   9.033  1.00  0.00     0.238 A 
ATOM      4  O   UNL     1      10.347  -8.858   8.199  1.00  0.00    -0.285 OA
ATOM      5  C   UNL     1      12.090  -8.993   9.745  1.00  0.00     0.111 A 
ATOM      6  C   UNL     1      12.508  -7.630   9.665  1.00  0.00     0.134 A 
ATOM      7  C   UNL     1      13.683  -7.229  10.313  1.00  0.00     0.093 A 
ATOM      8  C   UNL     1      14.417  -8.127  11.092  1.00  0.00     0.123 A 
ATOM      9  C   UNL     1      13.984  -9.444  11.224  1.00  0.00     0.094 A 
ATOM     10  C   UNL     1      12.837  -9.883  10.561  1.00  0.00     0.146 A 
ATOM     11  O   UNL     1      12.465 -11.149  10.706  1.00  0.00    -0.452 OA
ENDROOT
BRANCH   1  12
ATOM     12  C   UNL     1      11.083 -13.096  10.369  1.00  0.00     0.025 A 
ATOM     13  C   UNL     1      10.057 -13.413  11.272  1.00  0.00     0.016 A 
ATOM     14  C   UNL     1       9.723 -14.746  11.522  1.00  0.00     0.051 A 
ATOM     15  C   UNL     1      10.395 -15.780  10.863  1.00  0.00     0.157 A 
ATOM     16  C   UNL     1      11.744 -14.136   9.690  1.00  0.00     0.062 A 
ATOM     17  C   UNL     1      11.408 -15.475   9.938  1.00  0.00     0.158 A 
BRANCH  15  18
ATOM     18  O   UNL     1      10.041 -17.101  11.134  1.00  0.00    -0.504 OA
ATOM     19  H   UNL     1      10.733 -17.831  11.254  1.00  0.00     0.293 HD
ENDBRANCH  15  18
BRANCH  17  20
ATOM     20  O   UNL     1      12.073 -16.500   9.267  1.00  0.00    -0.504 OA
ATOM     21  H   UNL     1      12.124 -17.437   9.647  1.00  0.00     0.293 HD
ENDBRANCH  17  20
ENDBRANCH   1  12
BRANCH   2  22
ATOM     22  O   UNL     1       9.583 -11.456   8.509  1.00  0.00    -0.502 OA
ATOM     23  H   UNL     1       9.130 -12.313   8.802  1.00  0.00     0.293 HD
ENDBRANCH   2  22
BRANCH   6  24
ATOM     24  O   UNL     1      11.796  -6.635   8.990  1.00  0.00    -0.507 OA
ATOM     25  H   UNL     1      12.193  -5.771   8.653  1.00  0.00     0.293 HD
ENDBRANCH   6  24
BRANCH   8  26
ATOM     26  O   UNL     1      15.577  -7.716  11.746  1.00  0.00    -0.508 OA
ATOM     27  H   UNL     1      16.317  -7.225  11.257  1.00  0.00     0.293 HD
ENDBRANCH   8  26
TORSDOF 6
ENDMDL
