MODEL 1
REMARK VINA RESULT:    -3.365      0.000      0.000
REMARK INTER + INTRA:          -8.313
REMARK INTER:                  -6.512
REMARK INTRA:                  -1.801
REMARK UNBOUND:                -1.801
REMARK SMILES CCCCCCCCCCCCCCCCCC(=O)[O-]
REMARK SMILES IDX 10 1 11 2 12 3 13 4 14 5 15 6 16 7 17 8 18 9 19 10 20 11
REMARK SMILES IDX 9 12 8 13 7 14 6 15 5 16 4 17 3 18 2 19 1 20
REMARK H PARENT
REMARK Flexibility Score: inf
ROOT
ATOM      1  C   UNL     1       4.955   0.208  -7.505  1.00  0.00     0.000 C 
ENDROOT
BRANCH   1   2
ATOM      2  C   UNL     1       4.502   1.162  -8.624  1.00  0.00     0.000 C 
BRANCH   2   3
ATOM      3  C   UNL     1       3.033   1.002  -9.061  1.00  0.00     0.000 C 
BRANCH   3   4
ATOM      4  C   UNL     1       2.329   2.307  -9.486  1.00  0.00     0.000 C 
BRANCH   4   5
ATOM      5  C   UNL     1       0.794   2.288  -9.365  1.00  0.00     0.000 C 
BRANCH   5   6
ATOM      6  C   UNL     1       0.277   1.114  -8.517  1.00  0.00     0.000 C 
BRANCH   6   7
ATOM      7  C   UNL     1      -1.100   0.613  -8.981  1.00  0.00     0.006 C 
BRANCH   7   8
ATOM      8  C   UNL     1      -1.411  -0.806  -8.487  1.00  0.00     0.053 C 
BRANCH   8   9
ATOM      9  C   UNL     1      -1.980  -0.763  -7.103  1.00  0.00     0.041 C 
ATOM     10  O   UNL     1      -1.218  -0.811  -6.102  1.00  0.00    -0.550 OA
ATOM     11  O   UNL     1      -3.350  -0.618  -6.920  1.00  0.00    -0.550 OA
ENDBRANCH   8   9
ENDBRANCH   7   8
ENDBRANCH   6   7
ENDBRANCH   5   6
ENDBRANCH   4   5
ENDBRANCH   3   4
ENDBRANCH   2   3
ENDBRANCH   1   2
BRANCH   1  12
ATOM     12  C   UNL     1       5.995   0.839  -6.567  1.00  0.00     0.000 C 
BRANCH  12  13
ATOM     13  C   UNL     1       5.648   0.566  -5.099  1.00  0.00    -0.000 C 
BRANCH  13  14
ATOM     14  C   UNL     1       6.704  -0.329  -4.441  1.00  0.00    -0.000 C 
BRANCH  14  15
ATOM     15  C   UNL     1       6.048  -1.485  -3.675  1.00  0.00    -0.000 C 
BRANCH  15  16
ATOM     16  C   UNL     1       4.579  -1.169  -3.356  1.00  0.00    -0.000 C 
BRANCH  16  17
ATOM     17  C   UNL     1       3.630  -2.318  -3.735  1.00  0.00    -0.000 C 
BRANCH  17  18
ATOM     18  C   UNL     1       3.490  -2.490  -5.259  1.00  0.00    -0.000 C 
BRANCH  18  19
ATOM     19  C   UNL     1       2.036  -2.346  -5.735  1.00  0.00    -0.003 C 
ATOM     20  C   UNL     1       1.930  -1.969  -7.212  1.00  0.00     0.004 C 
ENDBRANCH  18  19
ENDBRANCH  17  18
ENDBRANCH  16  17
ENDBRANCH  15  16
ENDBRANCH  14  15
ENDBRANCH  13  14
ENDBRANCH  12  13
ENDBRANCH   1  12
TORSDOF 16
ENDMDL
MODEL 2
REMARK VINA RESULT:    -3.335      5.644      8.072
REMARK INTER + INTRA:          -8.257
REMARK INTER:                  -6.374
REMARK INTRA:                  -1.883
REMARK UNBOUND:                -1.801
REMARK SMILES CCCCCCCCCCCCCCCCCC(=O)[O-]
REMARK SMILES IDX 10 1 11 2 12 3 13 4 14 5 15 6 16 7 17 8 18 9 19 10 20 11
REMARK SMILES IDX 9 12 8 13 7 14 6 15 5 16 4 17 3 18 2 19 1 20
REMARK H PARENT
REMARK Flexibility Score: inf
ROOT
ATOM      1  C   UNL     1       8.396   5.569  -3.418  1.00  0.00     0.000 C 
ENDROOT
BRANCH   1   2
ATOM      2  C   UNL     1       7.488   4.785  -4.381  1.00  0.00     0.000 C 
BRANCH   2   3
ATOM      3  C   UNL     1       6.760   3.580  -3.753  1.00  0.00     0.000 C 
BRANCH   3   4
ATOM      4  C   UNL     1       7.299   2.197  -4.171  1.00  0.00     0.000 C 
BRANCH   4   5
ATOM      5  C   UNL     1       6.284   1.290  -4.889  1.00  0.00     0.000 C 
BRANCH   5   6
ATOM      6  C   UNL     1       6.441  -0.193  -4.515  1.00  0.00     0.000 C 
BRANCH   6   7
ATOM      7  C   UNL     1       5.213  -0.747  -3.773  1.00  0.00     0.006 C 
BRANCH   7   8
ATOM      8  C   UNL     1       4.338  -1.640  -4.662  1.00  0.00     0.053 C 
BRANCH   8   9
ATOM      9  C   UNL     1       3.187  -2.188  -3.878  1.00  0.00     0.041 C 
ATOM     10  O   UNL     1       3.039  -1.876  -2.668  1.00  0.00    -0.550 OA
ATOM     11  O   UNL     1       2.250  -3.004  -4.499  1.00  0.00    -0.550 OA
ENDBRANCH   8   9
ENDBRANCH   7   8
ENDBRANCH   6   7
ENDBRANCH   5   6
ENDBRANCH   4   5
ENDBRANCH   3   4
ENDBRANCH   2   3
ENDBRANCH   1   2
BRANCH   1  12
ATOM     12  C   UNL     1       8.178   5.186  -1.946  1.00  0.00     0.000 C 
BRANCH  12  13
ATOM     13  C   UNL     1       8.385   6.395  -1.026  1.00  0.00    -0.000 C 
BRANCH  13  14
ATOM     14  C   UNL     1       7.370   6.393   0.123  1.00  0.00    -0.000 C 
BRANCH  14  15
ATOM     15  C   UNL     1       5.973   6.005  -0.375  1.00  0.00    -0.000 C 
BRANCH  15  16
ATOM     16  C   UNL     1       4.971   7.146  -0.146  1.00  0.00    -0.000 C 
BRANCH  16  17
ATOM     17  C   UNL     1       4.153   7.481  -1.404  1.00  0.00    -0.000 C 
BRANCH  17  18
ATOM     18  C   UNL     1       4.579   6.645  -2.624  1.00  0.00    -0.000 C 
BRANCH  18  19
ATOM     19  C   UNL     1       5.229   7.500  -3.723  1.00  0.00    -0.003 C 
ATOM     20  C   UNL     1       6.074   8.644  -3.164  1.00  0.00     0.004 C 
ENDBRANCH  18  19
ENDBRANCH  17  18
ENDBRANCH  16  17
ENDBRANCH  15  16
ENDBRANCH  14  15
ENDBRANCH  13  14
ENDBRANCH  12  13
ENDBRANCH   1  12
TORSDOF 16
ENDMDL
MODEL 3
REMARK VINA RESULT:    -3.290      1.904      6.098
REMARK INTER + INTRA:          -8.169
REMARK INTER:                  -6.610
REMARK INTRA:                  -1.559
REMARK UNBOUND:                -1.801
REMARK SMILES CCCCCCCCCCCCCCCCCC(=O)[O-]
REMARK SMILES IDX 10 1 11 2 12 3 13 4 14 5 15 6 16 7 17 8 18 9 19 10 20 11
REMARK SMILES IDX 9 12 8 13 7 14 6 15 5 16 4 17 3 18 2 19 1 20
REMARK H PARENT
REMARK Flexibility Score: inf
ROOT
ATOM      1  C   UNL     1       5.343  -0.317  -7.166  1.00  0.00     0.000 C 
ENDROOT
BRANCH   1   2
ATOM      2  C   UNL     1       5.847   0.782  -6.215  1.00  0.00     0.000 C 
BRANCH   2   3
ATOM      3  C   UNL     1       5.683   0.470  -4.715  1.00  0.00     0.000 C 
BRANCH   3   4
ATOM      4  C   UNL     1       6.572  -0.670  -4.180  1.00  0.00     0.000 C 
BRANCH   4   5
ATOM      5  C   UNL     1       5.831  -1.754  -3.376  1.00  0.00     0.000 C 
BRANCH   5   6
ATOM      6  C   UNL     1       6.080  -3.172  -3.919  1.00  0.00     0.000 C 
BRANCH   6   7
ATOM      7  C   UNL     1       4.775  -3.911  -4.257  1.00  0.00     0.006 C 
BRANCH   7   8
ATOM      8  C   UNL     1       3.924  -3.165  -5.293  1.00  0.00     0.053 C 
BRANCH   8   9
ATOM      9  C   UNL     1       2.539  -2.947  -4.770  1.00  0.00     0.041 C 
ATOM     10  O   UNL     1       1.556  -3.499  -5.330  1.00  0.00    -0.550 OA
ATOM     11  O   UNL     1       2.340  -2.176  -3.632  1.00  0.00    -0.550 OA
ENDBRANCH   8   9
ENDBRANCH   7   8
ENDBRANCH   6   7
ENDBRANCH   5   6
ENDBRANCH   4   5
ENDBRANCH   3   4
ENDBRANCH   2   3
ENDBRANCH   1   2
BRANCH   1  12
ATOM     12  C   UNL     1       4.392   0.219  -8.247  1.00  0.00     0.000 C 
BRANCH  12  13
ATOM     13  C   UNL     1       4.848   1.594  -8.748  1.00  0.00    -0.000 C 
BRANCH  13  14
ATOM     14  C   UNL     1       3.650   2.448  -9.179  1.00  0.00    -0.000 C 
BRANCH  14  15
ATOM     15  C   UNL     1       2.431   1.572  -9.491  1.00  0.00    -0.000 C 
BRANCH  15  16
ATOM     16  C   UNL     1       1.127   2.370  -9.339  1.00  0.00    -0.000 C 
BRANCH  16  17
ATOM     17  C   UNL     1      -0.033   1.516  -8.803  1.00  0.00    -0.000 C 
BRANCH  17  18
ATOM     18  C   UNL     1      -0.099   0.128  -9.466  1.00  0.00    -0.000 C 
BRANCH  18  19
ATOM     19  C   UNL     1      -0.130  -1.014  -8.439  1.00  0.00    -0.003 C 
ATOM     20  C   UNL     1      -0.573  -0.552  -7.051  1.00  0.00     0.004 C 
ENDBRANCH  18  19
ENDBRANCH  17  18
ENDBRANCH  16  17
ENDBRANCH  15  16
ENDBRANCH  14  15
ENDBRANCH  13  14
ENDBRANCH  12  13
ENDBRANCH   1  12
TORSDOF 16
ENDMDL
MODEL 4
REMARK VINA RESULT:    -3.282      1.721      2.937
REMARK INTER + INTRA:          -8.154
REMARK INTER:                  -5.609
REMARK INTRA:                  -2.545
REMARK UNBOUND:                -1.801
REMARK SMILES CCCCCCCCCCCCCCCCCC(=O)[O-]
REMARK SMILES IDX 10 1 11 2 12 3 13 4 14 5 15 6 16 7 17 8 18 9 19 10 20 11
REMARK SMILES IDX 9 12 8 13 7 14 6 15 5 16 4 17 3 18 2 19 1 20
REMARK H PARENT
REMARK Flexibility Score: inf
ROOT
ATOM      1  C   UNL     1       3.523  -2.455  -7.571  1.00  0.00     0.000 C 
ENDROOT
BRANCH   1   2
ATOM      2  C   UNL     1       3.982  -1.494  -8.681  1.00  0.00     0.000 C 
BRANCH   2   3
ATOM      3  C   UNL     1       4.345  -0.074  -8.204  1.00  0.00     0.000 C 
BRANCH   3   4
ATOM      4  C   UNL     1       3.648   1.072  -8.963  1.00  0.00     0.000 C 
BRANCH   4   5
ATOM      5  C   UNL     1       2.316   0.694  -9.636  1.00  0.00     0.000 C 
BRANCH   5   6
ATOM      6  C   UNL     1       1.147   1.587  -9.187  1.00  0.00     0.000 C 
BRANCH   6   7
ATOM      7  C   UNL     1       0.050   0.799  -8.453  1.00  0.00     0.006 C 
BRANCH   7   8
ATOM      8  C   UNL     1       0.414  -0.678  -8.256  1.00  0.00     0.053 C 
BRANCH   8   9
ATOM      9  C   UNL     1      -0.275  -1.228  -7.046  1.00  0.00     0.041 C 
ATOM     10  O   UNL     1      -0.782  -0.449  -6.197  1.00  0.00    -0.550 OA
ATOM     11  O   UNL     1      -0.400  -2.601  -6.883  1.00  0.00    -0.550 OA
ENDBRANCH   8   9
ENDBRANCH   7   8
ENDBRANCH   6   7
ENDBRANCH   5   6
ENDBRANCH   4   5
ENDBRANCH   3   4
ENDBRANCH   2   3
ENDBRANCH   1   2
BRANCH   1  12
ATOM     12  C   UNL     1       3.560  -1.816  -6.175  1.00  0.00     0.000 C 
BRANCH  12  13
ATOM     13  C   UNL     1       2.734  -2.632  -5.174  1.00  0.00    -0.000 C 
BRANCH  13  14
ATOM     14  C   UNL     1       3.037  -2.206  -3.733  1.00  0.00    -0.000 C 
BRANCH  14  15
ATOM     15  C   UNL     1       4.399  -1.508  -3.638  1.00  0.00    -0.000 C 
BRANCH  15  16
ATOM     16  C   UNL     1       5.397  -2.356  -2.837  1.00  0.00    -0.000 C 
BRANCH  16  17
ATOM     17  C   UNL     1       5.953  -3.540  -3.645  1.00  0.00    -0.000 C 
BRANCH  17  18
ATOM     18  C   UNL     1       6.822  -3.088  -4.833  1.00  0.00    -0.000 C 
BRANCH  18  19
ATOM     19  C   UNL     1       6.604  -3.954  -6.083  1.00  0.00    -0.003 C 
ATOM     20  C   UNL     1       5.594  -5.078  -5.859  1.00  0.00     0.004 C 
ENDBRANCH  18  19
ENDBRANCH  17  18
ENDBRANCH  16  17
ENDBRANCH  15  16
ENDBRANCH  14  15
ENDBRANCH  13  14
ENDBRANCH  12  13
ENDBRANCH   1  12
TORSDOF 16
ENDMDL
MODEL 5
REMARK VINA RESULT:    -3.246      1.481      2.836
REMARK INTER + INTRA:          -8.084
REMARK INTER:                  -6.395
REMARK INTRA:                  -1.689
REMARK UNBOUND:                -1.801
REMARK SMILES CCCCCCCCCCCCCCCCCC(=O)[O-]
REMARK SMILES IDX 10 1 11 2 12 3 13 4 14 5 15 6 16 7 17 8 18 9 19 10 20 11
REMARK SMILES IDX 9 12 8 13 7 14 6 15 5 16 4 17 3 18 2 19 1 20
REMARK H PARENT
REMARK Flexibility Score: inf
ROOT
ATOM      1  C   UNL     1       5.086   3.054  -9.072  1.00  0.00     0.000 C 
ENDROOT
BRANCH   1   2
ATOM      2  C   UNL     1       3.719   2.856  -9.749  1.00  0.00     0.000 C 
BRANCH   2   3
ATOM      3  C   UNL     1       2.662   3.924  -9.406  1.00  0.00     0.000 C 
BRANCH   3   4
ATOM      4  C   UNL     1       1.199   3.439  -9.456  1.00  0.00     0.000 C 
BRANCH   4   5
ATOM      5  C   UNL     1       1.019   1.912  -9.531  1.00  0.00     0.000 C 
BRANCH   5   6
ATOM      6  C   UNL     1      -0.390   1.457  -9.115  1.00  0.00     0.000 C 
BRANCH   6   7
ATOM      7  C   UNL     1      -0.362   0.299  -8.104  1.00  0.00     0.006 C 
BRANCH   7   8
ATOM      8  C   UNL     1       0.627  -0.805  -8.497  1.00  0.00     0.053 C 
BRANCH   8   9
ATOM      9  C   UNL     1       1.022  -1.604  -7.294  1.00  0.00     0.041 C 
ATOM     10  O   UNL     1       0.440  -1.421  -6.193  1.00  0.00    -0.550 OA
ATOM     11  O   UNL     1       1.999  -2.586  -7.403  1.00  0.00    -0.550 OA
ENDBRANCH   8   9
ENDBRANCH   7   8
ENDBRANCH   6   7
ENDBRANCH   5   6
ENDBRANCH   4   5
ENDBRANCH   3   4
ENDBRANCH   2   3
ENDBRANCH   1   2
BRANCH   1  12
ATOM     12  C   UNL     1       5.550   1.815  -8.290  1.00  0.00     0.000 C 
BRANCH  12  13
ATOM     13  C   UNL     1       4.502   0.698  -8.359  1.00  0.00    -0.000 C 
BRANCH  13  14
ATOM     14  C   UNL     1       4.652  -0.270  -7.179  1.00  0.00    -0.000 C 
BRANCH  14  15
ATOM     15  C   UNL     1       5.917   0.036  -6.370  1.00  0.00    -0.000 C 
BRANCH  15  16
ATOM     16  C   UNL     1       5.592   0.185  -4.876  1.00  0.00    -0.000 C 
BRANCH  16  17
ATOM     17  C   UNL     1       6.327  -0.844  -4.003  1.00  0.00    -0.000 C 
BRANCH  17  18
ATOM     18  C   UNL     1       5.452  -2.065  -3.666  1.00  0.00    -0.000 C 
BRANCH  18  19
ATOM     19  C   UNL     1       4.069  -1.667  -3.130  1.00  0.00    -0.003 C 
ATOM     20  C   UNL     1       2.922  -2.283  -3.930  1.00  0.00     0.004 C 
ENDBRANCH  18  19
ENDBRANCH  17  18
ENDBRANCH  16  17
ENDBRANCH  15  16
ENDBRANCH  14  15
ENDBRANCH  13  14
ENDBRANCH  12  13
ENDBRANCH   1  12
TORSDOF 16
ENDMDL
MODEL 6
REMARK VINA RESULT:    -3.204      6.177      8.619
REMARK INTER + INTRA:          -8.002
REMARK INTER:                  -6.880
REMARK INTRA:                  -1.122
REMARK UNBOUND:                -1.801
REMARK SMILES CCCCCCCCCCCCCCCCCC(=O)[O-]
REMARK SMILES IDX 10 1 11 2 12 3 13 4 14 5 15 6 16 7 17 8 18 9 19 10 20 11
REMARK SMILES IDX 9 12 8 13 7 14 6 15 5 16 4 17 3 18 2 19 1 20
REMARK H PARENT
REMARK Flexibility Score: inf
ROOT
ATOM      1  C   UNL     1       6.744   4.017  -3.938  1.00  0.00     0.000 C 
ENDROOT
BRANCH   1   2
ATOM      2  C   UNL     1       7.814   2.927  -3.750  1.00  0.00     0.000 C 
BRANCH   2   3
ATOM      3  C   UNL     1       7.690   1.723  -4.704  1.00  0.00     0.000 C 
BRANCH   3   4
ATOM      4  C   UNL     1       6.287   1.502  -5.305  1.00  0.00     0.000 C 
BRANCH   4   5
ATOM      5  C   UNL     1       5.553   0.245  -4.805  1.00  0.00     0.000 C 
BRANCH   5   6
ATOM      6  C   UNL     1       6.493  -0.760  -4.118  1.00  0.00     0.000 C 
BRANCH   6   7
ATOM      7  C   UNL     1       5.731  -1.846  -3.343  1.00  0.00     0.006 C 
BRANCH   7   8
ATOM      8  C   UNL     1       4.260  -1.481  -3.106  1.00  0.00     0.053 C 
BRANCH   8   9
ATOM      9  C   UNL     1       3.362  -2.504  -3.729  1.00  0.00     0.041 C 
ATOM     10  O   UNL     1       2.148  -2.242  -3.935  1.00  0.00    -0.550 OA
ATOM     11  O   UNL     1       3.880  -3.729  -4.130  1.00  0.00    -0.550 OA
ENDBRANCH   8   9
ENDBRANCH   7   8
ENDBRANCH   6   7
ENDBRANCH   5   6
ENDBRANCH   4   5
ENDBRANCH   3   4
ENDBRANCH   2   3
ENDBRANCH   1   2
BRANCH   1  12
ATOM     12  C   UNL     1       6.874   5.162  -2.922  1.00  0.00     0.000 C 
BRANCH  12  13
ATOM     13  C   UNL     1       5.495   5.650  -2.463  1.00  0.00    -0.000 C 
BRANCH  13  14
ATOM     14  C   UNL     1       5.517   6.047  -0.983  1.00  0.00    -0.000 C 
BRANCH  14  15
ATOM     15  C   UNL     1       6.902   5.816  -0.368  1.00  0.00    -0.000 C 
BRANCH  15  16
ATOM     16  C   UNL     1       7.129   6.738   0.839  1.00  0.00    -0.000 C 
BRANCH  16  17
ATOM     17  C   UNL     1       6.025   7.797   0.993  1.00  0.00    -0.000 C 
BRANCH  17  18
ATOM     18  C   UNL     1       5.774   8.179   2.463  1.00  0.00    -0.000 C 
BRANCH  18  19
ATOM     19  C   UNL     1       4.294   8.475   2.749  1.00  0.00    -0.003 C 
ATOM     20  C   UNL     1       3.390   8.197   1.548  1.00  0.00     0.004 C 
ENDBRANCH  18  19
ENDBRANCH  17  18
ENDBRANCH  16  17
ENDBRANCH  15  16
ENDBRANCH  14  15
ENDBRANCH  13  14
ENDBRANCH  12  13
ENDBRANCH   1  12
TORSDOF 16
ENDMDL
MODEL 7
REMARK VINA RESULT:    -3.200      4.888      7.544
REMARK INTER + INTRA:          -7.995
REMARK INTER:                  -6.463
REMARK INTRA:                  -1.532
REMARK UNBOUND:                -1.801
REMARK SMILES CCCCCCCCCCCCCCCCCC(=O)[O-]
REMARK SMILES IDX 10 1 11 2 12 3 13 4 14 5 15 6 16 7 17 8 18 9 19 10 20 11
REMARK SMILES IDX 9 12 8 13 7 14 6 15 5 16 4 17 3 18 2 19 1 20
REMARK H PARENT
REMARK Flexibility Score: inf
ROOT
ATOM      1  C   UNL     1       7.474   5.129  -5.039  1.00  0.00     0.000 C 
ENDROOT
BRANCH   1   2
ATOM      2  C   UNL     1       7.095   3.683  -5.403  1.00  0.00     0.000 C 
BRANCH   2   3
ATOM      3  C   UNL     1       6.963   2.723  -4.204  1.00  0.00     0.000 C 
BRANCH   3   4
ATOM      4  C   UNL     1       6.142   1.446  -4.474  1.00  0.00     0.000 C 
BRANCH   4   5
ATOM      5  C   UNL     1       6.768   0.469  -5.486  1.00  0.00     0.000 C 
BRANCH   5   6
ATOM      6  C   UNL     1       6.313  -0.984  -5.271  1.00  0.00     0.000 C 
BRANCH   6   7
ATOM      7  C   UNL     1       4.964  -1.078  -4.540  1.00  0.00     0.006 C 
BRANCH   7   8
ATOM      8  C   UNL     1       4.245  -2.410  -4.794  1.00  0.00     0.053 C 
BRANCH   8   9
ATOM      9  C   UNL     1       2.768  -2.247  -4.614  1.00  0.00     0.041 C 
ATOM     10  O   UNL     1       2.269  -2.220  -3.459  1.00  0.00    -0.550 OA
ATOM     11  O   UNL     1       1.949  -2.073  -5.723  1.00  0.00    -0.550 OA
ENDBRANCH   8   9
ENDBRANCH   7   8
ENDBRANCH   6   7
ENDBRANCH   5   6
ENDBRANCH   4   5
ENDBRANCH   3   4
ENDBRANCH   2   3
ENDBRANCH   1   2
BRANCH   1  12
ATOM     12  C   UNL     1       7.130   6.134  -6.148  1.00  0.00     0.000 C 
BRANCH  12  13
ATOM     13  C   UNL     1       6.349   7.327  -5.587  1.00  0.00    -0.000 C 
BRANCH  13  14
ATOM     14  C   UNL     1       6.261   7.259  -4.058  1.00  0.00    -0.000 C 
BRANCH  14  15
ATOM     15  C   UNL     1       4.825   7.493  -3.576  1.00  0.00    -0.000 C 
BRANCH  15  16
ATOM     16  C   UNL     1       4.394   6.404  -2.583  1.00  0.00    -0.000 C 
BRANCH  16  17
ATOM     17  C   UNL     1       5.586   5.630  -1.996  1.00  0.00    -0.000 C 
BRANCH  17  18
ATOM     18  C   UNL     1       5.897   6.037  -0.545  1.00  0.00    -0.000 C 
BRANCH  18  19
ATOM     19  C   UNL     1       7.361   5.772  -0.161  1.00  0.00    -0.003 C 
ATOM     20  C   UNL     1       8.240   5.442  -1.366  1.00  0.00     0.004 C 
ENDBRANCH  18  19
ENDBRANCH  17  18
ENDBRANCH  16  17
ENDBRANCH  15  16
ENDBRANCH  14  15
ENDBRANCH  13  14
ENDBRANCH  12  13
ENDBRANCH   1  12
TORSDOF 16
ENDMDL
MODEL 8
REMARK VINA RESULT:    -3.183      2.324      5.041
REMARK INTER + INTRA:          -7.963
REMARK INTER:                  -6.369
REMARK INTRA:                  -1.593
REMARK UNBOUND:                -1.801
REMARK SMILES CCCCCCCCCCCCCCCCCC(=O)[O-]
REMARK SMILES IDX 10 1 11 2 12 3 13 4 14 5 15 6 16 7 17 8 18 9 19 10 20 11
REMARK SMILES IDX 9 12 8 13 7 14 6 15 5 16 4 17 3 18 2 19 1 20
REMARK H PARENT
REMARK Flexibility Score: inf
ROOT
ATOM      1  C   UNL     1       2.361   1.698  -9.948  1.00  0.00     0.000 C 
ENDROOT
BRANCH   1   2
ATOM      2  C   UNL     1       1.132   2.418  -9.364  1.00  0.00     0.000 C 
BRANCH   2   3
ATOM      3  C   UNL     1      -0.029   1.492  -8.951  1.00  0.00     0.000 C 
BRANCH   3   4
ATOM      4  C   UNL     1       0.154   0.005  -9.315  1.00  0.00     0.000 C 
BRANCH   4   5
ATOM      5  C   UNL     1      -0.429  -0.992  -8.299  1.00  0.00     0.000 C 
BRANCH   5   6
ATOM      6  C   UNL     1       0.443  -1.138  -7.039  1.00  0.00     0.000 C 
BRANCH   6   7
ATOM      7  C   UNL     1       1.496  -2.249  -7.177  1.00  0.00     0.006 C 
BRANCH   7   8
ATOM      8  C   UNL     1       2.692  -2.049  -6.237  1.00  0.00     0.053 C 
BRANCH   8   9
ATOM      9  C   UNL     1       2.500  -2.832  -4.976  1.00  0.00     0.041 C 
ATOM     10  O   UNL     1       2.571  -4.089  -4.993  1.00  0.00    -0.550 OA
ATOM     11  O   UNL     1       2.295  -2.170  -3.772  1.00  0.00    -0.550 OA
ENDBRANCH   8   9
ENDBRANCH   7   8
ENDBRANCH   6   7
ENDBRANCH   5   6
ENDBRANCH   4   5
ENDBRANCH   3   4
ENDBRANCH   2   3
ENDBRANCH   1   2
BRANCH   1  12
ATOM     12  C   UNL     1       3.589   1.771  -9.028  1.00  0.00     0.000 C 
BRANCH  12  13
ATOM     13  C   UNL     1       4.146   0.372  -8.741  1.00  0.00    -0.000 C 
BRANCH  13  14
ATOM     14  C   UNL     1       5.507   0.455  -8.040  1.00  0.00    -0.000 C 
BRANCH  14  15
ATOM     15  C   UNL     1       6.003   1.904  -7.964  1.00  0.00    -0.000 C 
BRANCH  15  16
ATOM     16  C   UNL     1       6.878   2.121  -6.721  1.00  0.00    -0.000 C 
BRANCH  16  17
ATOM     17  C   UNL     1       6.323   1.416  -5.473  1.00  0.00    -0.000 C 
BRANCH  17  18
ATOM     18  C   UNL     1       6.791   2.077  -4.164  1.00  0.00    -0.000 C 
BRANCH  18  19
ATOM     19  C   UNL     1       7.265   3.524  -4.373  1.00  0.00    -0.003 C 
ATOM     20  C   UNL     1       6.523   4.525  -3.488  1.00  0.00     0.004 C 
ENDBRANCH  18  19
ENDBRANCH  17  18
ENDBRANCH  16  17
ENDBRANCH  15  16
ENDBRANCH  14  15
ENDBRANCH  13  14
ENDBRANCH  12  13
ENDBRANCH   1  12
TORSDOF 16
ENDMDL
MODEL 9
REMARK VINA RESULT:    -3.110      1.553      3.878
REMARK INTER + INTRA:          -7.819
REMARK INTER:                  -5.553
REMARK INTRA:                  -2.266
REMARK UNBOUND:                -1.801
REMARK SMILES CCCCCCCCCCCCCCCCCC(=O)[O-]
REMARK SMILES IDX 10 1 11 2 12 3 13 4 14 5 15 6 16 7 17 8 18 9 19 10 20 11
REMARK SMILES IDX 9 12 8 13 7 14 6 15 5 16 4 17 3 18 2 19 1 20
REMARK H PARENT
REMARK Flexibility Score: inf
ROOT
ATOM      1  C   UNL     1       2.667  -2.378  -5.632  1.00  0.00     0.000 C 
ENDROOT
BRANCH   1   2
ATOM      2  C   UNL     1       3.403  -3.043  -6.809  1.00  0.00     0.000 C 
BRANCH   2   3
ATOM      3  C   UNL     1       4.383  -2.125  -7.566  1.00  0.00     0.000 C 
BRANCH   3   4
ATOM      4  C   UNL     1       3.809  -0.757  -7.987  1.00  0.00     0.000 C 
BRANCH   4   5
ATOM      5  C   UNL     1       2.738  -0.811  -9.091  1.00  0.00     0.000 C 
BRANCH   5   6
ATOM      6  C   UNL     1       1.866   0.455  -9.137  1.00  0.00     0.000 C 
BRANCH   6   7
ATOM      7  C   UNL     1       0.428   0.200  -8.655  1.00  0.00     0.006 C 
BRANCH   7   8
ATOM      8  C   UNL     1       0.141  -1.288  -8.414  1.00  0.00     0.053 C 
BRANCH   8   9
ATOM      9  C   UNL     1      -0.501  -1.485  -7.077  1.00  0.00     0.041 C 
ATOM     10  O   UNL     1      -0.686  -0.502  -6.311  1.00  0.00    -0.550 OA
ATOM     11  O   UNL     1      -0.942  -2.746  -6.697  1.00  0.00    -0.550 OA
ENDBRANCH   8   9
ENDBRANCH   7   8
ENDBRANCH   6   7
ENDBRANCH   5   6
ENDBRANCH   4   5
ENDBRANCH   3   4
ENDBRANCH   2   3
ENDBRANCH   1   2
BRANCH   1  12
ATOM     12  C   UNL     1       3.620  -1.904  -4.524  1.00  0.00     0.000 C 
BRANCH  12  13
ATOM     13  C   UNL     1       4.228  -3.095  -3.775  1.00  0.00    -0.000 C 
BRANCH  13  14
ATOM     14  C   UNL     1       5.749  -3.143  -3.960  1.00  0.00    -0.000 C 
BRANCH  14  15
ATOM     15  C   UNL     1       6.381  -1.769  -3.706  1.00  0.00    -0.000 C 
BRANCH  15  16
ATOM     16  C   UNL     1       7.257  -1.339  -4.892  1.00  0.00    -0.000 C 
BRANCH  16  17
ATOM     17  C   UNL     1       6.731  -0.077  -5.594  1.00  0.00    -0.000 C 
BRANCH  17  18
ATOM     18  C   UNL     1       6.017   0.883  -4.624  1.00  0.00    -0.000 C 
BRANCH  18  19
ATOM     19  C   UNL     1       6.708   2.252  -4.538  1.00  0.00    -0.003 C 
ATOM     20  C   UNL     1       8.121   2.169  -3.961  1.00  0.00     0.004 C 
ENDBRANCH  18  19
ENDBRANCH  17  18
ENDBRANCH  16  17
ENDBRANCH  15  16
ENDBRANCH  14  15
ENDBRANCH  13  14
ENDBRANCH  12  13
ENDBRANCH   1  12
TORSDOF 16
ENDMDL
