MODEL 1
REMARK VINA RESULT:    -3.927      0.000      0.000
REMARK INTER + INTRA:          -5.859
REMARK INTER:                  -5.304
REMARK INTRA:                  -0.555
REMARK UNBOUND:                -0.555
REMARK SMILES O=C[C@@H](O)[C@H](O)[C@@H](O)CO
REMARK SMILES IDX 7 1 9 2 10 3 5 5 3 6 2 7 1 8 4 9 6 11 8 13
REMARK H PARENT 10 4 4 10 6 12 8 14
REMARK Flexibility Score: inf
ROOT
ATOM      1  C   UNL     1      18.457  20.790  77.262  1.00  0.00     0.171 C 
ENDROOT
BRANCH   1   2
ATOM      2  C   UNL     1      18.811  22.008  76.385  1.00  0.00     0.190 C 
BRANCH   2   3
ATOM      3  O   UNL     1      18.680  23.197  77.118  1.00  0.00    -0.394 OA
ATOM      4  H   UNL     1      18.156  22.973  77.931  1.00  0.00     0.210 HD
ENDBRANCH   2   3
ENDBRANCH   1   2
BRANCH   1   5
ATOM      5  C   UNL     1      17.190  21.004  78.139  1.00  0.00     0.181 C 
BRANCH   5   6
ATOM      6  C   UNL     1      17.444  21.160  79.662  1.00  0.00     0.209 C 
BRANCH   6   7
ATOM      7  C   UNL     1      17.885  19.877  80.320  1.00  0.00     0.258 C 
ATOM      8  O   UNL     1      17.180  18.881  80.289  1.00  0.00    -0.300 OA
ENDBRANCH   6   7
BRANCH   6   9
ATOM      9  O   UNL     1      18.369  22.187  79.909  1.00  0.00    -0.383 OA
ATOM     10  H   UNL     1      19.235  21.897  79.519  1.00  0.00     0.211 HD
ENDBRANCH   6   9
ENDBRANCH   5   6
BRANCH   5  11
ATOM     11  O   UNL     1      16.320  19.919  77.928  1.00  0.00    -0.387 OA
ATOM     12  H   UNL     1      16.886  19.122  77.748  1.00  0.00     0.211 HD
ENDBRANCH   5  11
ENDBRANCH   1   5
BRANCH   1  13
ATOM     13  O   UNL     1      18.285  19.653  76.453  1.00  0.00    -0.388 OA
ATOM     14  H   UNL     1      18.468  18.854  77.016  1.00  0.00     0.211 HD
ENDBRANCH   1  13
TORSDOF 8
ENDMDL
MODEL 2
REMARK VINA RESULT:    -3.911      1.466      3.876
REMARK INTER + INTRA:          -5.838
REMARK INTER:                  -5.077
REMARK INTRA:                  -0.760
REMARK UNBOUND:                -0.555
REMARK SMILES O=C[C@@H](O)[C@H](O)[C@@H](O)CO
REMARK SMILES IDX 7 1 9 2 10 3 5 5 3 6 2 7 1 8 4 9 6 11 8 13
REMARK H PARENT 10 4 4 10 6 12 8 14
REMARK Flexibility Score: inf
ROOT
ATOM      1  C   UNL     1      17.512  19.761  79.653  1.00  0.00     0.171 C 
ENDROOT
BRANCH   1   2
ATOM      2  C   UNL     1      16.410  18.875  80.269  1.00  0.00     0.190 C 
BRANCH   2   3
ATOM      3  O   UNL     1      15.141  19.406  79.993  1.00  0.00    -0.394 OA
ATOM      4  H   UNL     1      14.765  19.707  80.862  1.00  0.00     0.210 HD
ENDBRANCH   2   3
ENDBRANCH   1   2
BRANCH   1   5
ATOM      5  C   UNL     1      17.023  20.612  78.447  1.00  0.00     0.181 C 
BRANCH   5   6
ATOM      6  C   UNL     1      18.076  20.874  77.337  1.00  0.00     0.209 C 
BRANCH   6   7
ATOM      7  C   UNL     1      18.843  22.155  77.543  1.00  0.00     0.258 C 
ATOM      8  O   UNL     1      19.422  22.378  78.594  1.00  0.00    -0.300 OA
ENDBRANCH   6   7
BRANCH   6   9
ATOM      9  O   UNL     1      18.953  19.784  77.217  1.00  0.00    -0.383 OA
ATOM     10  H   UNL     1      19.165  19.481  78.139  1.00  0.00     0.211 HD
ENDBRANCH   6   9
ENDBRANCH   5   6
BRANCH   5  11
ATOM     11  O   UNL     1      16.558  21.846  78.938  1.00  0.00    -0.387 OA
ATOM     12  H   UNL     1      15.709  21.667  79.421  1.00  0.00     0.211 HD
ENDBRANCH   5  11
ENDBRANCH   1   5
BRANCH   1  13
ATOM     13  O   UNL     1      18.052  20.606  80.639  1.00  0.00    -0.388 OA
ATOM     14  H   UNL     1      18.626  20.049  81.229  1.00  0.00     0.211 HD
ENDBRANCH   1  13
TORSDOF 8
ENDMDL
MODEL 3
REMARK VINA RESULT:    -3.911      1.251      1.987
REMARK INTER + INTRA:          -5.838
REMARK INTER:                  -5.117
REMARK INTRA:                  -0.720
REMARK UNBOUND:                -0.555
REMARK SMILES O=C[C@@H](O)[C@H](O)[C@@H](O)CO
REMARK SMILES IDX 7 1 9 2 10 3 5 5 3 6 2 7 1 8 4 9 6 11 8 13
REMARK H PARENT 10 4 4 10 6 12 8 14
REMARK Flexibility Score: inf
ROOT
ATOM      1  C   UNL     1      18.022  21.935  78.094  1.00  0.00     0.171 C 
ENDROOT
BRANCH   1   2
ATOM      2  C   UNL     1      19.062  22.394  77.053  1.00  0.00     0.190 C 
BRANCH   2   3
ATOM      3  O   UNL     1      18.808  23.715  76.654  1.00  0.00    -0.394 OA
ATOM      4  H   UNL     1      17.883  23.927  76.946  1.00  0.00     0.210 HD
ENDBRANCH   2   3
ENDBRANCH   1   2
BRANCH   1   5
ATOM      5  C   UNL     1      17.639  20.433  77.970  1.00  0.00     0.181 C 
BRANCH   5   6
ATOM      6  C   UNL     1      16.528  19.940  78.935  1.00  0.00     0.209 C 
BRANCH   6   7
ATOM      7  C   UNL     1      17.070  19.173  80.115  1.00  0.00     0.258 C 
ATOM      8  O   UNL     1      17.928  19.655  80.836  1.00  0.00    -0.300 OA
ENDBRANCH   6   7
BRANCH   6   9
ATOM      9  O   UNL     1      15.731  21.013  79.365  1.00  0.00    -0.383 OA
ATOM     10  H   UNL     1      15.923  21.777  78.760  1.00  0.00     0.211 HD
ENDBRANCH   6   9
ENDBRANCH   5   6
BRANCH   5  11
ATOM     11  O   UNL     1      18.798  19.664  78.174  1.00  0.00    -0.387 OA
ATOM     12  H   UNL     1      18.670  18.808  77.687  1.00  0.00     0.211 HD
ENDBRANCH   5  11
ENDBRANCH   1   5
BRANCH   1  13
ATOM     13  O   UNL     1      18.499  22.194  79.392  1.00  0.00    -0.388 OA
ATOM     14  H   UNL     1      17.781  22.672  79.886  1.00  0.00     0.211 HD
ENDBRANCH   1  13
TORSDOF 8
ENDMDL
MODEL 4
REMARK VINA RESULT:    -3.798     13.933     16.266
REMARK INTER + INTRA:          -5.684
REMARK INTER:                  -4.756
REMARK INTRA:                  -0.928
REMARK UNBOUND:                -0.555
REMARK SMILES O=C[C@@H](O)[C@H](O)[C@@H](O)CO
REMARK SMILES IDX 7 1 9 2 10 3 5 5 3 6 2 7 1 8 4 9 6 11 8 13
REMARK H PARENT 10 4 4 10 6 12 8 14
REMARK Flexibility Score: inf
ROOT
ATOM      1  C   UNL     1      23.634  36.028  73.076  1.00  0.00     0.171 C 
ENDROOT
BRANCH   1   2
ATOM      2  C   UNL     1      23.786  37.392  73.780  1.00  0.00     0.190 C 
BRANCH   2   3
ATOM      3  O   UNL     1      25.140  37.675  74.017  1.00  0.00    -0.394 OA
ATOM      4  H   UNL     1      25.205  38.657  74.152  1.00  0.00     0.210 HD
ENDBRANCH   2   3
ENDBRANCH   1   2
BRANCH   1   5
ATOM      5  C   UNL     1      24.737  35.003  73.463  1.00  0.00     0.181 C 
BRANCH   5   6
ATOM      6  C   UNL     1      24.604  33.596  72.820  1.00  0.00     0.209 C 
BRANCH   6   7
ATOM      7  C   UNL     1      24.097  32.554  73.785  1.00  0.00     0.258 C 
ATOM      8  O   UNL     1      23.072  32.734  74.422  1.00  0.00    -0.300 OA
ENDBRANCH   6   7
BRANCH   6   9
ATOM      9  O   UNL     1      23.793  33.649  71.675  1.00  0.00    -0.383 OA
ATOM     10  H   UNL     1      24.345  34.040  70.948  1.00  0.00     0.211 HD
ENDBRANCH   6   9
ENDBRANCH   5   6
BRANCH   5  11
ATOM     11  O   UNL     1      24.743  34.869  74.863  1.00  0.00    -0.387 OA
ATOM     12  H   UNL     1      24.165  34.092  75.084  1.00  0.00     0.211 HD
ENDBRANCH   5  11
ENDBRANCH   1   5
BRANCH   1  13
ATOM     13  O   UNL     1      22.367  35.486  73.355  1.00  0.00    -0.388 OA
ATOM     14  H   UNL     1      22.065  34.995  72.545  1.00  0.00     0.211 HD
ENDBRANCH   1  13
TORSDOF 8
ENDMDL
MODEL 5
REMARK VINA RESULT:    -3.706      1.408      3.727
REMARK INTER + INTRA:          -5.561
REMARK INTER:                  -4.635
REMARK INTRA:                  -0.926
REMARK UNBOUND:                -0.555
REMARK SMILES O=C[C@@H](O)[C@H](O)[C@@H](O)CO
REMARK SMILES IDX 7 1 9 2 10 3 5 5 3 6 2 7 1 8 4 9 6 11 8 13
REMARK H PARENT 10 4 4 10 6 12 8 14
REMARK Flexibility Score: inf
ROOT
ATOM      1  C   UNL     1      18.010  20.210  80.077  1.00  0.00     0.171 C 
ENDROOT
BRANCH   1   2
ATOM      2  C   UNL     1      16.946  19.108  80.255  1.00  0.00     0.190 C 
BRANCH   2   3
ATOM      3  O   UNL     1      15.741  19.485  79.643  1.00  0.00    -0.394 OA
ATOM      4  H   UNL     1      15.920  20.336  79.163  1.00  0.00     0.210 HD
ENDBRANCH   2   3
ENDBRANCH   1   2
BRANCH   1   5
ATOM      5  C   UNL     1      18.887  20.028  78.806  1.00  0.00     0.181 C 
BRANCH   5   6
ATOM      6  C   UNL     1      19.886  21.177  78.507  1.00  0.00     0.209 C 
BRANCH   6   7
ATOM      7  C   UNL     1      19.414  22.099  77.412  1.00  0.00     0.258 C 
ATOM      8  O   UNL     1      18.401  22.766  77.546  1.00  0.00    -0.300 OA
ENDBRANCH   6   7
BRANCH   6   9
ATOM      9  O   UNL     1      20.174  21.901  79.676  1.00  0.00    -0.383 OA
ATOM     10  H   UNL     1      21.042  21.564  80.019  1.00  0.00     0.211 HD
ENDBRANCH   6   9
ENDBRANCH   5   6
BRANCH   5  11
ATOM     11  O   UNL     1      18.033  19.865  77.701  1.00  0.00    -0.387 OA
ATOM     12  H   UNL     1      17.480  20.687  77.635  1.00  0.00     0.211 HD
ENDBRANCH   5  11
ENDBRANCH   1   5
BRANCH   1  13
ATOM     13  O   UNL     1      17.389  21.473  80.045  1.00  0.00    -0.388 OA
ATOM     14  H   UNL     1      17.627  21.946  80.886  1.00  0.00     0.211 HD
ENDBRANCH   1  13
TORSDOF 8
ENDMDL
MODEL 6
REMARK VINA RESULT:    -3.605      1.793      2.820
REMARK INTER + INTRA:          -5.424
REMARK INTER:                  -4.672
REMARK INTRA:                  -0.752
REMARK UNBOUND:                -0.555
REMARK SMILES O=C[C@@H](O)[C@H](O)[C@@H](O)CO
REMARK SMILES IDX 7 1 9 2 10 3 5 5 3 6 2 7 1 8 4 9 6 11 8 13
REMARK H PARENT 10 4 4 10 6 12 8 14
REMARK Flexibility Score: inf
ROOT
ATOM      1  C   UNL     1      19.593  21.931  77.768  1.00  0.00     0.171 C 
ENDROOT
BRANCH   1   2
ATOM      2  C   UNL     1      21.010  22.533  77.859  1.00  0.00     0.190 C 
BRANCH   2   3
ATOM      3  O   UNL     1      21.520  22.396  79.159  1.00  0.00    -0.394 OA
ATOM      4  H   UNL     1      22.478  22.655  79.116  1.00  0.00     0.210 HD
ENDBRANCH   2   3
ENDBRANCH   1   2
BRANCH   1   5
ATOM      5  C   UNL     1      19.133  21.224  79.074  1.00  0.00     0.181 C 
BRANCH   5   6
ATOM      6  C   UNL     1      18.013  20.162  78.906  1.00  0.00     0.209 C 
BRANCH   6   7
ATOM      7  C   UNL     1      16.723  20.556  79.578  1.00  0.00     0.258 C 
ATOM      8  O   UNL     1      16.059  21.492  79.163  1.00  0.00    -0.300 OA
ENDBRANCH   6   7
BRANCH   6   9
ATOM      9  O   UNL     1      17.799  19.878  77.547  1.00  0.00    -0.383 OA
ATOM     10  H   UNL     1      16.909  19.443  77.479  1.00  0.00     0.211 HD
ENDBRANCH   6   9
ENDBRANCH   5   6
BRANCH   5  11
ATOM     11  O   UNL     1      18.699  22.208  79.979  1.00  0.00    -0.387 OA
ATOM     12  H   UNL     1      17.758  22.427  79.744  1.00  0.00     0.211 HD
ENDBRANCH   5  11
ENDBRANCH   1   5
BRANCH   1  13
ATOM     13  O   UNL     1      18.669  22.935  77.424  1.00  0.00    -0.388 OA
ATOM     14  H   UNL     1      18.975  23.782  77.846  1.00  0.00     0.211 HD
ENDBRANCH   1  13
TORSDOF 8
ENDMDL
MODEL 7
REMARK VINA RESULT:    -3.534      0.966      3.981
REMARK INTER + INTRA:          -5.328
REMARK INTER:                  -4.373
REMARK INTRA:                  -0.955
REMARK UNBOUND:                -0.555
REMARK SMILES O=C[C@@H](O)[C@H](O)[C@@H](O)CO
REMARK SMILES IDX 7 1 9 2 10 3 5 5 3 6 2 7 1 8 4 9 6 11 8 13
REMARK H PARENT 10 4 4 10 6 12 8 14
REMARK Flexibility Score: inf
ROOT
ATOM      1  C   UNL     1      16.842  20.945  78.612  1.00  0.00     0.171 C 
ENDROOT
BRANCH   1   2
ATOM      2  C   UNL     1      17.293  20.225  79.899  1.00  0.00     0.190 C 
BRANCH   2   3
ATOM      3  O   UNL     1      18.008  19.060  79.586  1.00  0.00    -0.394 OA
ATOM      4  H   UNL     1      18.027  18.996  78.595  1.00  0.00     0.210 HD
ENDBRANCH   2   3
ENDBRANCH   1   2
BRANCH   1   5
ATOM      5  C   UNL     1      17.988  21.713  77.895  1.00  0.00     0.181 C 
BRANCH   5   6
ATOM      6  C   UNL     1      18.537  21.050  76.603  1.00  0.00     0.209 C 
BRANCH   6   7
ATOM      7  C   UNL     1      19.623  21.860  75.942  1.00  0.00     0.258 C 
ATOM      8  O   UNL     1      19.717  23.061  76.136  1.00  0.00    -0.300 OA
ENDBRANCH   6   7
BRANCH   6   9
ATOM      9  O   UNL     1      18.981  19.744  76.866  1.00  0.00    -0.383 OA
ATOM     10  H   UNL     1      18.949  19.620  77.851  1.00  0.00     0.211 HD
ENDBRANCH   6   9
ENDBRANCH   5   6
BRANCH   5  11
ATOM     11  O   UNL     1      19.044  21.882  78.808  1.00  0.00    -0.387 OA
ATOM     12  H   UNL     1      19.161  21.017  79.283  1.00  0.00     0.211 HD
ENDBRANCH   5  11
ENDBRANCH   1   5
BRANCH   1  13
ATOM     13  O   UNL     1      16.267  20.018  77.724  1.00  0.00    -0.388 OA
ATOM     14  H   UNL     1      16.850  19.214  77.711  1.00  0.00     0.211 HD
ENDBRANCH   1  13
TORSDOF 8
ENDMDL
MODEL 8
REMARK VINA RESULT:    -3.516     13.526     16.006
REMARK INTER + INTRA:          -5.304
REMARK INTER:                  -4.413
REMARK INTRA:                  -0.891
REMARK UNBOUND:                -0.555
REMARK SMILES O=C[C@@H](O)[C@H](O)[C@@H](O)CO
REMARK SMILES IDX 7 1 9 2 10 3 5 5 3 6 2 7 1 8 4 9 6 11 8 13
REMARK H PARENT 10 4 4 10 6 12 8 14
REMARK Flexibility Score: inf
ROOT
ATOM      1  C   UNL     1      24.562  33.383  73.849  1.00  0.00     0.171 C 
ENDROOT
BRANCH   1   2
ATOM      2  C   UNL     1      24.210  31.971  74.359  1.00  0.00     0.190 C 
BRANCH   2   3
ATOM      3  O   UNL     1      23.014  31.998  75.093  1.00  0.00    -0.394 OA
ATOM      4  H   UNL     1      22.291  31.728  74.468  1.00  0.00     0.210 HD
ENDBRANCH   2   3
ENDBRANCH   1   2
BRANCH   1   5
ATOM      5  C   UNL     1      23.423  34.421  74.055  1.00  0.00     0.181 C 
BRANCH   5   6
ATOM      6  C   UNL     1      23.559  35.739  73.247  1.00  0.00     0.209 C 
BRANCH   6   7
ATOM      7  C   UNL     1      24.018  36.902  74.089  1.00  0.00     0.258 C 
ATOM      8  O   UNL     1      25.085  36.867  74.680  1.00  0.00    -0.300 OA
ENDBRANCH   6   7
BRANCH   6   9
ATOM      9  O   UNL     1      24.409  35.559  72.144  1.00  0.00    -0.383 OA
ATOM     10  H   UNL     1      24.457  36.430  71.669  1.00  0.00     0.211 HD
ENDBRANCH   6   9
ENDBRANCH   5   6
BRANCH   5  11
ATOM     11  O   UNL     1      23.352  34.730  75.426  1.00  0.00    -0.387 OA
ATOM     12  H   UNL     1      22.786  35.542  75.513  1.00  0.00     0.211 HD
ENDBRANCH   5  11
ENDBRANCH   1   5
BRANCH   1  13
ATOM     13  O   UNL     1      25.736  33.838  74.476  1.00  0.00    -0.388 OA
ATOM     14  H   UNL     1      25.819  33.358  75.342  1.00  0.00     0.211 HD
ENDBRANCH   1  13
TORSDOF 8
ENDMDL
