MODEL 1
REMARK VINA RESULT:    -4.685      0.000      0.000
REMARK INTER + INTRA:          -5.220
REMARK INTER:                  -5.233
REMARK INTRA:                   0.014
REMARK UNBOUND:                 0.014
REMARK SMILES CCc1ccc(O)cc1O
REMARK SMILES IDX 3 1 9 2 8 3 6 4 5 5 4 6 2 7 1 8 10 9 7 11
REMARK H PARENT 10 10 7 12
REMARK Flexibility Score: inf
ROOT
ATOM      1  C   UNL     1      -1.616   0.385  28.142  1.00  0.00    -0.006 A 
ATOM      2  C   UNL     1      -2.779   1.181  28.158  1.00  0.00     0.122 A 
ATOM      3  C   UNL     1      -3.611   1.226  27.029  1.00  0.00     0.092 A 
ATOM      4  C   UNL     1      -3.285   0.493  25.880  1.00  0.00     0.119 A 
ATOM      5  C   UNL     1      -2.124  -0.285  25.860  1.00  0.00     0.047 A 
ATOM      6  C   UNL     1      -1.291  -0.336  26.980  1.00  0.00     0.011 A 
ENDROOT
BRANCH   1   7
ATOM      7  C   UNL     1      -0.688   0.343  29.330  1.00  0.00     0.036 C 
ATOM      8  C   UNL     1       0.121   1.631  29.431  1.00  0.00     0.009 C 
ENDBRANCH   1   7
BRANCH   2   9
ATOM      9  O   UNL     1      -3.104   1.925  29.292  1.00  0.00    -0.508 OA
ATOM     10  H   UNL     1      -3.503   2.854  29.221  1.00  0.00     0.293 HD
ENDBRANCH   2   9
BRANCH   4  11
ATOM     11  O   UNL     1      -4.106   0.532  24.756  1.00  0.00    -0.508 OA
ATOM     12  H   UNL     1      -5.008   0.994  24.775  1.00  0.00     0.293 HD
ENDBRANCH   4  11
TORSDOF 3
ENDMDL
MODEL 2
REMARK VINA RESULT:    -4.545      2.490      3.944
REMARK INTER + INTRA:          -5.062
REMARK INTER:                  -4.977
REMARK INTRA:                  -0.085
REMARK UNBOUND:                 0.014
REMARK SMILES CCc1ccc(O)cc1O
REMARK SMILES IDX 3 1 9 2 8 3 6 4 5 5 4 6 2 7 1 8 10 9 7 11
REMARK H PARENT 10 10 7 12
REMARK Flexibility Score: inf
ROOT
ATOM      1  C   UNL     1      -2.066   0.007  27.949  1.00  0.00    -0.006 A 
ATOM      2  C   UNL     1      -1.338   0.008  29.155  1.00  0.00     0.122 A 
ATOM      3  C   UNL     1      -1.971  -0.359  30.353  1.00  0.00     0.092 A 
ATOM      4  C   UNL     1      -3.326  -0.714  30.357  1.00  0.00     0.119 A 
ATOM      5  C   UNL     1      -4.051  -0.700  29.163  1.00  0.00     0.047 A 
ATOM      6  C   UNL     1      -3.428  -0.337  27.966  1.00  0.00     0.011 A 
ENDROOT
BRANCH   1   7
ATOM      7  C   UNL     1      -1.419   0.427  26.652  1.00  0.00     0.036 C 
ATOM      8  C   UNL     1      -2.259  -0.017  25.460  1.00  0.00     0.009 C 
ENDBRANCH   1   7
BRANCH   2   9
ATOM      9  O   UNL     1       0.008   0.372  29.163  1.00  0.00    -0.508 OA
ATOM     10  H   UNL     1       0.608   0.172  29.954  1.00  0.00     0.293 HD
ENDBRANCH   2   9
BRANCH   4  11
ATOM     11  O   UNL     1      -3.961  -1.079  31.543  1.00  0.00    -0.508 OA
ATOM     12  H   UNL     1      -3.630  -1.856  32.102  1.00  0.00     0.293 HD
ENDBRANCH   4  11
TORSDOF 3
ENDMDL
MODEL 3
REMARK VINA RESULT:    -4.503      1.572      2.192
REMARK INTER + INTRA:          -5.015
REMARK INTER:                  -4.921
REMARK INTRA:                  -0.094
REMARK UNBOUND:                 0.014
REMARK SMILES CCc1ccc(O)cc1O
REMARK SMILES IDX 3 1 9 2 8 3 6 4 5 5 4 6 2 7 1 8 10 9 7 11
REMARK H PARENT 10 10 7 12
REMARK Flexibility Score: inf
ROOT
ATOM      1  C   UNL     1      -1.730   0.491  27.885  1.00  0.00    -0.006 A 
ATOM      2  C   UNL     1      -1.583  -0.292  26.722  1.00  0.00     0.122 A 
ATOM      3  C   UNL     1      -2.511  -0.171  25.677  1.00  0.00     0.092 A 
ATOM      4  C   UNL     1      -3.590   0.717  25.787  1.00  0.00     0.119 A 
ATOM      5  C   UNL     1      -3.743   1.482  26.946  1.00  0.00     0.047 A 
ATOM      6  C   UNL     1      -2.823   1.368  27.992  1.00  0.00     0.011 A 
ENDROOT
BRANCH   1   7
ATOM      7  C   UNL     1      -0.765   0.358  29.037  1.00  0.00     0.036 C 
ATOM      8  C   UNL     1      -0.062   1.683  29.310  1.00  0.00     0.009 C 
ENDBRANCH   1   7
BRANCH   2   9
ATOM      9  O   UNL     1      -0.520  -1.187  26.609  1.00  0.00    -0.508 OA
ATOM     10  H   UNL     1      -0.058  -1.354  25.723  1.00  0.00     0.293 HD
ENDBRANCH   2   9
BRANCH   4  11
ATOM     11  O   UNL     1      -4.515   0.843  24.753  1.00  0.00    -0.508 OA
ATOM     12  H   UNL     1      -4.525   1.656  24.149  1.00  0.00     0.293 HD
ENDBRANCH   4  11
TORSDOF 3
ENDMDL
MODEL 4
REMARK VINA RESULT:    -4.335      1.697      2.380
REMARK INTER + INTRA:          -4.828
REMARK INTER:                  -4.722
REMARK INTRA:                  -0.106
REMARK UNBOUND:                 0.014
REMARK SMILES CCc1ccc(O)cc1O
REMARK SMILES IDX 3 1 9 2 8 3 6 4 5 5 4 6 2 7 1 8 10 9 7 11
REMARK H PARENT 10 10 7 12
REMARK Flexibility Score: inf
ROOT
ATOM      1  C   UNL     1      -2.265   1.307  28.562  1.00  0.00    -0.006 A 
ATOM      2  C   UNL     1      -1.311   0.392  28.073  1.00  0.00     0.122 A 
ATOM      3  C   UNL     1      -1.489  -0.196  26.812  1.00  0.00     0.092 A 
ATOM      4  C   UNL     1      -2.617   0.114  26.040  1.00  0.00     0.119 A 
ATOM      5  C   UNL     1      -3.569   1.011  26.531  1.00  0.00     0.047 A 
ATOM      6  C   UNL     1      -3.399   1.601  27.786  1.00  0.00     0.011 A 
ENDROOT
BRANCH   1   7
ATOM      7  C   UNL     1      -2.114   1.930  29.928  1.00  0.00     0.036 C 
ATOM      8  C   UNL     1      -3.050   1.267  30.931  1.00  0.00     0.009 C 
ENDBRANCH   1   7
BRANCH   2   9
ATOM      9  O   UNL     1      -0.192   0.068  28.840  1.00  0.00    -0.508 OA
ATOM     10  H   UNL     1       0.068   0.610  29.655  1.00  0.00     0.293 HD
ENDBRANCH   2   9
BRANCH   4  11
ATOM     11  O   UNL     1      -2.800  -0.466  24.786  1.00  0.00    -0.508 OA
ATOM     12  H   UNL     1      -3.398  -1.274  24.659  1.00  0.00     0.293 HD
ENDBRANCH   4  11
TORSDOF 3
ENDMDL
MODEL 5
REMARK VINA RESULT:    -4.323     14.609     16.341
REMARK INTER + INTRA:          -4.815
REMARK INTER:                  -4.712
REMARK INTRA:                  -0.103
REMARK UNBOUND:                 0.014
REMARK SMILES CCc1ccc(O)cc1O
REMARK SMILES IDX 3 1 9 2 8 3 6 4 5 5 4 6 2 7 1 8 10 9 7 11
REMARK H PARENT 10 10 7 12
REMARK Flexibility Score: inf
ROOT
ATOM      1  C   UNL     1     -11.286  10.865  18.243  1.00  0.00    -0.006 A 
ATOM      2  C   UNL     1     -10.359  10.042  18.912  1.00  0.00     0.122 A 
ATOM      3  C   UNL     1      -9.225  10.611  19.511  1.00  0.00     0.092 A 
ATOM      4  C   UNL     1      -9.003  11.992  19.437  1.00  0.00     0.119 A 
ATOM      5  C   UNL     1      -9.915  12.806  18.761  1.00  0.00     0.047 A 
ATOM      6  C   UNL     1     -11.048  12.248  18.162  1.00  0.00     0.011 A 
ENDROOT
BRANCH   1   7
ATOM      7  C   UNL     1     -12.498  10.277  17.564  1.00  0.00     0.036 C 
ATOM      8  C   UNL     1     -13.703  10.291  18.498  1.00  0.00     0.009 C 
ENDBRANCH   1   7
BRANCH   2   9
ATOM      9  O   UNL     1     -10.565   8.665  18.980  1.00  0.00    -0.508 OA
ATOM     10  H   UNL     1      -9.793   8.017  19.089  1.00  0.00     0.293 HD
ENDBRANCH   2   9
BRANCH   4  11
ATOM     11  O   UNL     1      -7.879  12.564  20.029  1.00  0.00    -0.508 OA
ATOM     12  H   UNL     1      -7.915  12.956  20.962  1.00  0.00     0.293 HD
ENDBRANCH   4  11
TORSDOF 3
ENDMDL
MODEL 6
REMARK VINA RESULT:    -4.251      2.006      4.062
REMARK INTER + INTRA:          -4.735
REMARK INTER:                  -4.633
REMARK INTRA:                  -0.102
REMARK UNBOUND:                 0.014
REMARK SMILES CCc1ccc(O)cc1O
REMARK SMILES IDX 3 1 9 2 8 3 6 4 5 5 4 6 2 7 1 8 10 9 7 11
REMARK H PARENT 10 10 7 12
REMARK Flexibility Score: inf
ROOT
ATOM      1  C   UNL     1      -1.690  -0.070  28.133  1.00  0.00    -0.006 A 
ATOM      2  C   UNL     1      -2.657  -0.272  29.137  1.00  0.00     0.122 A 
ATOM      3  C   UNL     1      -2.578   0.449  30.339  1.00  0.00     0.092 A 
ATOM      4  C   UNL     1      -1.536   1.361  30.549  1.00  0.00     0.119 A 
ATOM      5  C   UNL     1      -0.569   1.551  29.559  1.00  0.00     0.047 A 
ATOM      6  C   UNL     1      -0.641   0.837  28.359  1.00  0.00     0.011 A 
ENDROOT
BRANCH   1   7
ATOM      7  C   UNL     1      -1.733  -0.854  26.845  1.00  0.00     0.036 C 
ATOM      8  C   UNL     1      -2.501  -0.090  25.771  1.00  0.00     0.009 C 
ENDBRANCH   1   7
BRANCH   2   9
ATOM      9  O   UNL     1      -3.691  -1.188  28.942  1.00  0.00    -0.508 OA
ATOM     10  H   UNL     1      -4.221  -1.214  28.079  1.00  0.00     0.293 HD
ENDBRANCH   2   9
BRANCH   4  11
ATOM     11  O   UNL     1      -1.452   2.080  31.739  1.00  0.00    -0.508 OA
ATOM     12  H   UNL     1      -1.810   3.025  31.813  1.00  0.00     0.293 HD
ENDBRANCH   4  11
TORSDOF 3
ENDMDL
MODEL 7
REMARK VINA RESULT:    -4.227      1.707      4.201
REMARK INTER + INTRA:          -4.707
REMARK INTER:                  -4.617
REMARK INTRA:                  -0.090
REMARK UNBOUND:                 0.014
REMARK SMILES CCc1ccc(O)cc1O
REMARK SMILES IDX 3 1 9 2 8 3 6 4 5 5 4 6 2 7 1 8 10 9 7 11
REMARK H PARENT 10 10 7 12
REMARK Flexibility Score: inf
ROOT
ATOM      1  C   UNL     1      -3.369   1.348  26.370  1.00  0.00    -0.006 A 
ATOM      2  C   UNL     1      -2.581   0.243  25.990  1.00  0.00     0.122 A 
ATOM      3  C   UNL     1      -1.532  -0.185  26.818  1.00  0.00     0.092 A 
ATOM      4  C   UNL     1      -1.256   0.489  28.015  1.00  0.00     0.119 A 
ATOM      5  C   UNL     1      -2.028   1.594  28.384  1.00  0.00     0.047 A 
ATOM      6  C   UNL     1      -3.075   2.026  27.566  1.00  0.00     0.011 A 
ENDROOT
BRANCH   1   7
ATOM      7  C   UNL     1      -4.483   1.848  25.484  1.00  0.00     0.036 C 
ATOM      8  C   UNL     1      -4.457   3.370  25.389  1.00  0.00     0.009 C 
ENDBRANCH   1   7
BRANCH   2   9
ATOM      9  O   UNL     1      -2.841  -0.426  24.795  1.00  0.00    -0.508 OA
ATOM     10  H   UNL     1      -3.588  -0.136  24.175  1.00  0.00     0.293 HD
ENDBRANCH   2   9
BRANCH   4  11
ATOM     11  O   UNL     1      -0.216   0.070  28.842  1.00  0.00    -0.508 OA
ATOM     12  H   UNL     1      -0.395  -0.332  29.755  1.00  0.00     0.293 HD
ENDBRANCH   4  11
TORSDOF 3
ENDMDL
MODEL 8
REMARK VINA RESULT:    -4.183     11.426     13.010
REMARK INTER + INTRA:          -4.658
REMARK INTER:                  -4.563
REMARK INTRA:                  -0.096
REMARK UNBOUND:                 0.014
REMARK SMILES CCc1ccc(O)cc1O
REMARK SMILES IDX 3 1 9 2 8 3 6 4 5 5 4 6 2 7 1 8 10 9 7 11
REMARK H PARENT 10 10 7 12
REMARK Flexibility Score: inf
ROOT
ATOM      1  C   UNL     1     -13.346   1.676  31.312  1.00  0.00    -0.006 A 
ATOM      2  C   UNL     1     -13.406   0.722  32.348  1.00  0.00     0.122 A 
ATOM      3  C   UNL     1     -13.803   1.114  33.635  1.00  0.00     0.092 A 
ATOM      4  C   UNL     1     -14.128   2.451  33.899  1.00  0.00     0.119 A 
ATOM      5  C   UNL     1     -14.054   3.399  32.875  1.00  0.00     0.047 A 
ATOM      6  C   UNL     1     -13.660   3.017  31.590  1.00  0.00     0.011 A 
ENDROOT
BRANCH   1   7
ATOM      7  C   UNL     1     -12.892   1.289  29.926  1.00  0.00     0.036 C 
ATOM      8  C   UNL     1     -14.078   0.857  29.070  1.00  0.00     0.009 C 
ENDBRANCH   1   7
BRANCH   2   9
ATOM      9  O   UNL     1     -13.072  -0.608  32.097  1.00  0.00    -0.508 OA
ATOM     10  H   UNL     1     -12.109  -0.899  31.971  1.00  0.00     0.293 HD
ENDBRANCH   2   9
BRANCH   4  11
ATOM     11  O   UNL     1     -14.523   2.847  35.175  1.00  0.00    -0.508 OA
ATOM     12  H   UNL     1     -15.175   2.297  35.722  1.00  0.00     0.293 HD
ENDBRANCH   4  11
TORSDOF 3
ENDMDL
MODEL 9
REMARK VINA RESULT:    -4.153     12.144     13.460
REMARK INTER + INTRA:          -4.625
REMARK INTER:                  -4.517
REMARK INTRA:                  -0.108
REMARK UNBOUND:                 0.014
REMARK SMILES CCc1ccc(O)cc1O
REMARK SMILES IDX 3 1 9 2 8 3 6 4 5 5 4 6 2 7 1 8 10 9 7 11
REMARK H PARENT 10 10 7 12
REMARK Flexibility Score: inf
ROOT
ATOM      1  C   UNL     1     -14.224   3.459  33.110  1.00  0.00    -0.006 A 
ATOM      2  C   UNL     1     -14.095   2.445  34.080  1.00  0.00     0.122 A 
ATOM      3  C   UNL     1     -13.462   1.237  33.748  1.00  0.00     0.092 A 
ATOM      4  C   UNL     1     -12.969   1.030  32.453  1.00  0.00     0.119 A 
ATOM      5  C   UNL     1     -13.110   2.030  31.488  1.00  0.00     0.047 A 
ATOM      6  C   UNL     1     -13.738   3.235  31.810  1.00  0.00     0.011 A 
ENDROOT
BRANCH   1   7
ATOM      7  C   UNL     1     -14.927   4.754  33.431  1.00  0.00     0.036 C 
ATOM      8  C   UNL     1     -16.389   4.697  33.002  1.00  0.00     0.009 C 
ENDBRANCH   1   7
BRANCH   2   9
ATOM      9  O   UNL     1     -14.594   2.638  35.368  1.00  0.00    -0.508 OA
ATOM     10  H   UNL     1     -15.452   2.195  35.676  1.00  0.00     0.293 HD
ENDBRANCH   2   9
BRANCH   4  11
ATOM     11  O   UNL     1     -12.339  -0.167  32.117  1.00  0.00    -0.508 OA
ATOM     12  H   UNL     1     -11.612  -0.202  31.412  1.00  0.00     0.293 HD
ENDBRANCH   4  11
TORSDOF 3
ENDMDL
