MODEL 1
REMARK VINA RESULT:    -3.348      0.000      0.000
REMARK INTER + INTRA:          -3.876
REMARK INTER:                  -3.837
REMARK INTRA:                  -0.039
REMARK UNBOUND:                -0.039
REMARK SMILES CC(C)[C@@H]([NH3+])C(=O)[O-]
REMARK SMILES IDX 4 1 5 2 6 6 7 7 8 8 2 9 1 10 3 11
REMARK H PARENT 5 3 5 4 5 5
REMARK Flexibility Score: inf
ROOT
ATOM      1  C   UNL     1      27.537  26.189  21.773  1.00  0.00     0.230 C 
ENDROOT
BRANCH   1   2
ATOM      2  N   UNL     1      26.813  24.929  22.005  1.00  0.00    -0.350 N 
ATOM      3  H   UNL     1      26.316  24.964  22.925  1.00  0.00     0.345 HD
ATOM      4  H   UNL     1      26.087  24.789  21.267  1.00  0.00     0.345 HD
ATOM      5  H   UNL     1      27.474  24.118  22.007  1.00  0.00     0.345 HD
ENDBRANCH   1   2
BRANCH   1   6
ATOM      6  C   UNL     1      27.788  26.870  23.096  1.00  0.00     0.099 C 
ATOM      7  O   UNL     1      26.866  26.957  23.950  1.00  0.00    -0.544 OA
ATOM      8  O   UNL     1      29.038  27.408  23.380  1.00  0.00    -0.544 OA
ENDBRANCH   1   6
BRANCH   1   9
ATOM      9  C   UNL     1      28.877  25.957  21.009  1.00  0.00     0.047 C 
ATOM     10  C   UNL     1      28.665  26.009  19.486  1.00  0.00     0.014 C 
ATOM     11  C   UNL     1      29.523  24.612  21.381  1.00  0.00     0.014 C 
ENDBRANCH   1   9
TORSDOF 3
ENDMDL
MODEL 2
REMARK VINA RESULT:    -3.309      2.274      3.294
REMARK INTER + INTRA:          -3.832
REMARK INTER:                  -3.784
REMARK INTRA:                  -0.047
REMARK UNBOUND:                -0.039
REMARK SMILES CC(C)[C@@H]([NH3+])C(=O)[O-]
REMARK SMILES IDX 4 1 5 2 6 6 7 7 8 8 2 9 1 10 3 11
REMARK H PARENT 5 3 5 4 5 5
REMARK Flexibility Score: inf
ROOT
ATOM      1  C   UNL     1      27.985  25.922  22.123  1.00  0.00     0.230 C 
ENDROOT
BRANCH   1   2
ATOM      2  N   UNL     1      26.619  26.304  21.732  1.00  0.00    -0.350 N 
ATOM      3  H   UNL     1      26.482  26.153  20.706  1.00  0.00     0.345 HD
ATOM      4  H   UNL     1      25.920  25.707  22.229  1.00  0.00     0.345 HD
ATOM      5  H   UNL     1      26.440  27.311  21.953  1.00  0.00     0.345 HD
ENDBRANCH   1   2
BRANCH   1   6
ATOM      6  C   UNL     1      28.768  25.546  20.889  1.00  0.00     0.099 C 
ATOM      7  O   UNL     1      28.788  26.315  19.892  1.00  0.00    -0.544 OA
ATOM      8  O   UNL     1      29.471  24.347  20.845  1.00  0.00    -0.544 OA
ENDBRANCH   1   6
BRANCH   1   9
ATOM      9  C   UNL     1      28.705  27.061  22.908  1.00  0.00     0.047 C 
ATOM     10  C   UNL     1      30.142  26.657  23.282  1.00  0.00     0.014 C 
ATOM     11  C   UNL     1      27.942  27.445  24.188  1.00  0.00     0.014 C 
ENDBRANCH   1   9
TORSDOF 3
ENDMDL
MODEL 3
REMARK VINA RESULT:    -3.303      1.530      2.070
REMARK INTER + INTRA:          -3.824
REMARK INTER:                  -3.769
REMARK INTRA:                  -0.056
REMARK UNBOUND:                -0.039
REMARK SMILES CC(C)[C@@H]([NH3+])C(=O)[O-]
REMARK SMILES IDX 4 1 5 2 6 6 7 7 8 8 2 9 1 10 3 11
REMARK H PARENT 5 3 5 4 5 5
REMARK Flexibility Score: inf
ROOT
ATOM      1  C   UNL     1      28.106  26.258  21.901  1.00  0.00     0.230 C 
ENDROOT
BRANCH   1   2
ATOM      2  N   UNL     1      27.982  24.886  21.384  1.00  0.00    -0.350 N 
ATOM      3  H   UNL     1      27.421  24.883  20.502  1.00  0.00     0.345 HD
ATOM      4  H   UNL     1      28.925  24.501  21.152  1.00  0.00     0.345 HD
ATOM      5  H   UNL     1      27.514  24.267  22.086  1.00  0.00     0.345 HD
ENDBRANCH   1   2
BRANCH   1   6
ATOM      6  C   UNL     1      26.968  26.535  22.852  1.00  0.00     0.099 C 
ATOM      7  O   UNL     1      27.160  27.224  23.888  1.00  0.00    -0.544 OA
ATOM      8  O   UNL     1      25.699  26.028  22.592  1.00  0.00    -0.544 OA
ENDBRANCH   1   6
BRANCH   1   9
ATOM      9  C   UNL     1      29.479  26.494  22.601  1.00  0.00     0.047 C 
ATOM     10  C   UNL     1      30.172  27.755  22.057  1.00  0.00     0.014 C 
ATOM     11  C   UNL     1      30.422  25.290  22.432  1.00  0.00     0.014 C 
ENDBRANCH   1   9
TORSDOF 3
ENDMDL
MODEL 4
REMARK VINA RESULT:    -3.222      7.287      8.008
REMARK INTER + INTRA:          -3.731
REMARK INTER:                  -3.677
REMARK INTRA:                  -0.054
REMARK UNBOUND:                -0.039
REMARK SMILES CC(C)[C@@H]([NH3+])C(=O)[O-]
REMARK SMILES IDX 4 1 5 2 6 6 7 7 8 8 2 9 1 10 3 11
REMARK H PARENT 5 3 5 4 5 5
REMARK Flexibility Score: inf
ROOT
ATOM      1  C   UNL     1      21.796  23.241  22.784  1.00  0.00     0.230 C 
ENDROOT
BRANCH   1   2
ATOM      2  N   UNL     1      23.118  23.808  22.475  1.00  0.00    -0.350 N 
ATOM      3  H   UNL     1      23.473  24.360  23.289  1.00  0.00     0.345 HD
ATOM      4  H   UNL     1      23.807  23.043  22.298  1.00  0.00     0.345 HD
ATOM      5  H   UNL     1      23.066  24.434  21.638  1.00  0.00     0.345 HD
ENDBRANCH   1   2
BRANCH   1   6
ATOM      6  C   UNL     1      21.775  21.785  22.391  1.00  0.00     0.099 C 
ATOM      7  O   UNL     1      21.102  20.957  23.060  1.00  0.00    -0.544 OA
ATOM      8  O   UNL     1      22.501  21.347  21.289  1.00  0.00    -0.544 OA
ENDBRANCH   1   6
BRANCH   1   9
ATOM      9  C   UNL     1      21.428  23.412  24.289  1.00  0.00     0.047 C 
ATOM     10  C   UNL     1      20.040  24.054  24.454  1.00  0.00     0.014 C 
ATOM     11  C   UNL     1      22.467  24.262  25.040  1.00  0.00     0.014 C 
ENDBRANCH   1   9
TORSDOF 3
ENDMDL
MODEL 5
REMARK VINA RESULT:    -3.160      2.067      3.092
REMARK INTER + INTRA:          -3.661
REMARK INTER:                  -3.761
REMARK INTRA:                   0.100
REMARK UNBOUND:                -0.039
REMARK SMILES CC(C)[C@@H]([NH3+])C(=O)[O-]
REMARK SMILES IDX 4 1 5 2 6 6 7 7 8 8 2 9 1 10 3 11
REMARK H PARENT 5 3 5 4 5 5
REMARK Flexibility Score: inf
ROOT
ATOM      1  C   UNL     1      27.945  25.885  21.730  1.00  0.00     0.230 C 
ENDROOT
BRANCH   1   2
ATOM      2  N   UNL     1      27.623  26.082  20.308  1.00  0.00    -0.350 N 
ATOM      3  H   UNL     1      28.391  26.611  19.834  1.00  0.00     0.345 HD
ATOM      4  H   UNL     1      27.541  25.159  19.825  1.00  0.00     0.345 HD
ATOM      5  H   UNL     1      26.728  26.614  20.202  1.00  0.00     0.345 HD
ENDBRANCH   1   2
BRANCH   1   6
ATOM      6  C   UNL     1      29.377  26.292  21.976  1.00  0.00     0.099 C 
ATOM      7  O   UNL     1      30.185  25.481  22.500  1.00  0.00    -0.544 OA
ATOM      8  O   UNL     1      29.812  27.566  21.629  1.00  0.00    -0.544 OA
ENDBRANCH   1   6
BRANCH   1   9
ATOM      9  C   UNL     1      26.978  26.680  22.660  1.00  0.00     0.047 C 
ATOM     10  C   UNL     1      27.641  27.000  24.010  1.00  0.00     0.014 C 
ATOM     11  C   UNL     1      25.668  25.915  22.912  1.00  0.00     0.014 C 
ENDBRANCH   1   9
TORSDOF 3
ENDMDL
MODEL 6
REMARK VINA RESULT:    -3.156      2.799      3.798
REMARK INTER + INTRA:          -3.656
REMARK INTER:                  -3.608
REMARK INTRA:                  -0.047
REMARK UNBOUND:                -0.039
REMARK SMILES CC(C)[C@@H]([NH3+])C(=O)[O-]
REMARK SMILES IDX 4 1 5 2 6 6 7 7 8 8 2 9 1 10 3 11
REMARK H PARENT 5 3 5 4 5 5
REMARK Flexibility Score: inf
ROOT
ATOM      1  C   UNL     1      25.882  26.217  22.663  1.00  0.00     0.230 C 
ENDROOT
BRANCH   1   2
ATOM      2  N   UNL     1      25.525  27.551  23.170  1.00  0.00    -0.350 N 
ATOM      3  H   UNL     1      24.730  27.478  23.846  1.00  0.00     0.345 HD
ATOM      4  H   UNL     1      26.331  27.970  23.686  1.00  0.00     0.345 HD
ATOM      5  H   UNL     1      25.244  28.182  22.384  1.00  0.00     0.345 HD
ENDBRANCH   1   2
BRANCH   1   6
ATOM      6  C   UNL     1      27.374  26.152  22.444  1.00  0.00     0.099 C 
ATOM      7  O   UNL     1      28.136  26.973  23.018  1.00  0.00    -0.544 OA
ATOM      8  O   UNL     1      27.915  25.186  21.603  1.00  0.00    -0.544 OA
ENDBRANCH   1   6
BRANCH   1   9
ATOM      9  C   UNL     1      25.416  25.084  23.629  1.00  0.00     0.047 C 
ATOM     10  C   UNL     1      24.487  24.090  22.913  1.00  0.00     0.014 C 
ATOM     11  C   UNL     1      24.694  25.647  24.865  1.00  0.00     0.014 C 
ENDBRANCH   1   9
TORSDOF 3
ENDMDL
MODEL 7
REMARK VINA RESULT:    -3.096      2.475      2.976
REMARK INTER + INTRA:          -3.587
REMARK INTER:                  -3.527
REMARK INTRA:                  -0.060
REMARK UNBOUND:                -0.039
REMARK SMILES CC(C)[C@@H]([NH3+])C(=O)[O-]
REMARK SMILES IDX 4 1 5 2 6 6 7 7 8 8 2 9 1 10 3 11
REMARK H PARENT 5 3 5 4 5 5
REMARK Flexibility Score: inf
ROOT
ATOM      1  C   UNL     1      29.549  27.054  22.275  1.00  0.00     0.230 C 
ENDROOT
BRANCH   1   2
ATOM      2  N   UNL     1      28.857  27.846  23.305  1.00  0.00    -0.350 N 
ATOM      3  H   UNL     1      28.507  28.742  22.894  1.00  0.00     0.345 HD
ATOM      4  H   UNL     1      28.026  27.324  23.664  1.00  0.00     0.345 HD
ATOM      5  H   UNL     1      29.504  28.066  24.098  1.00  0.00     0.345 HD
ENDBRANCH   1   2
BRANCH   1   6
ATOM      6  C   UNL     1      30.799  26.452  22.868  1.00  0.00     0.099 C 
ATOM      7  O   UNL     1      31.666  27.190  23.405  1.00  0.00    -0.544 OA
ATOM      8  O   UNL     1      31.004  25.077  22.820  1.00  0.00    -0.544 OA
ENDBRANCH   1   6
BRANCH   1   9
ATOM      9  C   UNL     1      28.630  25.943  21.681  1.00  0.00     0.047 C 
ATOM     10  C   UNL     1      28.597  26.011  20.145  1.00  0.00     0.014 C 
ATOM     11  C   UNL     1      27.192  26.041  22.219  1.00  0.00     0.014 C 
ENDBRANCH   1   9
TORSDOF 3
ENDMDL
MODEL 8
REMARK VINA RESULT:    -3.051      3.023      3.589
REMARK INTER + INTRA:          -3.535
REMARK INTER:                  -3.486
REMARK INTRA:                  -0.049
REMARK UNBOUND:                -0.039
REMARK SMILES CC(C)[C@@H]([NH3+])C(=O)[O-]
REMARK SMILES IDX 4 1 5 2 6 6 7 7 8 8 2 9 1 10 3 11
REMARK H PARENT 5 3 5 4 5 5
REMARK Flexibility Score: inf
ROOT
ATOM      1  C   UNL     1      29.511  26.270  22.795  1.00  0.00     0.230 C 
ENDROOT
BRANCH   1   2
ATOM      2  N   UNL     1      29.107  27.684  22.837  1.00  0.00    -0.350 N 
ATOM      3  H   UNL     1      28.153  27.798  22.424  1.00  0.00     0.345 HD
ATOM      4  H   UNL     1      29.057  28.016  23.827  1.00  0.00     0.345 HD
ATOM      5  H   UNL     1      29.783  28.277  22.302  1.00  0.00     0.345 HD
ENDBRANCH   1   2
BRANCH   1   6
ATOM      6  C   UNL     1      28.969  25.635  21.538  1.00  0.00     0.099 C 
ATOM      7  O   UNL     1      28.065  26.210  20.877  1.00  0.00    -0.544 OA
ATOM      8  O   UNL     1      29.462  24.409  21.105  1.00  0.00    -0.544 OA
ENDBRANCH   1   6
BRANCH   1   9
ATOM      9  C   UNL     1      31.060  26.106  22.872  1.00  0.00     0.047 C 
ATOM     10  C   UNL     1      31.468  25.216  24.058  1.00  0.00     0.014 C 
ATOM     11  C   UNL     1      31.775  27.462  22.992  1.00  0.00     0.014 C 
ENDBRANCH   1   9
TORSDOF 3
ENDMDL
MODEL 9
REMARK VINA RESULT:    -2.994      2.511      3.067
REMARK INTER + INTRA:          -3.470
REMARK INTER:                  -3.408
REMARK INTRA:                  -0.062
REMARK UNBOUND:                -0.039
REMARK SMILES CC(C)[C@@H]([NH3+])C(=O)[O-]
REMARK SMILES IDX 4 1 5 2 6 6 7 7 8 8 2 9 1 10 3 11
REMARK H PARENT 5 3 5 4 5 5
REMARK Flexibility Score: inf
ROOT
ATOM      1  C   UNL     1      30.107  26.298  22.890  1.00  0.00     0.230 C 
ENDROOT
BRANCH   1   2
ATOM      2  N   UNL     1      31.073  25.189  22.883  1.00  0.00    -0.350 N 
ATOM      3  H   UNL     1      30.779  24.460  22.192  1.00  0.00     0.345 HD
ATOM      4  H   UNL     1      32.015  25.531  22.588  1.00  0.00     0.345 HD
ATOM      5  H   UNL     1      31.140  24.750  23.831  1.00  0.00     0.345 HD
ENDBRANCH   1   2
BRANCH   1   6
ATOM      6  C   UNL     1      30.849  27.605  22.756  1.00  0.00     0.099 C 
ATOM      7  O   UNL     1      30.502  28.445  21.885  1.00  0.00    -0.544 OA
ATOM      8  O   UNL     1      31.923  27.888  23.592  1.00  0.00    -0.544 OA
ENDBRANCH   1   6
BRANCH   1   9
ATOM      9  C   UNL     1      29.043  26.149  21.759  1.00  0.00     0.047 C 
ATOM     10  C   UNL     1      27.616  26.298  22.315  1.00  0.00     0.014 C 
ATOM     11  C   UNL     1      29.162  24.798  21.035  1.00  0.00     0.014 C 
ENDBRANCH   1   9
TORSDOF 3
ENDMDL
