MODEL 1
REMARK VINA RESULT:    -3.211      0.000      0.000
REMARK INTER + INTRA:          -3.825
REMARK INTER:                  -3.775
REMARK INTRA:                  -0.051
REMARK UNBOUND:                -0.051
REMARK SMILES O=C([O-])CCC(=O)[O-]
REMARK SMILES IDX 4 1 2 2 1 3 3 4 5 5 6 6 7 7 8 8
REMARK H PARENT
REMARK Flexibility Score: inf
ROOT
ATOM      1  C   UNL     1     -10.115 -72.581   5.640  1.00  0.00     0.059 C 
ENDROOT
BRANCH   1   2
ATOM      2  C   UNL     1      -9.072 -73.653   5.663  1.00  0.00     0.042 C 
ATOM      3  O   UNL     1      -9.105 -74.550   6.548  1.00  0.00    -0.550 OA
ATOM      4  O   UNL     1      -8.093 -73.693   4.679  1.00  0.00    -0.550 OA
ENDBRANCH   1   2
BRANCH   1   5
ATOM      5  C   UNL     1     -11.426 -73.121   5.065  1.00  0.00     0.059 C 
BRANCH   5   6
ATOM      6  C   UNL     1     -12.568 -72.800   5.976  1.00  0.00     0.042 C 
ATOM      7  O   UNL     1     -13.410 -73.688   6.274  1.00  0.00    -0.550 OA
ATOM      8  O   UNL     1     -12.733 -71.508   6.456  1.00  0.00    -0.550 OA
ENDBRANCH   5   6
ENDBRANCH   1   5
TORSDOF 3
ENDMDL
MODEL 2
REMARK VINA RESULT:    -3.190      0.356      4.001
REMARK INTER + INTRA:          -3.801
REMARK INTER:                  -3.747
REMARK INTRA:                  -0.054
REMARK UNBOUND:                -0.051
REMARK SMILES O=C([O-])CCC(=O)[O-]
REMARK SMILES IDX 4 1 2 2 1 3 3 4 5 5 6 6 7 7 8 8
REMARK H PARENT
REMARK Flexibility Score: inf
ROOT
ATOM      1  C   UNL     1     -11.427 -73.214   5.220  1.00  0.00     0.059 C 
ENDROOT
BRANCH   1   2
ATOM      2  C   UNL     1     -12.631 -72.797   6.004  1.00  0.00     0.042 C 
ATOM      3  O   UNL     1     -13.509 -73.645   6.317  1.00  0.00    -0.550 OA
ATOM      4  O   UNL     1     -12.760 -71.483   6.434  1.00  0.00    -0.550 OA
ENDBRANCH   1   2
BRANCH   1   5
ATOM      5  C   UNL     1     -10.186 -72.461   5.704  1.00  0.00     0.059 C 
BRANCH   5   6
ATOM      6  C   UNL     1      -9.029 -73.399   5.851  1.00  0.00     0.042 C 
ATOM      7  O   UNL     1      -9.152 -74.456   6.525  1.00  0.00    -0.550 OA
ATOM      8  O   UNL     1      -7.802 -73.082   5.285  1.00  0.00    -0.550 OA
ENDBRANCH   5   6
ENDBRANCH   1   5
TORSDOF 3
ENDMDL
MODEL 3
REMARK VINA RESULT:    -3.132      1.104      4.190
REMARK INTER + INTRA:          -3.732
REMARK INTER:                  -3.698
REMARK INTRA:                  -0.034
REMARK UNBOUND:                -0.051
REMARK SMILES O=C([O-])CCC(=O)[O-]
REMARK SMILES IDX 4 1 2 2 1 3 3 4 5 5 6 6 7 7 8 8
REMARK H PARENT
REMARK Flexibility Score: inf
ROOT
ATOM      1  C   UNL     1     -11.403 -73.212   5.146  1.00  0.00     0.059 C 
ENDROOT
BRANCH   1   2
ATOM      2  C   UNL     1     -12.569 -72.784   5.981  1.00  0.00     0.042 C 
ATOM      3  O   UNL     1     -13.469 -73.611   6.284  1.00  0.00    -0.550 OA
ATOM      4  O   UNL     1     -12.637 -71.485   6.466  1.00  0.00    -0.550 OA
ENDBRANCH   1   2
BRANCH   1   5
ATOM      5  C   UNL     1     -10.127 -72.507   5.609  1.00  0.00     0.059 C 
BRANCH   5   6
ATOM      6  C   UNL     1      -9.102 -72.510   4.518  1.00  0.00     0.042 C 
ATOM      7  O   UNL     1      -8.833 -71.448   3.898  1.00  0.00    -0.550 OA
ATOM      8  O   UNL     1      -8.481 -73.697   4.153  1.00  0.00    -0.550 OA
ENDBRANCH   5   6
ENDBRANCH   1   5
TORSDOF 3
ENDMDL
MODEL 4
REMARK VINA RESULT:    -2.961      1.847      4.203
REMARK INTER + INTRA:          -3.531
REMARK INTER:                  -3.380
REMARK INTRA:                  -0.151
REMARK UNBOUND:                -0.051
REMARK SMILES O=C([O-])CCC(=O)[O-]
REMARK SMILES IDX 4 1 2 2 1 3 3 4 5 5 6 6 7 7 8 8
REMARK H PARENT
REMARK Flexibility Score: inf
ROOT
ATOM      1  C   UNL     1      -9.595 -73.853   6.093  1.00  0.00     0.059 C 
ENDROOT
BRANCH   1   2
ATOM      2  C   UNL     1     -10.645 -72.839   5.765  1.00  0.00     0.042 C 
ATOM      3  O   UNL     1     -11.766 -73.207   5.324  1.00  0.00    -0.550 OA
ATOM      4  O   UNL     1     -10.405 -71.491   5.993  1.00  0.00    -0.550 OA
ENDBRANCH   1   2
BRANCH   1   5
ATOM      5  C   UNL     1      -8.232 -73.402   5.564  1.00  0.00     0.059 C 
BRANCH   5   6
ATOM      6  C   UNL     1      -8.133 -73.654   4.092  1.00  0.00     0.042 C 
ATOM      7  O   UNL     1      -8.137 -72.689   3.282  1.00  0.00    -0.550 OA
ATOM      8  O   UNL     1      -8.087 -74.956   3.611  1.00  0.00    -0.550 OA
ENDBRANCH   5   6
ENDBRANCH   1   5
TORSDOF 3
ENDMDL
MODEL 5
REMARK VINA RESULT:    -2.935      1.765      2.525
REMARK INTER + INTRA:          -3.501
REMARK INTER:                  -3.387
REMARK INTRA:                  -0.114
REMARK UNBOUND:                -0.051
REMARK SMILES O=C([O-])CCC(=O)[O-]
REMARK SMILES IDX 4 1 2 2 1 3 3 4 5 5 6 6 7 7 8 8
REMARK H PARENT
REMARK Flexibility Score: inf
ROOT
ATOM      1  C   UNL     1      -8.341 -73.098   5.402  1.00  0.00     0.059 C 
ENDROOT
BRANCH   1   2
ATOM      2  C   UNL     1      -8.239 -73.461   3.953  1.00  0.00     0.042 C 
ATOM      3  O   UNL     1      -8.271 -72.562   3.071  1.00  0.00    -0.550 OA
ATOM      4  O   UNL     1      -8.057 -74.785   3.579  1.00  0.00    -0.550 OA
ENDBRANCH   1   2
BRANCH   1   5
ATOM      5  C   UNL     1      -9.588 -73.730   6.024  1.00  0.00     0.059 C 
BRANCH   5   6
ATOM      6  C   UNL     1     -10.760 -72.807   5.897  1.00  0.00     0.042 C 
ATOM      7  O   UNL     1     -10.623 -71.575   6.119  1.00  0.00    -0.550 OA
ATOM      8  O   UNL     1     -12.014 -73.315   5.584  1.00  0.00    -0.550 OA
ENDBRANCH   5   6
ENDBRANCH   1   5
TORSDOF 3
ENDMDL
MODEL 6
REMARK VINA RESULT:    -2.814      1.963      4.306
REMARK INTER + INTRA:          -3.358
REMARK INTER:                  -3.235
REMARK INTRA:                  -0.122
REMARK UNBOUND:                -0.051
REMARK SMILES O=C([O-])CCC(=O)[O-]
REMARK SMILES IDX 4 1 2 2 1 3 3 4 5 5 6 6 7 7 8 8
REMARK H PARENT
REMARK Flexibility Score: inf
ROOT
ATOM      1  C   UNL     1      -9.494 -71.763   5.466  1.00  0.00     0.059 C 
ENDROOT
BRANCH   1   2
ATOM      2  C   UNL     1     -10.278 -73.021   5.674  1.00  0.00     0.042 C 
ATOM      3  O   UNL     1      -9.769 -73.989   6.298  1.00  0.00    -0.550 OA
ATOM      4  O   UNL     1     -11.588 -73.105   5.222  1.00  0.00    -0.550 OA
ENDBRANCH   1   2
BRANCH   1   5
ATOM      5  C   UNL     1      -8.684 -71.846   4.171  1.00  0.00     0.059 C 
BRANCH   5   6
ATOM      6  C   UNL     1      -7.239 -72.091   4.473  1.00  0.00     0.042 C 
ATOM      7  O   UNL     1      -6.839 -73.250   4.760  1.00  0.00    -0.550 OA
ATOM      8  O   UNL     1      -6.342 -71.030   4.488  1.00  0.00    -0.550 OA
ENDBRANCH   5   6
ENDBRANCH   1   5
TORSDOF 3
ENDMDL
MODEL 7
REMARK VINA RESULT:    -2.791      9.462     10.857
REMARK INTER + INTRA:          -3.331
REMARK INTER:                  -3.294
REMARK INTRA:                  -0.037
REMARK UNBOUND:                -0.051
REMARK SMILES O=C([O-])CCC(=O)[O-]
REMARK SMILES IDX 4 1 2 2 1 3 3 4 5 5 6 6 7 7 8 8
REMARK H PARENT
REMARK Flexibility Score: inf
ROOT
ATOM      1  C   UNL     1      -7.445 -67.208  -1.159  1.00  0.00     0.059 C 
ENDROOT
BRANCH   1   2
ATOM      2  C   UNL     1      -8.856 -67.117  -0.670  1.00  0.00     0.042 C 
ATOM      3  O   UNL     1      -9.651 -68.079  -0.846  1.00  0.00    -0.550 OA
ATOM      4  O   UNL     1      -9.280 -65.993   0.025  1.00  0.00    -0.550 OA
ENDBRANCH   1   2
BRANCH   1   5
ATOM      5  C   UNL     1      -6.646 -65.981  -0.716  1.00  0.00     0.059 C 
BRANCH   5   6
ATOM      6  C   UNL     1      -5.203 -66.136  -1.081  1.00  0.00     0.042 C 
ATOM      7  O   UNL     1      -4.871 -66.868  -2.051  1.00  0.00    -0.550 OA
ATOM      8  O   UNL     1      -4.223 -65.513  -0.321  1.00  0.00    -0.550 OA
ENDBRANCH   5   6
ENDBRANCH   1   5
TORSDOF 3
ENDMDL
MODEL 8
REMARK VINA RESULT:    -2.775      9.500     10.208
REMARK INTER + INTRA:          -3.312
REMARK INTER:                  -3.277
REMARK INTRA:                  -0.035
REMARK UNBOUND:                -0.051
REMARK SMILES O=C([O-])CCC(=O)[O-]
REMARK SMILES IDX 4 1 2 2 1 3 3 4 5 5 6 6 7 7 8 8
REMARK H PARENT
REMARK Flexibility Score: inf
ROOT
ATOM      1  C   UNL     1      -6.616 -65.890  -0.693  1.00  0.00     0.059 C 
ENDROOT
BRANCH   1   2
ATOM      2  C   UNL     1      -5.179 -66.072  -1.066  1.00  0.00     0.042 C 
ATOM      3  O   UNL     1      -4.279 -65.446  -0.446  1.00  0.00    -0.550 OA
ATOM      4  O   UNL     1      -4.828 -66.972  -2.064  1.00  0.00    -0.550 OA
ENDBRANCH   1   2
BRANCH   1   5
ATOM      5  C   UNL     1      -7.439 -67.107  -1.122  1.00  0.00     0.059 C 
BRANCH   5   6
ATOM      6  C   UNL     1      -8.832 -67.012  -0.585  1.00  0.00     0.042 C 
ATOM      7  O   UNL     1      -9.650 -67.951  -0.775  1.00  0.00    -0.550 OA
ATOM      8  O   UNL     1      -9.244 -65.866   0.082  1.00  0.00    -0.550 OA
ENDBRANCH   5   6
ENDBRANCH   1   5
TORSDOF 3
ENDMDL
MODEL 9
REMARK VINA RESULT:    -2.710      2.021      2.923
REMARK INTER + INTRA:          -3.236
REMARK INTER:                  -3.115
REMARK INTRA:                  -0.122
REMARK UNBOUND:                -0.051
REMARK SMILES O=C([O-])CCC(=O)[O-]
REMARK SMILES IDX 4 1 2 2 1 3 3 4 5 5 6 6 7 7 8 8
REMARK H PARENT
REMARK Flexibility Score: inf
ROOT
ATOM      1  C   UNL     1      -7.575 -73.844   5.233  1.00  0.00     0.059 C 
ENDROOT
BRANCH   1   2
ATOM      2  C   UNL     1      -7.231 -75.069   4.445  1.00  0.00     0.042 C 
ATOM      3  O   UNL     1      -6.236 -75.771   4.766  1.00  0.00    -0.550 OA
ATOM      4  O   UNL     1      -8.040 -75.464   3.387  1.00  0.00    -0.550 OA
ENDBRANCH   1   2
BRANCH   1   5
ATOM      5  C   UNL     1      -8.846 -74.074   6.052  1.00  0.00     0.059 C 
BRANCH   5   6
ATOM      6  C   UNL     1      -9.988 -73.298   5.474  1.00  0.00     0.042 C 
ATOM      7  O   UNL     1     -11.113 -73.309   6.041  1.00  0.00    -0.550 OA
ATOM      8  O   UNL     1      -9.823 -72.602   4.284  1.00  0.00    -0.550 OA
ENDBRANCH   5   6
ENDBRANCH   1   5
TORSDOF 3
ENDMDL
