MODEL 1
REMARK VINA RESULT:    -5.962      0.000      0.000
REMARK INTER + INTRA:          -7.302
REMARK INTER:                  -7.007
REMARK INTRA:                  -0.294
REMARK UNBOUND:                -0.294
REMARK SMILES O=c1cc(-c2ccc(O)c(O)c2)oc2cc(O)cc(O)c12
REMARK SMILES IDX 4 1 3 2 2 3 1 4 21 5 19 6 18 7 16 8 15 9 14 10 13 11 5 12
REMARK SMILES IDX 6 13 7 14 8 15 12 16 10 17 9 18 11 20 20 22 17 24
REMARK H PARENT 9 19 11 21 20 23 17 25
REMARK Flexibility Score: inf
ROOT
ATOM      1  C   UNL     1      45.753  15.900  -3.760  1.00  0.00     0.138 A 
ATOM      2  C   UNL     1      46.108  14.643  -3.251  1.00  0.00     0.100 A 
ATOM      3  C   UNL     1      47.367  14.113  -3.535  1.00  0.00     0.197 A 
ATOM      4  O   UNL     1      47.634  12.957  -3.116  1.00  0.00    -0.289 OA
ATOM      5  C   UNL     1      48.286  14.862  -4.309  1.00  0.00     0.107 A 
ATOM      6  C   UNL     1      49.612  14.439  -4.629  1.00  0.00     0.134 A 
ATOM      7  C   UNL     1      50.390  15.212  -5.500  1.00  0.00     0.093 A 
ATOM      8  C   UNL     1      49.913  16.420  -6.013  1.00  0.00     0.123 A 
ATOM      9  C   UNL     1      48.641  16.867  -5.665  1.00  0.00     0.094 A 
ATOM     10  C   UNL     1      47.827  16.102  -4.825  1.00  0.00     0.146 A 
ATOM     11  O   UNL     1      46.614  16.557  -4.528  1.00  0.00    -0.456 OA
ENDROOT
BRANCH   1  12
ATOM     12  C   UNL     1      44.427  16.510  -3.486  1.00  0.00     0.021 A 
ATOM     13  C   UNL     1      44.026  17.712  -4.100  1.00  0.00     0.016 A 
ATOM     14  C   UNL     1      42.768  18.258  -3.832  1.00  0.00     0.051 A 
ATOM     15  C   UNL     1      41.888  17.610  -2.956  1.00  0.00     0.157 A 
ATOM     16  C   UNL     1      43.532  15.859  -2.619  1.00  0.00     0.062 A 
ATOM     17  C   UNL     1      42.270  16.408  -2.350  1.00  0.00     0.158 A 
BRANCH  15  18
ATOM     18  O   UNL     1      40.632  18.152  -2.686  1.00  0.00    -0.504 OA
ATOM     19  H   UNL     1      39.780  17.672  -2.952  1.00  0.00     0.293 HD
ENDBRANCH  15  18
BRANCH  17  20
ATOM     20  O   UNL     1      41.391  15.763  -1.482  1.00  0.00    -0.504 OA
ATOM     21  H   UNL     1      40.486  16.158  -1.251  1.00  0.00     0.293 HD
ENDBRANCH  17  20
ENDBRANCH   1  12
BRANCH   6  22
ATOM     22  O   UNL     1      50.215  13.293  -4.103  1.00  0.00    -0.507 OA
ATOM     23  H   UNL     1      50.862  13.286  -3.329  1.00  0.00     0.293 HD
ENDBRANCH   6  22
BRANCH   8  24
ATOM     24  O   UNL     1      50.701  17.189  -6.868  1.00  0.00    -0.508 OA
ATOM     25  H   UNL     1      50.306  17.664  -7.670  1.00  0.00     0.293 HD
ENDBRANCH   8  24
TORSDOF 5
ENDMDL
MODEL 2
REMARK VINA RESULT:    -5.915      1.244      2.718
REMARK INTER + INTRA:          -7.247
REMARK INTER:                  -6.930
REMARK INTRA:                  -0.316
REMARK UNBOUND:                -0.294
REMARK SMILES O=c1cc(-c2ccc(O)c(O)c2)oc2cc(O)cc(O)c12
REMARK SMILES IDX 4 1 3 2 2 3 1 4 21 5 19 6 18 7 16 8 15 9 14 10 13 11 5 12
REMARK SMILES IDX 6 13 7 14 8 15 12 16 10 17 9 18 11 20 20 22 17 24
REMARK H PARENT 9 19 11 21 20 23 17 25
REMARK Flexibility Score: inf
ROOT
ATOM      1  C   UNL     1      45.504  16.323  -3.826  1.00  0.00     0.138 A 
ATOM      2  C   UNL     1      46.257  17.004  -4.792  1.00  0.00     0.100 A 
ATOM      3  C   UNL     1      47.490  16.489  -5.196  1.00  0.00     0.197 A 
ATOM      4  O   UNL     1      48.171  17.154  -6.019  1.00  0.00    -0.289 OA
ATOM      5  C   UNL     1      47.954  15.268  -4.651  1.00  0.00     0.107 A 
ATOM      6  C   UNL     1      49.176  14.628  -5.017  1.00  0.00     0.134 A 
ATOM      7  C   UNL     1      49.588  13.482  -4.325  1.00  0.00     0.093 A 
ATOM      8  C   UNL     1      48.793  12.921  -3.322  1.00  0.00     0.123 A 
ATOM      9  C   UNL     1      47.574  13.508  -2.994  1.00  0.00     0.094 A 
ATOM     10  C   UNL     1      47.152  14.671  -3.643  1.00  0.00     0.146 A 
ATOM     11  O   UNL     1      45.988  15.208  -3.290  1.00  0.00    -0.456 OA
ENDROOT
BRANCH   1  12
ATOM     12  C   UNL     1      44.186  16.827  -3.362  1.00  0.00     0.021 A 
ATOM     13  C   UNL     1      43.730  18.118  -3.693  1.00  0.00     0.016 A 
ATOM     14  C   UNL     1      42.480  18.561  -3.251  1.00  0.00     0.051 A 
ATOM     15  C   UNL     1      41.664  17.724  -2.480  1.00  0.00     0.157 A 
ATOM     16  C   UNL     1      43.354  15.988  -2.599  1.00  0.00     0.062 A 
ATOM     17  C   UNL     1      42.101  16.435  -2.156  1.00  0.00     0.158 A 
BRANCH  15  18
ATOM     18  O   UNL     1      40.418  18.164  -2.037  1.00  0.00    -0.504 OA
ATOM     19  H   UNL     1      40.313  18.660  -1.159  1.00  0.00     0.293 HD
ENDBRANCH  15  18
BRANCH  17  20
ATOM     20  O   UNL     1      41.286  15.602  -1.392  1.00  0.00    -0.504 OA
ATOM     21  H   UNL     1      41.360  15.566  -0.381  1.00  0.00     0.293 HD
ENDBRANCH  17  20
ENDBRANCH   1  12
BRANCH   6  22
ATOM     22  O   UNL     1      50.001  15.057  -6.060  1.00  0.00    -0.507 OA
ATOM     23  H   UNL     1      51.005  14.966  -6.075  1.00  0.00     0.293 HD
ENDBRANCH   6  22
BRANCH   8  24
ATOM     24  O   UNL     1      49.205  11.772  -2.649  1.00  0.00    -0.508 OA
ATOM     25  H   UNL     1      48.685  10.905  -2.712  1.00  0.00     0.293 HD
ENDBRANCH   8  24
TORSDOF 5
ENDMDL
MODEL 3
REMARK VINA RESULT:    -5.852      1.375      7.238
REMARK INTER + INTRA:          -7.173
REMARK INTER:                  -6.859
REMARK INTRA:                  -0.314
REMARK UNBOUND:                -0.294
REMARK SMILES O=c1cc(-c2ccc(O)c(O)c2)oc2cc(O)cc(O)c12
REMARK SMILES IDX 4 1 3 2 2 3 1 4 21 5 19 6 18 7 16 8 15 9 14 10 13 11 5 12
REMARK SMILES IDX 6 13 7 14 8 15 12 16 10 17 9 18 11 20 20 22 17 24
REMARK H PARENT 9 19 11 21 20 23 17 25
REMARK Flexibility Score: inf
ROOT
ATOM      1  C   UNL     1      46.430  16.385  -4.617  1.00  0.00     0.138 A 
ATOM      2  C   UNL     1      46.049  17.407  -5.498  1.00  0.00     0.100 A 
ATOM      3  C   UNL     1      44.779  17.975  -5.389  1.00  0.00     0.197 A 
ATOM      4  O   UNL     1      44.442  18.847  -6.231  1.00  0.00    -0.289 OA
ATOM      5  C   UNL     1      43.898  17.536  -4.370  1.00  0.00     0.107 A 
ATOM      6  C   UNL     1      42.594  18.070  -4.138  1.00  0.00     0.134 A 
ATOM      7  C   UNL     1      41.768  17.478  -3.176  1.00  0.00     0.093 A 
ATOM      8  C   UNL     1      42.220  16.410  -2.396  1.00  0.00     0.123 A 
ATOM      9  C   UNL     1      43.509  15.916  -2.579  1.00  0.00     0.094 A 
ATOM     10  C   UNL     1      44.346  16.464  -3.555  1.00  0.00     0.146 A 
ATOM     11  O   UNL     1      45.564  15.955  -3.706  1.00  0.00    -0.456 OA
ENDROOT
BRANCH   1  12
ATOM     12  C   UNL     1      47.769  15.748  -4.690  1.00  0.00     0.021 A 
ATOM     13  C   UNL     1      48.848  16.367  -5.350  1.00  0.00     0.016 A 
ATOM     14  C   UNL     1      50.100  15.749  -5.392  1.00  0.00     0.051 A 
ATOM     15  C   UNL     1      50.299  14.509  -4.773  1.00  0.00     0.157 A 
ATOM     16  C   UNL     1      47.981  14.510  -4.058  1.00  0.00     0.062 A 
ATOM     17  C   UNL     1      49.238  13.889  -4.102  1.00  0.00     0.158 A 
BRANCH  15  18
ATOM     18  O   UNL     1      51.547  13.890  -4.814  1.00  0.00    -0.504 OA
ATOM     19  H   UNL     1      52.286  14.144  -4.169  1.00  0.00     0.293 HD
ENDBRANCH  15  18
BRANCH  17  20
ATOM     20  O   UNL     1      49.439  12.658  -3.483  1.00  0.00    -0.504 OA
ATOM     21  H   UNL     1      50.192  12.513  -2.820  1.00  0.00     0.293 HD
ENDBRANCH  17  20
ENDBRANCH   1  12
BRANCH   6  22
ATOM     22  O   UNL     1      42.078  19.187  -4.802  1.00  0.00    -0.507 OA
ATOM     23  H   UNL     1      41.971  19.265  -5.802  1.00  0.00     0.293 HD
ENDBRANCH   6  22
BRANCH   8  24
ATOM     24  O   UNL     1      41.395  15.836  -1.431  1.00  0.00    -0.508 OA
ATOM     25  H   UNL     1      41.776  15.355  -0.625  1.00  0.00     0.293 HD
ENDBRANCH   8  24
TORSDOF 5
ENDMDL
MODEL 4
REMARK VINA RESULT:    -5.327      0.646      1.502
REMARK INTER + INTRA:          -6.556
REMARK INTER:                  -6.238
REMARK INTRA:                  -0.318
REMARK UNBOUND:                -0.294
REMARK SMILES O=c1cc(-c2ccc(O)c(O)c2)oc2cc(O)cc(O)c12
REMARK SMILES IDX 4 1 3 2 2 3 1 4 21 5 19 6 18 7 16 8 15 9 14 10 13 11 5 12
REMARK SMILES IDX 6 13 7 14 8 15 12 16 10 17 9 18 11 20 20 22 17 24
REMARK H PARENT 9 19 11 21 20 23 17 25
REMARK Flexibility Score: inf
ROOT
ATOM      1  C   UNL     1      45.655  15.901  -3.714  1.00  0.00     0.138 A 
ATOM      2  C   UNL     1      46.021  14.650  -3.197  1.00  0.00     0.100 A 
ATOM      3  C   UNL     1      47.284  14.129  -3.481  1.00  0.00     0.197 A 
ATOM      4  O   UNL     1      47.563  12.979  -3.055  1.00  0.00    -0.289 OA
ATOM      5  C   UNL     1      48.196  14.882  -4.261  1.00  0.00     0.107 A 
ATOM      6  C   UNL     1      49.525  14.469  -4.580  1.00  0.00     0.134 A 
ATOM      7  C   UNL     1      50.295  15.243  -5.457  1.00  0.00     0.093 A 
ATOM      8  C   UNL     1      49.806  16.444  -5.977  1.00  0.00     0.123 A 
ATOM      9  C   UNL     1      48.531  16.881  -5.630  1.00  0.00     0.094 A 
ATOM     10  C   UNL     1      47.725  16.114  -4.784  1.00  0.00     0.146 A 
ATOM     11  O   UNL     1      46.509  16.561  -4.488  1.00  0.00    -0.456 OA
ENDROOT
BRANCH   1  12
ATOM     12  C   UNL     1      44.324  16.501  -3.442  1.00  0.00     0.021 A 
ATOM     13  C   UNL     1      43.376  15.858  -2.623  1.00  0.00     0.016 A 
ATOM     14  C   UNL     1      42.135  16.452  -2.376  1.00  0.00     0.051 A 
ATOM     15  C   UNL     1      41.823  17.697  -2.934  1.00  0.00     0.157 A 
ATOM     16  C   UNL     1      44.008  17.759  -3.986  1.00  0.00     0.062 A 
ATOM     17  C   UNL     1      42.762  18.353  -3.738  1.00  0.00     0.158 A 
BRANCH  15  18
ATOM     18  O   UNL     1      40.587  18.292  -2.690  1.00  0.00    -0.504 OA
ATOM     19  H   UNL     1      40.509  19.275  -2.456  1.00  0.00     0.293 HD
ENDBRANCH  15  18
BRANCH  17  20
ATOM     20  O   UNL     1      42.451  19.595  -4.289  1.00  0.00    -0.504 OA
ATOM     21  H   UNL     1      42.310  20.414  -3.708  1.00  0.00     0.293 HD
ENDBRANCH  17  20
ENDBRANCH   1  12
BRANCH   6  22
ATOM     22  O   UNL     1      50.139  13.332  -4.048  1.00  0.00    -0.507 OA
ATOM     23  H   UNL     1      50.553  13.277  -3.130  1.00  0.00     0.293 HD
ENDBRANCH   6  22
BRANCH   8  24
ATOM     24  O   UNL     1      50.586  17.214  -6.838  1.00  0.00    -0.508 OA
ATOM     25  H   UNL     1      50.438  17.205  -7.840  1.00  0.00     0.293 HD
ENDBRANCH   8  24
TORSDOF 5
ENDMDL
MODEL 5
REMARK VINA RESULT:    -5.306      1.270      6.850
REMARK INTER + INTRA:          -6.531
REMARK INTER:                  -6.251
REMARK INTRA:                  -0.281
REMARK UNBOUND:                -0.294
REMARK SMILES O=c1cc(-c2ccc(O)c(O)c2)oc2cc(O)cc(O)c12
REMARK SMILES IDX 4 1 3 2 2 3 1 4 21 5 19 6 18 7 16 8 15 9 14 10 13 11 5 12
REMARK SMILES IDX 6 13 7 14 8 15 12 16 10 17 9 18 11 20 20 22 17 24
REMARK H PARENT 9 19 11 21 20 23 17 25
REMARK Flexibility Score: inf
ROOT
ATOM      1  C   UNL     1      46.474  15.684  -4.340  1.00  0.00     0.138 A 
ATOM      2  C   UNL     1      45.953  14.401  -4.125  1.00  0.00     0.100 A 
ATOM      3  C   UNL     1      44.658  14.255  -3.626  1.00  0.00     0.197 A 
ATOM      4  O   UNL     1      44.240  13.093  -3.385  1.00  0.00    -0.289 OA
ATOM      5  C   UNL     1      43.871  15.404  -3.371  1.00  0.00     0.107 A 
ATOM      6  C   UNL     1      42.523  15.377  -2.899  1.00  0.00     0.134 A 
ATOM      7  C   UNL     1      41.883  16.578  -2.571  1.00  0.00     0.093 A 
ATOM      8  C   UNL     1      42.521  17.808  -2.755  1.00  0.00     0.123 A 
ATOM      9  C   UNL     1      43.816  17.848  -3.265  1.00  0.00     0.094 A 
ATOM     10  C   UNL     1      44.493  16.664  -3.569  1.00  0.00     0.146 A 
ATOM     11  O   UNL     1      45.734  16.745  -4.040  1.00  0.00    -0.456 OA
ENDROOT
BRANCH   1  12
ATOM     12  C   UNL     1      47.846  15.894  -4.869  1.00  0.00     0.021 A 
ATOM     13  C   UNL     1      48.145  16.956  -5.745  1.00  0.00     0.016 A 
ATOM     14  C   UNL     1      49.448  17.135  -6.219  1.00  0.00     0.051 A 
ATOM     15  C   UNL     1      50.471  16.267  -5.822  1.00  0.00     0.157 A 
ATOM     16  C   UNL     1      48.883  15.035  -4.465  1.00  0.00     0.062 A 
ATOM     17  C   UNL     1      50.189  15.215  -4.942  1.00  0.00     0.158 A 
BRANCH  15  18
ATOM     18  O   UNL     1      51.771  16.443  -6.294  1.00  0.00    -0.504 OA
ATOM     19  H   UNL     1      52.573  16.100  -5.778  1.00  0.00     0.293 HD
ENDBRANCH  15  18
BRANCH  17  20
ATOM     20  O   UNL     1      51.210  14.354  -4.546  1.00  0.00    -0.504 OA
ATOM     21  H   UNL     1      51.027  13.386  -4.308  1.00  0.00     0.293 HD
ENDBRANCH  17  20
ENDBRANCH   1  12
BRANCH   6  22
ATOM     22  O   UNL     1      41.768  14.209  -2.761  1.00  0.00    -0.507 OA
ATOM     23  H   UNL     1      42.151  13.290  -2.603  1.00  0.00     0.293 HD
ENDBRANCH   6  22
BRANCH   8  24
ATOM     24  O   UNL     1      41.870  18.999  -2.440  1.00  0.00    -0.508 OA
ATOM     25  H   UNL     1      41.975  19.830  -3.011  1.00  0.00     0.293 HD
ENDBRANCH   8  24
TORSDOF 5
ENDMDL
MODEL 6
REMARK VINA RESULT:    -5.288      2.042      6.866
REMARK INTER + INTRA:          -6.509
REMARK INTER:                  -6.194
REMARK INTRA:                  -0.315
REMARK UNBOUND:                -0.294
REMARK SMILES O=c1cc(-c2ccc(O)c(O)c2)oc2cc(O)cc(O)c12
REMARK SMILES IDX 4 1 3 2 2 3 1 4 21 5 19 6 18 7 16 8 15 9 14 10 13 11 5 12
REMARK SMILES IDX 6 13 7 14 8 15 12 16 10 17 9 18 11 20 20 22 17 24
REMARK H PARENT 9 19 11 21 20 23 17 25
REMARK Flexibility Score: inf
ROOT
ATOM      1  C   UNL     1      46.253  15.244  -3.726  1.00  0.00     0.138 A 
ATOM      2  C   UNL     1      46.546  16.104  -4.794  1.00  0.00     0.100 A 
ATOM      3  C   UNL     1      45.679  17.156  -5.093  1.00  0.00     0.197 A 
ATOM      4  O   UNL     1      45.936  17.873  -6.094  1.00  0.00    -0.289 OA
ATOM      5  C   UNL     1      44.527  17.364  -4.296  1.00  0.00     0.107 A 
ATOM      6  C   UNL     1      43.592  18.427  -4.482  1.00  0.00     0.134 A 
ATOM      7  C   UNL     1      42.427  18.464  -3.706  1.00  0.00     0.093 A 
ATOM      8  C   UNL     1      42.193  17.511  -2.711  1.00  0.00     0.123 A 
ATOM      9  C   UNL     1      43.124  16.501  -2.487  1.00  0.00     0.094 A 
ATOM     10  C   UNL     1      44.280  16.417  -3.267  1.00  0.00     0.146 A 
ATOM     11  O   UNL     1      45.137  15.429  -3.030  1.00  0.00    -0.456 OA
ENDROOT
BRANCH   1  12
ATOM     12  C   UNL     1      47.143  14.111  -3.366  1.00  0.00     0.021 A 
ATOM     13  C   UNL     1      48.172  13.677  -4.224  1.00  0.00     0.016 A 
ATOM     14  C   UNL     1      49.000  12.615  -3.853  1.00  0.00     0.051 A 
ATOM     15  C   UNL     1      48.823  11.975  -2.621  1.00  0.00     0.157 A 
ATOM     16  C   UNL     1      46.980  13.472  -2.124  1.00  0.00     0.062 A 
ATOM     17  C   UNL     1      47.812  12.405  -1.754  1.00  0.00     0.158 A 
BRANCH  15  18
ATOM     18  O   UNL     1      49.647  10.915  -2.249  1.00  0.00    -0.504 OA
ATOM     19  H   UNL     1      49.792  10.673  -1.276  1.00  0.00     0.293 HD
ENDBRANCH  15  18
BRANCH  17  20
ATOM     20  O   UNL     1      47.639  11.769  -0.526  1.00  0.00    -0.504 OA
ATOM     21  H   UNL     1      48.043  10.859  -0.337  1.00  0.00     0.293 HD
ENDBRANCH  17  20
ENDBRANCH   1  12
BRANCH   6  22
ATOM     22  O   UNL     1      43.772  19.475  -5.389  1.00  0.00    -0.507 OA
ATOM     23  H   UNL     1      43.041  19.883  -5.951  1.00  0.00     0.293 HD
ENDBRANCH   6  22
BRANCH   8  24
ATOM     24  O   UNL     1      41.037  17.566  -1.934  1.00  0.00    -0.508 OA
ATOM     25  H   UNL     1      40.537  16.726  -1.667  1.00  0.00     0.293 HD
ENDBRANCH   8  24
TORSDOF 5
ENDMDL
MODEL 7
REMARK VINA RESULT:    -5.280      1.851      7.117
REMARK INTER + INTRA:          -6.500
REMARK INTER:                  -6.210
REMARK INTRA:                  -0.290
REMARK UNBOUND:                -0.294
REMARK SMILES O=c1cc(-c2ccc(O)c(O)c2)oc2cc(O)cc(O)c12
REMARK SMILES IDX 4 1 3 2 2 3 1 4 21 5 19 6 18 7 16 8 15 9 14 10 13 11 5 12
REMARK SMILES IDX 6 13 7 14 8 15 12 16 10 17 9 18 11 20 20 22 17 24
REMARK H PARENT 9 19 11 21 20 23 17 25
REMARK Flexibility Score: inf
ROOT
ATOM      1  C   UNL     1      45.954  15.603  -3.909  1.00  0.00     0.138 A 
ATOM      2  C   UNL     1      46.192  16.466  -4.988  1.00  0.00     0.100 A 
ATOM      3  C   UNL     1      45.298  17.506  -5.250  1.00  0.00     0.197 A 
ATOM      4  O   UNL     1      45.504  18.226  -6.261  1.00  0.00    -0.289 OA
ATOM      5  C   UNL     1      44.177  17.698  -4.407  1.00  0.00     0.107 A 
ATOM      6  C   UNL     1      43.221  18.747  -4.555  1.00  0.00     0.134 A 
ATOM      7  C   UNL     1      42.088  18.769  -3.732  1.00  0.00     0.093 A 
ATOM      8  C   UNL     1      41.908  17.813  -2.728  1.00  0.00     0.123 A 
ATOM      9  C   UNL     1      42.861  16.816  -2.542  1.00  0.00     0.094 A 
ATOM     10  C   UNL     1      43.986  16.748  -3.370  1.00  0.00     0.146 A 
ATOM     11  O   UNL     1      44.865  15.772  -3.168  1.00  0.00    -0.456 OA
ENDROOT
BRANCH   1  12
ATOM     12  C   UNL     1      46.873  14.482  -3.586  1.00  0.00     0.021 A 
ATOM     13  C   UNL     1      46.447  13.369  -2.836  1.00  0.00     0.016 A 
ATOM     14  C   UNL     1      47.332  12.324  -2.556  1.00  0.00     0.051 A 
ATOM     15  C   UNL     1      48.650  12.368  -3.025  1.00  0.00     0.157 A 
ATOM     16  C   UNL     1      48.195  14.512  -4.064  1.00  0.00     0.062 A 
ATOM     17  C   UNL     1      49.082  13.463  -3.782  1.00  0.00     0.158 A 
BRANCH  15  18
ATOM     18  O   UNL     1      49.534  11.327  -2.746  1.00  0.00    -0.504 OA
ATOM     19  H   UNL     1      49.613  10.522  -3.356  1.00  0.00     0.293 HD
ENDBRANCH  15  18
BRANCH  17  20
ATOM     20  O   UNL     1      50.394  13.502  -4.251  1.00  0.00    -0.504 OA
ATOM     21  H   UNL     1      51.078  14.140  -3.861  1.00  0.00     0.293 HD
ENDBRANCH  17  20
ENDBRANCH   1  12
BRANCH   6  22
ATOM     22  O   UNL     1      43.349  19.798  -5.468  1.00  0.00    -0.507 OA
ATOM     23  H   UNL     1      42.608  20.140  -6.060  1.00  0.00     0.293 HD
ENDBRANCH   6  22
BRANCH   8  24
ATOM     24  O   UNL     1      40.784  17.851  -1.905  1.00  0.00    -0.508 OA
ATOM     25  H   UNL     1      40.467  17.031  -1.402  1.00  0.00     0.293 HD
ENDBRANCH   8  24
TORSDOF 5
ENDMDL
MODEL 8
REMARK VINA RESULT:    -5.220      2.122      7.416
REMARK INTER + INTRA:          -6.430
REMARK INTER:                  -6.121
REMARK INTRA:                  -0.309
REMARK UNBOUND:                -0.294
REMARK SMILES O=c1cc(-c2ccc(O)c(O)c2)oc2cc(O)cc(O)c12
REMARK SMILES IDX 4 1 3 2 2 3 1 4 21 5 19 6 18 7 16 8 15 9 14 10 13 11 5 12
REMARK SMILES IDX 6 13 7 14 8 15 12 16 10 17 9 18 11 20 20 22 17 24
REMARK H PARENT 9 19 11 21 20 23 17 25
REMARK Flexibility Score: inf
ROOT
ATOM      1  C   UNL     1      48.956  15.037  -5.012  1.00  0.00     0.138 A 
ATOM      2  C   UNL     1      48.422  14.217  -4.009  1.00  0.00     0.100 A 
ATOM      3  C   UNL     1      47.119  14.433  -3.560  1.00  0.00     0.197 A 
ATOM      4  O   UNL     1      46.688  13.720  -2.616  1.00  0.00    -0.289 OA
ATOM      5  C   UNL     1      46.336  15.459  -4.143  1.00  0.00     0.107 A 
ATOM      6  C   UNL     1      44.982  15.745  -3.793  1.00  0.00     0.134 A 
ATOM      7  C   UNL     1      44.346  16.859  -4.354  1.00  0.00     0.093 A 
ATOM      8  C   UNL     1      44.995  17.661  -5.297  1.00  0.00     0.123 A 
ATOM      9  C   UNL     1      46.297  17.358  -5.683  1.00  0.00     0.094 A 
ATOM     10  C   UNL     1      46.971  16.273  -5.116  1.00  0.00     0.146 A 
ATOM     11  O   UNL     1      48.219  16.027  -5.503  1.00  0.00    -0.456 OA
ENDROOT
BRANCH   1  12
ATOM     12  C   UNL     1      50.336  14.850  -5.526  1.00  0.00     0.021 A 
ATOM     13  C   UNL     1      50.969  13.592  -5.503  1.00  0.00     0.016 A 
ATOM     14  C   UNL     1      52.265  13.443  -6.004  1.00  0.00     0.051 A 
ATOM     15  C   UNL     1      52.947  14.541  -6.541  1.00  0.00     0.157 A 
ATOM     16  C   UNL     1      51.023  15.945  -6.080  1.00  0.00     0.062 A 
ATOM     17  C   UNL     1      52.324  15.794  -6.581  1.00  0.00     0.158 A 
BRANCH  15  18
ATOM     18  O   UNL     1      54.240  14.396  -7.040  1.00  0.00    -0.504 OA
ATOM     19  H   UNL     1      54.411  14.226  -8.025  1.00  0.00     0.293 HD
ENDBRANCH  15  18
BRANCH  17  20
ATOM     20  O   UNL     1      53.003  16.885  -7.120  1.00  0.00    -0.504 OA
ATOM     21  H   UNL     1      53.137  17.741  -6.593  1.00  0.00     0.293 HD
ENDBRANCH  17  20
ENDBRANCH   1  12
BRANCH   6  22
ATOM     22  O   UNL     1      44.216  14.959  -2.928  1.00  0.00    -0.507 OA
ATOM     23  H   UNL     1      44.313  13.961  -2.816  1.00  0.00     0.293 HD
ENDBRANCH   6  22
BRANCH   8  24
ATOM     24  O   UNL     1      44.348  18.759  -5.860  1.00  0.00    -0.508 OA
ATOM     25  H   UNL     1      43.538  18.648  -6.460  1.00  0.00     0.293 HD
ENDBRANCH   8  24
TORSDOF 5
ENDMDL
