MODEL 1
REMARK VINA RESULT:    -3.694      0.000      0.000
REMARK INTER + INTRA:          -3.829
REMARK INTER:                  -4.558
REMARK INTRA:                   0.729
REMARK UNBOUND:                 0.729
REMARK SMILES CC1=CC=CC(C)(C)CC1=O
REMARK SMILES IDX 1 1 2 2 3 3 10 4 11 5 9 6 4 8 5 9 6 10 7 11 8 12
REMARK H PARENT
REMARK Flexibility Score: 80.00
ROOT
ATOM      1  C   UNL     1      16.698 -10.471  65.390  1.00  0.00     0.048 C 
ATOM      2  C   UNL     1      17.620 -10.743  66.555  1.00  0.00    -0.008 C 
ATOM      3  C   UNL     1      18.016  -9.687  67.299  1.00  0.00     0.007 C 
ENDROOT
BRANCH   2   4
ATOM      4  C   UNL     1      18.078 -12.142  66.741  1.00  0.00     0.159 C 
ATOM      5  O   UNL     1      17.847 -12.985  65.831  1.00  0.00    -0.295 OA
BRANCH   4   6
ATOM      6  C   UNL     1      18.796 -12.621  67.966  1.00  0.00     0.091 CG0
ATOM      7  G   UNL     1      20.113 -11.860  68.237  1.00  0.00     0.000 G0
ENDBRANCH   4   6
ENDBRANCH   2   4
BRANCH   3   8
ATOM      8  C   UNL     1      18.924  -9.636  68.468  1.00  0.00    -0.003 C 
ATOM      9  C   UNL     1      19.828 -10.536  68.877  1.00  0.00    -0.020 C 
BRANCH   9  10
ATOM     10  C   UNL     1      20.120 -11.870  68.231  1.00  0.00    -0.010 CG0
ATOM     11  C   UNL     1      20.990 -11.667  66.968  1.00  0.00     0.016 C 
ATOM     12  C   UNL     1      20.927 -12.727  69.233  1.00  0.00     0.016 C 
ATOM     13  G   UNL     1      18.795 -12.604  67.929  1.00  0.00     0.000 G0
ENDBRANCH   9  10
ENDBRANCH   3   8
TORSDOF 0
ENDMDL
MODEL 2
REMARK VINA RESULT:    -3.685      2.330      3.389
REMARK INTER + INTRA:          -3.817
REMARK INTER:                  -4.563
REMARK INTRA:                   0.745
REMARK UNBOUND:                 0.729
REMARK SMILES CC1=CC=CC(C)(C)CC1=O
REMARK SMILES IDX 1 1 2 2 3 3 10 4 11 5 9 6 4 8 5 9 6 10 7 11 8 12
REMARK H PARENT
REMARK Flexibility Score: 80.00
ROOT
ATOM      1  C   UNL     1      20.906  -9.526  63.887  1.00  0.00     0.048 C 
ATOM      2  C   UNL     1      19.825  -9.752  64.916  1.00  0.00    -0.008 C 
ATOM      3  C   UNL     1      20.127  -9.497  66.208  1.00  0.00     0.007 C 
ENDROOT
BRANCH   2   4
ATOM      4  C   UNL     1      18.538 -10.311  64.433  1.00  0.00     0.159 C 
ATOM      5  O   UNL     1      18.470 -10.750  63.252  1.00  0.00    -0.295 OA
BRANCH   4   6
ATOM      6  C   UNL     1      17.297 -10.374  65.270  1.00  0.00     0.091 CG0
ATOM      7  G   UNL     1      17.473 -11.210  66.558  1.00  0.00     0.000 G0
ENDBRANCH   4   6
ENDBRANCH   2   4
BRANCH   3   8
ATOM      8  C   UNL     1      19.297  -9.646  67.426  1.00  0.00    -0.003 C 
ATOM      9  C   UNL     1      18.182 -10.365  67.606  1.00  0.00    -0.020 C 
BRANCH   9  10
ATOM     10  C   UNL     1      17.473 -11.196  66.563  1.00  0.00    -0.010 CG0
ATOM     11  C   UNL     1      18.232 -12.525  66.341  1.00  0.00     0.016 C 
ATOM     12  C   UNL     1      16.061 -11.537  67.092  1.00  0.00     0.016 C 
ATOM     13  G   UNL     1      17.314 -10.377  65.263  1.00  0.00     0.000 G0
ENDBRANCH   9  10
ENDBRANCH   3   8
TORSDOF 0
ENDMDL
MODEL 3
REMARK VINA RESULT:    -3.583      2.032      3.901
REMARK INTER + INTRA:          -3.692
REMARK INTER:                  -4.446
REMARK INTRA:                   0.754
REMARK UNBOUND:                 0.729
REMARK SMILES CC1=CC=CC(C)(C)CC1=O
REMARK SMILES IDX 1 1 2 2 3 3 10 4 11 5 9 6 4 8 5 9 6 10 7 11 8 12
REMARK H PARENT
REMARK Flexibility Score: 80.00
ROOT
ATOM      1  C   UNL     1      21.436 -12.679  69.977  1.00  0.00     0.048 C 
ATOM      2  C   UNL     1      20.459 -12.357  68.870  1.00  0.00    -0.008 C 
ATOM      3  C   UNL     1      20.482 -13.138  67.769  1.00  0.00     0.007 C 
ENDROOT
BRANCH   2   4
ATOM      4  C   UNL     1      19.604 -11.158  69.051  1.00  0.00     0.159 C 
ATOM      5  O   UNL     1      19.859 -10.365  70.000  1.00  0.00    -0.295 OA
BRANCH   4   6
ATOM      6  C   UNL     1      18.435 -10.836  68.172  1.00  0.00     0.091 CG0
ATOM      7  G   UNL     1      18.819 -10.660  66.686  1.00  0.00     0.000 G0
ENDBRANCH   4   6
ENDBRANCH   2   4
BRANCH   3   8
ATOM      8  C   UNL     1      19.677 -13.056  66.527  1.00  0.00    -0.003 C 
ATOM      9  C   UNL     1      18.980 -12.022  66.039  1.00  0.00    -0.020 C 
BRANCH   9  10
ATOM     10  C   UNL     1      18.827 -10.662  66.679  1.00  0.00    -0.010 CG0
ATOM     11  C   UNL     1      20.118  -9.833  66.476  1.00  0.00     0.016 C 
ATOM     12  C   UNL     1      17.670  -9.921  65.972  1.00  0.00     0.016 C 
ATOM     13  G   UNL     1      18.453 -10.826  68.169  1.00  0.00     0.000 G0
ENDBRANCH   9  10
ENDBRANCH   3   8
TORSDOF 0
ENDMDL
MODEL 4
REMARK VINA RESULT:    -3.518      1.854      3.546
REMARK INTER + INTRA:          -3.611
REMARK INTER:                  -4.361
REMARK INTRA:                   0.749
REMARK UNBOUND:                 0.729
REMARK SMILES CC1=CC=CC(C)(C)CC1=O
REMARK SMILES IDX 1 1 2 2 3 3 10 4 11 5 9 6 4 8 5 9 6 10 7 11 8 12
REMARK H PARENT
REMARK Flexibility Score: 80.00
ROOT
ATOM      1  C   UNL     1      19.508 -10.461  69.299  1.00  0.00     0.048 C 
ATOM      2  C   UNL     1      19.234 -10.846  67.864  1.00  0.00    -0.008 C 
ATOM      3  C   UNL     1      19.452  -9.911  66.913  1.00  0.00     0.007 C 
ENDROOT
BRANCH   2   4
ATOM      4  C   UNL     1      18.672 -12.198  67.622  1.00  0.00     0.159 C 
ATOM      5  O   UNL     1      18.257 -12.870  68.607  1.00  0.00    -0.295 OA
BRANCH   4   6
ATOM      6  C   UNL     1      18.580 -12.824  66.265  1.00  0.00     0.091 CG0
ATOM      7  G   UNL     1      17.713 -12.011  65.276  1.00  0.00     0.000 G0
ENDBRANCH   4   6
ENDBRANCH   2   4
BRANCH   3   8
ATOM      8  C   UNL     1      19.253  -9.982  65.447  1.00  0.00    -0.003 C 
ATOM      9  C   UNL     1      18.516 -10.845  64.735  1.00  0.00    -0.020 C 
BRANCH   9  10
ATOM     10  C   UNL     1      17.713 -12.001  65.281  1.00  0.00    -0.010 CG0
ATOM     11  C   UNL     1      16.403 -11.482  65.919  1.00  0.00     0.016 C 
ATOM     12  C   UNL     1      17.334 -12.927  64.103  1.00  0.00     0.016 C 
ATOM     13  G   UNL     1      18.576 -12.814  66.272  1.00  0.00     0.000 G0
ENDBRANCH   9  10
ENDBRANCH   3   8
TORSDOF 0
ENDMDL
MODEL 5
REMARK VINA RESULT:    -3.482      2.918      4.510
REMARK INTER + INTRA:          -3.567
REMARK INTER:                  -4.326
REMARK INTRA:                   0.759
REMARK UNBOUND:                 0.729
REMARK SMILES CC1=CC=CC(C)(C)CC1=O
REMARK SMILES IDX 1 1 2 2 3 3 10 4 11 5 9 6 4 8 5 9 6 10 7 11 8 12
REMARK H PARENT
REMARK Flexibility Score: 80.00
ROOT
ATOM      1  C   UNL     1      21.122  -9.920  66.029  1.00  0.00     0.048 C 
ATOM      2  C   UNL     1      19.638 -10.022  65.767  1.00  0.00    -0.008 C 
ATOM      3  C   UNL     1      18.823 -10.172  66.833  1.00  0.00     0.007 C 
ENDROOT
BRANCH   2   4
ATOM      4  C   UNL     1      19.201 -10.027  64.348  1.00  0.00     0.159 C 
ATOM      5  O   UNL     1      20.073 -10.143  63.443  1.00  0.00    -0.295 OA
BRANCH   4   6
ATOM      6  C   UNL     1      17.772  -9.889  63.923  1.00  0.00     0.091 CG0
ATOM      7  G   UNL     1      16.857 -10.999  64.488  1.00  0.00     0.000 G0
ENDBRANCH   4   6
ENDBRANCH   2   4
BRANCH   3   8
ATOM      8  C   UNL     1      17.350 -10.325  66.890  1.00  0.00    -0.003 C 
ATOM      9  C   UNL     1      16.500 -10.685  65.921  1.00  0.00    -0.020 C 
BRANCH   9  10
ATOM     10  C   UNL     1      16.856 -11.003  64.488  1.00  0.00    -0.010 CG0
ATOM     11  C   UNL     1      17.491 -12.411  64.400  1.00  0.00     0.016 C 
ATOM     12  C   UNL     1      15.554 -11.015  63.656  1.00  0.00     0.016 C 
ATOM     13  G   UNL     1      17.778  -9.899  63.923  1.00  0.00     0.000 G0
ENDBRANCH   9  10
ENDBRANCH   3   8
TORSDOF 0
ENDMDL
MODEL 6
REMARK VINA RESULT:    -3.449      1.830      2.436
REMARK INTER + INTRA:          -3.526
REMARK INTER:                  -4.290
REMARK INTRA:                   0.764
REMARK UNBOUND:                 0.729
REMARK SMILES CC1=CC=CC(C)(C)CC1=O
REMARK SMILES IDX 1 1 2 2 3 3 10 4 11 5 9 6 4 8 5 9 6 10 7 11 8 12
REMARK H PARENT
REMARK Flexibility Score: 80.00
ROOT
ATOM      1  C   UNL     1      17.692 -10.699  63.372  1.00  0.00     0.048 C 
ATOM      2  C   UNL     1      18.413 -10.423  64.670  1.00  0.00    -0.008 C 
ATOM      3  C   UNL     1      19.755 -10.280  64.621  1.00  0.00     0.007 C 
ENDROOT
BRANCH   2   4
ATOM      4  C   UNL     1      17.594 -10.408  65.908  1.00  0.00     0.159 C 
ATOM      5  O   UNL     1      16.395 -10.796  65.849  1.00  0.00    -0.295 OA
BRANCH   4   6
ATOM      6  C   UNL     1      18.111  -9.942  67.234  1.00  0.00     0.091 CG0
ATOM      7  G   UNL     1      19.338 -10.743  67.726  1.00  0.00     0.000 G0
ENDBRANCH   4   6
ENDBRANCH   2   4
BRANCH   3   8
ATOM      8  C   UNL     1      20.725 -10.034  65.714  1.00  0.00    -0.003 C 
ATOM      9  C   UNL     1      20.582 -10.230  67.031  1.00  0.00    -0.020 C 
BRANCH   9  10
ATOM     10  C   UNL     1      19.345 -10.739  67.733  1.00  0.00    -0.010 CG0
ATOM     11  C   UNL     1      19.205 -12.264  67.519  1.00  0.00     0.016 C 
ATOM     12  C   UNL     1      19.508 -10.483  69.248  1.00  0.00     0.016 C 
ATOM     13  G   UNL     1      18.108  -9.953  67.243  1.00  0.00     0.000 G0
ENDBRANCH   9  10
ENDBRANCH   3   8
TORSDOF 0
ENDMDL
MODEL 7
REMARK VINA RESULT:    -3.430      1.832      2.560
REMARK INTER + INTRA:          -3.502
REMARK INTER:                  -4.248
REMARK INTRA:                   0.746
REMARK UNBOUND:                 0.729
REMARK SMILES CC1=CC=CC(C)(C)CC1=O
REMARK SMILES IDX 1 1 2 2 3 3 10 4 11 5 9 6 4 8 5 9 6 10 7 11 8 12
REMARK H PARENT
REMARK Flexibility Score: 80.00
ROOT
ATOM      1  C   UNL     1      16.900  -9.106  63.926  1.00  0.00     0.048 C 
ATOM      2  C   UNL     1      17.412 -10.022  65.013  1.00  0.00    -0.008 C 
ATOM      3  C   UNL     1      16.497 -10.654  65.780  1.00  0.00     0.007 C 
ENDROOT
BRANCH   2   4
ATOM      4  C   UNL     1      18.882 -10.093  65.199  1.00  0.00     0.159 C 
ATOM      5  O   UNL     1      19.614  -9.265  64.591  1.00  0.00    -0.295 OA
BRANCH   4   6
ATOM      6  C   UNL     1      19.557 -11.111  66.067  1.00  0.00     0.091 CG0
ATOM      7  G   UNL     1      19.105 -11.050  67.543  1.00  0.00     0.000 G0
ENDBRANCH   4   6
ENDBRANCH   2   4
BRANCH   3   8
ATOM      8  C   UNL     1      16.690 -11.579  66.922  1.00  0.00    -0.003 C 
ATOM      9  C   UNL     1      17.773 -11.761  67.688  1.00  0.00    -0.020 C 
BRANCH   9  10
ATOM     10  C   UNL     1      19.104 -11.061  67.541  1.00  0.00    -0.010 CG0
ATOM     11  C   UNL     1      19.010  -9.623  68.104  1.00  0.00     0.016 C 
ATOM     12  C   UNL     1      20.152 -11.831  68.376  1.00  0.00     0.016 C 
ATOM     13  G   UNL     1      19.549 -11.093  66.062  1.00  0.00     0.000 G0
ENDBRANCH   9  10
ENDBRANCH   3   8
TORSDOF 0
ENDMDL
MODEL 8
REMARK VINA RESULT:    -3.358      2.226      3.220
REMARK INTER + INTRA:          -3.414
REMARK INTER:                  -4.181
REMARK INTRA:                   0.767
REMARK UNBOUND:                 0.729
REMARK SMILES CC1=CC=CC(C)(C)CC1=O
REMARK SMILES IDX 1 1 2 2 3 3 10 4 11 5 9 6 4 8 5 9 6 10 7 11 8 12
REMARK H PARENT
REMARK Flexibility Score: 80.00
ROOT
ATOM      1  C   UNL     1      21.004  -9.548  63.670  1.00  0.00     0.048 C 
ATOM      2  C   UNL     1      20.134 -10.367  64.595  1.00  0.00    -0.008 C 
ATOM      3  C   UNL     1      18.843 -10.550  64.241  1.00  0.00     0.007 C 
ENDROOT
BRANCH   2   4
ATOM      4  C   UNL     1      20.751 -10.841  65.859  1.00  0.00     0.159 C 
ATOM      5  O   UNL     1      21.868 -10.368  66.206  1.00  0.00    -0.295 OA
BRANCH   4   6
ATOM      6  C   UNL     1      20.123 -11.868  66.751  1.00  0.00     0.091 CG0
ATOM      7  G   UNL     1      18.737 -11.444  67.288  1.00  0.00     0.000 G0
ENDBRANCH   4   6
ENDBRANCH   2   4
BRANCH   3   8
ATOM      8  C   UNL     1      17.757 -11.271  64.946  1.00  0.00    -0.003 C 
ATOM      9  C   UNL     1      17.683 -11.639  66.231  1.00  0.00    -0.020 C 
BRANCH   9  10
ATOM     10  C   UNL     1      18.738 -11.420  67.290  1.00  0.00    -0.010 CG0
ATOM     11  C   UNL     1      18.728  -9.943  67.749  1.00  0.00     0.016 C 
ATOM     12  C   UNL     1      18.389 -12.300  68.511  1.00  0.00     0.016 C 
ATOM     13  G   UNL     1      20.116 -11.867  66.752  1.00  0.00     0.000 G0
ENDBRANCH   9  10
ENDBRANCH   3   8
TORSDOF 0
ENDMDL
MODEL 9
REMARK VINA RESULT:    -3.342      2.360      2.845
REMARK INTER + INTRA:          -3.394
REMARK INTER:                  -4.151
REMARK INTRA:                   0.757
REMARK UNBOUND:                 0.729
REMARK SMILES CC1=CC=CC(C)(C)CC1=O
REMARK SMILES IDX 1 1 2 2 3 3 10 4 11 5 9 6 4 8 5 9 6 10 7 11 8 12
REMARK H PARENT
REMARK Flexibility Score: 80.00
ROOT
ATOM      1  C   UNL     1      15.225 -12.178  64.847  1.00  0.00     0.048 C 
ATOM      2  C   UNL     1      16.540 -11.694  65.412  1.00  0.00    -0.008 C 
ATOM      3  C   UNL     1      16.506 -11.012  66.578  1.00  0.00     0.007 C 
ENDROOT
BRANCH   2   4
ATOM      4  C   UNL     1      17.757 -11.942  64.600  1.00  0.00     0.159 C 
ATOM      5  O   UNL     1      17.624 -12.333  63.408  1.00  0.00    -0.295 OA
BRANCH   4   6
ATOM      6  C   UNL     1      19.149 -11.764  65.122  1.00  0.00     0.091 CG0
ATOM      7  G   UNL     1      19.448 -10.320  65.583  1.00  0.00     0.000 G0
ENDBRANCH   4   6
ENDBRANCH   2   4
BRANCH   3   8
ATOM      8  C   UNL     1      17.610 -10.398  67.352  1.00  0.00    -0.003 C 
ATOM      9  C   UNL     1      18.850 -10.085  66.954  1.00  0.00    -0.020 C 
BRANCH   9  10
ATOM     10  C   UNL     1      19.437 -10.320  65.582  1.00  0.00    -0.010 CG0
ATOM     11  C   UNL     1      18.904  -9.260  64.590  1.00  0.00     0.016 C 
ATOM     12  C   UNL     1      20.971 -10.156  65.677  1.00  0.00     0.016 C 
ATOM     13  G   UNL     1      19.136 -11.766  65.127  1.00  0.00     0.000 G0
ENDBRANCH   9  10
ENDBRANCH   3   8
TORSDOF 0
ENDMDL
