MODEL 1
REMARK VINA RESULT:    -3.376      0.000      0.000
REMARK INTER + INTRA:          -4.504
REMARK INTER:                  -4.362
REMARK INTRA:                  -0.142
REMARK UNBOUND:                -0.142
REMARK SMILES CCCCCCC(=O)[O-]
REMARK SMILES IDX 5 1 6 2 7 3 8 4 9 5 4 6 3 7 2 8 1 9
REMARK H PARENT
REMARK Flexibility Score: inf
ROOT
ATOM      1  C   UNL     1     -23.530   5.981  22.810  1.00  0.00     0.006 C 
ENDROOT
BRANCH   1   2
ATOM      2  C   UNL     1     -23.333   7.336  22.126  1.00  0.00     0.053 C 
BRANCH   2   3
ATOM      3  C   UNL     1     -22.070   7.340  21.324  1.00  0.00     0.041 C 
ATOM      4  O   UNL     1     -21.057   6.712  21.733  1.00  0.00    -0.550 OA
ATOM      5  O   UNL     1     -21.994   8.078  20.150  1.00  0.00    -0.550 OA
ENDBRANCH   2   3
ENDBRANCH   1   2
BRANCH   1   6
ATOM      6  C   UNL     1     -24.894   5.908  23.506  1.00  0.00     0.000 C 
BRANCH   6   7
ATOM      7  C   UNL     1     -24.986   4.676  24.412  1.00  0.00    -0.000 C 
BRANCH   7   8
ATOM      8  C   UNL     1     -25.125   5.084  25.884  1.00  0.00    -0.003 C 
ATOM      9  C   UNL     1     -23.821   4.859  26.644  1.00  0.00     0.004 C 
ENDBRANCH   7   8
ENDBRANCH   6   7
ENDBRANCH   1   6
TORSDOF 5
ENDMDL
MODEL 2
REMARK VINA RESULT:    -3.369      1.137      1.893
REMARK INTER + INTRA:          -4.497
REMARK INTER:                  -4.395
REMARK INTRA:                  -0.101
REMARK UNBOUND:                -0.142
REMARK SMILES CCCCCCC(=O)[O-]
REMARK SMILES IDX 5 1 6 2 7 3 8 4 9 5 4 6 3 7 2 8 1 9
REMARK H PARENT
REMARK Flexibility Score: inf
ROOT
ATOM      1  C   UNL     1     -22.543   7.309  22.318  1.00  0.00     0.006 C 
ENDROOT
BRANCH   1   2
ATOM      2  C   UNL     1     -22.330   7.724  20.860  1.00  0.00     0.053 C 
BRANCH   2   3
ATOM      3  C   UNL     1     -21.264   6.886  20.227  1.00  0.00     0.041 C 
ATOM      4  O   UNL     1     -21.376   6.518  19.027  1.00  0.00    -0.550 OA
ATOM      5  O   UNL     1     -20.171   6.470  20.975  1.00  0.00    -0.550 OA
ENDBRANCH   2   3
ENDBRANCH   1   2
BRANCH   1   6
ATOM      6  C   UNL     1     -23.910   6.640  22.506  1.00  0.00     0.000 C 
BRANCH   6   7
ATOM      7  C   UNL     1     -23.821   5.471  23.493  1.00  0.00    -0.000 C 
BRANCH   7   8
ATOM      8  C   UNL     1     -25.125   5.319  24.285  1.00  0.00    -0.003 C 
ATOM      9  C   UNL     1     -24.902   4.522  25.567  1.00  0.00     0.004 C 
ENDBRANCH   7   8
ENDBRANCH   6   7
ENDBRANCH   1   6
TORSDOF 5
ENDMDL
MODEL 3
REMARK VINA RESULT:    -3.365      2.014      2.879
REMARK INTER + INTRA:          -4.492
REMARK INTER:                  -4.120
REMARK INTRA:                  -0.372
REMARK UNBOUND:                -0.142
REMARK SMILES CCCCCCC(=O)[O-]
REMARK SMILES IDX 5 1 6 2 7 3 8 4 9 5 4 6 3 7 2 8 1 9
REMARK H PARENT
REMARK Flexibility Score: inf
ROOT
ATOM      1  C   UNL     1     -22.308   7.429  22.106  1.00  0.00     0.006 C 
ENDROOT
BRANCH   1   2
ATOM      2  C   UNL     1     -22.092   7.803  20.637  1.00  0.00     0.053 C 
BRANCH   2   3
ATOM      3  C   UNL     1     -21.138   6.850  19.988  1.00  0.00     0.041 C 
ATOM      4  O   UNL     1     -21.353   6.436  18.818  1.00  0.00    -0.550 OA
ATOM      5  O   UNL     1     -20.037   6.379  20.693  1.00  0.00    -0.550 OA
ENDBRANCH   2   3
ENDBRANCH   1   2
BRANCH   1   6
ATOM      6  C   UNL     1     -23.704   6.834  22.322  1.00  0.00     0.000 C 
BRANCH   6   7
ATOM      7  C   UNL     1     -23.638   5.578  23.198  1.00  0.00    -0.000 C 
BRANCH   7   8
ATOM      8  C   UNL     1     -22.266   4.903  23.090  1.00  0.00    -0.003 C 
ATOM      9  C   UNL     1     -22.298   3.742  22.101  1.00  0.00     0.004 C 
ENDBRANCH   7   8
ENDBRANCH   6   7
ENDBRANCH   1   6
TORSDOF 5
ENDMDL
MODEL 4
REMARK VINA RESULT:    -3.325      3.105      5.352
REMARK INTER + INTRA:          -4.439
REMARK INTER:                  -4.328
REMARK INTRA:                  -0.111
REMARK UNBOUND:                -0.142
REMARK SMILES CCCCCCC(=O)[O-]
REMARK SMILES IDX 5 1 6 2 7 3 8 4 9 5 4 6 3 7 2 8 1 9
REMARK H PARENT
REMARK Flexibility Score: inf
ROOT
ATOM      1  C   UNL     1     -23.624   5.888  22.977  1.00  0.00     0.006 C 
ENDROOT
BRANCH   1   2
ATOM      2  C   UNL     1     -25.005   5.810  23.633  1.00  0.00     0.053 C 
BRANCH   2   3
ATOM      3  C   UNL     1     -24.987   4.849  24.780  1.00  0.00     0.041 C 
ATOM      4  O   UNL     1     -25.125   5.268  25.960  1.00  0.00    -0.550 OA
ATOM      5  O   UNL     1     -24.768   3.497  24.551  1.00  0.00    -0.550 OA
ENDBRANCH   2   3
ENDBRANCH   1   2
BRANCH   1   6
ATOM      6  C   UNL     1     -23.478   7.172  22.152  1.00  0.00     0.000 C 
BRANCH   6   7
ATOM      7  C   UNL     1     -22.010   7.436  21.799  1.00  0.00    -0.000 C 
BRANCH   7   8
ATOM      8  C   UNL     1     -21.866   7.876  20.337  1.00  0.00    -0.003 C 
ATOM      9  C   UNL     1     -21.315   6.746  19.473  1.00  0.00     0.004 C 
ENDBRANCH   7   8
ENDBRANCH   6   7
ENDBRANCH   1   6
TORSDOF 5
ENDMDL
MODEL 5
REMARK VINA RESULT:    -3.271     25.156     25.855
REMARK INTER + INTRA:          -4.369
REMARK INTER:                  -4.181
REMARK INTRA:                  -0.188
REMARK UNBOUND:                -0.142
REMARK SMILES CCCCCCC(=O)[O-]
REMARK SMILES IDX 5 1 6 2 7 3 8 4 9 5 4 6 3 7 2 8 1 9
REMARK H PARENT
REMARK Flexibility Score: inf
ROOT
ATOM      1  C   UNL     1      -5.429  -8.841  32.891  1.00  0.00     0.006 C 
ENDROOT
BRANCH   1   2
ATOM      2  C   UNL     1      -5.047 -10.108  32.121  1.00  0.00     0.053 C 
BRANCH   2   3
ATOM      3  C   UNL     1      -6.274 -10.849  31.690  1.00  0.00     0.041 C 
ATOM      4  O   UNL     1      -7.417 -10.396  31.964  1.00  0.00    -0.550 OA
ATOM      5  O   UNL     1      -6.155 -12.065  31.029  1.00  0.00    -0.550 OA
ENDBRANCH   2   3
ENDBRANCH   1   2
BRANCH   1   6
ATOM      6  C   UNL     1      -4.875  -8.878  34.320  1.00  0.00     0.000 C 
BRANCH   6   7
ATOM      7  C   UNL     1      -5.999  -8.719  35.350  1.00  0.00    -0.000 C 
BRANCH   7   8
ATOM      8  C   UNL     1      -5.672  -7.606  36.354  1.00  0.00    -0.003 C 
ATOM      9  C   UNL     1      -5.573  -6.250  35.662  1.00  0.00     0.004 C 
ENDBRANCH   7   8
ENDBRANCH   6   7
ENDBRANCH   1   6
TORSDOF 5
ENDMDL
MODEL 6
REMARK VINA RESULT:    -3.268      2.723      4.835
REMARK INTER + INTRA:          -4.366
REMARK INTER:                  -4.007
REMARK INTRA:                  -0.359
REMARK UNBOUND:                -0.142
REMARK SMILES CCCCCCC(=O)[O-]
REMARK SMILES IDX 5 1 6 2 7 3 8 4 9 5 4 6 3 7 2 8 1 9
REMARK H PARENT
REMARK Flexibility Score: inf
ROOT
ATOM      1  C   UNL     1     -21.807   7.410  22.619  1.00  0.00     0.006 C 
ENDROOT
BRANCH   1   2
ATOM      2  C   UNL     1     -23.236   7.182  22.119  1.00  0.00     0.053 C 
BRANCH   2   3
ATOM      3  C   UNL     1     -23.910   6.119  22.926  1.00  0.00     0.041 C 
ATOM      4  O   UNL     1     -25.125   6.235  23.240  1.00  0.00    -0.550 OA
ATOM      5  O   UNL     1     -23.186   5.022  23.375  1.00  0.00    -0.550 OA
ENDBRANCH   2   3
ENDBRANCH   1   2
BRANCH   1   6
ATOM      6  C   UNL     1     -20.780   6.928  21.588  1.00  0.00     0.000 C 
BRANCH   6   7
ATOM      7  C   UNL     1     -21.387   6.892  20.181  1.00  0.00    -0.000 C 
BRANCH   7   8
ATOM      8  C   UNL     1     -21.212   5.508  19.543  1.00  0.00    -0.003 C 
ATOM      9  C   UNL     1     -21.006   4.433  20.605  1.00  0.00     0.004 C 
ENDBRANCH   7   8
ENDBRANCH   6   7
ENDBRANCH   1   6
TORSDOF 5
ENDMDL
MODEL 7
REMARK VINA RESULT:    -3.142      3.129      4.193
REMARK INTER + INTRA:          -4.203
REMARK INTER:                  -3.828
REMARK INTRA:                  -0.375
REMARK UNBOUND:                -0.142
REMARK SMILES CCCCCCC(=O)[O-]
REMARK SMILES IDX 5 1 6 2 7 3 8 4 9 5 4 6 3 7 2 8 1 9
REMARK H PARENT
REMARK Flexibility Score: inf
ROOT
ATOM      1  C   UNL     1     -20.953   6.720  20.006  1.00  0.00     0.006 C 
ENDROOT
BRANCH   1   2
ATOM      2  C   UNL     1     -22.034   7.698  20.473  1.00  0.00     0.053 C 
BRANCH   2   3
ATOM      3  C   UNL     1     -22.420   7.416  21.890  1.00  0.00     0.041 C 
ATOM      4  O   UNL     1     -23.620   7.168  22.184  1.00  0.00    -0.550 OA
ATOM      5  O   UNL     1     -21.464   7.476  22.896  1.00  0.00    -0.550 OA
ENDBRANCH   2   3
ENDBRANCH   1   2
BRANCH   1   6
ATOM      6  C   UNL     1     -21.442   5.271  20.103  1.00  0.00     0.000 C 
BRANCH   6   7
ATOM      7  C   UNL     1     -20.331   4.347  20.615  1.00  0.00    -0.000 C 
BRANCH   7   8
ATOM      8  C   UNL     1     -20.862   3.386  21.684  1.00  0.00    -0.003 C 
ATOM      9  C   UNL     1     -22.284   3.753  22.098  1.00  0.00     0.004 C 
ENDBRANCH   7   8
ENDBRANCH   6   7
ENDBRANCH   1   6
TORSDOF 5
ENDMDL
MODEL 8
REMARK VINA RESULT:    -1.778     24.174     25.661
REMARK INTER + INTRA:          -2.440
REMARK INTER:                  -2.230
REMARK INTRA:                  -0.210
REMARK UNBOUND:                -0.142
REMARK SMILES CCCCCCC(=O)[O-]
REMARK SMILES IDX 5 1 6 2 7 3 8 4 9 5 4 6 3 7 2 8 1 9
REMARK H PARENT
REMARK Flexibility Score: inf
ROOT
ATOM      1  C   UNL     1      -5.312  -8.764  34.163  1.00  0.00     0.006 C 
ENDROOT
BRANCH   1   2
ATOM      2  C   UNL     1      -6.214  -9.441  33.128  1.00  0.00     0.053 C 
BRANCH   2   3
ATOM      3  C   UNL     1      -5.397 -10.005  32.009  1.00  0.00     0.041 C 
ATOM      4  O   UNL     1      -4.875  -9.239  31.156  1.00  0.00    -0.550 OA
ATOM      5  O   UNL     1      -5.251 -11.381  31.878  1.00  0.00    -0.550 OA
ENDBRANCH   2   3
ENDBRANCH   1   2
BRANCH   1   6
ATOM      6  C   UNL     1      -5.985  -8.728  35.540  1.00  0.00     0.000 C 
BRANCH   6   7
ATOM      7  C   UNL     1      -5.698  -7.406  36.260  1.00  0.00    -0.000 C 
BRANCH   7   8
ATOM      8  C   UNL     1      -5.356  -6.297  35.257  1.00  0.00    -0.003 C 
ATOM      9  C   UNL     1      -6.513  -5.312  35.109  1.00  0.00     0.004 C 
ENDBRANCH   7   8
ENDBRANCH   6   7
ENDBRANCH   1   6
TORSDOF 5
ENDMDL
