MODEL 1
REMARK VINA RESULT:    -5.717      0.000      0.000
REMARK INTER + INTRA:          -5.717
REMARK INTER:                  -5.717
REMARK INTRA:                   0.000
REMARK UNBOUND:                 0.000
REMARK SMILES CC1=CC(=O)[C@@H]2C[C@H]1C2(C)C
REMARK SMILES IDX 1 1 2 2 3 3 4 4 5 5 6 6 7 7 8 8 9 9 10 10 11 11
REMARK H PARENT
REMARK Flexibility Score: inf
ROOT
ATOM      1  C   UNL     1      -0.388  28.534  34.651  1.00  0.00     0.040 C 
ATOM      2  C   UNL     1       0.826  28.932  33.875  1.00  0.00    -0.066 C 
ATOM      3  C   UNL     1       2.015  28.288  34.039  1.00  0.00     0.047 C 
ATOM      4  C   UNL     1       3.149  28.760  33.181  1.00  0.00     0.159 C 
ATOM      5  O   UNL     1       4.286  28.220  33.213  1.00  0.00    -0.295 OA
ATOM      6  C   UNL     1       2.829  29.941  32.264  1.00  0.00     0.067 C 
ATOM      7  C   UNL     1       2.066  30.928  33.173  1.00  0.00     0.021 C 
ATOM      8  C   UNL     1       0.799  30.099  32.865  1.00  0.00     0.022 C 
ATOM      9  C   UNL     1       1.482  29.653  31.540  1.00  0.00    -0.019 C 
ATOM     10  C   UNL     1       1.214  28.211  31.023  1.00  0.00     0.012 C 
ATOM     11  C   UNL     1       1.216  30.642  30.377  1.00  0.00     0.012 C 
ENDROOT
TORSDOF 0
ENDMDL
MODEL 2
REMARK VINA RESULT:    -5.559      1.720      3.151
REMARK INTER + INTRA:          -5.559
REMARK INTER:                  -5.559
REMARK INTRA:                   0.000
REMARK UNBOUND:                 0.000
REMARK SMILES CC1=CC(=O)[C@@H]2C[C@H]1C2(C)C
REMARK SMILES IDX 1 1 2 2 3 3 4 4 5 5 6 6 7 7 8 8 9 9 10 10 11 11
REMARK H PARENT
REMARK Flexibility Score: inf
ROOT
ATOM      1  C   UNL     1       4.143  27.396  32.700  1.00  0.00     0.040 C 
ATOM      2  C   UNL     1       3.105  28.469  32.619  1.00  0.00    -0.066 C 
ATOM      3  C   UNL     1       2.875  29.148  31.461  1.00  0.00     0.047 C 
ATOM      4  C   UNL     1       1.788  30.178  31.500  1.00  0.00     0.159 C 
ATOM      5  O   UNL     1       1.455  30.843  30.484  1.00  0.00    -0.295 OA
ATOM      6  C   UNL     1       1.111  30.364  32.859  1.00  0.00     0.067 C 
ATOM      7  C   UNL     1       2.284  30.419  33.860  1.00  0.00     0.021 C 
ATOM      8  C   UNL     1       2.257  28.874  33.844  1.00  0.00     0.022 C 
ATOM      9  C   UNL     1       0.759  28.961  33.432  1.00  0.00    -0.019 C 
ATOM     10  C   UNL     1       0.201  27.884  32.459  1.00  0.00     0.012 C 
ATOM     11  C   UNL     1      -0.186  29.045  34.656  1.00  0.00     0.012 C 
ENDROOT
TORSDOF 0
ENDMDL
MODEL 3
REMARK VINA RESULT:    -5.097      1.825      3.464
REMARK INTER + INTRA:          -5.097
REMARK INTER:                  -5.097
REMARK INTRA:                   0.000
REMARK UNBOUND:                 0.000
REMARK SMILES CC1=CC(=O)[C@@H]2C[C@H]1C2(C)C
REMARK SMILES IDX 1 1 2 2 3 3 4 4 5 5 6 6 7 7 8 8 9 9 10 10 11 11
REMARK H PARENT
REMARK Flexibility Score: inf
ROOT
ATOM      1  C   UNL     1       1.884  30.826  29.926  1.00  0.00     0.040 C 
ATOM      2  C   UNL     1       1.425  30.189  31.199  1.00  0.00    -0.066 C 
ATOM      3  C   UNL     1       0.455  29.231  31.203  1.00  0.00     0.047 C 
ATOM      4  C   UNL     1       0.106  28.648  32.538  1.00  0.00     0.159 C 
ATOM      5  O   UNL     1      -0.746  27.731  32.668  1.00  0.00    -0.295 OA
ATOM      6  C   UNL     1       0.855  29.245  33.730  1.00  0.00     0.067 C 
ATOM      7  C   UNL     1       0.786  30.769  33.494  1.00  0.00     0.021 C 
ATOM      8  C   UNL     1       2.011  30.594  32.568  1.00  0.00     0.022 C 
ATOM      9  C   UNL     1       2.368  29.314  33.378  1.00  0.00    -0.019 C 
ATOM     10  C   UNL     1       3.006  28.117  32.617  1.00  0.00     0.012 C 
ATOM     11  C   UNL     1       3.247  29.625  34.616  1.00  0.00     0.012 C 
ENDROOT
TORSDOF 0
ENDMDL
MODEL 4
REMARK VINA RESULT:    -5.096      1.678      2.988
REMARK INTER + INTRA:          -5.096
REMARK INTER:                  -5.096
REMARK INTRA:                   0.000
REMARK UNBOUND:                 0.000
REMARK SMILES CC1=CC(=O)[C@@H]2C[C@H]1C2(C)C
REMARK SMILES IDX 1 1 2 2 3 3 4 4 5 5 6 6 7 7 8 8 9 9 10 10 11 11
REMARK H PARENT
REMARK Flexibility Score: inf
ROOT
ATOM      1  C   UNL     1       4.198  27.902  33.350  1.00  0.00     0.040 C 
ATOM      2  C   UNL     1       2.774  28.320  33.165  1.00  0.00    -0.066 C 
ATOM      3  C   UNL     1       1.879  28.262  34.191  1.00  0.00     0.047 C 
ATOM      4  C   UNL     1       0.491  28.738  33.887  1.00  0.00     0.159 C 
ATOM      5  O   UNL     1      -0.414  28.770  34.761  1.00  0.00    -0.295 OA
ATOM      6  C   UNL     1       0.252  29.182  32.443  1.00  0.00     0.067 C 
ATOM      7  C   UNL     1       0.907  28.071  31.594  1.00  0.00     0.021 C 
ATOM      8  C   UNL     1       2.243  28.818  31.804  1.00  0.00     0.022 C 
ATOM      9  C   UNL     1       1.416  30.120  32.015  1.00  0.00    -0.019 C 
ATOM     10  C   UNL     1       1.940  31.164  33.042  1.00  0.00     0.012 C 
ATOM     11  C   UNL     1       1.121  30.854  30.683  1.00  0.00     0.012 C 
ENDROOT
TORSDOF 0
ENDMDL
MODEL 5
REMARK VINA RESULT:    -5.028      1.703      2.404
REMARK INTER + INTRA:          -5.028
REMARK INTER:                  -5.028
REMARK INTRA:                   0.000
REMARK UNBOUND:                 0.000
REMARK SMILES CC1=CC(=O)[C@@H]2C[C@H]1C2(C)C
REMARK SMILES IDX 1 1 2 2 3 3 4 4 5 5 6 6 7 7 8 8 9 9 10 10 11 11
REMARK H PARENT
REMARK Flexibility Score: inf
ROOT
ATOM      1  C   UNL     1       0.896  28.501  34.647  1.00  0.00     0.040 C 
ATOM      2  C   UNL     1       1.064  29.159  33.315  1.00  0.00    -0.066 C 
ATOM      3  C   UNL     1       1.861  30.253  33.159  1.00  0.00     0.047 C 
ATOM      4  C   UNL     1       1.971  30.800  31.768  1.00  0.00     0.159 C 
ATOM      5  O   UNL     1       2.706  31.783  31.490  1.00  0.00    -0.295 OA
ATOM      6  C   UNL     1       1.130  30.081  30.713  1.00  0.00     0.067 C 
ATOM      7  C   UNL     1      -0.250  29.908  31.384  1.00  0.00     0.021 C 
ATOM      8  C   UNL     1       0.332  28.644  32.057  1.00  0.00     0.022 C 
ATOM      9  C   UNL     1       1.339  28.548  30.874  1.00  0.00    -0.019 C 
ATOM     10  C   UNL     1       2.773  28.025  31.171  1.00  0.00     0.012 C 
ATOM     11  C   UNL     1       0.769  27.747  29.677  1.00  0.00     0.012 C 
ENDROOT
TORSDOF 0
ENDMDL
MODEL 6
REMARK VINA RESULT:    -4.959      2.185      3.572
REMARK INTER + INTRA:          -4.959
REMARK INTER:                  -4.959
REMARK INTRA:                   0.000
REMARK UNBOUND:                 0.000
REMARK SMILES CC1=CC(=O)[C@@H]2C[C@H]1C2(C)C
REMARK SMILES IDX 1 1 2 2 3 3 4 4 5 5 6 6 7 7 8 8 9 9 10 10 11 11
REMARK H PARENT
REMARK Flexibility Score: inf
ROOT
ATOM      1  C   UNL     1       3.442  27.736  30.981  1.00  0.00     0.040 C 
ATOM      2  C   UNL     1       2.378  28.702  31.395  1.00  0.00    -0.066 C 
ATOM      3  C   UNL     1       1.622  29.362  30.474  1.00  0.00     0.047 C 
ATOM      4  C   UNL     1       0.568  30.279  31.016  1.00  0.00     0.159 C 
ATOM      5  O   UNL     1      -0.219  30.914  30.268  1.00  0.00    -0.295 OA
ATOM      6  C   UNL     1       0.515  30.388  32.541  1.00  0.00     0.067 C 
ATOM      7  C   UNL     1       1.993  30.552  32.958  1.00  0.00     0.021 C 
ATOM      8  C   UNL     1       2.096  29.012  32.881  1.00  0.00     0.022 C 
ATOM      9  C   UNL     1       0.563  28.954  33.141  1.00  0.00    -0.019 C 
ATOM     10  C   UNL     1      -0.259  27.833  32.442  1.00  0.00     0.012 C 
ATOM     11  C   UNL     1       0.220  28.936  34.652  1.00  0.00     0.012 C 
ENDROOT
TORSDOF 0
ENDMDL
MODEL 7
REMARK VINA RESULT:    -4.901      1.978      3.725
REMARK INTER + INTRA:          -4.901
REMARK INTER:                  -4.901
REMARK INTRA:                   0.000
REMARK UNBOUND:                 0.000
REMARK SMILES CC1=CC(=O)[C@@H]2C[C@H]1C2(C)C
REMARK SMILES IDX 1 1 2 2 3 3 4 4 5 5 6 6 7 7 8 8 9 9 10 10 11 11
REMARK H PARENT
REMARK Flexibility Score: inf
ROOT
ATOM      1  C   UNL     1       2.980  31.269  29.479  1.00  0.00     0.040 C 
ATOM      2  C   UNL     1       2.187  30.376  30.379  1.00  0.00    -0.066 C 
ATOM      3  C   UNL     1       1.517  29.293  29.893  1.00  0.00     0.047 C 
ATOM      4  C   UNL     1       0.785  28.460  30.901  1.00  0.00     0.159 C 
ATOM      5  O   UNL     1       0.162  27.414  30.581  1.00  0.00    -0.295 OA
ATOM      6  C   UNL     1       0.848  28.969  32.341  1.00  0.00     0.067 C 
ATOM      7  C   UNL     1       0.569  30.482  32.219  1.00  0.00     0.021 C 
ATOM      8  C   UNL     1       2.072  30.645  31.895  1.00  0.00     0.022 C 
ATOM      9  C   UNL     1       2.325  29.323  32.676  1.00  0.00    -0.019 C 
ATOM     10  C   UNL     1       3.446  28.373  32.169  1.00  0.00     0.012 C 
ATOM     11  C   UNL     1       2.543  29.566  34.191  1.00  0.00     0.012 C 
ENDROOT
TORSDOF 0
ENDMDL
MODEL 8
REMARK VINA RESULT:    -4.805      1.839      2.455
REMARK INTER + INTRA:          -4.805
REMARK INTER:                  -4.805
REMARK INTRA:                   0.000
REMARK UNBOUND:                 0.000
REMARK SMILES CC1=CC(=O)[C@@H]2C[C@H]1C2(C)C
REMARK SMILES IDX 1 1 2 2 3 3 4 4 5 5 6 6 7 7 8 8 9 9 10 10 11 11
REMARK H PARENT
REMARK Flexibility Score: inf
ROOT
ATOM      1  C   UNL     1       2.024  31.069  33.509  1.00  0.00     0.040 C 
ATOM      2  C   UNL     1       2.203  30.230  32.285  1.00  0.00    -0.066 C 
ATOM      3  C   UNL     1       2.846  29.030  32.336  1.00  0.00     0.047 C 
ATOM      4  C   UNL     1       2.934  28.269  31.048  1.00  0.00     0.159 C 
ATOM      5  O   UNL     1       3.469  27.132  30.974  1.00  0.00    -0.295 OA
ATOM      6  C   UNL     1       2.328  28.970  29.831  1.00  0.00     0.067 C 
ATOM      7  C   UNL     1       2.855  30.418  29.928  1.00  0.00     0.021 C 
ATOM      8  C   UNL     1       1.687  30.686  30.904  1.00  0.00     0.022 C 
ATOM      9  C   UNL     1       0.924  29.513  30.222  1.00  0.00    -0.019 C 
ATOM     10  C   UNL     1       0.006  28.622  31.106  1.00  0.00     0.012 C 
ATOM     11  C   UNL     1       0.108  29.977  28.989  1.00  0.00     0.012 C 
ENDROOT
TORSDOF 0
ENDMDL
MODEL 9
REMARK VINA RESULT:    -4.697      1.977      3.638
REMARK INTER + INTRA:          -4.697
REMARK INTER:                  -4.697
REMARK INTRA:                   0.000
REMARK UNBOUND:                 0.000
REMARK SMILES CC1=CC(=O)[C@@H]2C[C@H]1C2(C)C
REMARK SMILES IDX 1 1 2 2 3 3 4 4 5 5 6 6 7 7 8 8 9 9 10 10 11 11
REMARK H PARENT
REMARK Flexibility Score: inf
ROOT
ATOM      1  C   UNL     1      -0.623  31.047  28.845  1.00  0.00     0.040 C 
ATOM      2  C   UNL     1       0.076  30.139  29.806  1.00  0.00    -0.066 C 
ATOM      3  C   UNL     1       0.881  29.129  29.371  1.00  0.00     0.047 C 
ATOM      4  C   UNL     1       1.549  28.310  30.433  1.00  0.00     0.159 C 
ATOM      5  O   UNL     1       2.344  27.374  30.158  1.00  0.00    -0.295 OA
ATOM      6  C   UNL     1       1.196  28.689  31.872  1.00  0.00     0.067 C 
ATOM      7  C   UNL     1      -0.339  28.854  31.853  1.00  0.00     0.021 C 
ATOM      8  C   UNL     1      -0.092  30.288  31.333  1.00  0.00     0.022 C 
ATOM      9  C   UNL     1       1.305  30.234  32.017  1.00  0.00    -0.019 C 
ATOM     10  C   UNL     1       2.492  30.959  31.321  1.00  0.00     0.012 C 
ATOM     11  C   UNL     1       1.257  30.692  33.496  1.00  0.00     0.012 C 
ENDROOT
TORSDOF 0
ENDMDL
