MODEL 1
REMARK VINA RESULT:    -6.498      0.000      0.000
REMARK INTER + INTRA:          -8.278
REMARK INTER:                  -7.637
REMARK INTRA:                  -0.641
REMARK UNBOUND:                -0.641
REMARK SMILES C=C(C)[C@H]1CC[C@]2(CO)CC[C@@]3(C)[C@@H](CC[C@H]4[C@@]5(C)CC[C@H](O)C(C)(C)[C@H]5CC[C@]43C)[C@H]12
REMARK SMILES IDX 4 1 5 2 6 3 7 4 32 5 14 6 15 7 16 8 17 9 18 10 20 11 21 12
REMARK SMILES IDX 22 13 24 14 27 15 28 16 29 17 30 18 12 19 11 20 10 21 13 22
REMARK SMILES IDX 31 23 25 24 26 25 19 26 2 27 3 28 1 29 8 30 9 31 23 33
REMARK H PARENT 9 32 23 34
REMARK Flexibility Score: inf
ROOT
ATOM      1  C   UNL     1      47.782  28.433  24.754  1.00  0.00     0.018 C 
ATOM      2  C   UNL     1      46.376  28.001  25.152  1.00  0.00     0.009 C 
ATOM      3  C   UNL     1      45.752  27.480  23.878  1.00  0.00     0.010 C 
ATOM      4  C   UNL     1      46.290  28.378  22.740  1.00  0.00    -0.003 C 
ATOM      5  C   UNL     1      47.660  28.941  23.281  1.00  0.00     0.008 C 
ATOM      6  C   UNL     1      48.869  28.483  22.391  1.00  0.00    -0.000 C 
ATOM      7  C   UNL     1      50.250  28.883  22.915  1.00  0.00     0.005 C 
ATOM      8  C   UNL     1      51.327  27.980  22.301  1.00  0.00     0.005 C 
ATOM      9  C   UNL     1      51.101  27.533  20.807  1.00  0.00     0.002 C 
ATOM     10  C   UNL     1      51.071  25.948  20.575  1.00  0.00    -0.026 C 
ATOM     11  C   UNL     1      49.917  25.266  21.362  1.00  0.00     0.010 C 
ATOM     12  C   UNL     1      49.784  23.754  21.111  1.00  0.00     0.033 C 
ATOM     13  C   UNL     1      49.616  23.412  19.625  1.00  0.00     0.120 C 
ATOM     14  C   UNL     1      50.733  24.035  18.725  1.00  0.00    -0.006 C 
ATOM     15  C   UNL     1      50.900  25.600  19.037  1.00  0.00     0.003 C 
ATOM     16  C   UNL     1      49.722  26.403  18.430  1.00  0.00     0.005 C 
ATOM     17  C   UNL     1      49.827  27.923  18.591  1.00  0.00     0.008 C 
ATOM     18  C   UNL     1      50.085  28.483  20.029  1.00  0.00    -0.024 C 
ATOM     19  C   UNL     1      48.706  28.858  20.872  1.00  0.00    -0.024 C 
ATOM     20  C   UNL     1      47.371  28.165  20.365  1.00  0.00     0.008 C 
ATOM     21  C   UNL     1      46.465  27.525  21.447  1.00  0.00     0.010 C 
ATOM     22  C   UNL     1      48.409  30.397  20.755  1.00  0.00     0.012 C 
ATOM     23  C   UNL     1      50.928  29.794  19.747  1.00  0.00     0.012 C 
ATOM     24  C   UNL     1      52.074  23.263  18.904  1.00  0.00     0.014 C 
ATOM     25  C   UNL     1      50.336  23.805  17.235  1.00  0.00     0.014 C 
ATOM     26  C   UNL     1      52.462  25.407  21.084  1.00  0.00     0.012 C 
ENDROOT
BRANCH   1  27
ATOM     27  C   UNL     1      48.378  29.375  25.811  1.00  0.00    -0.077 C 
ATOM     28  C   UNL     1      48.642  30.809  25.424  1.00  0.00     0.039 C 
ATOM     29  C   UNL     1      48.624  29.031  27.091  1.00  0.00     0.008 C 
ENDBRANCH   1  27
BRANCH   4  30
ATOM     30  C   UNL     1      45.234  29.496  22.461  1.00  0.00     0.163 C 
BRANCH  30  31
ATOM     31  O   UNL     1      45.660  30.747  22.938  1.00  0.00    -0.396 OA
ATOM     32  H   UNL     1      46.362  30.579  23.619  1.00  0.00     0.210 HD
ENDBRANCH  30  31
ENDBRANCH   4  30
BRANCH  13  33
ATOM     33  O   UNL     1      49.589  22.011  19.495  1.00  0.00    -0.393 OA
ATOM     34  H   UNL     1      49.673  21.803  18.527  1.00  0.00     0.210 HD
ENDBRANCH  13  33
TORSDOF 4
ENDMDL
MODEL 2
REMARK VINA RESULT:    -6.487      1.832      7.311
REMARK INTER + INTRA:          -8.265
REMARK INTER:                  -7.618
REMARK INTRA:                  -0.647
REMARK UNBOUND:                -0.641
REMARK SMILES C=C(C)[C@H]1CC[C@]2(CO)CC[C@@]3(C)[C@@H](CC[C@H]4[C@@]5(C)CC[C@H](O)C(C)(C)[C@H]5CC[C@]43C)[C@H]12
REMARK SMILES IDX 4 1 5 2 6 3 7 4 32 5 14 6 15 7 16 8 17 9 18 10 20 11 21 12
REMARK SMILES IDX 22 13 24 14 27 15 28 16 29 17 30 18 12 19 11 20 10 21 13 22
REMARK SMILES IDX 31 23 25 24 26 25 19 26 2 27 3 28 1 29 8 30 9 31 23 33
REMARK H PARENT 9 32 23 34
REMARK Flexibility Score: inf
ROOT
ATOM      1  C   UNL     1      51.546  25.756  16.704  1.00  0.00     0.018 C 
ATOM      2  C   UNL     1      50.971  24.506  16.050  1.00  0.00     0.009 C 
ATOM      3  C   UNL     1      50.096  23.877  17.109  1.00  0.00     0.010 C 
ATOM      4  C   UNL     1      50.815  24.119  18.457  1.00  0.00    -0.003 C 
ATOM      5  C   UNL     1      51.705  25.397  18.218  1.00  0.00     0.008 C 
ATOM      6  C   UNL     1      51.287  26.582  19.158  1.00  0.00    -0.000 C 
ATOM      7  C   UNL     1      52.020  27.901  18.906  1.00  0.00     0.005 C 
ATOM      8  C   UNL     1      51.207  29.071  19.477  1.00  0.00     0.005 C 
ATOM      9  C   UNL     1      50.426  28.795  20.817  1.00  0.00     0.002 C 
ATOM     10  C   UNL     1      48.846  29.053  20.742  1.00  0.00    -0.026 C 
ATOM     11  C   UNL     1      48.156  28.135  19.695  1.00  0.00     0.010 C 
ATOM     12  C   UNL     1      46.626  28.277  19.639  1.00  0.00     0.033 C 
ATOM     13  C   UNL     1      45.957  28.038  20.998  1.00  0.00     0.120 C 
ATOM     14  C   UNL     1      46.561  28.921  22.139  1.00  0.00    -0.006 C 
ATOM     15  C   UNL     1      48.161  28.808  22.150  1.00  0.00     0.003 C 
ATOM     16  C   UNL     1      48.604  27.443  22.736  1.00  0.00     0.005 C 
ATOM     17  C   UNL     1      50.120  27.265  22.878  1.00  0.00     0.008 C 
ATOM     18  C   UNL     1      51.003  27.544  21.618  1.00  0.00    -0.024 C 
ATOM     19  C   UNL     1      51.303  26.205  20.685  1.00  0.00    -0.024 C 
ATOM     20  C   UNL     1      50.300  24.989  20.872  1.00  0.00     0.008 C 
ATOM     21  C   UNL     1      49.754  24.332  19.579  1.00  0.00     0.010 C 
ATOM     22  C   UNL     1      52.709  25.603  21.049  1.00  0.00     0.012 C 
ATOM     23  C   UNL     1      52.352  28.084  22.250  1.00  0.00     0.012 C 
ATOM     24  C   UNL     1      46.086  30.397  21.998  1.00  0.00     0.014 C 
ATOM     25  C   UNL     1      45.960  28.437  23.493  1.00  0.00     0.014 C 
ATOM     26  C   UNL     1      48.672  30.565  20.329  1.00  0.00     0.012 C 
ENDROOT
BRANCH   1  27
ATOM     27  C   UNL     1      52.776  26.254  15.931  1.00  0.00    -0.077 C 
ATOM     28  C   UNL     1      52.693  27.593  15.241  1.00  0.00     0.039 C 
ATOM     29  C   UNL     1      53.959  25.610  15.878  1.00  0.00     0.008 C 
ENDBRANCH   1  27
BRANCH   4  30
ATOM     30  C   UNL     1      51.651  22.843  18.798  1.00  0.00     0.163 C 
BRANCH  30  31
ATOM     31  O   UNL     1      53.030  23.113  18.823  1.00  0.00    -0.396 OA
ATOM     32  H   UNL     1      53.383  22.768  19.684  1.00  0.00     0.210 HD
ENDBRANCH  30  31
ENDBRANCH   4  30
BRANCH  13  33
ATOM     33  O   UNL     1      44.576  28.273  20.859  1.00  0.00    -0.393 OA
ATOM     34  H   UNL     1      44.397  29.189  21.197  1.00  0.00     0.210 HD
ENDBRANCH  13  33
TORSDOF 4
ENDMDL
MODEL 3
REMARK VINA RESULT:    -6.133      5.433      9.233
REMARK INTER + INTRA:          -7.850
REMARK INTER:                  -7.285
REMARK INTRA:                  -0.565
REMARK UNBOUND:                -0.641
REMARK SMILES C=C(C)[C@H]1CC[C@]2(CO)CC[C@@]3(C)[C@@H](CC[C@H]4[C@@]5(C)CC[C@H](O)C(C)(C)[C@H]5CC[C@]43C)[C@H]12
REMARK SMILES IDX 4 1 5 2 6 3 7 4 32 5 14 6 15 7 16 8 17 9 18 10 20 11 21 12
REMARK SMILES IDX 22 13 24 14 27 15 28 16 29 17 30 18 12 19 11 20 10 21 13 22
REMARK SMILES IDX 31 23 25 24 26 25 19 26 2 27 3 28 1 29 8 30 9 31 23 33
REMARK H PARENT 9 32 23 34
REMARK Flexibility Score: inf
ROOT
ATOM      1  C   UNL     1      41.708  29.691  20.703  1.00  0.00     0.018 C 
ATOM      2  C   UNL     1      42.250  29.563  19.284  1.00  0.00     0.009 C 
ATOM      3  C   UNL     1      42.997  28.249  19.270  1.00  0.00     0.010 C 
ATOM      4  C   UNL     1      43.658  28.116  20.661  1.00  0.00    -0.003 C 
ATOM      5  C   UNL     1      42.768  28.998  21.618  1.00  0.00     0.008 C 
ATOM      6  C   UNL     1      42.105  28.138  22.752  1.00  0.00    -0.000 C 
ATOM      7  C   UNL     1      41.127  28.894  23.652  1.00  0.00     0.005 C 
ATOM      8  C   UNL     1      40.179  27.906  24.345  1.00  0.00     0.005 C 
ATOM      9  C   UNL     1      40.796  26.518  24.766  1.00  0.00     0.002 C 
ATOM     10  C   UNL     1      40.056  25.237  24.151  1.00  0.00    -0.026 C 
ATOM     11  C   UNL     1      40.103  25.227  22.597  1.00  0.00     0.010 C 
ATOM     12  C   UNL     1      39.483  23.976  21.952  1.00  0.00     0.033 C 
ATOM     13  C   UNL     1      40.114  22.673  22.458  1.00  0.00     0.120 C 
ATOM     14  C   UNL     1      40.113  22.559  24.017  1.00  0.00    -0.006 C 
ATOM     15  C   UNL     1      40.710  23.893  24.679  1.00  0.00     0.003 C 
ATOM     16  C   UNL     1      42.250  23.939  24.511  1.00  0.00     0.005 C 
ATOM     17  C   UNL     1      42.936  25.131  25.188  1.00  0.00     0.008 C 
ATOM     18  C   UNL     1      42.386  26.560  24.870  1.00  0.00    -0.024 C 
ATOM     19  C   UNL     1      43.142  27.316  23.602  1.00  0.00    -0.024 C 
ATOM     20  C   UNL     1      43.921  26.369  22.593  1.00  0.00     0.008 C 
ATOM     21  C   UNL     1      43.682  26.616  21.082  1.00  0.00     0.010 C 
ATOM     22  C   UNL     1      44.248  28.293  24.143  1.00  0.00     0.012 C 
ATOM     23  C   UNL     1      42.659  27.347  26.218  1.00  0.00     0.012 C 
ATOM     24  C   UNL     1      38.682  22.244  24.542  1.00  0.00     0.014 C 
ATOM     25  C   UNL     1      40.965  21.315  24.411  1.00  0.00     0.014 C 
ATOM     26  C   UNL     1      38.560  25.322  24.642  1.00  0.00     0.012 C 
ENDROOT
BRANCH   1  27
ATOM     27  C   UNL     1      41.315  31.146  21.002  1.00  0.00    -0.077 C 
ATOM     28  C   UNL     1      42.398  32.196  20.990  1.00  0.00     0.039 C 
ATOM     29  C   UNL     1      40.052  31.570  21.210  1.00  0.00     0.008 C 
ENDBRANCH   1  27
BRANCH   4  30
ATOM     30  C   UNL     1      45.131  28.626  20.550  1.00  0.00     0.163 C 
BRANCH  30  31
ATOM     31  O   UNL     1      45.876  27.875  19.625  1.00  0.00    -0.396 OA
ATOM     32  H   UNL     1      45.259  27.210  19.221  1.00  0.00     0.210 HD
ENDBRANCH  30  31
ENDBRANCH   4  30
BRANCH  13  33
ATOM     33  O   UNL     1      39.425  21.593  21.875  1.00  0.00    -0.393 OA
ATOM     34  H   UNL     1      39.088  21.024  22.616  1.00  0.00     0.210 HD
ENDBRANCH  13  33
TORSDOF 4
ENDMDL
MODEL 4
REMARK VINA RESULT:    -6.082      4.402      6.608
REMARK INTER + INTRA:          -7.789
REMARK INTER:                  -7.219
REMARK INTRA:                  -0.569
REMARK UNBOUND:                -0.641
REMARK SMILES C=C(C)[C@H]1CC[C@]2(CO)CC[C@@]3(C)[C@@H](CC[C@H]4[C@@]5(C)CC[C@H](O)C(C)(C)[C@H]5CC[C@]43C)[C@H]12
REMARK SMILES IDX 4 1 5 2 6 3 7 4 32 5 14 6 15 7 16 8 17 9 18 10 20 11 21 12
REMARK SMILES IDX 22 13 24 14 27 15 28 16 29 17 30 18 12 19 11 20 10 21 13 22
REMARK SMILES IDX 31 23 25 24 26 25 19 26 2 27 3 28 1 29 8 30 9 31 23 33
REMARK H PARENT 9 32 23 34
REMARK Flexibility Score: inf
ROOT
ATOM      1  C   UNL     1      52.448  26.363  20.673  1.00  0.00     0.018 C 
ATOM      2  C   UNL     1      52.226  24.867  20.863  1.00  0.00     0.009 C 
ATOM      3  C   UNL     1      51.778  24.364  19.511  1.00  0.00     0.010 C 
ATOM      4  C   UNL     1      50.902  25.485  18.906  1.00  0.00    -0.003 C 
ATOM      5  C   UNL     1      51.393  26.807  19.609  1.00  0.00     0.008 C 
ATOM      6  C   UNL     1      51.986  27.830  18.576  1.00  0.00    -0.000 C 
ATOM      7  C   UNL     1      52.599  29.091  19.188  1.00  0.00     0.005 C 
ATOM      8  C   UNL     1      53.575  29.736  18.194  1.00  0.00     0.005 C 
ATOM      9  C   UNL     1      53.181  29.656  16.671  1.00  0.00     0.002 C 
ATOM     10  C   UNL     1      54.269  28.951  15.729  1.00  0.00    -0.026 C 
ATOM     11  C   UNL     1      54.525  27.474  16.141  1.00  0.00     0.010 C 
ATOM     12  C   UNL     1      55.497  26.718  15.219  1.00  0.00     0.033 C 
ATOM     13  C   UNL     1      55.057  26.735  13.750  1.00  0.00     0.120 C 
ATOM     14  C   UNL     1      54.781  28.178  13.213  1.00  0.00    -0.006 C 
ATOM     15  C   UNL     1      53.811  28.974  14.212  1.00  0.00     0.003 C 
ATOM     16  C   UNL     1      52.355  28.459  14.080  1.00  0.00     0.005 C 
ATOM     17  C   UNL     1      51.325  29.215  14.927  1.00  0.00     0.008 C 
ATOM     18  C   UNL     1      51.626  29.385  16.452  1.00  0.00    -0.024 C 
ATOM     19  C   UNL     1      50.992  28.189  17.410  1.00  0.00    -0.024 C 
ATOM     20  C   UNL     1      50.629  26.829  16.676  1.00  0.00     0.008 C 
ATOM     21  C   UNL     1      51.100  25.521  17.361  1.00  0.00     0.010 C 
ATOM     22  C   UNL     1      49.628  28.666  18.030  1.00  0.00     0.012 C 
ATOM     23  C   UNL     1      50.945  30.776  16.789  1.00  0.00     0.012 C 
ATOM     24  C   UNL     1      56.118  28.939  12.975  1.00  0.00     0.014 C 
ATOM     25  C   UNL     1      54.138  28.051  11.798  1.00  0.00     0.014 C 
ATOM     26  C   UNL     1      55.594  29.790  15.891  1.00  0.00     0.012 C 
ENDROOT
BRANCH   1  27
ATOM     27  C   UNL     1      52.474  27.082  22.031  1.00  0.00    -0.077 C 
ATOM     28  C   UNL     1      51.245  27.844  22.460  1.00  0.00     0.039 C 
ATOM     29  C   UNL     1      53.499  27.028  22.905  1.00  0.00     0.008 C 
ENDBRANCH   1  27
BRANCH   4  30
ATOM     30  C   UNL     1      49.405  25.150  19.208  1.00  0.00     0.163 C 
BRANCH  30  31
ATOM     31  O   UNL     1      49.167  23.765  19.196  1.00  0.00    -0.396 OA
ATOM     32  H   UNL     1      49.951  23.335  18.765  1.00  0.00     0.210 HD
ENDBRANCH  30  31
ENDBRANCH   4  30
BRANCH  13  33
ATOM     33  O   UNL     1      56.049  26.096  12.984  1.00  0.00    -0.393 OA
ATOM     34  H   UNL     1      56.928  26.332  13.382  1.00  0.00     0.210 HD
ENDBRANCH  13  33
TORSDOF 4
ENDMDL
MODEL 5
REMARK VINA RESULT:    -5.879      6.290      9.120
REMARK INTER + INTRA:          -7.551
REMARK INTER:                  -6.980
REMARK INTRA:                  -0.571
REMARK UNBOUND:                -0.641
REMARK SMILES C=C(C)[C@H]1CC[C@]2(CO)CC[C@@]3(C)[C@@H](CC[C@H]4[C@@]5(C)CC[C@H](O)C(C)(C)[C@H]5CC[C@]43C)[C@H]12
REMARK SMILES IDX 4 1 5 2 6 3 7 4 32 5 14 6 15 7 16 8 17 9 18 10 20 11 21 12
REMARK SMILES IDX 22 13 24 14 27 15 28 16 29 17 30 18 12 19 11 20 10 21 13 22
REMARK SMILES IDX 31 23 25 24 26 25 19 26 2 27 3 28 1 29 8 30 9 31 23 33
REMARK H PARENT 9 32 23 34
REMARK Flexibility Score: inf
ROOT
ATOM      1  C   UNL     1      41.313  33.360  22.609  1.00  0.00     0.018 C 
ATOM      2  C   UNL     1      40.304  33.626  21.498  1.00  0.00     0.009 C 
ATOM      3  C   UNL     1      40.123  32.294  20.807  1.00  0.00     0.010 C 
ATOM      4  C   UNL     1      41.510  31.612  20.822  1.00  0.00    -0.003 C 
ATOM      5  C   UNL     1      42.263  32.251  22.050  1.00  0.00     0.008 C 
ATOM      6  C   UNL     1      42.626  31.176  23.134  1.00  0.00    -0.000 C 
ATOM      7  C   UNL     1      43.250  31.730  24.416  1.00  0.00     0.005 C 
ATOM      8  C   UNL     1      43.080  30.723  25.562  1.00  0.00     0.005 C 
ATOM      9  C   UNL     1      43.183  29.199  25.177  1.00  0.00     0.002 C 
ATOM     10  C   UNL     1      41.899  28.319  25.560  1.00  0.00    -0.026 C 
ATOM     11  C   UNL     1      40.616  28.816  24.836  1.00  0.00     0.010 C 
ATOM     12  C   UNL     1      39.368  27.956  25.097  1.00  0.00     0.033 C 
ATOM     13  C   UNL     1      39.578  26.480  24.738  1.00  0.00     0.120 C 
ATOM     14  C   UNL     1      40.840  25.859  25.423  1.00  0.00    -0.006 C 
ATOM     15  C   UNL     1      42.123  26.794  25.190  1.00  0.00     0.003 C 
ATOM     16  C   UNL     1      42.634  26.661  23.733  1.00  0.00     0.005 C 
ATOM     17  C   UNL     1      43.915  27.445  23.425  1.00  0.00     0.008 C 
ATOM     18  C   UNL     1      43.940  28.964  23.795  1.00  0.00    -0.024 C 
ATOM     19  C   UNL     1      43.466  29.973  22.567  1.00  0.00    -0.024 C 
ATOM     20  C   UNL     1      42.600  29.307  21.415  1.00  0.00     0.008 C 
ATOM     21  C   UNL     1      41.328  30.071  20.970  1.00  0.00     0.010 C 
ATOM     22  C   UNL     1      44.729  30.539  21.820  1.00  0.00     0.012 C 
ATOM     23  C   UNL     1      45.465  29.211  24.148  1.00  0.00     0.012 C 
ATOM     24  C   UNL     1      40.574  25.607  26.936  1.00  0.00     0.014 C 
ATOM     25  C   UNL     1      41.069  24.441  24.817  1.00  0.00     0.014 C 
ATOM     26  C   UNL     1      41.724  28.461  27.120  1.00  0.00     0.012 C 
ENDROOT
BRANCH   1  27
ATOM     27  C   UNL     1      41.928  34.676  23.108  1.00  0.00    -0.077 C 
ATOM     28  C   UNL     1      42.997  35.329  22.267  1.00  0.00     0.039 C 
ATOM     29  C   UNL     1      41.535  35.332  24.218  1.00  0.00     0.008 C 
ENDBRANCH   1  27
BRANCH   4  30
ATOM     30  C   UNL     1      42.210  31.902  19.454  1.00  0.00     0.163 C 
BRANCH  30  31
ATOM     31  O   UNL     1      41.331  31.730  18.371  1.00  0.00    -0.396 OA
ATOM     32  H   UNL     1      41.106  32.633  18.027  1.00  0.00     0.210 HD
ENDBRANCH  30  31
ENDBRANCH   4  30
BRANCH  13  33
ATOM     33  O   UNL     1      38.415  25.770  25.092  1.00  0.00    -0.393 OA
ATOM     34  H   UNL     1      37.781  25.844  24.331  1.00  0.00     0.210 HD
ENDBRANCH  13  33
TORSDOF 4
ENDMDL
MODEL 6
REMARK VINA RESULT:    -5.864      5.438      7.898
REMARK INTER + INTRA:          -7.533
REMARK INTER:                  -7.124
REMARK INTRA:                  -0.409
REMARK UNBOUND:                -0.641
REMARK SMILES C=C(C)[C@H]1CC[C@]2(CO)CC[C@@]3(C)[C@@H](CC[C@H]4[C@@]5(C)CC[C@H](O)C(C)(C)[C@H]5CC[C@]43C)[C@H]12
REMARK SMILES IDX 4 1 5 2 6 3 7 4 32 5 14 6 15 7 16 8 17 9 18 10 20 11 21 12
REMARK SMILES IDX 22 13 24 14 27 15 28 16 29 17 30 18 12 19 11 20 10 21 13 22
REMARK SMILES IDX 31 23 25 24 26 25 19 26 2 27 3 28 1 29 8 30 9 31 23 33
REMARK H PARENT 9 32 23 34
REMARK Flexibility Score: inf
ROOT
ATOM      1  C   UNL     1      40.790  31.790  22.840  1.00  0.00     0.018 C 
ATOM      2  C   UNL     1      39.864  32.370  21.778  1.00  0.00     0.009 C 
ATOM      3  C   UNL     1      40.082  31.507  20.557  1.00  0.00     0.010 C 
ATOM      4  C   UNL     1      41.584  31.144  20.552  1.00  0.00    -0.003 C 
ATOM      5  C   UNL     1      42.033  31.251  22.059  1.00  0.00     0.008 C 
ATOM      6  C   UNL     1      42.534  29.872  22.617  1.00  0.00    -0.000 C 
ATOM      7  C   UNL     1      42.872  29.859  24.109  1.00  0.00     0.005 C 
ATOM      8  C   UNL     1      42.837  28.421  24.643  1.00  0.00     0.005 C 
ATOM      9  C   UNL     1      43.345  27.296  23.664  1.00  0.00     0.002 C 
ATOM     10  C   UNL     1      42.282  26.136  23.361  1.00  0.00    -0.026 C 
ATOM     11  C   UNL     1      40.996  26.689  22.683  1.00  0.00     0.010 C 
ATOM     12  C   UNL     1      39.974  25.610  22.288  1.00  0.00     0.033 C 
ATOM     13  C   UNL     1      40.570  24.532  21.374  1.00  0.00     0.120 C 
ATOM     14  C   UNL     1      41.870  23.887  21.959  1.00  0.00    -0.006 C 
ATOM     15  C   UNL     1      42.904  25.024  22.418  1.00  0.00     0.003 C 
ATOM     16  C   UNL     1      43.576  25.677  21.183  1.00  0.00     0.005 C 
ATOM     17  C   UNL     1      44.653  26.717  21.511  1.00  0.00     0.008 C 
ATOM     18  C   UNL     1      44.272  27.867  22.501  1.00  0.00    -0.024 C 
ATOM     19  C   UNL     1      43.693  29.236  21.765  1.00  0.00    -0.024 C 
ATOM     20  C   UNL     1      43.136  29.051  20.290  1.00  0.00     0.008 C 
ATOM     21  C   UNL     1      41.767  29.707  19.976  1.00  0.00     0.010 C 
ATOM     22  C   UNL     1      44.850  30.290  21.608  1.00  0.00     0.012 C 
ATOM     23  C   UNL     1      45.648  28.174  23.224  1.00  0.00     0.012 C 
ATOM     24  C   UNL     1      41.522  22.916  23.125  1.00  0.00     0.014 C 
ATOM     25  C   UNL     1      42.495  22.979  20.857  1.00  0.00     0.014 C 
ATOM     26  C   UNL     1      41.921  25.500  24.757  1.00  0.00     0.012 C 
ENDROOT
BRANCH   1  27
ATOM     27  C   UNL     1      41.015  32.803  23.974  1.00  0.00    -0.077 C 
ATOM     28  C   UNL     1      41.118  34.265  23.616  1.00  0.00     0.039 C 
ATOM     29  C   UNL     1      41.061  32.487  25.283  1.00  0.00     0.008 C 
ENDBRANCH   1  27
BRANCH   4  30
ATOM     30  C   UNL     1      42.327  32.153  19.617  1.00  0.00     0.163 C 
BRANCH  30  31
ATOM     31  O   UNL     1      41.903  32.037  18.282  1.00  0.00    -0.396 OA
ATOM     32  H   UNL     1      42.542  31.434  17.821  1.00  0.00     0.210 HD
ENDBRANCH  30  31
ENDBRANCH   4  30
BRANCH  13  33
ATOM     33  O   UNL     1      39.585  23.554  21.143  1.00  0.00    -0.393 OA
ATOM     34  H   UNL     1      39.449  23.064  21.996  1.00  0.00     0.210 HD
ENDBRANCH  13  33
TORSDOF 4
ENDMDL
MODEL 7
REMARK VINA RESULT:    -5.850      5.552      8.802
REMARK INTER + INTRA:          -7.517
REMARK INTER:                  -6.837
REMARK INTRA:                  -0.679
REMARK UNBOUND:                -0.641
REMARK SMILES C=C(C)[C@H]1CC[C@]2(CO)CC[C@@]3(C)[C@@H](CC[C@H]4[C@@]5(C)CC[C@H](O)C(C)(C)[C@H]5CC[C@]43C)[C@H]12
REMARK SMILES IDX 4 1 5 2 6 3 7 4 32 5 14 6 15 7 16 8 17 9 18 10 20 11 21 12
REMARK SMILES IDX 22 13 24 14 27 15 28 16 29 17 30 18 12 19 11 20 10 21 13 22
REMARK SMILES IDX 31 23 25 24 26 25 19 26 2 27 3 28 1 29 8 30 9 31 23 33
REMARK H PARENT 9 32 23 34
REMARK Flexibility Score: inf
ROOT
ATOM      1  C   UNL     1      42.493  29.373  21.651  1.00  0.00     0.018 C 
ATOM      2  C   UNL     1      43.876  29.753  21.135  1.00  0.00     0.009 C 
ATOM      3  C   UNL     1      44.804  28.700  21.694  1.00  0.00     0.010 C 
ATOM      4  C   UNL     1      44.268  28.362  23.104  1.00  0.00    -0.003 C 
ATOM      5  C   UNL     1      42.736  28.727  23.054  1.00  0.00     0.008 C 
ATOM      6  C   UNL     1      41.829  27.469  23.295  1.00  0.00    -0.000 C 
ATOM      7  C   UNL     1      40.326  27.712  23.141  1.00  0.00     0.005 C 
ATOM      8  C   UNL     1      39.603  26.384  22.880  1.00  0.00     0.005 C 
ATOM      9  C   UNL     1      40.170  25.117  23.626  1.00  0.00     0.002 C 
ATOM     10  C   UNL     1      40.604  23.908  22.668  1.00  0.00    -0.026 C 
ATOM     11  C   UNL     1      41.739  24.321  21.688  1.00  0.00     0.010 C 
ATOM     12  C   UNL     1      42.257  23.176  20.801  1.00  0.00     0.033 C 
ATOM     13  C   UNL     1      42.743  21.969  21.613  1.00  0.00     0.120 C 
ATOM     14  C   UNL     1      41.675  21.450  22.631  1.00  0.00    -0.006 C 
ATOM     15  C   UNL     1      41.102  22.662  23.512  1.00  0.00     0.003 C 
ATOM     16  C   UNL     1      42.146  23.107  24.568  1.00  0.00     0.005 C 
ATOM     17  C   UNL     1      41.666  24.203  25.526  1.00  0.00     0.008 C 
ATOM     18  C   UNL     1      41.052  25.497  24.897  1.00  0.00    -0.024 C 
ATOM     19  C   UNL     1      42.149  26.715  24.638  1.00  0.00    -0.024 C 
ATOM     20  C   UNL     1      43.673  26.276  24.572  1.00  0.00     0.008 C 
ATOM     21  C   UNL     1      44.511  26.851  23.402  1.00  0.00     0.010 C 
ATOM     22  C   UNL     1      42.097  27.744  25.827  1.00  0.00     0.012 C 
ATOM     23  C   UNL     1      39.987  25.941  25.983  1.00  0.00     0.012 C 
ATOM     24  C   UNL     1      40.540  20.684  21.892  1.00  0.00     0.014 C 
ATOM     25  C   UNL     1      42.355  20.378  23.537  1.00  0.00     0.014 C 
ATOM     26  C   UNL     1      39.312  23.511  21.856  1.00  0.00     0.012 C 
ENDROOT
BRANCH   1  27
ATOM     27  C   UNL     1      41.529  30.565  21.545  1.00  0.00    -0.077 C 
ATOM     28  C   UNL     1      41.093  31.247  22.818  1.00  0.00     0.039 C 
ATOM     29  C   UNL     1      41.092  31.093  20.384  1.00  0.00     0.008 C 
ENDBRANCH   1  27
BRANCH   4  30
ATOM     30  C   UNL     1      45.068  29.209  24.146  1.00  0.00     0.163 C 
BRANCH  30  31
ATOM     31  O   UNL     1      44.300  30.271  24.655  1.00  0.00    -0.396 OA
ATOM     32  H   UNL     1      44.073  30.046  25.595  1.00  0.00     0.210 HD
ENDBRANCH  30  31
ENDBRANCH   4  30
BRANCH  13  33
ATOM     33  O   UNL     1      43.114  20.952  20.713  1.00  0.00    -0.393 OA
ATOM     34  H   UNL     1      43.833  21.318  20.134  1.00  0.00     0.210 HD
ENDBRANCH  13  33
TORSDOF 4
ENDMDL
MODEL 8
REMARK VINA RESULT:    -5.832      1.927      6.888
REMARK INTER + INTRA:          -7.495
REMARK INTER:                  -6.812
REMARK INTRA:                  -0.684
REMARK UNBOUND:                -0.641
REMARK SMILES C=C(C)[C@H]1CC[C@]2(CO)CC[C@@]3(C)[C@@H](CC[C@H]4[C@@]5(C)CC[C@H](O)C(C)(C)[C@H]5CC[C@]43C)[C@H]12
REMARK SMILES IDX 4 1 5 2 6 3 7 4 32 5 14 6 15 7 16 8 17 9 18 10 20 11 21 12
REMARK SMILES IDX 22 13 24 14 27 15 28 16 29 17 30 18 12 19 11 20 10 21 13 22
REMARK SMILES IDX 31 23 25 24 26 25 19 26 2 27 3 28 1 29 8 30 9 31 23 33
REMARK H PARENT 9 32 23 34
REMARK Flexibility Score: inf
ROOT
ATOM      1  C   UNL     1      50.408  27.035  18.181  1.00  0.00     0.018 C 
ATOM      2  C   UNL     1      50.528  25.648  17.561  1.00  0.00     0.009 C 
ATOM      3  C   UNL     1      50.005  24.702  18.617  1.00  0.00     0.010 C 
ATOM      4  C   UNL     1      50.455  25.286  19.976  1.00  0.00    -0.003 C 
ATOM      5  C   UNL     1      50.643  26.829  19.712  1.00  0.00     0.008 C 
ATOM      6  C   UNL     1      49.666  27.692  20.586  1.00  0.00    -0.000 C 
ATOM      7  C   UNL     1      49.697  29.195  20.302  1.00  0.00     0.005 C 
ATOM      8  C   UNL     1      48.399  29.850  20.795  1.00  0.00     0.005 C 
ATOM      9  C   UNL     1      47.776  29.265  22.119  1.00  0.00     0.002 C 
ATOM     10  C   UNL     1      46.269  28.738  21.980  1.00  0.00    -0.026 C 
ATOM     11  C   UNL     1      46.150  27.579  20.951  1.00  0.00     0.010 C 
ATOM     12  C   UNL     1      44.741  26.974  20.838  1.00  0.00     0.033 C 
ATOM     13  C   UNL     1      44.199  26.475  22.183  1.00  0.00     0.120 C 
ATOM     14  C   UNL     1      44.254  27.564  23.304  1.00  0.00    -0.006 C 
ATOM     15  C   UNL     1      45.713  28.227  23.374  1.00  0.00     0.003 C 
ATOM     16  C   UNL     1      46.721  27.251  24.033  1.00  0.00     0.005 C 
ATOM     17  C   UNL     1      48.131  27.818  24.232  1.00  0.00     0.008 C 
ATOM     18  C   UNL     1      48.837  28.457  22.992  1.00  0.00    -0.024 C 
ATOM     19  C   UNL     1      49.782  27.402  22.127  1.00  0.00    -0.024 C 
ATOM     20  C   UNL     1      49.469  25.859  22.333  1.00  0.00     0.008 C 
ATOM     21  C   UNL     1      49.366  24.994  21.052  1.00  0.00     0.010 C 
ATOM     22  C   UNL     1      51.286  27.550  22.564  1.00  0.00     0.012 C 
ATOM     23  C   UNL     1      49.735  29.587  23.645  1.00  0.00     0.012 C 
ATOM     24  C   UNL     1      43.143  28.633  23.084  1.00  0.00     0.014 C 
ATOM     25  C   UNL     1      43.888  26.882  24.657  1.00  0.00     0.014 C 
ATOM     26  C   UNL     1      45.419  29.975  21.497  1.00  0.00     0.012 C 
ENDROOT
BRANCH   1  27
ATOM     27  C   UNL     1      51.291  28.042  17.428  1.00  0.00    -0.077 C 
ATOM     28  C   UNL     1      52.780  27.803  17.397  1.00  0.00     0.039 C 
ATOM     29  C   UNL     1      50.824  29.097  16.730  1.00  0.00     0.008 C 
ENDBRANCH   1  27
BRANCH   4  30
ATOM     30  C   UNL     1      51.778  24.570  20.400  1.00  0.00     0.163 C 
BRANCH  30  31
ATOM     31  O   UNL     1      52.891  25.420  20.287  1.00  0.00    -0.396 OA
ATOM     32  H   UNL     1      52.828  26.088  21.018  1.00  0.00     0.210 HD
ENDBRANCH  30  31
ENDBRANCH   4  30
BRANCH  13  33
ATOM     33  O   UNL     1      42.881  26.022  21.988  1.00  0.00    -0.393 OA
ATOM     34  H   UNL     1      42.289  26.818  22.009  1.00  0.00     0.210 HD
ENDBRANCH  13  33
TORSDOF 4
ENDMDL
MODEL 9
REMARK VINA RESULT:    -5.697      7.463     11.479
REMARK INTER + INTRA:          -7.337
REMARK INTER:                  -6.650
REMARK INTRA:                  -0.688
REMARK UNBOUND:                -0.641
REMARK SMILES C=C(C)[C@H]1CC[C@]2(CO)CC[C@@]3(C)[C@@H](CC[C@H]4[C@@]5(C)CC[C@H](O)C(C)(C)[C@H]5CC[C@]43C)[C@H]12
REMARK SMILES IDX 4 1 5 2 6 3 7 4 32 5 14 6 15 7 16 8 17 9 18 10 20 11 21 12
REMARK SMILES IDX 22 13 24 14 27 15 28 16 29 17 30 18 12 19 11 20 10 21 13 22
REMARK SMILES IDX 31 23 25 24 26 25 19 26 2 27 3 28 1 29 8 30 9 31 23 33
REMARK H PARENT 9 32 23 34
REMARK Flexibility Score: inf
ROOT
ATOM      1  C   UNL     1      41.030  23.063  23.105  1.00  0.00     0.018 C 
ATOM      2  C   UNL     1      39.789  22.748  22.278  1.00  0.00     0.009 C 
ATOM      3  C   UNL     1      38.663  23.480  22.970  1.00  0.00     0.010 C 
ATOM      4  C   UNL     1      38.964  23.395  24.484  1.00  0.00    -0.003 C 
ATOM      5  C   UNL     1      40.525  23.201  24.578  1.00  0.00     0.008 C 
ATOM      6  C   UNL     1      41.215  24.391  25.334  1.00  0.00    -0.000 C 
ATOM      7  C   UNL     1      42.744  24.343  25.363  1.00  0.00     0.005 C 
ATOM      8  C   UNL     1      43.308  25.744  25.638  1.00  0.00     0.005 C 
ATOM      9  C   UNL     1      42.485  26.650  26.630  1.00  0.00     0.002 C 
ATOM     10  C   UNL     1      42.017  28.059  26.026  1.00  0.00    -0.026 C 
ATOM     11  C   UNL     1      41.084  27.883  24.795  1.00  0.00     0.010 C 
ATOM     12  C   UNL     1      40.533  29.201  24.224  1.00  0.00     0.033 C 
ATOM     13  C   UNL     1      39.789  30.037  25.273  1.00  0.00     0.120 C 
ATOM     14  C   UNL     1      40.637  30.294  26.561  1.00  0.00    -0.006 C 
ATOM     15  C   UNL     1      41.251  28.920  27.114  1.00  0.00     0.003 C 
ATOM     16  C   UNL     1      40.151  28.070  27.799  1.00  0.00     0.005 C 
ATOM     17  C   UNL     1      40.648  26.772  28.445  1.00  0.00     0.008 C 
ATOM     18  C   UNL     1      41.506  25.806  27.563  1.00  0.00    -0.024 C 
ATOM     19  C   UNL     1      40.627  24.644  26.771  1.00  0.00    -0.024 C 
ATOM     20  C   UNL     1      39.079  24.945  26.592  1.00  0.00     0.008 C 
ATOM     21  C   UNL     1      38.482  24.703  25.182  1.00  0.00     0.010 C 
ATOM     22  C   UNL     1      40.665  23.298  27.584  1.00  0.00     0.012 C 
ATOM     23  C   UNL     1      42.474  25.135  28.623  1.00  0.00     0.012 C 
ATOM     24  C   UNL     1      41.744  31.354  26.286  1.00  0.00     0.014 C 
ATOM     25  C   UNL     1      39.709  30.956  27.625  1.00  0.00     0.014 C 
ATOM     26  C   UNL     1      43.337  28.807  25.597  1.00  0.00     0.012 C 
ENDROOT
BRANCH   1  27
ATOM     27  C   UNL     1      42.152  22.058  22.802  1.00  0.00    -0.077 C 
ATOM     28  C   UNL     1      42.134  20.729  23.517  1.00  0.00     0.039 C 
ATOM     29  C   UNL     1      43.124  22.249  21.887  1.00  0.00     0.008 C 
ENDBRANCH   1  27
BRANCH   4  30
ATOM     30  C   UNL     1      38.159  22.191  25.074  1.00  0.00     0.163 C 
BRANCH  30  31
ATOM     31  O   UNL     1      39.007  21.153  25.496  1.00  0.00    -0.396 OA
ATOM     32  H   UNL     1      39.886  21.561  25.714  1.00  0.00     0.210 HD
ENDBRANCH  30  31
ENDBRANCH   4  30
BRANCH  13  33
ATOM     33  O   UNL     1      39.402  31.251  24.676  1.00  0.00    -0.393 OA
ATOM     34  H   UNL     1      39.063  31.841  25.399  1.00  0.00     0.210 HD
ENDBRANCH  13  33
TORSDOF 4
ENDMDL
