MODEL 1
REMARK VINA RESULT:    -3.072      0.000      0.000
REMARK INTER + INTRA:          -7.884
REMARK INTER:                  -5.587
REMARK INTRA:                  -2.297
REMARK UNBOUND:                -2.297
REMARK SMILES CCCCCCCCCCCCCCCC(=O)[O-]
REMARK SMILES IDX 9 1 10 2 11 3 12 4 13 5 14 6 15 7 16 8 17 9 18 10 8 11 7 12
REMARK SMILES IDX 6 13 5 14 4 15 3 16 2 17 1 18
REMARK H PARENT
REMARK Flexibility Score: inf
ROOT
ATOM      1  C   UNL     1      58.102  16.155  50.536  1.00  0.00     0.000 C 
ENDROOT
BRANCH   1   2
ATOM      2  C   UNL     1      59.460  16.231  51.260  1.00  0.00     0.000 C 
BRANCH   2   3
ATOM      3  C   UNL     1      60.477  17.220  50.661  1.00  0.00     0.000 C 
BRANCH   3   4
ATOM      4  C   UNL     1      60.785  18.403  51.594  1.00  0.00     0.000 C 
BRANCH   4   5
ATOM      5  C   UNL     1      61.194  19.678  50.833  1.00  0.00     0.000 C 
BRANCH   5   6
ATOM      6  C   UNL     1      60.147  20.213  49.834  1.00  0.00     0.006 C 
BRANCH   6   7
ATOM      7  C   UNL     1      60.708  21.164  48.765  1.00  0.00     0.053 C 
BRANCH   7   8
ATOM      8  C   UNL     1      61.046  22.508  49.333  1.00  0.00     0.041 C 
ATOM      9  O   UNL     1      62.231  22.777  49.663  1.00  0.00    -0.550 OA
ATOM     10  O   UNL     1      60.046  23.451  49.528  1.00  0.00    -0.550 OA
ENDBRANCH   7   8
ENDBRANCH   6   7
ENDBRANCH   5   6
ENDBRANCH   4   5
ENDBRANCH   3   4
ENDBRANCH   2   3
ENDBRANCH   1   2
BRANCH   1  11
ATOM     11  C   UNL     1      57.905  17.283  49.511  1.00  0.00     0.000 C 
BRANCH  11  12
ATOM     12  C   UNL     1      56.672  18.156  49.810  1.00  0.00    -0.000 C 
BRANCH  12  13
ATOM     13  C   UNL     1      56.323  18.319  51.303  1.00  0.00    -0.000 C 
BRANCH  13  14
ATOM     14  C   UNL     1      57.206  19.309  52.084  1.00  0.00    -0.000 C 
BRANCH  14  15
ATOM     15  C   UNL     1      57.534  18.823  53.506  1.00  0.00    -0.000 C 
BRANCH  15  16
ATOM     16  C   UNL     1      56.825  17.505  53.867  1.00  0.00    -0.000 C 
BRANCH  16  17
ATOM     17  C   UNL     1      57.426  16.749  55.065  1.00  0.00    -0.003 C 
ATOM     18  C   UNL     1      58.847  16.248  54.806  1.00  0.00     0.004 C 
ENDBRANCH  16  17
ENDBRANCH  15  16
ENDBRANCH  14  15
ENDBRANCH  13  14
ENDBRANCH  12  13
ENDBRANCH  11  12
ENDBRANCH   1  11
TORSDOF 14
ENDMDL
MODEL 2
REMARK VINA RESULT:    -2.971     15.322     17.495
REMARK INTER + INTRA:          -7.700
REMARK INTER:                  -6.119
REMARK INTRA:                  -1.581
REMARK UNBOUND:                -2.297
REMARK SMILES CCCCCCCCCCCCCCCC(=O)[O-]
REMARK SMILES IDX 9 1 10 2 11 3 12 4 13 5 14 6 15 7 16 8 17 9 18 10 8 11 7 12
REMARK SMILES IDX 6 13 5 14 4 15 3 16 2 17 1 18
REMARK H PARENT
REMARK Flexibility Score: inf
ROOT
ATOM      1  C   UNL     1      72.246  27.826  60.257  1.00  0.00     0.000 C 
ENDROOT
BRANCH   1   2
ATOM      2  C   UNL     1      72.716  28.512  61.554  1.00  0.00     0.000 C 
BRANCH   2   3
ATOM      3  C   UNL     1      73.009  30.019  61.438  1.00  0.00     0.000 C 
BRANCH   3   4
ATOM      4  C   UNL     1      72.777  30.570  60.021  1.00  0.00     0.000 C 
BRANCH   4   5
ATOM      5  C   UNL     1      71.696  31.665  59.972  1.00  0.00     0.000 C 
BRANCH   5   6
ATOM      6  C   UNL     1      70.699  31.556  58.800  1.00  0.00     0.006 C 
BRANCH   6   7
ATOM      7  C   UNL     1      70.947  30.370  57.855  1.00  0.00     0.053 C 
BRANCH   7   8
ATOM      8  C   UNL     1      69.673  29.681  57.474  1.00  0.00     0.041 C 
ATOM      9  O   UNL     1      69.691  28.485  57.083  1.00  0.00    -0.550 OA
ATOM     10  O   UNL     1      68.469  30.372  57.520  1.00  0.00    -0.550 OA
ENDBRANCH   7   8
ENDBRANCH   6   7
ENDBRANCH   5   6
ENDBRANCH   4   5
ENDBRANCH   3   4
ENDBRANCH   2   3
ENDBRANCH   1   2
BRANCH   1  11
ATOM     11  C   UNL     1      70.748  27.481  60.268  1.00  0.00     0.000 C 
BRANCH  11  12
ATOM     12  C   UNL     1      69.902  28.511  61.039  1.00  0.00    -0.000 C 
BRANCH  12  13
ATOM     13  C   UNL     1      68.442  28.096  61.313  1.00  0.00    -0.000 C 
BRANCH  13  14
ATOM     14  C   UNL     1      67.501  28.142  60.095  1.00  0.00    -0.000 C 
BRANCH  14  15
ATOM     15  C   UNL     1      66.034  28.392  60.484  1.00  0.00    -0.000 C 
BRANCH  15  16
ATOM     16  C   UNL     1      65.378  29.511  59.655  1.00  0.00    -0.000 C 
BRANCH  16  17
ATOM     17  C   UNL     1      64.222  30.247  60.355  1.00  0.00    -0.003 C 
ATOM     18  C   UNL     1      64.148  31.730  59.993  1.00  0.00     0.004 C 
ENDBRANCH  16  17
ENDBRANCH  15  16
ENDBRANCH  14  15
ENDBRANCH  13  14
ENDBRANCH  12  13
ENDBRANCH  11  12
ENDBRANCH   1  11
TORSDOF 14
ENDMDL
MODEL 3
REMARK VINA RESULT:    -2.923      1.199      2.141
REMARK INTER + INTRA:          -7.612
REMARK INTER:                  -5.355
REMARK INTRA:                  -2.258
REMARK UNBOUND:                -2.297
REMARK SMILES CCCCCCCCCCCCCCCC(=O)[O-]
REMARK SMILES IDX 9 1 10 2 11 3 12 4 13 5 14 6 15 7 16 8 17 9 18 10 8 11 7 12
REMARK SMILES IDX 6 13 5 14 4 15 3 16 2 17 1 18
REMARK H PARENT
REMARK Flexibility Score: inf
ROOT
ATOM      1  C   UNL     1      60.091  17.190  50.627  1.00  0.00     0.000 C 
ENDROOT
BRANCH   1   2
ATOM      2  C   UNL     1      60.398  18.139  51.800  1.00  0.00     0.000 C 
BRANCH   2   3
ATOM      3  C   UNL     1      60.150  19.634  51.526  1.00  0.00     0.000 C 
BRANCH   3   4
ATOM      4  C   UNL     1      60.187  19.984  50.029  1.00  0.00     0.000 C 
BRANCH   4   5
ATOM      5  C   UNL     1      61.314  20.971  49.671  1.00  0.00     0.000 C 
BRANCH   5   6
ATOM      6  C   UNL     1      60.850  22.300  49.039  1.00  0.00     0.006 C 
BRANCH   6   7
ATOM      7  C   UNL     1      60.868  23.505  49.992  1.00  0.00     0.053 C 
BRANCH   7   8
ATOM      8  C   UNL     1      59.489  23.894  50.428  1.00  0.00     0.041 C 
ATOM      9  O   UNL     1      58.997  23.412  51.483  1.00  0.00    -0.550 OA
ATOM     10  O   UNL     1      58.734  24.764  49.652  1.00  0.00    -0.550 OA
ENDBRANCH   7   8
ENDBRANCH   6   7
ENDBRANCH   5   6
ENDBRANCH   4   5
ENDBRANCH   3   4
ENDBRANCH   2   3
ENDBRANCH   1   2
BRANCH   1  11
ATOM     11  C   UNL     1      58.813  16.362  50.842  1.00  0.00     0.000 C 
BRANCH  11  12
ATOM     12  C   UNL     1      57.722  16.663  49.798  1.00  0.00    -0.000 C 
BRANCH  12  13
ATOM     13  C   UNL     1      57.022  18.029  49.947  1.00  0.00    -0.000 C 
BRANCH  13  14
ATOM     14  C   UNL     1      56.114  18.176  51.182  1.00  0.00    -0.000 C 
BRANCH  14  15
ATOM     15  C   UNL     1      56.485  19.386  52.055  1.00  0.00    -0.000 C 
BRANCH  15  16
ATOM     16  C   UNL     1      57.056  18.982  53.427  1.00  0.00    -0.000 C 
BRANCH  16  17
ATOM     17  C   UNL     1      56.881  17.497  53.794  1.00  0.00    -0.003 C 
ATOM     18  C   UNL     1      58.130  16.885  54.426  1.00  0.00     0.004 C 
ENDBRANCH  16  17
ENDBRANCH  15  16
ENDBRANCH  14  15
ENDBRANCH  13  14
ENDBRANCH  12  13
ENDBRANCH  11  12
ENDBRANCH   1  11
TORSDOF 14
ENDMDL
MODEL 4
REMARK VINA RESULT:    -2.909     14.344     16.629
REMARK INTER + INTRA:          -7.588
REMARK INTER:                  -5.954
REMARK INTRA:                  -1.634
REMARK UNBOUND:                -2.297
REMARK SMILES CCCCCCCCCCCCCCCC(=O)[O-]
REMARK SMILES IDX 9 1 10 2 11 3 12 4 13 5 14 6 15 7 16 8 17 9 18 10 8 11 7 12
REMARK SMILES IDX 6 13 5 14 4 15 3 16 2 17 1 18
REMARK H PARENT
REMARK Flexibility Score: inf
ROOT
ATOM      1  C   UNL     1      63.367  29.680  61.086  1.00  0.00     0.000 C 
ENDROOT
BRANCH   1   2
ATOM      2  C   UNL     1      62.321  28.606  60.734  1.00  0.00     0.000 C 
BRANCH   2   3
ATOM      3  C   UNL     1      60.869  29.107  60.617  1.00  0.00     0.000 C 
BRANCH   3   4
ATOM      4  C   UNL     1      60.451  29.402  59.167  1.00  0.00     0.000 C 
BRANCH   4   5
ATOM      5  C   UNL     1      60.722  30.859  58.748  1.00  0.00     0.000 C 
BRANCH   5   6
ATOM      6  C   UNL     1      59.694  31.465  57.770  1.00  0.00     0.006 C 
BRANCH   6   7
ATOM      7  C   UNL     1      60.178  32.721  57.028  1.00  0.00     0.053 C 
BRANCH   7   8
ATOM      8  C   UNL     1      59.306  33.906  57.306  1.00  0.00     0.041 C 
ATOM      9  O   UNL     1      59.036  34.230  58.492  1.00  0.00    -0.550 OA
ATOM     10  O   UNL     1      58.764  34.632  56.254  1.00  0.00    -0.550 OA
ENDBRANCH   7   8
ENDBRANCH   6   7
ENDBRANCH   5   6
ENDBRANCH   4   5
ENDBRANCH   3   4
ENDBRANCH   2   3
ENDBRANCH   1   2
BRANCH   1  11
ATOM     11  C   UNL     1      64.548  29.713  60.102  1.00  0.00     0.000 C 
BRANCH  11  12
ATOM     12  C   UNL     1      64.519  30.940  59.172  1.00  0.00    -0.000 C 
BRANCH  12  13
ATOM     13  C   UNL     1      64.000  32.244  59.813  1.00  0.00    -0.000 C 
BRANCH  13  14
ATOM     14  C   UNL     1      63.642  33.369  58.825  1.00  0.00    -0.000 C 
BRANCH  14  15
ATOM     15  C   UNL     1      62.517  34.282  59.342  1.00  0.00    -0.000 C 
BRANCH  15  16
ATOM     16  C   UNL     1      63.039  35.616  59.905  1.00  0.00    -0.000 C 
BRANCH  16  17
ATOM     17  C   UNL     1      62.862  35.796  61.424  1.00  0.00    -0.003 C 
ATOM     18  C   UNL     1      64.114  35.433  62.221  1.00  0.00     0.004 C 
ENDBRANCH  16  17
ENDBRANCH  15  16
ENDBRANCH  14  15
ENDBRANCH  13  14
ENDBRANCH  12  13
ENDBRANCH  11  12
ENDBRANCH   1  11
TORSDOF 14
ENDMDL
MODEL 5
REMARK VINA RESULT:    -2.834      8.227     11.462
REMARK INTER + INTRA:          -7.451
REMARK INTER:                  -4.974
REMARK INTRA:                  -2.477
REMARK UNBOUND:                -2.297
REMARK SMILES CCCCCCCCCCCCCCCC(=O)[O-]
REMARK SMILES IDX 9 1 10 2 11 3 12 4 13 5 14 6 15 7 16 8 17 9 18 10 8 11 7 12
REMARK SMILES IDX 6 13 5 14 4 15 3 16 2 17 1 18
REMARK H PARENT
REMARK Flexibility Score: inf
ROOT
ATOM      1  C   UNL     1      57.433  28.140  52.024  1.00  0.00     0.000 C 
ENDROOT
BRANCH   1   2
ATOM      2  C   UNL     1      56.385  28.028  50.900  1.00  0.00     0.000 C 
BRANCH   2   3
ATOM      3  C   UNL     1      56.501  29.077  49.779  1.00  0.00     0.000 C 
BRANCH   3   4
ATOM      4  C   UNL     1      55.357  30.105  49.798  1.00  0.00     0.000 C 
BRANCH   4   5
ATOM      5  C   UNL     1      54.303  29.810  50.882  1.00  0.00     0.000 C 
BRANCH   5   6
ATOM      6  C   UNL     1      54.132  30.910  51.951  1.00  0.00     0.006 C 
BRANCH   6   7
ATOM      7  C   UNL     1      55.026  30.745  53.190  1.00  0.00     0.053 C 
BRANCH   7   8
ATOM      8  C   UNL     1      55.926  31.925  53.391  1.00  0.00     0.041 C 
ATOM      9  O   UNL     1      56.651  32.338  52.447  1.00  0.00    -0.550 OA
ATOM     10  O   UNL     1      55.990  32.548  54.630  1.00  0.00    -0.550 OA
ENDBRANCH   7   8
ENDBRANCH   6   7
ENDBRANCH   5   6
ENDBRANCH   4   5
ENDBRANCH   3   4
ENDBRANCH   2   3
ENDBRANCH   1   2
BRANCH   1  11
ATOM     11  C   UNL     1      58.389  29.329  51.837  1.00  0.00     0.000 C 
BRANCH  11  12
ATOM     12  C   UNL     1      59.867  28.945  52.034  1.00  0.00    -0.000 C 
BRANCH  12  13
ATOM     13  C   UNL     1      60.490  28.108  50.898  1.00  0.00    -0.000 C 
BRANCH  13  14
ATOM     14  C   UNL     1      60.237  28.633  49.473  1.00  0.00    -0.000 C 
BRANCH  14  15
ATOM     15  C   UNL     1      59.537  27.601  48.573  1.00  0.00    -0.000 C 
BRANCH  15  16
ATOM     16  C   UNL     1      59.677  26.159  49.094  1.00  0.00    -0.000 C 
BRANCH  16  17
ATOM     17  C   UNL     1      58.348  25.424  49.339  1.00  0.00    -0.003 C 
ATOM     18  C   UNL     1      58.307  24.691  50.680  1.00  0.00     0.004 C 
ENDBRANCH  16  17
ENDBRANCH  15  16
ENDBRANCH  14  15
ENDBRANCH  13  14
ENDBRANCH  12  13
ENDBRANCH  11  12
ENDBRANCH   1  11
TORSDOF 14
ENDMDL
MODEL 6
REMARK VINA RESULT:    -2.831      7.739     10.018
REMARK INTER + INTRA:          -7.446
REMARK INTER:                  -5.597
REMARK INTRA:                  -1.849
REMARK UNBOUND:                -2.297
REMARK SMILES CCCCCCCCCCCCCCCC(=O)[O-]
REMARK SMILES IDX 9 1 10 2 11 3 12 4 13 5 14 6 15 7 16 8 17 9 18 10 8 11 7 12
REMARK SMILES IDX 6 13 5 14 4 15 3 16 2 17 1 18
REMARK H PARENT
REMARK Flexibility Score: inf
ROOT
ATOM      1  C   UNL     1      59.634  27.481  48.586  1.00  0.00     0.000 C 
ENDROOT
BRANCH   1   2
ATOM      2  C   UNL     1      59.167  26.069  48.986  1.00  0.00     0.000 C 
BRANCH   2   3
ATOM      3  C   UNL     1      60.274  25.121  49.484  1.00  0.00     0.000 C 
BRANCH   3   4
ATOM      4  C   UNL     1      61.470  25.866  50.100  1.00  0.00     0.000 C 
BRANCH   4   5
ATOM      5  C   UNL     1      62.782  25.640  49.324  1.00  0.00     0.000 C 
BRANCH   5   6
ATOM      6  C   UNL     1      63.262  26.839  48.480  1.00  0.00     0.006 C 
BRANCH   6   7
ATOM      7  C   UNL     1      64.749  26.797  48.095  1.00  0.00     0.053 C 
BRANCH   7   8
ATOM      8  C   UNL     1      65.016  27.528  46.815  1.00  0.00     0.041 C 
ATOM      9  O   UNL     1      64.537  28.678  46.631  1.00  0.00    -0.550 OA
ATOM     10  O   UNL     1      65.766  26.926  45.814  1.00  0.00    -0.550 OA
ENDBRANCH   7   8
ENDBRANCH   6   7
ENDBRANCH   5   6
ENDBRANCH   4   5
ENDBRANCH   3   4
ENDBRANCH   2   3
ENDBRANCH   1   2
BRANCH   1  11
ATOM     11  C   UNL     1      58.502  28.520  48.620  1.00  0.00     0.000 C 
BRANCH  11  12
ATOM     12  C   UNL     1      57.364  28.135  49.583  1.00  0.00    -0.000 C 
BRANCH  12  13
ATOM     13  C   UNL     1      57.127  29.114  50.752  1.00  0.00    -0.000 C 
BRANCH  13  14
ATOM     14  C   UNL     1      57.941  28.830  52.027  1.00  0.00    -0.000 C 
BRANCH  14  15
ATOM     15  C   UNL     1      59.152  29.766  52.182  1.00  0.00    -0.000 C 
BRANCH  15  16
ATOM     16  C   UNL     1      60.470  29.123  51.716  1.00  0.00    -0.000 C 
BRANCH  16  17
ATOM     17  C   UNL     1      61.573  30.117  51.311  1.00  0.00    -0.003 C 
ATOM     18  C   UNL     1      61.918  30.056  49.823  1.00  0.00     0.004 C 
ENDBRANCH  16  17
ENDBRANCH  15  16
ENDBRANCH  14  15
ENDBRANCH  13  14
ENDBRANCH  12  13
ENDBRANCH  11  12
ENDBRANCH   1  11
TORSDOF 14
ENDMDL
MODEL 7
REMARK VINA RESULT:    -2.829     14.282     16.201
REMARK INTER + INTRA:          -7.441
REMARK INTER:                  -5.821
REMARK INTRA:                  -1.620
REMARK UNBOUND:                -2.297
REMARK SMILES CCCCCCCCCCCCCCCC(=O)[O-]
REMARK SMILES IDX 9 1 10 2 11 3 12 4 13 5 14 6 15 7 16 8 17 9 18 10 8 11 7 12
REMARK SMILES IDX 6 13 5 14 4 15 3 16 2 17 1 18
REMARK H PARENT
REMARK Flexibility Score: inf
ROOT
ATOM      1  C   UNL     1      61.066  29.053  58.500  1.00  0.00     0.000 C 
ENDROOT
BRANCH   1   2
ATOM      2  C   UNL     1      61.565  30.290  57.729  1.00  0.00     0.000 C 
BRANCH   2   3
ATOM      3  C   UNL     1      61.168  31.650  58.332  1.00  0.00     0.000 C 
BRANCH   3   4
ATOM      4  C   UNL     1      62.358  32.613  58.478  1.00  0.00     0.000 C 
BRANCH   4   5
ATOM      5  C   UNL     1      61.936  34.094  58.472  1.00  0.00     0.000 C 
BRANCH   5   6
ATOM      6  C   UNL     1      62.959  35.074  59.084  1.00  0.00     0.006 C 
BRANCH   6   7
ATOM      7  C   UNL     1      62.737  35.387  60.571  1.00  0.00     0.053 C 
BRANCH   7   8
ATOM      8  C   UNL     1      63.912  34.986  61.409  1.00  0.00     0.041 C 
ATOM      9  O   UNL     1      64.581  33.960  61.114  1.00  0.00    -0.550 OA
ATOM     10  O   UNL     1      64.248  35.726  62.535  1.00  0.00    -0.550 OA
ENDBRANCH   7   8
ENDBRANCH   6   7
ENDBRANCH   5   6
ENDBRANCH   4   5
ENDBRANCH   3   4
ENDBRANCH   2   3
ENDBRANCH   1   2
BRANCH   1  11
ATOM     11  C   UNL     1      60.382  29.409  59.829  1.00  0.00     0.000 C 
BRANCH  11  12
ATOM     12  C   UNL     1      61.212  28.998  61.059  1.00  0.00    -0.000 C 
BRANCH  12  13
ATOM     13  C   UNL     1      62.683  28.632  60.773  1.00  0.00    -0.000 C 
BRANCH  13  14
ATOM     14  C   UNL     1      63.704  29.760  61.014  1.00  0.00    -0.000 C 
BRANCH  14  15
ATOM     15  C   UNL     1      64.657  29.965  59.825  1.00  0.00    -0.000 C 
BRANCH  15  16
ATOM     16  C   UNL     1      65.019  28.649  59.113  1.00  0.00    -0.000 C 
BRANCH  16  17
ATOM     17  C   UNL     1      65.910  27.693  59.926  1.00  0.00    -0.003 C 
ATOM     18  C   UNL     1      67.268  28.296  60.282  1.00  0.00     0.004 C 
ENDBRANCH  16  17
ENDBRANCH  15  16
ENDBRANCH  14  15
ENDBRANCH  13  14
ENDBRANCH  12  13
ENDBRANCH  11  12
ENDBRANCH   1  11
TORSDOF 14
ENDMDL
MODEL 8
REMARK VINA RESULT:    -2.822      8.025     10.766
REMARK INTER + INTRA:          -7.429
REMARK INTER:                  -5.055
REMARK INTRA:                  -2.374
REMARK UNBOUND:                -2.297
REMARK SMILES CCCCCCCCCCCCCCCC(=O)[O-]
REMARK SMILES IDX 9 1 10 2 11 3 12 4 13 5 14 6 15 7 16 8 17 9 18 10 8 11 7 12
REMARK SMILES IDX 6 13 5 14 4 15 3 16 2 17 1 18
REMARK H PARENT
REMARK Flexibility Score: inf
ROOT
ATOM      1  C   UNL     1      62.787  26.367  50.441  1.00  0.00     0.000 C 
ENDROOT
BRANCH   1   2
ATOM      2  C   UNL     1      61.287  26.116  50.680  1.00  0.00     0.000 C 
BRANCH   2   3
ATOM      3  C   UNL     1      60.568  25.301  49.588  1.00  0.00     0.000 C 
BRANCH   3   4
ATOM      4  C   UNL     1      59.363  26.039  48.982  1.00  0.00     0.000 C 
BRANCH   4   5
ATOM      5  C   UNL     1      59.690  27.488  48.572  1.00  0.00     0.000 C 
BRANCH   5   6
ATOM      6  C   UNL     1      58.601  28.528  48.904  1.00  0.00     0.006 C 
BRANCH   6   7
ATOM      7  C   UNL     1      57.385  27.966  49.656  1.00  0.00     0.053 C 
BRANCH   7   8
ATOM      8  C   UNL     1      56.503  29.054  50.187  1.00  0.00     0.041 C 
ATOM      9  O   UNL     1      56.932  29.845  51.068  1.00  0.00    -0.550 OA
ATOM     10  O   UNL     1      55.196  29.173  49.733  1.00  0.00    -0.550 OA
ENDBRANCH   7   8
ENDBRANCH   6   7
ENDBRANCH   5   6
ENDBRANCH   4   5
ENDBRANCH   3   4
ENDBRANCH   2   3
ENDBRANCH   1   2
BRANCH   1  11
ATOM     11  C   UNL     1      63.194  26.219  48.965  1.00  0.00     0.000 C 
BRANCH  11  12
ATOM     12  C   UNL     1      63.328  27.572  48.242  1.00  0.00    -0.000 C 
BRANCH  12  13
ATOM     13  C   UNL     1      64.421  28.511  48.792  1.00  0.00    -0.000 C 
BRANCH  13  14
ATOM     14  C   UNL     1      63.909  29.788  49.484  1.00  0.00    -0.000 C 
BRANCH  14  15
ATOM     15  C   UNL     1      62.390  29.976  49.339  1.00  0.00    -0.000 C 
BRANCH  15  16
ATOM     16  C   UNL     1      61.739  30.582  50.596  1.00  0.00    -0.000 C 
BRANCH  16  17
ATOM     17  C   UNL     1      61.651  29.634  51.805  1.00  0.00    -0.003 C 
ATOM     18  C   UNL     1      60.213  29.306  52.206  1.00  0.00     0.004 C 
ENDBRANCH  16  17
ENDBRANCH  15  16
ENDBRANCH  14  15
ENDBRANCH  13  14
ENDBRANCH  12  13
ENDBRANCH  11  12
ENDBRANCH   1  11
TORSDOF 14
ENDMDL
MODEL 9
REMARK VINA RESULT:    -2.805      4.079      7.877
REMARK INTER + INTRA:          -7.397
REMARK INTER:                  -6.396
REMARK INTRA:                  -1.001
REMARK UNBOUND:                -2.297
REMARK SMILES CCCCCCCCCCCCCCCC(=O)[O-]
REMARK SMILES IDX 9 1 10 2 11 3 12 4 13 5 14 6 15 7 16 8 17 9 18 10 8 11 7 12
REMARK SMILES IDX 6 13 5 14 4 15 3 16 2 17 1 18
REMARK H PARENT
REMARK Flexibility Score: inf
ROOT
ATOM      1  C   UNL     1      61.103  23.360  50.740  1.00  0.00     0.000 C 
ENDROOT
BRANCH   1   2
ATOM      2  C   UNL     1      60.382  22.028  50.461  1.00  0.00     0.000 C 
BRANCH   2   3
ATOM      3  C   UNL     1      60.731  21.353  49.121  1.00  0.00     0.000 C 
BRANCH   3   4
ATOM      4  C   UNL     1      60.021  20.003  48.925  1.00  0.00     0.000 C 
BRANCH   4   5
ATOM      5  C   UNL     1      59.623  19.336  50.255  1.00  0.00     0.000 C 
BRANCH   5   6
ATOM      6  C   UNL     1      59.198  17.857  50.149  1.00  0.00     0.006 C 
BRANCH   6   7
ATOM      7  C   UNL     1      57.831  17.629  49.485  1.00  0.00     0.053 C 
BRANCH   7   8
ATOM      8  C   UNL     1      56.699  18.022  50.385  1.00  0.00     0.041 C 
ATOM      9  O   UNL     1      55.606  18.412  49.895  1.00  0.00    -0.550 OA
ATOM     10  O   UNL     1      56.864  17.991  51.763  1.00  0.00    -0.550 OA
ENDBRANCH   7   8
ENDBRANCH   6   7
ENDBRANCH   5   6
ENDBRANCH   4   5
ENDBRANCH   3   4
ENDBRANCH   2   3
ENDBRANCH   1   2
BRANCH   1  11
ATOM     11  C   UNL     1      60.817  24.432  49.675  1.00  0.00     0.000 C 
BRANCH  11  12
ATOM     12  C   UNL     1      61.592  25.740  49.918  1.00  0.00    -0.000 C 
BRANCH  12  13
ATOM     13  C   UNL     1      60.734  27.021  49.946  1.00  0.00    -0.000 C 
BRANCH  13  14
ATOM     14  C   UNL     1      60.194  27.485  48.581  1.00  0.00    -0.000 C 
BRANCH  14  15
ATOM     15  C   UNL     1      58.868  28.255  48.695  1.00  0.00    -0.000 C 
BRANCH  15  16
ATOM     16  C   UNL     1      58.103  27.941  49.993  1.00  0.00    -0.000 C 
BRANCH  16  17
ATOM     17  C   UNL     1      56.900  26.995  49.829  1.00  0.00    -0.003 C 
ATOM     18  C   UNL     1      57.300  25.521  49.781  1.00  0.00     0.004 C 
ENDBRANCH  16  17
ENDBRANCH  15  16
ENDBRANCH  14  15
ENDBRANCH  13  14
ENDBRANCH  12  13
ENDBRANCH  11  12
ENDBRANCH   1  11
TORSDOF 14
ENDMDL
