MODEL 1
REMARK VINA RESULT:    -3.314      0.000      0.000
REMARK INTER + INTRA:          -4.646
REMARK INTER:                  -4.283
REMARK INTRA:                  -0.363
REMARK UNBOUND:                -0.363
REMARK SMILES CCO[C@@H]1O[C@@H](CO)[C@@H](O)[C@H](O)[C@H]1O
REMARK SMILES IDX 4 1 13 2 11 3 9 4 6 5 5 6 3 7 2 8 1 9 14 10 12 12 7 14 8 15
REMARK SMILES IDX 10 17
REMARK H PARENT 14 11 12 13 8 16 10 18
REMARK Flexibility Score: inf
ROOT
ATOM      1  C   UNL     1      30.174  13.668  19.871  1.00  0.00     0.281 C 
ATOM      2  C   UNL     1      29.315  12.661  20.671  1.00  0.00     0.202 C 
ATOM      3  C   UNL     1      30.062  12.126  21.926  1.00  0.00     0.179 C 
ATOM      4  C   UNL     1      31.197  13.075  22.345  1.00  0.00     0.177 C 
ATOM      5  C   UNL     1      32.145  13.343  21.128  1.00  0.00     0.178 C 
ATOM      6  O   UNL     1      31.519  13.224  19.853  1.00  0.00    -0.341 OA
ENDROOT
BRANCH   1   7
ATOM      7  O   UNL     1      29.682  13.725  18.547  1.00  0.00    -0.350 OA
BRANCH   7   8
ATOM      8  C   UNL     1      30.442  14.638  17.781  1.00  0.00     0.160 C 
ATOM      9  C   UNL     1      30.565  14.115  16.359  1.00  0.00     0.035 C 
ENDBRANCH   7   8
ENDBRANCH   1   7
BRANCH   2  10
ATOM     10  O   UNL     1      28.082  13.237  21.022  1.00  0.00    -0.385 OA
ATOM     11  H   UNL     1      27.583  12.576  21.570  1.00  0.00     0.211 HD
ENDBRANCH   2  10
BRANCH   3  12
ATOM     12  O   UNL     1      30.609  10.859  21.658  1.00  0.00    -0.387 OA
ATOM     13  H   UNL     1      30.609  10.747  20.672  1.00  0.00     0.211 HD
ENDBRANCH   3  12
BRANCH   5  14
ATOM     14  C   UNL     1      32.912  14.673  21.215  1.00  0.00     0.191 C 
BRANCH  14  15
ATOM     15  O   UNL     1      33.685  14.706  22.382  1.00  0.00    -0.394 OA
ATOM     16  H   UNL     1      33.543  13.834  22.833  1.00  0.00     0.210 HD
ENDBRANCH  14  15
ENDBRANCH   5  14
BRANCH   4  17
ATOM     17  O   UNL     1      30.634  14.269  22.834  1.00  0.00    -0.387 OA
ATOM     18  H   UNL     1      30.742  14.959  22.129  1.00  0.00     0.211 HD
ENDBRANCH   4  17
TORSDOF 7
ENDMDL
MODEL 2
REMARK VINA RESULT:    -3.229      1.542      3.997
REMARK INTER + INTRA:          -4.535
REMARK INTER:                  -4.131
REMARK INTRA:                  -0.405
REMARK UNBOUND:                -0.363
REMARK SMILES CCO[C@@H]1O[C@@H](CO)[C@@H](O)[C@H](O)[C@H]1O
REMARK SMILES IDX 4 1 13 2 11 3 9 4 6 5 5 6 3 7 2 8 1 9 14 10 12 12 7 14 8 15
REMARK SMILES IDX 10 17
REMARK H PARENT 14 11 12 13 8 16 10 18
REMARK Flexibility Score: inf
ROOT
ATOM      1  C   UNL     1      30.112  13.348  21.426  1.00  0.00     0.281 C 
ATOM      2  C   UNL     1      31.075  14.110  22.365  1.00  0.00     0.202 C 
ATOM      3  C   UNL     1      32.247  14.772  21.585  1.00  0.00     0.179 C 
ATOM      4  C   UNL     1      31.894  14.955  20.100  1.00  0.00     0.177 C 
ATOM      5  C   UNL     1      31.437  13.588  19.487  1.00  0.00     0.178 C 
ATOM      6  O   UNL     1      30.863  12.682  20.426  1.00  0.00    -0.341 OA
ENDROOT
BRANCH   1   7
ATOM      7  O   UNL     1      29.401  12.394  22.191  1.00  0.00    -0.350 OA
BRANCH   7   8
ATOM      8  C   UNL     1      30.192  11.239  22.391  1.00  0.00     0.160 C 
ATOM      9  C   UNL     1      29.370  10.006  22.051  1.00  0.00     0.035 C 
ENDBRANCH   7   8
ENDBRANCH   1   7
BRANCH   2  10
ATOM     10  O   UNL     1      30.371  15.061  23.125  1.00  0.00    -0.385 OA
ATOM     11  H   UNL     1      29.881  14.575  23.840  1.00  0.00     0.211 HD
ENDBRANCH   2  10
BRANCH   3  12
ATOM     12  O   UNL     1      33.401  13.974  21.680  1.00  0.00    -0.387 OA
ATOM     13  H   UNL     1      34.097  14.402  21.118  1.00  0.00     0.211 HD
ENDBRANCH   3  12
BRANCH   5  14
ATOM     14  C   UNL     1      30.518  13.729  18.264  1.00  0.00     0.191 C 
BRANCH  14  15
ATOM     15  O   UNL     1      31.101  14.585  17.320  1.00  0.00    -0.394 OA
ATOM     16  H   UNL     1      30.449  14.657  16.574  1.00  0.00     0.210 HD
ENDBRANCH  14  15
ENDBRANCH   5  14
BRANCH   4  17
ATOM     17  O   UNL     1      30.888  15.933  19.989  1.00  0.00    -0.387 OA
ATOM     18  H   UNL     1      31.338  16.810  19.876  1.00  0.00     0.211 HD
ENDBRANCH   4  17
TORSDOF 7
ENDMDL
MODEL 3
REMARK VINA RESULT:    -3.196      1.763      3.708
REMARK INTER + INTRA:          -4.493
REMARK INTER:                  -4.135
REMARK INTRA:                  -0.358
REMARK UNBOUND:                -0.363
REMARK SMILES CCO[C@@H]1O[C@@H](CO)[C@@H](O)[C@H](O)[C@H]1O
REMARK SMILES IDX 4 1 13 2 11 3 9 4 6 5 5 6 3 7 2 8 1 9 14 10 12 12 7 14 8 15
REMARK SMILES IDX 10 17
REMARK H PARENT 14 11 12 13 8 16 10 18
REMARK Flexibility Score: inf
ROOT
ATOM      1  C   UNL     1      29.661  12.542  21.237  1.00  0.00     0.281 C 
ATOM      2  C   UNL     1      28.959  13.569  20.320  1.00  0.00     0.202 C 
ATOM      3  C   UNL     1      29.760  14.899  20.214  1.00  0.00     0.179 C 
ATOM      4  C   UNL     1      31.236  14.690  20.588  1.00  0.00     0.177 C 
ATOM      5  C   UNL     1      31.340  14.017  21.998  1.00  0.00     0.178 C 
ATOM      6  O   UNL     1      30.217  13.214  22.353  1.00  0.00    -0.341 OA
ENDROOT
BRANCH   1   7
ATOM      7  O   UNL     1      28.698  11.608  21.685  1.00  0.00    -0.350 OA
BRANCH   7   8
ATOM      8  C   UNL     1      29.316  10.370  21.974  1.00  0.00     0.160 C 
ATOM      9  C   UNL     1      28.246   9.297  22.105  1.00  0.00     0.035 C 
ENDBRANCH   7   8
ENDBRANCH   1   7
BRANCH   2  10
ATOM     10  O   UNL     1      28.724  13.015  19.049  1.00  0.00    -0.385 OA
ATOM     11  H   UNL     1      28.296  12.129  19.179  1.00  0.00     0.211 HD
ENDBRANCH   2  10
BRANCH   3  12
ATOM     12  O   UNL     1      29.208  15.865  21.074  1.00  0.00    -0.387 OA
ATOM     13  H   UNL     1      29.663  16.723  20.875  1.00  0.00     0.211 HD
ENDBRANCH   3  12
BRANCH   5  14
ATOM     14  C   UNL     1      32.641  13.228  22.219  1.00  0.00     0.191 C 
BRANCH  14  15
ATOM     15  O   UNL     1      33.743  14.002  21.834  1.00  0.00    -0.394 OA
ATOM     16  H   UNL     1      34.290  14.129  22.652  1.00  0.00     0.210 HD
ENDBRANCH  14  15
ENDBRANCH   5  14
BRANCH   4  17
ATOM     17  O   UNL     1      31.851  13.905  19.594  1.00  0.00    -0.387 OA
ATOM     18  H   UNL     1      32.330  13.168  20.053  1.00  0.00     0.211 HD
ENDBRANCH   4  17
TORSDOF 7
ENDMDL
MODEL 4
REMARK VINA RESULT:    -3.154      1.296      3.403
REMARK INTER + INTRA:          -4.440
REMARK INTER:                  -4.067
REMARK INTRA:                  -0.373
REMARK UNBOUND:                -0.363
REMARK SMILES CCO[C@@H]1O[C@@H](CO)[C@@H](O)[C@H](O)[C@H]1O
REMARK SMILES IDX 4 1 13 2 11 3 9 4 6 5 5 6 3 7 2 8 1 9 14 10 12 12 7 14 8 15
REMARK SMILES IDX 10 17
REMARK H PARENT 14 11 12 13 8 16 10 18
REMARK Flexibility Score: inf
ROOT
ATOM      1  C   UNL     1      31.302  13.001  20.478  1.00  0.00     0.281 C 
ATOM      2  C   UNL     1      31.975  14.010  21.437  1.00  0.00     0.202 C 
ATOM      3  C   UNL     1      31.426  13.890  22.888  1.00  0.00     0.179 C 
ATOM      4  C   UNL     1      30.777  12.517  23.125  1.00  0.00     0.177 C 
ATOM      5  C   UNL     1      29.693  12.242  22.029  1.00  0.00     0.178 C 
ATOM      6  O   UNL     1      29.924  12.907  20.790  1.00  0.00    -0.341 OA
ENDROOT
BRANCH   1   7
ATOM      7  O   UNL     1      31.452  13.473  19.153  1.00  0.00    -0.350 OA
BRANCH   7   8
ATOM      8  C   UNL     1      30.186  13.650  18.550  1.00  0.00     0.160 C 
ATOM      9  C   UNL     1      30.377  13.986  17.080  1.00  0.00     0.035 C 
ENDBRANCH   7   8
ENDBRANCH   1   7
BRANCH   2  10
ATOM     10  O   UNL     1      33.373  13.858  21.409  1.00  0.00    -0.385 OA
ATOM     11  H   UNL     1      33.580  13.053  20.866  1.00  0.00     0.211 HD
ENDBRANCH   2  10
BRANCH   3  12
ATOM     12  O   UNL     1      30.467  14.890  23.125  1.00  0.00    -0.387 OA
ATOM     13  H   UNL     1      30.084  15.138  22.244  1.00  0.00     0.211 HD
ENDBRANCH   3  12
BRANCH   5  14
ATOM     14  C   UNL     1      29.420  10.750  21.781  1.00  0.00     0.191 C 
BRANCH  14  15
ATOM     15  O   UNL     1      29.097  10.113  22.986  1.00  0.00    -0.394 OA
ATOM     16  H   UNL     1      28.553   9.320  22.742  1.00  0.00     0.210 HD
ENDBRANCH  14  15
ENDBRANCH   5  14
BRANCH   4  17
ATOM     17  O   UNL     1      31.782  11.531  23.116  1.00  0.00    -0.387 OA
ATOM     18  H   UNL     1      32.533  11.878  22.569  1.00  0.00     0.211 HD
ENDBRANCH   4  17
TORSDOF 7
ENDMDL
MODEL 5
REMARK VINA RESULT:    -3.072      1.957      4.400
REMARK INTER + INTRA:          -4.333
REMARK INTER:                  -3.955
REMARK INTRA:                  -0.378
REMARK UNBOUND:                -0.363
REMARK SMILES CCO[C@@H]1O[C@@H](CO)[C@@H](O)[C@H](O)[C@H]1O
REMARK SMILES IDX 4 1 13 2 11 3 9 4 6 5 5 6 3 7 2 8 1 9 14 10 12 12 7 14 8 15
REMARK SMILES IDX 10 17
REMARK H PARENT 14 11 12 13 8 16 10 18
REMARK Flexibility Score: inf
ROOT
ATOM      1  C   UNL     1      29.685  12.265  21.325  1.00  0.00     0.281 C 
ATOM      2  C   UNL     1      31.127  12.504  20.820  1.00  0.00     0.202 C 
ATOM      3  C   UNL     1      31.244  13.818  19.994  1.00  0.00     0.179 C 
ATOM      4  C   UNL     1      30.090  14.782  20.316  1.00  0.00     0.177 C 
ATOM      5  C   UNL     1      28.717  14.053  20.127  1.00  0.00     0.178 C 
ATOM      6  O   UNL     1      28.766  12.641  20.315  1.00  0.00    -0.341 OA
ENDROOT
BRANCH   1   7
ATOM      7  O   UNL     1      29.532  10.888  21.609  1.00  0.00    -0.350 OA
BRANCH   7   8
ATOM      8  C   UNL     1      28.162  10.543  21.634  1.00  0.00     0.160 C 
ATOM      9  C   UNL     1      28.014   9.120  22.150  1.00  0.00     0.035 C 
ENDBRANCH   7   8
ENDBRANCH   1   7
BRANCH   2  10
ATOM     10  O   UNL     1      32.032  12.498  21.895  1.00  0.00    -0.385 OA
ATOM     11  H   UNL     1      32.735  11.825  21.696  1.00  0.00     0.211 HD
ENDBRANCH   2  10
BRANCH   3  12
ATOM     12  O   UNL     1      31.220  13.527  18.619  1.00  0.00    -0.387 OA
ATOM     13  H   UNL     1      30.434  12.943  18.461  1.00  0.00     0.211 HD
ENDBRANCH   3  12
BRANCH   5  14
ATOM     14  C   UNL     1      27.572  14.654  20.957  1.00  0.00     0.191 C 
BRANCH  14  15
ATOM     15  O   UNL     1      27.561  16.048  20.823  1.00  0.00    -0.394 OA
ATOM     16  H   UNL     1      26.695  16.355  21.199  1.00  0.00     0.210 HD
ENDBRANCH  14  15
ENDBRANCH   5  14
BRANCH   4  17
ATOM     17  O   UNL     1      30.246  15.255  21.632  1.00  0.00    -0.387 OA
ATOM     18  H   UNL     1      31.129  14.940  21.958  1.00  0.00     0.211 HD
ENDBRANCH   4  17
TORSDOF 7
ENDMDL
MODEL 6
REMARK VINA RESULT:    -3.045      2.170      4.679
REMARK INTER + INTRA:          -4.298
REMARK INTER:                  -4.167
REMARK INTRA:                  -0.132
REMARK UNBOUND:                -0.363
REMARK SMILES CCO[C@@H]1O[C@@H](CO)[C@@H](O)[C@H](O)[C@H]1O
REMARK SMILES IDX 4 1 13 2 11 3 9 4 6 5 5 6 3 7 2 8 1 9 14 10 12 12 7 14 8 15
REMARK SMILES IDX 10 17
REMARK H PARENT 14 11 12 13 8 16 10 18
REMARK Flexibility Score: inf
ROOT
ATOM      1  C   UNL     1      30.909  14.189  18.757  1.00  0.00     0.281 C 
ATOM      2  C   UNL     1      29.480  14.262  19.343  1.00  0.00     0.202 C 
ATOM      3  C   UNL     1      28.691  15.488  18.802  1.00  0.00     0.179 C 
ATOM      4  C   UNL     1      29.291  15.999  17.482  1.00  0.00     0.177 C 
ATOM      5  C   UNL     1      30.821  16.280  17.665  1.00  0.00     0.178 C 
ATOM      6  O   UNL     1      31.449  15.496  18.676  1.00  0.00    -0.341 OA
ENDROOT
BRANCH   1   7
ATOM      7  O   UNL     1      31.709  13.404  19.620  1.00  0.00    -0.350 OA
BRANCH   7   8
ATOM      8  C   UNL     1      32.214  14.197  20.675  1.00  0.00     0.160 C 
ATOM      9  C   UNL     1      32.413  13.324  21.904  1.00  0.00     0.035 C 
ENDBRANCH   7   8
ENDBRANCH   1   7
BRANCH   2  10
ATOM     10  O   UNL     1      28.786  13.064  19.098  1.00  0.00    -0.385 OA
ATOM     11  H   UNL     1      29.373  12.311  19.376  1.00  0.00     0.211 HD
ENDBRANCH   2  10
BRANCH   3  12
ATOM     12  O   UNL     1      28.716  16.532  19.744  1.00  0.00    -0.387 OA
ATOM     13  H   UNL     1      29.383  17.193  19.425  1.00  0.00     0.211 HD
ENDBRANCH   3  12
BRANCH   5  14
ATOM     14  C   UNL     1      31.631  16.202  16.361  1.00  0.00     0.191 C 
BRANCH  14  15
ATOM     15  O   UNL     1      31.696  14.875  15.915  1.00  0.00    -0.394 OA
ATOM     16  H   UNL     1      30.826  14.461  16.154  1.00  0.00     0.210 HD
ENDBRANCH  14  15
ENDBRANCH   5  14
BRANCH   4  17
ATOM     17  O   UNL     1      29.059  15.042  16.476  1.00  0.00    -0.387 OA
ATOM     18  H   UNL     1      28.559  14.291  16.890  1.00  0.00     0.211 HD
ENDBRANCH   4  17
TORSDOF 7
ENDMDL
MODEL 7
REMARK VINA RESULT:    -2.825      1.724      4.430
REMARK INTER + INTRA:          -4.014
REMARK INTER:                  -3.589
REMARK INTRA:                  -0.425
REMARK UNBOUND:                -0.363
REMARK SMILES CCO[C@@H]1O[C@@H](CO)[C@@H](O)[C@H](O)[C@H]1O
REMARK SMILES IDX 4 1 13 2 11 3 9 4 6 5 5 6 3 7 2 8 1 9 14 10 12 12 7 14 8 15
REMARK SMILES IDX 10 17
REMARK H PARENT 14 11 12 13 8 16 10 18
REMARK Flexibility Score: inf
ROOT
ATOM      1  C   UNL     1      31.760  14.487  19.823  1.00  0.00     0.281 C 
ATOM      2  C   UNL     1      30.732  13.541  20.486  1.00  0.00     0.202 C 
ATOM      3  C   UNL     1      29.381  13.519  19.716  1.00  0.00     0.179 C 
ATOM      4  C   UNL     1      29.559  13.995  18.265  1.00  0.00     0.177 C 
ATOM      5  C   UNL     1      30.259  15.396  18.245  1.00  0.00     0.178 C 
ATOM      6  O   UNL     1      31.097  15.653  19.368  1.00  0.00    -0.341 OA
ENDROOT
BRANCH   1   7
ATOM      7  O   UNL     1      32.728  14.846  20.791  1.00  0.00    -0.350 OA
BRANCH   7   8
ATOM      8  C   UNL     1      32.212  15.838  21.655  1.00  0.00     0.160 C 
ATOM      9  C   UNL     1      33.311  16.837  21.980  1.00  0.00     0.035 C 
ENDBRANCH   7   8
ENDBRANCH   1   7
BRANCH   2  10
ATOM     10  O   UNL     1      31.266  12.246  20.612  1.00  0.00    -0.385 OA
ATOM     11  H   UNL     1      32.216  12.335  20.889  1.00  0.00     0.211 HD
ENDBRANCH   2  10
BRANCH   3  12
ATOM     12  O   UNL     1      28.448  14.354  20.354  1.00  0.00    -0.387 OA
ATOM     13  H   UNL     1      27.601  13.842  20.425  1.00  0.00     0.211 HD
ENDBRANCH   3  12
BRANCH   5  14
ATOM     14  C   UNL     1      31.018  15.696  16.943  1.00  0.00     0.191 C 
BRANCH  14  15
ATOM     15  O   UNL     1      30.252  15.303  15.838  1.00  0.00    -0.394 OA
ATOM     16  H   UNL     1      29.425  14.896  16.206  1.00  0.00     0.210 HD
ENDBRANCH  14  15
ENDBRANCH   5  14
BRANCH   4  17
ATOM     17  O   UNL     1      30.307  13.034  17.559  1.00  0.00    -0.387 OA
ATOM     18  H   UNL     1      31.011  13.518  17.054  1.00  0.00     0.211 HD
ENDBRANCH   4  17
TORSDOF 7
ENDMDL
MODEL 8
REMARK VINA RESULT:    -2.824      1.904      4.318
REMARK INTER + INTRA:          -4.012
REMARK INTER:                  -3.837
REMARK INTRA:                  -0.176
REMARK UNBOUND:                -0.363
REMARK SMILES CCO[C@@H]1O[C@@H](CO)[C@@H](O)[C@H](O)[C@H]1O
REMARK SMILES IDX 4 1 13 2 11 3 9 4 6 5 5 6 3 7 2 8 1 9 14 10 12 12 7 14 8 15
REMARK SMILES IDX 10 17
REMARK H PARENT 14 11 12 13 8 16 10 18
REMARK Flexibility Score: inf
ROOT
ATOM      1  C   UNL     1      31.313  15.635  19.674  1.00  0.00     0.281 C 
ATOM      2  C   UNL     1      30.826  15.987  18.250  1.00  0.00     0.202 C 
ATOM      3  C   UNL     1      30.105  14.788  17.568  1.00  0.00     0.179 C 
ATOM      4  C   UNL     1      29.601  13.777  18.610  1.00  0.00     0.177 C 
ATOM      5  C   UNL     1      30.779  13.340  19.544  1.00  0.00     0.178 C 
ATOM      6  O   UNL     1      31.813  14.310  19.685  1.00  0.00    -0.341 OA
ENDROOT
BRANCH   1   7
ATOM      7  O   UNL     1      32.349  16.530  20.028  1.00  0.00    -0.350 OA
BRANCH   7   8
ATOM      8  C   UNL     1      33.194  15.942  20.997  1.00  0.00     0.160 C 
ATOM      9  C   UNL     1      32.947  16.604  22.343  1.00  0.00     0.035 C 
ENDBRANCH   7   8
ENDBRANCH   1   7
BRANCH   2  10
ATOM     10  O   UNL     1      30.002  17.125  18.278  1.00  0.00    -0.385 OA
ATOM     11  H   UNL     1      30.438  17.829  17.730  1.00  0.00     0.211 HD
ENDBRANCH   2  10
BRANCH   3  12
ATOM     12  O   UNL     1      30.986  14.132  16.691  1.00  0.00    -0.387 OA
ATOM     13  H   UNL     1      31.055  14.694  15.876  1.00  0.00     0.211 HD
ENDBRANCH   3  12
BRANCH   5  14
ATOM     14  C   UNL     1      30.329  12.848  20.929  1.00  0.00     0.191 C 
BRANCH  14  15
ATOM     15  O   UNL     1      31.228  11.891  21.416  1.00  0.00    -0.394 OA
ATOM     16  H   UNL     1      30.824  11.006  21.215  1.00  0.00     0.210 HD
ENDBRANCH  14  15
ENDBRANCH   5  14
BRANCH   4  17
ATOM     17  O   UNL     1      28.552  14.364  19.343  1.00  0.00    -0.387 OA
ATOM     18  H   UNL     1      28.900  14.568  20.249  1.00  0.00     0.211 HD
ENDBRANCH   4  17
TORSDOF 7
ENDMDL
MODEL 9
REMARK VINA RESULT:    -2.754      1.970      3.603
REMARK INTER + INTRA:          -3.922
REMARK INTER:                  -3.464
REMARK INTRA:                  -0.458
REMARK UNBOUND:                -0.363
REMARK SMILES CCO[C@@H]1O[C@@H](CO)[C@@H](O)[C@H](O)[C@H]1O
REMARK SMILES IDX 4 1 13 2 11 3 9 4 6 5 5 6 3 7 2 8 1 9 14 10 12 12 7 14 8 15
REMARK SMILES IDX 10 17
REMARK H PARENT 14 11 12 13 8 16 10 18
REMARK Flexibility Score: inf
ROOT
ATOM      1  C   UNL     1      28.884  14.373  20.443  1.00  0.00     0.281 C 
ATOM      2  C   UNL     1      29.880  13.925  21.537  1.00  0.00     0.202 C 
ATOM      3  C   UNL     1      31.180  13.322  20.930  1.00  0.00     0.179 C 
ATOM      4  C   UNL     1      31.381  13.784  19.478  1.00  0.00     0.177 C 
ATOM      5  C   UNL     1      30.101  13.468  18.634  1.00  0.00     0.178 C 
ATOM      6  O   UNL     1      28.891  13.428  19.388  1.00  0.00    -0.341 OA
ENDROOT
BRANCH   1   7
ATOM      7  O   UNL     1      27.589  14.430  21.011  1.00  0.00    -0.350 OA
BRANCH   7   8
ATOM      8  C   UNL     1      26.875  15.533  20.491  1.00  0.00     0.160 C 
ATOM      9  C   UNL     1      27.850  16.659  20.184  1.00  0.00     0.035 C 
ENDBRANCH   7   8
ENDBRANCH   1   7
BRANCH   2  10
ATOM     10  O   UNL     1      30.172  14.993  22.403  1.00  0.00    -0.385 OA
ATOM     11  H   UNL     1      30.875  14.688  23.036  1.00  0.00     0.211 HD
ENDBRANCH   2  10
BRANCH   3  12
ATOM     12  O   UNL     1      31.116  11.918  20.954  1.00  0.00    -0.387 OA
ATOM     13  H   UNL     1      30.880  11.624  20.036  1.00  0.00     0.211 HD
ENDBRANCH   3  12
BRANCH   5  14
ATOM     14  C   UNL     1      29.923  14.374  17.405  1.00  0.00     0.191 C 
BRANCH  14  15
ATOM     15  O   UNL     1      31.145  14.521  16.735  1.00  0.00    -0.394 OA
ATOM     16  H   UNL     1      31.805  13.984  17.246  1.00  0.00     0.210 HD
ENDBRANCH  14  15
ENDBRANCH   5  14
BRANCH   4  17
ATOM     17  O   UNL     1      31.675  15.161  19.475  1.00  0.00    -0.387 OA
ATOM     18  H   UNL     1      32.195  15.352  18.651  1.00  0.00     0.211 HD
ENDBRANCH   4  17
TORSDOF 7
ENDMDL
