MODEL 1
REMARK VINA RESULT:    -3.869      0.000      0.000
REMARK INTER + INTRA:          -5.029
REMARK INTER:                  -4.887
REMARK INTRA:                  -0.142
REMARK UNBOUND:                -0.142
REMARK SMILES CSCC[C@@H]([NH3+])C(=O)[O-]
REMARK SMILES IDX 4 1 5 2 6 3 7 7 8 8 9 9 3 10 2 11 1 12
REMARK H PARENT 6 4 6 5 6 6
REMARK Flexibility Score: inf
ROOT
ATOM      1  C   UNL     1      61.353   0.313   8.263  1.00  0.00     0.082 C 
ENDROOT
BRANCH   1   2
ATOM      2  C   UNL     1      61.550  -1.103   7.679  1.00  0.00     0.228 C 
BRANCH   2   3
ATOM      3  N   UNL     1      60.391  -1.968   7.943  1.00  0.00    -0.350 N 
ATOM      4  H   UNL     1      59.656  -1.451   8.479  1.00  0.00     0.345 HD
ATOM      5  H   UNL     1      60.687  -2.811   8.485  1.00  0.00     0.345 HD
ATOM      6  H   UNL     1      59.983  -2.302   7.040  1.00  0.00     0.345 HD
ENDBRANCH   2   3
BRANCH   2   7
ATOM      7  C   UNL     1      61.792  -1.005   6.196  1.00  0.00     0.099 C 
ATOM      8  O   UNL     1      61.886   0.122   5.643  1.00  0.00    -0.544 OA
ATOM      9  O   UNL     1      61.890  -2.158   5.424  1.00  0.00    -0.544 OA
ENDBRANCH   2   7
ENDBRANCH   1   2
BRANCH   1  10
ATOM     10  C   UNL     1      62.317   0.614   9.416  1.00  0.00     0.076 C 
BRANCH  10  11
ATOM     11  S   UNL     1      64.051   0.421   8.867  1.00  0.00    -0.165 SA
ATOM     12  C   UNL     1      64.513  -0.815  10.125  1.00  0.00     0.085 C 
ENDBRANCH  10  11
ENDBRANCH   1  10
TORSDOF 5
ENDMDL
MODEL 2
REMARK VINA RESULT:    -3.846      1.565      2.483
REMARK INTER + INTRA:          -4.999
REMARK INTER:                  -4.824
REMARK INTRA:                  -0.175
REMARK UNBOUND:                -0.142
REMARK SMILES CSCC[C@@H]([NH3+])C(=O)[O-]
REMARK SMILES IDX 4 1 5 2 6 3 7 7 8 8 9 9 3 10 2 11 1 12
REMARK H PARENT 6 4 6 5 6 6
REMARK Flexibility Score: inf
ROOT
ATOM      1  C   UNL     1      61.546   0.308   7.601  1.00  0.00     0.082 C 
ENDROOT
BRANCH   1   2
ATOM      2  C   UNL     1      61.607  -1.235   7.590  1.00  0.00     0.228 C 
BRANCH   2   3
ATOM      3  N   UNL     1      60.334  -1.833   8.016  1.00  0.00    -0.350 N 
ATOM      4  H   UNL     1      59.596  -1.099   8.127  1.00  0.00     0.345 HD
ATOM      5  H   UNL     1      60.459  -2.338   8.922  1.00  0.00     0.345 HD
ATOM      6  H   UNL     1      60.014  -2.533   7.307  1.00  0.00     0.345 HD
ENDBRANCH   2   3
BRANCH   2   7
ATOM      7  C   UNL     1      61.963  -1.713   6.207  1.00  0.00     0.099 C 
ATOM      8  O   UNL     1      62.144  -2.939   5.988  1.00  0.00    -0.544 OA
ATOM      9  O   UNL     1      62.114  -0.801   5.168  1.00  0.00    -0.544 OA
ENDBRANCH   2   7
ENDBRANCH   1   2
BRANCH   1  10
ATOM     10  C   UNL     1      62.820   0.944   8.169  1.00  0.00     0.076 C 
BRANCH  10  11
ATOM     11  S   UNL     1      63.383   2.315   7.098  1.00  0.00    -0.165 SA
ATOM     12  C   UNL     1      61.787   2.567   6.254  1.00  0.00     0.085 C 
ENDBRANCH  10  11
ENDBRANCH   1  10
TORSDOF 5
ENDMDL
MODEL 3
REMARK VINA RESULT:    -3.801      2.943      3.663
REMARK INTER + INTRA:          -4.943
REMARK INTER:                  -4.797
REMARK INTRA:                  -0.146
REMARK UNBOUND:                -0.142
REMARK SMILES CSCC[C@@H]([NH3+])C(=O)[O-]
REMARK SMILES IDX 4 1 5 2 6 3 7 7 8 8 9 9 3 10 2 11 1 12
REMARK H PARENT 6 4 6 5 6 6
REMARK Flexibility Score: inf
ROOT
ATOM      1  C   UNL     1      62.437  -0.553   8.047  1.00  0.00     0.082 C 
ENDROOT
BRANCH   1   2
ATOM      2  C   UNL     1      60.894  -0.543   7.987  1.00  0.00     0.228 C 
BRANCH   2   3
ATOM      3  N   UNL     1      60.339  -1.903   8.029  1.00  0.00    -0.350 N 
ATOM      4  H   UNL     1      60.501  -2.399   7.122  1.00  0.00     0.345 HD
ATOM      5  H   UNL     1      59.314  -1.867   8.227  1.00  0.00     0.345 HD
ATOM      6  H   UNL     1      60.789  -2.448   8.801  1.00  0.00     0.345 HD
ENDBRANCH   2   3
BRANCH   2   7
ATOM      7  C   UNL     1      60.353   0.269   9.135  1.00  0.00     0.099 C 
ATOM      8  O   UNL     1      61.090   1.101   9.724  1.00  0.00    -0.544 OA
ATOM      9  O   UNL     1      59.042   0.090   9.563  1.00  0.00    -0.544 OA
ENDBRANCH   2   7
ENDBRANCH   1   2
BRANCH   1  10
ATOM     10  C   UNL     1      63.080  -0.595   6.656  1.00  0.00     0.076 C 
BRANCH  10  11
ATOM     11  S   UNL     1      63.686  -2.280   6.282  1.00  0.00    -0.165 SA
ATOM     12  C   UNL     1      62.348  -2.713   5.123  1.00  0.00     0.085 C 
ENDBRANCH  10  11
ENDBRANCH   1  10
TORSDOF 5
ENDMDL
MODEL 4
REMARK VINA RESULT:    -3.786      2.940      3.698
REMARK INTER + INTRA:          -4.924
REMARK INTER:                  -4.799
REMARK INTRA:                  -0.125
REMARK UNBOUND:                -0.142
REMARK SMILES CSCC[C@@H]([NH3+])C(=O)[O-]
REMARK SMILES IDX 4 1 5 2 6 3 7 7 8 8 9 9 3 10 2 11 1 12
REMARK H PARENT 6 4 6 5 6 6
REMARK Flexibility Score: inf
ROOT
ATOM      1  C   UNL     1      62.368  -0.472   8.009  1.00  0.00     0.082 C 
ENDROOT
BRANCH   1   2
ATOM      2  C   UNL     1      60.829  -0.599   8.001  1.00  0.00     0.228 C 
BRANCH   2   3
ATOM      3  N   UNL     1      60.400  -2.001   7.889  1.00  0.00    -0.350 N 
ATOM      4  H   UNL     1      59.801  -2.139   7.043  1.00  0.00     0.345 HD
ATOM      5  H   UNL     1      59.866  -2.282   8.741  1.00  0.00     0.345 HD
ATOM      6  H   UNL     1      61.236  -2.625   7.821  1.00  0.00     0.345 HD
ENDBRANCH   2   3
BRANCH   2   7
ATOM      7  C   UNL     1      60.269   0.012   9.258  1.00  0.00     0.099 C 
ATOM      8  O   UNL     1      61.041   0.498  10.125  1.00  0.00    -0.544 OA
ATOM      9  O   UNL     1      58.896   0.023   9.479  1.00  0.00    -0.544 OA
ENDBRANCH   2   7
ENDBRANCH   1   2
BRANCH   1  10
ATOM     10  C   UNL     1      62.898   0.350   6.828  1.00  0.00     0.076 C 
BRANCH  10  11
ATOM     11  S   UNL     1      62.393   2.101   6.989  1.00  0.00    -0.165 SA
ATOM     12  C   UNL     1      61.841   2.301   5.264  1.00  0.00     0.085 C 
ENDBRANCH  10  11
ENDBRANCH   1  10
TORSDOF 5
ENDMDL
MODEL 5
REMARK VINA RESULT:    -3.774      3.029      4.188
REMARK INTER + INTRA:          -4.909
REMARK INTER:                  -4.837
REMARK INTRA:                  -0.072
REMARK UNBOUND:                -0.142
REMARK SMILES CSCC[C@@H]([NH3+])C(=O)[O-]
REMARK SMILES IDX 4 1 5 2 6 3 7 7 8 8 9 9 3 10 2 11 1 12
REMARK H PARENT 6 4 6 5 6 6
REMARK Flexibility Score: inf
ROOT
ATOM      1  C   UNL     1      62.192  -1.084   6.446  1.00  0.00     0.082 C 
ENDROOT
BRANCH   1   2
ATOM      2  C   UNL     1      61.145  -0.805   7.547  1.00  0.00     0.228 C 
BRANCH   2   3
ATOM      3  N   UNL     1      60.374  -2.011   7.883  1.00  0.00    -0.350 N 
ATOM      4  H   UNL     1      60.350  -2.161   8.918  1.00  0.00     0.345 HD
ATOM      5  H   UNL     1      60.796  -2.848   7.422  1.00  0.00     0.345 HD
ATOM      6  H   UNL     1      59.394  -1.917   7.529  1.00  0.00     0.345 HD
ENDBRANCH   2   3
BRANCH   2   7
ATOM      7  C   UNL     1      61.838  -0.279   8.777  1.00  0.00     0.099 C 
ATOM      8  O   UNL     1      63.066  -0.004   8.742  1.00  0.00    -0.544 OA
ATOM      9  O   UNL     1      61.131  -0.114   9.963  1.00  0.00    -0.544 OA
ENDBRANCH   2   7
ENDBRANCH   1   2
BRANCH   1  10
ATOM     10  C   UNL     1      62.233  -2.559   6.032  1.00  0.00     0.076 C 
BRANCH  10  11
ATOM     11  S   UNL     1      62.895  -2.729   4.336  1.00  0.00    -0.165 SA
ATOM     12  C   UNL     1      62.283  -4.424   4.060  1.00  0.00     0.085 C 
ENDBRANCH  10  11
ENDBRANCH   1  10
TORSDOF 5
ENDMDL
MODEL 6
REMARK VINA RESULT:    -3.756      3.320      3.720
REMARK INTER + INTRA:          -4.887
REMARK INTER:                  -4.783
REMARK INTRA:                  -0.104
REMARK UNBOUND:                -0.142
REMARK SMILES CSCC[C@@H]([NH3+])C(=O)[O-]
REMARK SMILES IDX 4 1 5 2 6 3 7 7 8 8 9 9 3 10 2 11 1 12
REMARK H PARENT 6 4 6 5 6 6
REMARK Flexibility Score: inf
ROOT
ATOM      1  C   UNL     1      62.839   2.386   6.815  1.00  0.00     0.082 C 
ENDROOT
BRANCH   1   2
ATOM      2  C   UNL     1      62.429   2.332   5.327  1.00  0.00     0.228 C 
BRANCH   2   3
ATOM      3  N   UNL     1      63.369   3.077   4.476  1.00  0.00    -0.350 N 
ATOM      4  H   UNL     1      63.166   4.103   4.508  1.00  0.00     0.345 HD
ATOM      5  H   UNL     1      63.304   2.741   3.489  1.00  0.00     0.345 HD
ATOM      6  H   UNL     1      64.350   2.913   4.801  1.00  0.00     0.345 HD
ENDBRANCH   2   3
BRANCH   2   7
ATOM      7  C   UNL     1      62.356   0.896   4.879  1.00  0.00     0.099 C 
ATOM      8  O   UNL     1      62.710   0.578   3.713  1.00  0.00    -0.544 OA
ATOM      9  O   UNL     1      61.877  -0.083   5.742  1.00  0.00    -0.544 OA
ENDBRANCH   2   7
ENDBRANCH   1   2
BRANCH   1  10
ATOM     10  C   UNL     1      61.672   2.763   7.735  1.00  0.00     0.076 C 
BRANCH  10  11
ATOM     11  S   UNL     1      61.804   1.881   9.331  1.00  0.00    -0.165 SA
ATOM     12  C   UNL     1      60.307   0.865   9.113  1.00  0.00     0.085 C 
ENDBRANCH  10  11
ENDBRANCH   1  10
TORSDOF 5
ENDMDL
MODEL 7
REMARK VINA RESULT:    -3.712      2.579      3.483
REMARK INTER + INTRA:          -4.831
REMARK INTER:                  -4.631
REMARK INTRA:                  -0.200
REMARK UNBOUND:                -0.142
REMARK SMILES CSCC[C@@H]([NH3+])C(=O)[O-]
REMARK SMILES IDX 4 1 5 2 6 3 7 7 8 8 9 9 3 10 2 11 1 12
REMARK H PARENT 6 4 6 5 6 6
REMARK Flexibility Score: inf
ROOT
ATOM      1  C   UNL     1      61.988  -1.012   6.347  1.00  0.00     0.082 C 
ENDROOT
BRANCH   1   2
ATOM      2  C   UNL     1      61.096  -0.745   7.580  1.00  0.00     0.228 C 
BRANCH   2   3
ATOM      3  N   UNL     1      60.331  -1.938   7.967  1.00  0.00    -0.350 N 
ATOM      4  H   UNL     1      59.356  -1.894   7.589  1.00  0.00     0.345 HD
ATOM      5  H   UNL     1      60.295  -2.021   9.007  1.00  0.00     0.345 HD
ATOM      6  H   UNL     1      60.800  -2.798   7.598  1.00  0.00     0.345 HD
ENDBRANCH   2   3
BRANCH   2   7
ATOM      7  C   UNL     1      61.954  -0.288   8.730  1.00  0.00     0.099 C 
ATOM      8  O   UNL     1      61.421   0.091   9.806  1.00  0.00    -0.544 OA
ATOM      9  O   UNL     1      63.338  -0.263   8.604  1.00  0.00    -0.544 OA
ENDBRANCH   2   7
ENDBRANCH   1   2
BRANCH   1  10
ATOM     10  C   UNL     1      62.159  -2.507   6.057  1.00  0.00     0.076 C 
BRANCH  10  11
ATOM     11  S   UNL     1      63.929  -2.966   6.088  1.00  0.00    -0.165 SA
ATOM     12  C   UNL     1      64.549  -1.385   5.425  1.00  0.00     0.085 C 
ENDBRANCH  10  11
ENDBRANCH   1  10
TORSDOF 5
ENDMDL
MODEL 8
REMARK VINA RESULT:    -3.656      3.066      4.009
REMARK INTER + INTRA:          -4.761
REMARK INTER:                  -4.675
REMARK INTRA:                  -0.085
REMARK UNBOUND:                -0.142
REMARK SMILES CSCC[C@@H]([NH3+])C(=O)[O-]
REMARK SMILES IDX 4 1 5 2 6 3 7 7 8 8 9 9 3 10 2 11 1 12
REMARK H PARENT 6 4 6 5 6 6
REMARK Flexibility Score: inf
ROOT
ATOM      1  C   UNL     1      63.022  -1.947   5.141  1.00  0.00     0.082 C 
ENDROOT
BRANCH   1   2
ATOM      2  C   UNL     1      63.369  -3.345   4.583  1.00  0.00     0.228 C 
BRANCH   2   3
ATOM      3  N   UNL     1      63.668  -4.301   5.659  1.00  0.00    -0.350 N 
ATOM      4  H   UNL     1      64.696  -4.484   5.719  1.00  0.00     0.345 HD
ATOM      5  H   UNL     1      63.165  -5.201   5.490  1.00  0.00     0.345 HD
ATOM      6  H   UNL     1      63.335  -3.922   6.575  1.00  0.00     0.345 HD
ENDBRANCH   2   3
BRANCH   2   7
ATOM      7  C   UNL     1      62.222  -3.851   3.749  1.00  0.00     0.099 C 
ATOM      8  O   UNL     1      61.634  -3.079   2.947  1.00  0.00    -0.544 OA
ATOM      9  O   UNL     1      61.791  -5.167   3.875  1.00  0.00    -0.544 OA
ENDBRANCH   2   7
ENDBRANCH   1   2
BRANCH   1  10
ATOM     10  C   UNL     1      62.000  -2.005   6.283  1.00  0.00     0.076 C 
BRANCH  10  11
ATOM     11  S   UNL     1      61.861  -0.374   7.099  1.00  0.00    -0.165 SA
ATOM     12  C   UNL     1      60.561  -0.862   8.280  1.00  0.00     0.085 C 
ENDBRANCH  10  11
ENDBRANCH   1  10
TORSDOF 5
ENDMDL
MODEL 9
REMARK VINA RESULT:    -3.656     15.029     16.072
REMARK INTER + INTRA:          -4.761
REMARK INTER:                  -4.579
REMARK INTRA:                  -0.181
REMARK UNBOUND:                -0.142
REMARK SMILES CSCC[C@@H]([NH3+])C(=O)[O-]
REMARK SMILES IDX 4 1 5 2 6 3 7 7 8 8 9 9 3 10 2 11 1 12
REMARK H PARENT 6 4 6 5 6 6
REMARK Flexibility Score: inf
ROOT
ATOM      1  C   UNL     1      64.840   8.821  -5.069  1.00  0.00     0.082 C 
ENDROOT
BRANCH   1   2
ATOM      2  C   UNL     1      64.394   7.355  -4.874  1.00  0.00     0.228 C 
BRANCH   2   3
ATOM      3  N   UNL     1      65.404   6.570  -4.150  1.00  0.00    -0.350 N 
ATOM      4  H   UNL     1      64.993   5.677  -3.791  1.00  0.00     0.345 HD
ATOM      5  H   UNL     1      65.784   7.123  -3.350  1.00  0.00     0.345 HD
ATOM      6  H   UNL     1      66.204   6.346  -4.786  1.00  0.00     0.345 HD
ENDBRANCH   2   3
BRANCH   2   7
ATOM      7  C   UNL     1      63.086   7.324  -4.127  1.00  0.00     0.099 C 
ATOM      8  O   UNL     1      62.647   6.239  -3.665  1.00  0.00    -0.544 OA
ATOM      9  O   UNL     1      62.346   8.490  -3.963  1.00  0.00    -0.544 OA
ENDBRANCH   2   7
ENDBRANCH   1   2
BRANCH   1  10
ATOM     10  C   UNL     1      64.666   9.303  -6.514  1.00  0.00     0.076 C 
BRANCH  10  11
ATOM     11  S   UNL     1      64.229   7.903  -7.607  1.00  0.00    -0.165 SA
ATOM     12  C   UNL     1      62.510   8.428  -7.911  1.00  0.00     0.085 C 
ENDBRANCH  10  11
ENDBRANCH   1  10
TORSDOF 5
ENDMDL
