MODEL 1
REMARK VINA RESULT:    -3.738      0.000      0.000
REMARK INTER + INTRA:         -12.786
REMARK INTER:                  -8.546
REMARK INTRA:                  -4.240
REMARK UNBOUND:                -4.240
REMARK SMILES CCCCCCCCCCCCCCCCCCCCCCCC(=O)[O-]
REMARK SMILES IDX 13 1 14 2 15 3 16 4 17 5 18 6 19 7 20 8 21 9 22 10 23 11
REMARK SMILES IDX 24 12 25 13 26 14 12 15 11 16 10 17 9 18 8 19 7 20 6 21 5 22
REMARK SMILES IDX 4 23 3 24 2 25 1 26
REMARK H PARENT
REMARK Flexibility Score: inf
ROOT
ATOM      1  C   UNL     1     123.150 129.640 126.720  1.00  0.00     0.000 C 
ENDROOT
BRANCH   1   2
ATOM      2  C   UNL     1     122.321 128.921 125.640  1.00  0.00     0.000 C 
BRANCH   2   3
ATOM      3  C   UNL     1     122.213 129.723 124.334  1.00  0.00     0.000 C 
BRANCH   3   4
ATOM      4  C   UNL     1     122.916 128.991 123.179  1.00  0.00     0.000 C 
BRANCH   4   5
ATOM      5  C   UNL     1     123.489 129.969 122.131  1.00  0.00     0.000 C 
BRANCH   5   6
ATOM      6  C   UNL     1     123.559 131.427 122.616  1.00  0.00     0.000 C 
BRANCH   6   7
ATOM      7  C   UNL     1     124.678 132.229 121.938  1.00  0.00     0.000 C 
BRANCH   7   8
ATOM      8  C   UNL     1     126.051 131.863 122.520  1.00  0.00     0.000 C 
BRANCH   8   9
ATOM      9  C   UNL     1     127.054 131.432 121.437  1.00  0.00     0.000 C 
BRANCH   9  10
ATOM     10  C   UNL     1     126.454 131.484 120.021  1.00  0.00     0.006 C 
BRANCH  10  11
ATOM     11  C   UNL     1     126.614 130.152 119.277  1.00  0.00     0.053 C 
BRANCH  11  12
ATOM     12  C   UNL     1     125.512 129.928 118.285  1.00  0.00     0.041 C 
ATOM     13  O   UNL     1     124.403 129.470 118.666  1.00  0.00    -0.550 OA
ATOM     14  O   UNL     1     125.700 130.255 116.948  1.00  0.00    -0.550 OA
ENDBRANCH  11  12
ENDBRANCH  10  11
ENDBRANCH   9  10
ENDBRANCH   8   9
ENDBRANCH   7   8
ENDBRANCH   6   7
ENDBRANCH   5   6
ENDBRANCH   4   5
ENDBRANCH   3   4
ENDBRANCH   2   3
ENDBRANCH   1   2
BRANCH   1  15
ATOM     15  C   UNL     1     124.239 130.594 126.184  1.00  0.00     0.000 C 
BRANCH  15  16
ATOM     16  C   UNL     1     125.686 130.089 126.334  1.00  0.00     0.000 C 
BRANCH  16  17
ATOM     17  C   UNL     1     126.167 129.288 125.113  1.00  0.00     0.000 C 
BRANCH  17  18
ATOM     18  C   UNL     1     126.498 127.826 125.460  1.00  0.00    -0.000 C 
BRANCH  18  19
ATOM     19  C   UNL     1     125.463 126.834 124.901  1.00  0.00    -0.000 C 
BRANCH  19  20
ATOM     20  C   UNL     1     124.619 126.177 126.005  1.00  0.00    -0.000 C 
BRANCH  20  21
ATOM     21  C   UNL     1     125.426 125.173 126.846  1.00  0.00    -0.000 C 
BRANCH  21  22
ATOM     22  C   UNL     1     125.548 125.597 128.320  1.00  0.00    -0.000 C 
BRANCH  22  23
ATOM     23  C   UNL     1     124.442 126.571 128.778  1.00  0.00    -0.000 C 
BRANCH  23  24
ATOM     24  C   UNL     1     125.004 127.754 129.581  1.00  0.00    -0.000 C 
BRANCH  24  25
ATOM     25  C   UNL     1     126.494 127.962 129.280  1.00  0.00    -0.003 C 
ATOM     26  C   UNL     1     126.967 129.332 129.754  1.00  0.00     0.004 C 
ENDBRANCH  24  25
ENDBRANCH  23  24
ENDBRANCH  22  23
ENDBRANCH  21  22
ENDBRANCH  20  21
ENDBRANCH  19  20
ENDBRANCH  18  19
ENDBRANCH  17  18
ENDBRANCH  16  17
ENDBRANCH  15  16
ENDBRANCH   1  15
TORSDOF 22
ENDMDL
MODEL 2
REMARK VINA RESULT:    -3.484      9.559     11.945
REMARK INTER + INTRA:         -12.206
REMARK INTER:                  -8.129
REMARK INTRA:                  -4.077
REMARK UNBOUND:                -4.240
REMARK SMILES CCCCCCCCCCCCCCCCCCCCCCCC(=O)[O-]
REMARK SMILES IDX 13 1 14 2 15 3 16 4 17 5 18 6 19 7 20 8 21 9 22 10 23 11
REMARK SMILES IDX 24 12 25 13 26 14 12 15 11 16 10 17 9 18 8 19 7 20 6 21 5 22
REMARK SMILES IDX 4 23 3 24 2 25 1 26
REMARK H PARENT
REMARK Flexibility Score: inf
ROOT
ATOM      1  C   UNL     1     130.112 117.480 120.117  1.00  0.00     0.000 C 
ENDROOT
BRANCH   1   2
ATOM      2  C   UNL     1     128.794 117.427 119.322  1.00  0.00     0.000 C 
BRANCH   2   3
ATOM      3  C   UNL     1     128.993 117.647 117.815  1.00  0.00     0.000 C 
BRANCH   3   4
ATOM      4  C   UNL     1     127.696 118.141 117.154  1.00  0.00     0.000 C 
BRANCH   4   5
ATOM      5  C   UNL     1     126.688 118.690 118.185  1.00  0.00     0.000 C 
BRANCH   5   6
ATOM      6  C   UNL     1     125.490 119.420 117.552  1.00  0.00     0.000 C 
BRANCH   6   7
ATOM      7  C   UNL     1     125.472 120.922 117.865  1.00  0.00     0.000 C 
BRANCH   7   8
ATOM      8  C   UNL     1     124.407 121.648 117.030  1.00  0.00     0.000 C 
BRANCH   8   9
ATOM      9  C   UNL     1     123.559 122.617 117.870  1.00  0.00     0.000 C 
BRANCH   9  10
ATOM     10  C   UNL     1     122.784 121.905 118.993  1.00  0.00     0.006 C 
BRANCH  10  11
ATOM     11  C   UNL     1     123.206 122.391 120.385  1.00  0.00     0.053 C 
BRANCH  11  12
ATOM     12  C   UNL     1     122.215 122.000 121.439  1.00  0.00     0.041 C 
ATOM     13  O   UNL     1     122.612 121.643 122.580  1.00  0.00    -0.550 OA
ATOM     14  O   UNL     1     120.852 122.060 121.172  1.00  0.00    -0.550 OA
ENDBRANCH  11  12
ENDBRANCH  10  11
ENDBRANCH   9  10
ENDBRANCH   8   9
ENDBRANCH   7   8
ENDBRANCH   6   7
ENDBRANCH   5   6
ENDBRANCH   4   5
ENDBRANCH   3   4
ENDBRANCH   2   3
ENDBRANCH   1   2
BRANCH   1  15
ATOM     15  C   UNL     1     131.389 117.601 119.260  1.00  0.00     0.000 C 
BRANCH  15  16
ATOM     16  C   UNL     1     132.620 118.169 119.991  1.00  0.00     0.000 C 
BRANCH  16  17
ATOM     17  C   UNL     1     132.918 119.629 119.612  1.00  0.00     0.000 C 
BRANCH  17  18
ATOM     18  C   UNL     1     132.410 120.628 120.666  1.00  0.00    -0.000 C 
BRANCH  18  19
ATOM     19  C   UNL     1     131.421 121.653 120.084  1.00  0.00    -0.000 C 
BRANCH  19  20
ATOM     20  C   UNL     1     130.682 121.124 118.844  1.00  0.00    -0.000 C 
BRANCH  20  21
ATOM     21  C   UNL     1     129.153 121.150 119.013  1.00  0.00    -0.000 C 
BRANCH  21  22
ATOM     22  C   UNL     1     128.720 121.575 120.427  1.00  0.00    -0.000 C 
BRANCH  22  23
ATOM     23  C   UNL     1     127.904 120.499 121.174  1.00  0.00    -0.000 C 
BRANCH  23  24
ATOM     24  C   UNL     1     126.465 120.955 121.458  1.00  0.00    -0.000 C 
BRANCH  24  25
ATOM     25  C   UNL     1     125.547 119.751 121.707  1.00  0.00    -0.003 C 
ATOM     26  C   UNL     1     126.355 118.479 121.942  1.00  0.00     0.004 C 
ENDBRANCH  24  25
ENDBRANCH  23  24
ENDBRANCH  22  23
ENDBRANCH  21  22
ENDBRANCH  20  21
ENDBRANCH  19  20
ENDBRANCH  18  19
ENDBRANCH  17  18
ENDBRANCH  16  17
ENDBRANCH  15  16
ENDBRANCH   1  15
TORSDOF 22
ENDMDL
MODEL 3
REMARK VINA RESULT:    -3.474      1.995      4.686
REMARK INTER + INTRA:         -12.181
REMARK INTER:                  -7.879
REMARK INTRA:                  -4.303
REMARK UNBOUND:                -4.240
REMARK SMILES CCCCCCCCCCCCCCCCCCCCCCCC(=O)[O-]
REMARK SMILES IDX 13 1 14 2 15 3 16 4 17 5 18 6 19 7 20 8 21 9 22 10 23 11
REMARK SMILES IDX 24 12 25 13 26 14 12 15 11 16 10 17 9 18 8 19 7 20 6 21 5 22
REMARK SMILES IDX 4 23 3 24 2 25 1 26
REMARK H PARENT
REMARK Flexibility Score: inf
ROOT
ATOM      1  C   UNL     1     126.530 127.854 125.525  1.00  0.00     0.000 C 
ENDROOT
BRANCH   1   2
ATOM      2  C   UNL     1     125.537 126.715 125.225  1.00  0.00     0.000 C 
BRANCH   2   3
ATOM      3  C   UNL     1     124.158 127.224 124.778  1.00  0.00     0.000 C 
BRANCH   3   4
ATOM      4  C   UNL     1     123.202 127.350 125.976  1.00  0.00     0.000 C 
BRANCH   4   5
ATOM      5  C   UNL     1     122.132 128.439 125.757  1.00  0.00     0.000 C 
BRANCH   5   6
ATOM      6  C   UNL     1     122.288 129.205 124.432  1.00  0.00     0.000 C 
BRANCH   6   7
ATOM      7  C   UNL     1     122.636 130.686 124.635  1.00  0.00     0.000 C 
BRANCH   7   8
ATOM      8  C   UNL     1     123.219 131.297 123.352  1.00  0.00     0.000 C 
BRANCH   8   9
ATOM      9  C   UNL     1     123.534 130.236 122.284  1.00  0.00     0.000 C 
BRANCH   9  10
ATOM     10  C   UNL     1     124.472 130.764 121.185  1.00  0.00     0.006 C 
BRANCH  10  11
ATOM     11  C   UNL     1     124.098 130.225 119.798  1.00  0.00     0.053 C 
BRANCH  11  12
ATOM     12  C   UNL     1     125.307 130.001 118.940  1.00  0.00     0.041 C 
ATOM     13  O   UNL     1     125.172 129.688 117.728  1.00  0.00    -0.550 OA
ATOM     14  O   UNL     1     126.580 130.170 119.471  1.00  0.00    -0.550 OA
ENDBRANCH  11  12
ENDBRANCH  10  11
ENDBRANCH   9  10
ENDBRANCH   8   9
ENDBRANCH   7   8
ENDBRANCH   6   7
ENDBRANCH   5   6
ENDBRANCH   4   5
ENDBRANCH   3   4
ENDBRANCH   2   3
ENDBRANCH   1   2
BRANCH   1  15
ATOM     15  C   UNL     1     126.920 128.009 127.009  1.00  0.00     0.000 C 
BRANCH  15  16
ATOM     16  C   UNL     1     126.073 129.016 127.809  1.00  0.00     0.000 C 
BRANCH  16  17
ATOM     17  C   UNL     1     125.488 130.134 126.931  1.00  0.00     0.000 C 
BRANCH  17  18
ATOM     18  C   UNL     1     125.452 131.493 127.651  1.00  0.00    -0.000 C 
BRANCH  18  19
ATOM     19  C   UNL     1     126.606 132.420 127.229  1.00  0.00    -0.000 C 
BRANCH  19  20
ATOM     20  C   UNL     1     127.832 132.294 128.148  1.00  0.00    -0.000 C 
BRANCH  20  21
ATOM     21  C   UNL     1     128.922 131.386 127.554  1.00  0.00    -0.000 C 
BRANCH  21  22
ATOM     22  C   UNL     1     129.192 131.677 126.067  1.00  0.00    -0.000 C 
BRANCH  22  23
ATOM     23  C   UNL     1     129.158 130.418 125.174  1.00  0.00    -0.000 C 
BRANCH  23  24
ATOM     24  C   UNL     1     128.569 130.708 123.784  1.00  0.00    -0.000 C 
BRANCH  24  25
ATOM     25  C   UNL     1     127.079 131.056 123.882  1.00  0.00    -0.003 C 
ATOM     26  C   UNL     1     126.817 132.495 123.447  1.00  0.00     0.004 C 
ENDBRANCH  24  25
ENDBRANCH  23  24
ENDBRANCH  22  23
ENDBRANCH  21  22
ENDBRANCH  20  21
ENDBRANCH  19  20
ENDBRANCH  18  19
ENDBRANCH  17  18
ENDBRANCH  16  17
ENDBRANCH  15  16
ENDBRANCH   1  15
TORSDOF 22
ENDMDL
MODEL 4
REMARK VINA RESULT:    -3.444      3.724      6.425
REMARK INTER + INTRA:         -12.114
REMARK INTER:                  -7.657
REMARK INTRA:                  -4.457
REMARK UNBOUND:                -4.240
REMARK SMILES CCCCCCCCCCCCCCCCCCCCCCCC(=O)[O-]
REMARK SMILES IDX 13 1 14 2 15 3 16 4 17 5 18 6 19 7 20 8 21 9 22 10 23 11
REMARK SMILES IDX 24 12 25 13 26 14 12 15 11 16 10 17 9 18 8 19 7 20 6 21 5 22
REMARK SMILES IDX 4 23 3 24 2 25 1 26
REMARK H PARENT
REMARK Flexibility Score: inf
ROOT
ATOM      1  C   UNL     1     124.747 128.894 129.870  1.00  0.00     0.000 C 
ENDROOT
BRANCH   1   2
ATOM      2  C   UNL     1     125.447 129.729 128.782  1.00  0.00     0.000 C 
BRANCH   2   3
ATOM      3  C   UNL     1     126.978 129.730 128.919  1.00  0.00     0.000 C 
BRANCH   3   4
ATOM      4  C   UNL     1     127.649 129.323 127.597  1.00  0.00     0.000 C 
BRANCH   4   5
ATOM      5  C   UNL     1     126.657 129.318 126.415  1.00  0.00     0.000 C 
BRANCH   5   6
ATOM      6  C   UNL     1     126.626 127.991 125.638  1.00  0.00     0.000 C 
BRANCH   6   7
ATOM      7  C   UNL     1     126.428 126.770 126.546  1.00  0.00     0.000 C 
BRANCH   7   8
ATOM      8  C   UNL     1     125.138 126.018 126.187  1.00  0.00     0.000 C 
BRANCH   8   9
ATOM      9  C   UNL     1     124.212 126.839 125.274  1.00  0.00     0.000 C 
BRANCH   9  10
ATOM     10  C   UNL     1     122.959 127.348 126.007  1.00  0.00     0.006 C 
BRANCH  10  11
ATOM     11  C   UNL     1     122.904 128.880 126.063  1.00  0.00     0.053 C 
BRANCH  11  12
ATOM     12  C   UNL     1     121.999 129.447 125.012  1.00  0.00     0.041 C 
ATOM     13  O   UNL     1     120.917 130.001 125.340  1.00  0.00    -0.550 OA
ATOM     14  O   UNL     1     122.366 129.392 123.673  1.00  0.00    -0.550 OA
ENDBRANCH  11  12
ENDBRANCH  10  11
ENDBRANCH   9  10
ENDBRANCH   8   9
ENDBRANCH   7   8
ENDBRANCH   6   7
ENDBRANCH   5   6
ENDBRANCH   4   5
ENDBRANCH   3   4
ENDBRANCH   2   3
ENDBRANCH   1   2
BRANCH   1  15
ATOM     15  C   UNL     1     124.037 127.621 129.364  1.00  0.00     0.000 C 
BRANCH  15  16
ATOM     16  C   UNL     1     124.592 126.296 129.916  1.00  0.00     0.000 C 
BRANCH  16  17
ATOM     17  C   UNL     1     126.111 126.337 130.153  1.00  0.00     0.000 C 
BRANCH  17  18
ATOM     18  C   UNL     1     126.489 126.051 131.616  1.00  0.00    -0.000 C 
BRANCH  18  19
ATOM     19  C   UNL     1     127.464 127.092 132.193  1.00  0.00    -0.000 C 
BRANCH  19  20
ATOM     20  C   UNL     1     126.742 128.322 132.767  1.00  0.00    -0.000 C 
BRANCH  20  21
ATOM     21  C   UNL     1     125.645 127.944 133.777  1.00  0.00    -0.000 C 
BRANCH  21  22
ATOM     22  C   UNL     1     124.271 128.531 133.407  1.00  0.00    -0.000 C 
BRANCH  22  23
ATOM     23  C   UNL     1     123.164 127.466 133.254  1.00  0.00    -0.000 C 
BRANCH  23  24
ATOM     24  C   UNL     1     121.994 127.963 132.391  1.00  0.00    -0.000 C 
BRANCH  24  25
ATOM     25  C   UNL     1     121.254 129.115 133.082  1.00  0.00    -0.003 C 
ATOM     26  C   UNL     1     121.128 130.323 132.160  1.00  0.00     0.004 C 
ENDBRANCH  24  25
ENDBRANCH  23  24
ENDBRANCH  22  23
ENDBRANCH  21  22
ENDBRANCH  20  21
ENDBRANCH  19  20
ENDBRANCH  18  19
ENDBRANCH  17  18
ENDBRANCH  16  17
ENDBRANCH  15  16
ENDBRANCH   1  15
TORSDOF 22
ENDMDL
MODEL 5
REMARK VINA RESULT:    -3.440      2.056      4.723
REMARK INTER + INTRA:         -12.105
REMARK INTER:                  -7.460
REMARK INTRA:                  -4.645
REMARK UNBOUND:                -4.240
REMARK SMILES CCCCCCCCCCCCCCCCCCCCCCCC(=O)[O-]
REMARK SMILES IDX 13 1 14 2 15 3 16 4 17 5 18 6 19 7 20 8 21 9 22 10 23 11
REMARK SMILES IDX 24 12 25 13 26 14 12 15 11 16 10 17 9 18 8 19 7 20 6 21 5 22
REMARK SMILES IDX 4 23 3 24 2 25 1 26
REMARK H PARENT
REMARK Flexibility Score: inf
ROOT
ATOM      1  C   UNL     1     125.341 129.195 129.629  1.00  0.00     0.000 C 
ENDROOT
BRANCH   1   2
ATOM      2  C   UNL     1     126.041 130.142 128.636  1.00  0.00     0.000 C 
BRANCH   2   3
ATOM      3  C   UNL     1     127.563 129.936 128.584  1.00  0.00     0.000 C 
BRANCH   3   4
ATOM      4  C   UNL     1     128.199 130.804 127.486  1.00  0.00     0.000 C 
BRANCH   4   5
ATOM      5  C   UNL     1     129.300 130.051 126.710  1.00  0.00     0.000 C 
BRANCH   5   6
ATOM      6  C   UNL     1     129.888 130.850 125.535  1.00  0.00     0.000 C 
BRANCH   6   7
ATOM      7  C   UNL     1     129.108 130.653 124.228  1.00  0.00     0.000 C 
BRANCH   7   8
ATOM      8  C   UNL     1     128.969 131.976 123.462  1.00  0.00     0.000 C 
BRANCH   8   9
ATOM      9  C   UNL     1     127.815 132.845 123.989  1.00  0.00     0.000 C 
BRANCH   9  10
ATOM     10  C   UNL     1     126.481 132.080 124.053  1.00  0.00     0.006 C 
BRANCH  10  11
ATOM     11  C   UNL     1     125.561 132.423 122.874  1.00  0.00     0.053 C 
BRANCH  11  12
ATOM     12  C   UNL     1     125.385 131.262 121.944  1.00  0.00     0.041 C 
ATOM     13  O   UNL     1     124.330 130.576 121.981  1.00  0.00    -0.550 OA
ATOM     14  O   UNL     1     126.374 130.956 121.016  1.00  0.00    -0.550 OA
ENDBRANCH  11  12
ENDBRANCH  10  11
ENDBRANCH   9  10
ENDBRANCH   8   9
ENDBRANCH   7   8
ENDBRANCH   6   7
ENDBRANCH   5   6
ENDBRANCH   4   5
ENDBRANCH   3   4
ENDBRANCH   2   3
ENDBRANCH   1   2
BRANCH   1  15
ATOM     15  C   UNL     1     124.117 128.443 129.066  1.00  0.00     0.000 C 
BRANCH  15  16
ATOM     16  C   UNL     1     124.221 126.907 129.091  1.00  0.00     0.000 C 
BRANCH  16  17
ATOM     17  C   UNL     1     125.643 126.410 129.400  1.00  0.00     0.000 C 
BRANCH  17  18
ATOM     18  C   UNL     1     126.388 125.933 128.142  1.00  0.00    -0.000 C 
BRANCH  18  19
ATOM     19  C   UNL     1     125.434 125.457 127.031  1.00  0.00    -0.000 C 
BRANCH  19  20
ATOM     20  C   UNL     1     125.580 126.273 125.737  1.00  0.00    -0.000 C 
BRANCH  20  21
ATOM     21  C   UNL     1     126.613 127.406 125.868  1.00  0.00    -0.000 C 
BRANCH  21  22
ATOM     22  C   UNL     1     126.134 128.722 125.230  1.00  0.00    -0.000 C 
BRANCH  22  23
ATOM     23  C   UNL     1     124.633 128.725 124.871  1.00  0.00    -0.000 C 
BRANCH  23  24
ATOM     24  C   UNL     1     123.870 129.858 125.575  1.00  0.00    -0.000 C 
BRANCH  24  25
ATOM     25  C   UNL     1     122.437 129.427 125.910  1.00  0.00    -0.003 C 
ATOM     26  C   UNL     1     122.297 127.909 125.892  1.00  0.00     0.004 C 
ENDBRANCH  24  25
ENDBRANCH  23  24
ENDBRANCH  22  23
ENDBRANCH  21  22
ENDBRANCH  20  21
ENDBRANCH  19  20
ENDBRANCH  18  19
ENDBRANCH  17  18
ENDBRANCH  16  17
ENDBRANCH  15  16
ENDBRANCH   1  15
TORSDOF 22
ENDMDL
MODEL 6
REMARK VINA RESULT:    -3.419      2.550      4.234
REMARK INTER + INTRA:         -12.057
REMARK INTER:                  -7.762
REMARK INTRA:                  -4.295
REMARK UNBOUND:                -4.240
REMARK SMILES CCCCCCCCCCCCCCCCCCCCCCCC(=O)[O-]
REMARK SMILES IDX 13 1 14 2 15 3 16 4 17 5 18 6 19 7 20 8 21 9 22 10 23 11
REMARK SMILES IDX 24 12 25 13 26 14 12 15 11 16 10 17 9 18 8 19 7 20 6 21 5 22
REMARK SMILES IDX 4 23 3 24 2 25 1 26
REMARK H PARENT
REMARK Flexibility Score: inf
ROOT
ATOM      1  C   UNL     1     125.192 129.823 128.939  1.00  0.00     0.000 C 
ENDROOT
BRANCH   1   2
ATOM      2  C   UNL     1     125.471 130.844 127.820  1.00  0.00     0.000 C 
BRANCH   2   3
ATOM      3  C   UNL     1     126.963 130.962 127.474  1.00  0.00     0.000 C 
BRANCH   3   4
ATOM      4  C   UNL     1     127.636 129.580 127.457  1.00  0.00     0.000 C 
BRANCH   4   5
ATOM      5  C   UNL     1     128.609 129.418 126.270  1.00  0.00     0.000 C 
BRANCH   5   6
ATOM      6  C   UNL     1     129.259 130.737 125.818  1.00  0.00     0.000 C 
BRANCH   6   7
ATOM      7  C   UNL     1     128.955 131.082 124.354  1.00  0.00     0.000 C 
BRANCH   7   8
ATOM      8  C   UNL     1     127.907 130.125 123.767  1.00  0.00     0.000 C 
BRANCH   8   9
ATOM      9  C   UNL     1     126.529 130.788 123.605  1.00  0.00     0.000 C 
BRANCH   9  10
ATOM     10  C   UNL     1     125.399 129.970 124.254  1.00  0.00     0.006 C 
BRANCH  10  11
ATOM     11  C   UNL     1     124.037 130.664 124.128  1.00  0.00     0.053 C 
BRANCH  11  12
ATOM     12  C   UNL     1     123.016 129.781 123.476  1.00  0.00     0.041 C 
ATOM     13  O   UNL     1     122.023 129.371 124.133  1.00  0.00    -0.550 OA
ATOM     14  O   UNL     1     123.145 129.438 122.136  1.00  0.00    -0.550 OA
ENDBRANCH  11  12
ENDBRANCH  10  11
ENDBRANCH   9  10
ENDBRANCH   8   9
ENDBRANCH   7   8
ENDBRANCH   6   7
ENDBRANCH   5   6
ENDBRANCH   4   5
ENDBRANCH   3   4
ENDBRANCH   2   3
ENDBRANCH   1   2
BRANCH   1  15
ATOM     15  C   UNL     1     123.893 129.007 128.774  1.00  0.00     0.000 C 
BRANCH  15  16
ATOM     16  C   UNL     1     123.430 128.796 127.321  1.00  0.00     0.000 C 
BRANCH  16  17
ATOM     17  C   UNL     1     123.457 127.318 126.895  1.00  0.00     0.000 C 
BRANCH  17  18
ATOM     18  C   UNL     1     124.577 127.015 125.886  1.00  0.00    -0.000 C 
BRANCH  18  19
ATOM     19  C   UNL     1     124.909 125.515 125.800  1.00  0.00    -0.000 C 
BRANCH  19  20
ATOM     20  C   UNL     1     125.639 124.998 127.050  1.00  0.00    -0.000 C 
BRANCH  20  21
ATOM     21  C   UNL     1     126.743 125.958 127.527  1.00  0.00    -0.000 C 
BRANCH  21  22
ATOM     22  C   UNL     1     126.579 126.365 129.002  1.00  0.00    -0.000 C 
BRANCH  22  23
ATOM     23  C   UNL     1     125.409 125.654 129.714  1.00  0.00    -0.000 C 
BRANCH  23  24
ATOM     24  C   UNL     1     125.659 125.490 131.221  1.00  0.00    -0.000 C 
BRANCH  24  25
ATOM     25  C   UNL     1     125.707 126.853 131.920  1.00  0.00    -0.003 C 
ATOM     26  C   UNL     1     124.305 127.417 132.129  1.00  0.00     0.004 C 
ENDBRANCH  24  25
ENDBRANCH  23  24
ENDBRANCH  22  23
ENDBRANCH  21  22
ENDBRANCH  20  21
ENDBRANCH  19  20
ENDBRANCH  18  19
ENDBRANCH  17  18
ENDBRANCH  16  17
ENDBRANCH  15  16
ENDBRANCH   1  15
TORSDOF 22
ENDMDL
MODEL 7
REMARK VINA RESULT:    -3.417      9.246     11.683
REMARK INTER + INTRA:         -12.051
REMARK INTER:                  -8.116
REMARK INTRA:                  -3.935
REMARK UNBOUND:                -4.240
REMARK SMILES CCCCCCCCCCCCCCCCCCCCCCCC(=O)[O-]
REMARK SMILES IDX 13 1 14 2 15 3 16 4 17 5 18 6 19 7 20 8 21 9 22 10 23 11
REMARK SMILES IDX 24 12 25 13 26 14 12 15 11 16 10 17 9 18 8 19 7 20 6 21 5 22
REMARK SMILES IDX 4 23 3 24 2 25 1 26
REMARK H PARENT
REMARK Flexibility Score: inf
ROOT
ATOM      1  C   UNL     1     127.119 119.004 117.936  1.00  0.00     0.000 C 
ENDROOT
BRANCH   1   2
ATOM      2  C   UNL     1     125.958 120.010 117.837  1.00  0.00     0.000 C 
BRANCH   2   3
ATOM      3  C   UNL     1     124.587 119.331 117.697  1.00  0.00     0.000 C 
BRANCH   3   4
ATOM      4  C   UNL     1     123.556 120.292 117.081  1.00  0.00     0.000 C 
BRANCH   4   5
ATOM      5  C   UNL     1     124.141 121.700 116.842  1.00  0.00     0.000 C 
BRANCH   5   6
ATOM      6  C   UNL     1     123.392 122.817 117.588  1.00  0.00     0.000 C 
BRANCH   6   7
ATOM      7  C   UNL     1     122.778 122.345 118.913  1.00  0.00     0.000 C 
BRANCH   7   8
ATOM      8  C   UNL     1     123.774 122.500 120.070  1.00  0.00     0.000 C 
BRANCH   8   9
ATOM      9  C   UNL     1     123.781 121.282 121.009  1.00  0.00     0.000 C 
BRANCH   9  10
ATOM     10  C   UNL     1     123.895 121.679 122.492  1.00  0.00     0.006 C 
BRANCH  10  11
ATOM     11  C   UNL     1     122.665 122.456 122.978  1.00  0.00     0.053 C 
BRANCH  11  12
ATOM     12  C   UNL     1     121.394 121.698 122.742  1.00  0.00     0.041 C 
ATOM     13  O   UNL     1     121.139 120.665 123.415  1.00  0.00    -0.550 OA
ATOM     14  O   UNL     1     120.477 122.150 121.800  1.00  0.00    -0.550 OA
ENDBRANCH  11  12
ENDBRANCH  10  11
ENDBRANCH   9  10
ENDBRANCH   8   9
ENDBRANCH   7   8
ENDBRANCH   6   7
ENDBRANCH   5   6
ENDBRANCH   4   5
ENDBRANCH   3   4
ENDBRANCH   2   3
ENDBRANCH   1   2
BRANCH   1  15
ATOM     15  C   UNL     1     127.465 118.541 119.366  1.00  0.00     0.000 C 
BRANCH  15  16
ATOM     16  C   UNL     1     126.956 119.456 120.495  1.00  0.00     0.000 C 
BRANCH  16  17
ATOM     17  C   UNL     1     128.092 120.199 121.218  1.00  0.00     0.000 C 
BRANCH  17  18
ATOM     18  C   UNL     1     128.402 121.566 120.583  1.00  0.00    -0.000 C 
BRANCH  18  19
ATOM     19  C   UNL     1     129.797 121.618 119.937  1.00  0.00    -0.000 C 
BRANCH  19  20
ATOM     20  C   UNL     1     129.782 121.193 118.460  1.00  0.00    -0.000 C 
BRANCH  20  21
ATOM     21  C   UNL     1     131.058 120.440 118.050  1.00  0.00    -0.000 C 
BRANCH  21  22
ATOM     22  C   UNL     1     130.784 118.977 117.657  1.00  0.00    -0.000 C 
BRANCH  22  23
ATOM     23  C   UNL     1     131.163 117.960 118.755  1.00  0.00    -0.000 C 
BRANCH  23  24
ATOM     24  C   UNL     1     132.070 118.578 119.830  1.00  0.00    -0.000 C 
BRANCH  24  25
ATOM     25  C   UNL     1     131.417 118.493 121.214  1.00  0.00    -0.003 C 
ATOM     26  C   UNL     1     130.412 117.348 121.282  1.00  0.00     0.004 C 
ENDBRANCH  24  25
ENDBRANCH  23  24
ENDBRANCH  22  23
ENDBRANCH  21  22
ENDBRANCH  20  21
ENDBRANCH  19  20
ENDBRANCH  18  19
ENDBRANCH  17  18
ENDBRANCH  16  17
ENDBRANCH  15  16
ENDBRANCH   1  15
TORSDOF 22
ENDMDL
MODEL 8
REMARK VINA RESULT:    -3.408      1.632      3.368
REMARK INTER + INTRA:         -12.030
REMARK INTER:                  -8.062
REMARK INTRA:                  -3.968
REMARK UNBOUND:                -4.240
REMARK SMILES CCCCCCCCCCCCCCCCCCCCCCCC(=O)[O-]
REMARK SMILES IDX 13 1 14 2 15 3 16 4 17 5 18 6 19 7 20 8 21 9 22 10 23 11
REMARK SMILES IDX 24 12 25 13 26 14 12 15 11 16 10 17 9 18 8 19 7 20 6 21 5 22
REMARK SMILES IDX 4 23 3 24 2 25 1 26
REMARK H PARENT
REMARK Flexibility Score: inf
ROOT
ATOM      1  C   UNL     1     126.655 129.685 126.267  1.00  0.00     0.000 C 
ENDROOT
BRANCH   1   2
ATOM      2  C   UNL     1     128.119 129.279 126.521  1.00  0.00     0.000 C 
BRANCH   2   3
ATOM      3  C   UNL     1     129.126 130.174 125.784  1.00  0.00     0.000 C 
BRANCH   3   4
ATOM      4  C   UNL     1     128.415 131.340 125.078  1.00  0.00     0.000 C 
BRANCH   4   5
ATOM      5  C   UNL     1     128.450 131.201 123.542  1.00  0.00     0.000 C 
BRANCH   5   6
ATOM      6  C   UNL     1     127.057 131.129 122.894  1.00  0.00     0.000 C 
BRANCH   6   7
ATOM      7  C   UNL     1     126.142 132.287 123.312  1.00  0.00     0.000 C 
BRANCH   7   8
ATOM      8  C   UNL     1     124.767 131.771 123.760  1.00  0.00     0.000 C 
BRANCH   8   9
ATOM      9  C   UNL     1     124.285 130.575 122.923  1.00  0.00     0.000 C 
BRANCH   9  10
ATOM     10  C   UNL     1     123.521 131.006 121.659  1.00  0.00     0.006 C 
BRANCH  10  11
ATOM     11  C   UNL     1     123.507 129.907 120.589  1.00  0.00     0.053 C 
BRANCH  11  12
ATOM     12  C   UNL     1     124.531 130.152 119.522  1.00  0.00     0.041 C 
ATOM     13  O   UNL     1     124.612 129.376 118.533  1.00  0.00    -0.550 OA
ATOM     14  O   UNL     1     125.374 131.254 119.604  1.00  0.00    -0.550 OA
ENDBRANCH  11  12
ENDBRANCH  10  11
ENDBRANCH   9  10
ENDBRANCH   8   9
ENDBRANCH   7   8
ENDBRANCH   6   7
ENDBRANCH   5   6
ENDBRANCH   4   5
ENDBRANCH   3   4
ENDBRANCH   2   3
ENDBRANCH   1   2
BRANCH   1  15
ATOM     15  C   UNL     1     125.894 130.202 127.505  1.00  0.00     0.000 C 
BRANCH  15  16
ATOM     16  C   UNL     1     124.530 129.537 127.763  1.00  0.00     0.000 C 
BRANCH  16  17
ATOM     17  C   UNL     1     123.673 129.420 126.492  1.00  0.00     0.000 C 
BRANCH  17  18
ATOM     18  C   UNL     1     123.388 127.959 126.104  1.00  0.00    -0.000 C 
BRANCH  18  19
ATOM     19  C   UNL     1     124.237 127.486 124.910  1.00  0.00    -0.000 C 
BRANCH  19  20
ATOM     20  C   UNL     1     124.786 126.063 125.103  1.00  0.00    -0.000 C 
BRANCH  20  21
ATOM     21  C   UNL     1     124.999 125.709 126.585  1.00  0.00    -0.000 C 
BRANCH  21  22
ATOM     22  C   UNL     1     126.444 125.959 127.053  1.00  0.00    -0.000 C 
BRANCH  22  23
ATOM     23  C   UNL     1     126.540 126.567 128.469  1.00  0.00    -0.000 C 
BRANCH  23  24
ATOM     24  C   UNL     1     125.652 125.825 129.480  1.00  0.00    -0.000 C 
BRANCH  24  25
ATOM     25  C   UNL     1     124.723 126.800 130.213  1.00  0.00    -0.003 C 
ATOM     26  C   UNL     1     123.317 126.773 129.622  1.00  0.00     0.004 C 
ENDBRANCH  24  25
ENDBRANCH  23  24
ENDBRANCH  22  23
ENDBRANCH  21  22
ENDBRANCH  20  21
ENDBRANCH  19  20
ENDBRANCH  18  19
ENDBRANCH  17  18
ENDBRANCH  16  17
ENDBRANCH  15  16
ENDBRANCH   1  15
TORSDOF 22
ENDMDL
MODEL 9
REMARK VINA RESULT:    -3.406     10.138     12.322
REMARK INTER + INTRA:         -12.026
REMARK INTER:                  -7.793
REMARK INTRA:                  -4.233
REMARK UNBOUND:                -4.240
REMARK SMILES CCCCCCCCCCCCCCCCCCCCCCCC(=O)[O-]
REMARK SMILES IDX 13 1 14 2 15 3 16 4 17 5 18 6 19 7 20 8 21 9 22 10 23 11
REMARK SMILES IDX 24 12 25 13 26 14 12 15 11 16 10 17 9 18 8 19 7 20 6 21 5 22
REMARK SMILES IDX 4 23 3 24 2 25 1 26
REMARK H PARENT
REMARK Flexibility Score: inf
ROOT
ATOM      1  C   UNL     1     129.162 121.878 120.419  1.00  0.00     0.000 C 
ENDROOT
BRANCH   1   2
ATOM      2  C   UNL     1     128.012 121.250 121.228  1.00  0.00     0.000 C 
BRANCH   2   3
ATOM      3  C   UNL     1     128.030 119.714 121.203  1.00  0.00     0.000 C 
BRANCH   3   4
ATOM      4  C   UNL     1     129.130 119.191 120.266  1.00  0.00     0.000 C 
BRANCH   4   5
ATOM      5  C   UNL     1     128.551 118.517 119.004  1.00  0.00     0.000 C 
BRANCH   5   6
ATOM      6  C   UNL     1     128.361 119.479 117.819  1.00  0.00     0.000 C 
BRANCH   6   7
ATOM      7  C   UNL     1     126.979 120.146 117.806  1.00  0.00     0.000 C 
BRANCH   7   8
ATOM      8  C   UNL     1     125.870 119.125 118.100  1.00  0.00     0.000 C 
BRANCH   8   9
ATOM      9  C   UNL     1     124.868 119.630 119.152  1.00  0.00     0.000 C 
BRANCH   9  10
ATOM     10  C   UNL     1     124.953 121.151 119.367  1.00  0.00     0.006 C 
BRANCH  10  11
ATOM     11  C   UNL     1     123.584 121.830 119.236  1.00  0.00     0.053 C 
BRANCH  11  12
ATOM     12  C   UNL     1     123.485 122.657 117.990  1.00  0.00     0.041 C 
ATOM     13  O   UNL     1     124.208 122.389 116.994  1.00  0.00    -0.550 OA
ATOM     14  O   UNL     1     122.574 123.704 117.918  1.00  0.00    -0.550 OA
ENDBRANCH  11  12
ENDBRANCH  10  11
ENDBRANCH   9  10
ENDBRANCH   8   9
ENDBRANCH   7   8
ENDBRANCH   6   7
ENDBRANCH   5   6
ENDBRANCH   4   5
ENDBRANCH   3   4
ENDBRANCH   2   3
ENDBRANCH   1   2
BRANCH   1  15
ATOM     15  C   UNL     1     129.881 123.055 121.108  1.00  0.00     0.000 C 
BRANCH  15  16
ATOM     16  C   UNL     1     131.420 123.000 121.068  1.00  0.00     0.000 C 
BRANCH  16  17
ATOM     17  C   UNL     1     131.954 122.021 120.009  1.00  0.00     0.000 C 
BRANCH  17  18
ATOM     18  C   UNL     1     132.579 120.761 120.632  1.00  0.00    -0.000 C 
BRANCH  18  19
ATOM     19  C   UNL     1     132.663 119.587 119.641  1.00  0.00    -0.000 C 
BRANCH  19  20
ATOM     20  C   UNL     1     132.088 119.938 118.259  1.00  0.00    -0.000 C 
BRANCH  20  21
ATOM     21  C   UNL     1     132.023 118.720 117.321  1.00  0.00    -0.000 C 
BRANCH  21  22
ATOM     22  C   UNL     1     132.712 117.478 117.913  1.00  0.00    -0.000 C 
BRANCH  22  23
ATOM     23  C   UNL     1     131.854 116.197 117.832  1.00  0.00    -0.000 C 
BRANCH  23  24
ATOM     24  C   UNL     1     131.131 115.899 119.155  1.00  0.00    -0.000 C 
BRANCH  24  25
ATOM     25  C   UNL     1     132.086 116.039 120.346  1.00  0.00    -0.003 C 
ATOM     26  C   UNL     1     131.356 116.554 121.582  1.00  0.00     0.004 C 
ENDBRANCH  24  25
ENDBRANCH  23  24
ENDBRANCH  22  23
ENDBRANCH  21  22
ENDBRANCH  20  21
ENDBRANCH  19  20
ENDBRANCH  18  19
ENDBRANCH  17  18
ENDBRANCH  16  17
ENDBRANCH  15  16
ENDBRANCH   1  15
TORSDOF 22
ENDMDL
