MODEL 1
REMARK VINA RESULT:    -4.905      0.000      0.000
REMARK INTER + INTRA:          -6.746
REMARK INTER:                  -6.625
REMARK INTRA:                  -0.120
REMARK UNBOUND:                -0.120
REMARK SMILES [NH3+]CCCC[C@H]([NH3+])C(=O)[O-]
REMARK SMILES IDX 4 1 3 2 2 3 1 4 5 8 6 9 7 10 8 14 9 15 10 16
REMARK H PARENT 1 5 1 6 1 7 7 11 7 12 7 13
REMARK Flexibility Score: inf
ROOT
ATOM      1  C   UNL     1     -19.861  24.595 -20.873  1.00  0.00     0.012 C 
ENDROOT
BRANCH   1   2
ATOM      2  C   UNL     1     -19.785  26.017 -20.305  1.00  0.00     0.061 C 
BRANCH   2   3
ATOM      3  C   UNL     1     -18.380  26.324 -19.768  1.00  0.00     0.258 C 
BRANCH   3   4
ATOM      4  N   UNL     1     -17.680  27.264 -20.643  1.00  0.00    -0.358 N 
ATOM      5  H   UNL     1     -17.133  26.726 -21.355  1.00  0.00     0.344 HD
ATOM      6  H   UNL     1     -17.021  27.853 -20.085  1.00  0.00     0.344 HD
ATOM      7  H   UNL     1     -18.369  27.875 -21.139  1.00  0.00     0.344 HD
ENDBRANCH   3   4
ENDBRANCH   2   3
ENDBRANCH   1   2
BRANCH   1   8
ATOM      8  C   UNL     1     -19.328  23.569 -19.862  1.00  0.00     0.072 C 
BRANCH   8   9
ATOM      9  C   UNL     1     -19.873  22.145 -20.115  1.00  0.00     0.227 C 
BRANCH   9  10
ATOM     10  N   UNL     1     -19.917  21.826 -21.549  1.00  0.00    -0.350 N 
ATOM     11  H   UNL     1     -19.043  22.142 -22.028  1.00  0.00     0.345 HD
ATOM     12  H   UNL     1     -20.036  20.797 -21.686  1.00  0.00     0.345 HD
ATOM     13  H   UNL     1     -20.740  22.299 -21.992  1.00  0.00     0.345 HD
ENDBRANCH   9  10
BRANCH   9  14
ATOM     14  C   UNL     1     -21.250  22.022 -19.518  1.00  0.00     0.099 C 
ATOM     15  O   UNL     1     -22.270  22.159 -20.244  1.00  0.00    -0.544 OA
ATOM     16  O   UNL     1     -21.404  21.737 -18.167  1.00  0.00    -0.544 OA
ENDBRANCH   9  14
ENDBRANCH   8   9
ENDBRANCH   1   8
TORSDOF 7
ENDMDL
MODEL 2
REMARK VINA RESULT:    -4.866      3.029      4.640
REMARK INTER + INTRA:          -6.694
REMARK INTER:                  -6.595
REMARK INTRA:                  -0.099
REMARK UNBOUND:                -0.120
REMARK SMILES [NH3+]CCCC[C@H]([NH3+])C(=O)[O-]
REMARK SMILES IDX 4 1 3 2 2 3 1 4 5 8 6 9 7 10 8 14 9 15 10 16
REMARK H PARENT 1 5 1 6 1 7 7 11 7 12 7 13
REMARK Flexibility Score: inf
ROOT
ATOM      1  C   UNL     1     -20.669  21.849 -19.177  1.00  0.00     0.012 C 
ENDROOT
BRANCH   1   2
ATOM      2  C   UNL     1     -21.923  22.029 -18.313  1.00  0.00     0.061 C 
BRANCH   2   3
ATOM      3  C   UNL     1     -21.944  21.026 -17.152  1.00  0.00     0.258 C 
BRANCH   3   4
ATOM      4  N   UNL     1     -21.199  21.542 -16.003  1.00  0.00    -0.358 N 
ATOM      5  H   UNL     1     -20.207  21.713 -16.288  1.00  0.00     0.344 HD
ATOM      6  H   UNL     1     -21.211  20.844 -15.224  1.00  0.00     0.344 HD
ATOM      7  H   UNL     1     -21.617  22.443 -15.679  1.00  0.00     0.344 HD
ENDBRANCH   3   4
ENDBRANCH   2   3
ENDBRANCH   1   2
BRANCH   1   8
ATOM      8  C   UNL     1     -19.859  23.152 -19.250  1.00  0.00     0.072 C 
BRANCH   8   9
ATOM      9  C   UNL     1     -19.908  23.806 -20.649  1.00  0.00     0.227 C 
BRANCH   9  10
ATOM     10  N   UNL     1     -18.848  23.293 -21.528  1.00  0.00    -0.350 N 
ATOM     11  H   UNL     1     -18.607  22.305 -21.283  1.00  0.00     0.345 HD
ATOM     12  H   UNL     1     -19.154  23.338 -22.526  1.00  0.00     0.345 HD
ATOM     13  H   UNL     1     -17.992  23.888 -21.435  1.00  0.00     0.345 HD
ENDBRANCH   9  10
BRANCH   9  14
ATOM     14  C   UNL     1     -19.782  25.300 -20.508  1.00  0.00     0.099 C 
ATOM     15  O   UNL     1     -20.474  26.065 -21.233  1.00  0.00    -0.544 OA
ATOM     16  O   UNL     1     -18.919  25.844 -19.566  1.00  0.00    -0.544 OA
ENDBRANCH   9  14
ENDBRANCH   8   9
ENDBRANCH   1   8
TORSDOF 7
ENDMDL
MODEL 3
REMARK VINA RESULT:    -4.830      2.134      2.289
REMARK INTER + INTRA:          -6.645
REMARK INTER:                  -6.527
REMARK INTRA:                  -0.118
REMARK UNBOUND:                -0.120
REMARK SMILES [NH3+]CCCC[C@H]([NH3+])C(=O)[O-]
REMARK SMILES IDX 4 1 3 2 2 3 1 4 5 8 6 9 7 10 8 14 9 15 10 16
REMARK H PARENT 1 5 1 6 1 7 7 11 7 12 7 13
REMARK Flexibility Score: inf
ROOT
ATOM      1  C   UNL     1     -19.692  24.410 -19.647  1.00  0.00     0.012 C 
ENDROOT
BRANCH   1   2
ATOM      2  C   UNL     1     -19.475  25.733 -20.391  1.00  0.00     0.061 C 
BRANCH   2   3
ATOM      3  C   UNL     1     -18.334  26.542 -19.758  1.00  0.00     0.258 C 
BRANCH   3   4
ATOM      4  N   UNL     1     -17.626  27.326 -20.769  1.00  0.00    -0.358 N 
ATOM      5  H   UNL     1     -17.513  26.747 -21.633  1.00  0.00     0.344 HD
ATOM      6  H   UNL     1     -16.679  27.595 -20.417  1.00  0.00     0.344 HD
ATOM      7  H   UNL     1     -18.173  28.184 -21.007  1.00  0.00     0.344 HD
ENDBRANCH   3   4
ENDBRANCH   2   3
ENDBRANCH   1   2
BRANCH   1   8
ATOM      8  C   UNL     1     -20.661  23.499 -20.416  1.00  0.00     0.072 C 
BRANCH   8   9
ATOM      9  C   UNL     1     -20.209  22.021 -20.423  1.00  0.00     0.227 C 
BRANCH   9  10
ATOM     10  N   UNL     1     -20.407  21.384 -19.114  1.00  0.00    -0.350 N 
ATOM     11  H   UNL     1     -21.145  20.644 -19.168  1.00  0.00     0.345 HD
ATOM     12  H   UNL     1     -19.513  20.960 -18.781  1.00  0.00     0.345 HD
ATOM     13  H   UNL     1     -20.695  22.104 -18.410  1.00  0.00     0.345 HD
ENDBRANCH   9  10
BRANCH   9  14
ATOM     14  C   UNL     1     -18.758  21.943 -20.820  1.00  0.00     0.099 C 
ATOM     15  O   UNL     1     -18.407  22.224 -21.996  1.00  0.00    -0.544 OA
ATOM     16  O   UNL     1     -17.796  21.581 -19.886  1.00  0.00    -0.544 OA
ENDBRANCH   9  14
ENDBRANCH   8   9
ENDBRANCH   1   8
TORSDOF 7
ENDMDL
MODEL 4
REMARK VINA RESULT:    -4.793      3.130      4.826
REMARK INTER + INTRA:          -6.594
REMARK INTER:                  -6.476
REMARK INTRA:                  -0.119
REMARK UNBOUND:                -0.120
REMARK SMILES [NH3+]CCCC[C@H]([NH3+])C(=O)[O-]
REMARK SMILES IDX 4 1 3 2 2 3 1 4 5 8 6 9 7 10 8 14 9 15 10 16
REMARK H PARENT 1 5 1 6 1 7 7 11 7 12 7 13
REMARK Flexibility Score: inf
ROOT
ATOM      1  C   UNL     1     -20.982  21.897 -18.514  1.00  0.00     0.012 C 
ENDROOT
BRANCH   1   2
ATOM      2  C   UNL     1     -22.395  21.773 -17.934  1.00  0.00     0.061 C 
BRANCH   2   3
ATOM      3  C   UNL     1     -22.436  20.747 -16.792  1.00  0.00     0.258 C 
BRANCH   3   4
ATOM      4  N   UNL     1     -22.133  21.382 -15.509  1.00  0.00    -0.358 N 
ATOM      5  H   UNL     1     -22.922  21.206 -14.846  1.00  0.00     0.344 HD
ATOM      6  H   UNL     1     -22.022  22.414 -15.636  1.00  0.00     0.344 HD
ATOM      7  H   UNL     1     -21.256  20.979 -15.107  1.00  0.00     0.344 HD
ENDBRANCH   3   4
ENDBRANCH   2   3
ENDBRANCH   1   2
BRANCH   1   8
ATOM      8  C   UNL     1     -20.990  22.714 -19.815  1.00  0.00     0.072 C 
BRANCH   8   9
ATOM      9  C   UNL     1     -19.606  23.311 -20.152  1.00  0.00     0.227 C 
BRANCH   9  10
ATOM     10  N   UNL     1     -19.712  24.432 -21.097  1.00  0.00    -0.350 N 
ATOM     11  H   UNL     1     -19.989  25.311 -20.602  1.00  0.00     0.345 HD
ATOM     12  H   UNL     1     -18.800  24.580 -21.584  1.00  0.00     0.345 HD
ATOM     13  H   UNL     1     -20.427  24.212 -21.829  1.00  0.00     0.345 HD
ENDBRANCH   9  10
BRANCH   9  14
ATOM     14  C   UNL     1     -18.722  22.236 -20.727  1.00  0.00     0.099 C 
ATOM     15  O   UNL     1     -18.939  21.791 -21.886  1.00  0.00    -0.544 OA
ATOM     16  O   UNL     1     -17.652  21.742 -19.993  1.00  0.00    -0.544 OA
ENDBRANCH   9  14
ENDBRANCH   8   9
ENDBRANCH   1   8
TORSDOF 7
ENDMDL
MODEL 5
REMARK VINA RESULT:    -4.424      1.429      1.999
REMARK INTER + INTRA:          -6.097
REMARK INTER:                  -5.982
REMARK INTRA:                  -0.115
REMARK UNBOUND:                -0.120
REMARK SMILES [NH3+]CCCC[C@H]([NH3+])C(=O)[O-]
REMARK SMILES IDX 4 1 3 2 2 3 1 4 5 8 6 9 7 10 8 14 9 15 10 16
REMARK H PARENT 1 5 1 6 1 7 7 11 7 12 7 13
REMARK Flexibility Score: inf
ROOT
ATOM      1  C   UNL     1     -19.174  23.125 -20.049  1.00  0.00     0.012 C 
ENDROOT
BRANCH   1   2
ATOM      2  C   UNL     1     -19.403  24.496 -20.696  1.00  0.00     0.061 C 
BRANCH   2   3
ATOM      3  C   UNL     1     -19.445  25.607 -19.637  1.00  0.00     0.258 C 
BRANCH   3   4
ATOM      4  N   UNL     1     -18.439  26.632 -19.916  1.00  0.00    -0.358 N 
ATOM      5  H   UNL     1     -18.331  27.243 -19.074  1.00  0.00     0.344 HD
ATOM      6  H   UNL     1     -18.742  27.222 -20.725  1.00  0.00     0.344 HD
ATOM      7  H   UNL     1     -17.519  26.185 -20.129  1.00  0.00     0.344 HD
ENDBRANCH   3   4
ENDBRANCH   2   3
ENDBRANCH   1   2
BRANCH   1   8
ATOM      8  C   UNL     1     -20.119  22.915 -18.856  1.00  0.00     0.072 C 
BRANCH   8   9
ATOM      9  C   UNL     1     -21.079  21.721 -19.059  1.00  0.00     0.227 C 
BRANCH   9  10
ATOM     10  N   UNL     1     -21.873  21.864 -20.287  1.00  0.00    -0.350 N 
ATOM     11  H   UNL     1     -21.821  22.843 -20.652  1.00  0.00     0.345 HD
ATOM     12  H   UNL     1     -21.530  21.202 -21.018  1.00  0.00     0.345 HD
ATOM     13  H   UNL     1     -22.874  21.626 -20.092  1.00  0.00     0.345 HD
ENDBRANCH   9  10
BRANCH   9  14
ATOM     14  C   UNL     1     -21.990  21.602 -17.867  1.00  0.00     0.099 C 
ATOM     15  O   UNL     1     -21.592  21.024 -16.821  1.00  0.00    -0.544 OA
ATOM     16  O   UNL     1     -23.268  22.146 -17.905  1.00  0.00    -0.544 OA
ENDBRANCH   9  14
ENDBRANCH   8   9
ENDBRANCH   1   8
TORSDOF 7
ENDMDL
MODEL 6
REMARK VINA RESULT:    -4.090      2.091      2.277
REMARK INTER + INTRA:          -5.645
REMARK INTER:                  -5.653
REMARK INTRA:                   0.008
REMARK UNBOUND:                -0.120
REMARK SMILES [NH3+]CCCC[C@H]([NH3+])C(=O)[O-]
REMARK SMILES IDX 4 1 3 2 2 3 1 4 5 8 6 9 7 10 8 14 9 15 10 16
REMARK H PARENT 1 5 1 6 1 7 7 11 7 12 7 13
REMARK Flexibility Score: inf
ROOT
ATOM      1  C   UNL     1     -19.050  23.538 -20.123  1.00  0.00     0.012 C 
ENDROOT
BRANCH   1   2
ATOM      2  C   UNL     1     -19.414  24.940 -19.620  1.00  0.00     0.061 C 
BRANCH   2   3
ATOM      3  C   UNL     1     -19.586  25.920 -20.789  1.00  0.00     0.258 C 
BRANCH   3   4
ATOM      4  N   UNL     1     -20.733  25.547 -21.618  1.00  0.00    -0.358 N 
ATOM      5  H   UNL     1     -20.483  24.708 -22.190  1.00  0.00     0.344 HD
ATOM      6  H   UNL     1     -20.982  26.333 -22.261  1.00  0.00     0.344 HD
ATOM      7  H   UNL     1     -21.552  25.312 -21.013  1.00  0.00     0.344 HD
ENDBRANCH   3   4
ENDBRANCH   2   3
ENDBRANCH   1   2
BRANCH   1   8
ATOM      8  C   UNL     1     -19.451  22.465 -19.100  1.00  0.00     0.072 C 
BRANCH   8   9
ATOM      9  C   UNL     1     -20.982  22.347 -18.930  1.00  0.00     0.227 C 
BRANCH   9  10
ATOM     10  N   UNL     1     -21.344  21.291 -17.975  1.00  0.00    -0.350 N 
ATOM     11  H   UNL     1     -21.361  20.355 -18.443  1.00  0.00     0.345 HD
ATOM     12  H   UNL     1     -20.662  21.271 -17.184  1.00  0.00     0.345 HD
ATOM     13  H   UNL     1     -22.289  21.487 -17.570  1.00  0.00     0.345 HD
ENDBRANCH   9  10
BRANCH   9  14
ATOM     14  C   UNL     1     -21.615  22.070 -20.268  1.00  0.00     0.099 C 
ATOM     15  O   UNL     1     -21.011  21.366 -21.121  1.00  0.00    -0.544 OA
ATOM     16  O   UNL     1     -22.877  22.571 -20.563  1.00  0.00    -0.544 OA
ENDBRANCH   9  14
ENDBRANCH   8   9
ENDBRANCH   1   8
TORSDOF 7
ENDMDL
MODEL 7
REMARK VINA RESULT:    -3.963     15.320     16.809
REMARK INTER + INTRA:          -5.474
REMARK INTER:                  -5.355
REMARK INTRA:                  -0.119
REMARK UNBOUND:                -0.120
REMARK SMILES [NH3+]CCCC[C@H]([NH3+])C(=O)[O-]
REMARK SMILES IDX 4 1 3 2 2 3 1 4 5 8 6 9 7 10 8 14 9 15 10 16
REMARK H PARENT 1 5 1 6 1 7 7 11 7 12 7 13
REMARK Flexibility Score: inf
ROOT
ATOM      1  C   UNL     1     -18.782  38.536 -29.702  1.00  0.00     0.012 C 
ENDROOT
BRANCH   1   2
ATOM      2  C   UNL     1     -17.668  39.199 -30.521  1.00  0.00     0.061 C 
BRANCH   2   3
ATOM      3  C   UNL     1     -18.045  39.272 -32.008  1.00  0.00     0.258 C 
BRANCH   3   4
ATOM      4  N   UNL     1     -16.894  39.669 -32.818  1.00  0.00    -0.358 N 
ATOM      5  H   UNL     1     -16.706  38.928 -33.532  1.00  0.00     0.344 HD
ATOM      6  H   UNL     1     -16.048  39.777 -32.214  1.00  0.00     0.344 HD
ATOM      7  H   UNL     1     -17.094  40.569 -33.311  1.00  0.00     0.344 HD
ENDBRANCH   3   4
ENDBRANCH   2   3
ENDBRANCH   1   2
BRANCH   1   8
ATOM      8  C   UNL     1     -18.453  37.063 -29.416  1.00  0.00     0.072 C 
BRANCH   8   9
ATOM      9  C   UNL     1     -17.546  36.885 -28.177  1.00  0.00     0.227 C 
BRANCH   9  10
ATOM     10  N   UNL     1     -16.641  35.738 -28.326  1.00  0.00    -0.350 N 
ATOM     11  H   UNL     1     -17.178  34.842 -28.370  1.00  0.00     0.345 HD
ATOM     12  H   UNL     1     -16.067  35.842 -29.194  1.00  0.00     0.345 HD
ATOM     13  H   UNL     1     -15.979  35.700 -27.516  1.00  0.00     0.345 HD
ENDBRANCH   9  10
BRANCH   9  14
ATOM     14  C   UNL     1     -18.402  36.709 -26.951  1.00  0.00     0.099 C 
ATOM     15  O   UNL     1     -18.423  37.600 -26.060  1.00  0.00    -0.544 OA
ATOM     16  O   UNL     1     -19.190  35.574 -26.803  1.00  0.00    -0.544 OA
ENDBRANCH   9  14
ENDBRANCH   8   9
ENDBRANCH   1   8
TORSDOF 7
ENDMDL
MODEL 8
REMARK VINA RESULT:    -3.935     14.017     15.549
REMARK INTER + INTRA:          -5.435
REMARK INTER:                  -5.237
REMARK INTRA:                  -0.199
REMARK UNBOUND:                -0.120
REMARK SMILES [NH3+]CCCC[C@H]([NH3+])C(=O)[O-]
REMARK SMILES IDX 4 1 3 2 2 3 1 4 5 8 6 9 7 10 8 14 9 15 10 16
REMARK H PARENT 1 5 1 6 1 7 7 11 7 12 7 13
REMARK Flexibility Score: inf
ROOT
ATOM      1  C   UNL     1     -18.451  37.092 -29.512  1.00  0.00     0.012 C 
ENDROOT
BRANCH   1   2
ATOM      2  C   UNL     1     -18.652  38.585 -29.794  1.00  0.00     0.061 C 
BRANCH   2   3
ATOM      3  C   UNL     1     -17.414  39.192 -30.470  1.00  0.00     0.258 C 
BRANCH   3   4
ATOM      4  N   UNL     1     -16.194  38.520 -30.023  1.00  0.00    -0.358 N 
ATOM      5  H   UNL     1     -16.365  38.089 -29.085  1.00  0.00     0.344 HD
ATOM      6  H   UNL     1     -15.413  39.211 -29.939  1.00  0.00     0.344 HD
ATOM      7  H   UNL     1     -15.930  37.767 -30.698  1.00  0.00     0.344 HD
ENDBRANCH   3   4
ENDBRANCH   2   3
ENDBRANCH   1   2
BRANCH   1   8
ATOM      8  C   UNL     1     -18.821  36.751 -28.061  1.00  0.00     0.072 C 
BRANCH   8   9
ATOM      9  C   UNL     1     -17.594  36.345 -27.213  1.00  0.00     0.227 C 
BRANCH   9  10
ATOM     10  N   UNL     1     -16.602  35.610 -28.009  1.00  0.00    -0.350 N 
ATOM     11  H   UNL     1     -17.048  34.810 -28.515  1.00  0.00     0.345 HD
ATOM     12  H   UNL     1     -16.149  36.249 -28.700  1.00  0.00     0.345 HD
ATOM     13  H   UNL     1     -15.849  35.240 -27.383  1.00  0.00     0.345 HD
ENDBRANCH   9  10
BRANCH   9  14
ATOM     14  C   UNL     1     -18.046  35.504 -26.048  1.00  0.00     0.099 C 
ATOM     15  O   UNL     1     -17.400  35.522 -24.967  1.00  0.00    -0.544 OA
ATOM     16  O   UNL     1     -19.188  34.721 -26.152  1.00  0.00    -0.544 OA
ENDBRANCH   9  14
ENDBRANCH   8   9
ENDBRANCH   1   8
TORSDOF 7
ENDMDL
MODEL 9
REMARK VINA RESULT:    -3.720     15.476     16.841
REMARK INTER + INTRA:          -5.146
REMARK INTER:                  -4.636
REMARK INTRA:                  -0.510
REMARK UNBOUND:                -0.120
REMARK SMILES [NH3+]CCCC[C@H]([NH3+])C(=O)[O-]
REMARK SMILES IDX 4 1 3 2 2 3 1 4 5 8 6 9 7 10 8 14 9 15 10 16
REMARK H PARENT 1 5 1 6 1 7 7 11 7 12 7 13
REMARK Flexibility Score: inf
ROOT
ATOM      1  C   UNL     1     -18.809  37.297 -29.500  1.00  0.00     0.012 C 
ENDROOT
BRANCH   1   2
ATOM      2  C   UNL     1     -18.907  38.801 -29.779  1.00  0.00     0.061 C 
BRANCH   2   3
ATOM      3  C   UNL     1     -18.064  39.192 -31.001  1.00  0.00     0.258 C 
BRANCH   3   4
ATOM      4  N   UNL     1     -16.636  39.143 -30.687  1.00  0.00    -0.358 N 
ATOM      5  H   UNL     1     -16.505  39.308 -29.662  1.00  0.00     0.344 HD
ATOM      6  H   UNL     1     -16.125  39.887 -31.216  1.00  0.00     0.344 HD
ATOM      7  H   UNL     1     -16.246  38.204 -30.930  1.00  0.00     0.344 HD
ENDBRANCH   3   4
ENDBRANCH   2   3
ENDBRANCH   1   2
BRANCH   1   8
ATOM      8  C   UNL     1     -18.253  37.033 -28.092  1.00  0.00     0.072 C 
BRANCH   8   9
ATOM      9  C   UNL     1     -16.786  36.550 -28.113  1.00  0.00     0.227 C 
BRANCH   9  10
ATOM     10  N   UNL     1     -16.633  35.246 -27.453  1.00  0.00    -0.350 N 
ATOM     11  H   UNL     1     -16.099  34.582 -28.060  1.00  0.00     0.345 HD
ATOM     12  H   UNL     1     -16.135  35.359 -26.542  1.00  0.00     0.345 HD
ATOM     13  H   UNL     1     -17.575  34.840 -27.248  1.00  0.00     0.345 HD
ENDBRANCH   9  10
BRANCH   9  14
ATOM     14  C   UNL     1     -15.912  37.574 -27.437  1.00  0.00     0.099 C 
ATOM     15  O   UNL     1     -16.039  38.796 -27.715  1.00  0.00    -0.544 OA
ATOM     16  O   UNL     1     -14.975  37.180 -26.490  1.00  0.00    -0.544 OA
ENDBRANCH   9  14
ENDBRANCH   8   9
ENDBRANCH   1   8
TORSDOF 7
ENDMDL
