MODEL 1
REMARK VINA RESULT:    -7.330      0.000      0.000
REMARK INTER + INTRA:          -7.330
REMARK INTER:                  -7.330
REMARK INTRA:                   0.000
REMARK UNBOUND:                 0.000
REMARK SMILES C=C1CCC[C@]2(C)CC(=O)C(=C(C)C)C[C@@H]12
REMARK SMILES IDX 13 1 12 2 11 3 15 4 16 5 2 6 1 7 3 8 4 9 5 10 6 11 8 12 9 13
REMARK SMILES IDX 10 14 7 15 14 16
REMARK H PARENT
REMARK Flexibility Score: inf
ROOT
ATOM      1  C   UNL     1     118.403 176.375 129.730  1.00  0.00     0.039 C 
ATOM      2  C   UNL     1     119.825 176.275 129.226  1.00  0.00    -0.070 C 
ATOM      3  C   UNL     1     120.245 176.988 128.139  1.00  0.00    -0.006 C 
ATOM      4  C   UNL     1     119.290 177.897 127.377  1.00  0.00     0.047 C 
ATOM      5  C   UNL     1     119.643 178.012 125.873  1.00  0.00     0.025 C 
ATOM      6  C   UNL     1     118.741 178.945 125.064  1.00  0.00    -0.073 C 
ATOM      7  C   UNL     1     117.713 179.641 125.586  1.00  0.00     0.008 C 
ATOM      8  C   UNL     1     119.027 179.031 123.583  1.00  0.00     0.031 C 
ATOM      9  C   UNL     1     120.500 179.369 123.342  1.00  0.00     0.005 C 
ATOM     10  C   UNL     1     121.434 178.417 124.111  1.00  0.00     0.008 C 
ATOM     11  C   UNL     1     121.143 178.378 125.642  1.00  0.00    -0.018 C 
ATOM     12  C   UNL     1     122.024 177.274 126.273  1.00  0.00     0.088 C 
ATOM     13  C   UNL     1     121.673 177.020 127.711  1.00  0.00     0.159 C 
ATOM     14  O   UNL     1     122.609 176.851 128.538  1.00  0.00    -0.295 OA
ATOM     15  C   UNL     1     121.508 179.750 126.275  1.00  0.00     0.012 C 
ATOM     16  C   UNL     1     120.744 175.323 129.957  1.00  0.00     0.039 C 
ENDROOT
TORSDOF 0
ENDMDL
MODEL 2
REMARK VINA RESULT:    -7.158      2.224      5.523
REMARK INTER + INTRA:          -7.158
REMARK INTER:                  -7.158
REMARK INTRA:                   0.000
REMARK UNBOUND:                 0.000
REMARK SMILES C=C1CCC[C@]2(C)CC(=O)C(=C(C)C)C[C@@H]12
REMARK SMILES IDX 13 1 12 2 11 3 15 4 16 5 2 6 1 7 3 8 4 9 5 10 6 11 8 12 9 13
REMARK SMILES IDX 10 14 7 15 14 16
REMARK H PARENT
REMARK Flexibility Score: inf
ROOT
ATOM      1  C   UNL     1     121.109 179.440 121.752  1.00  0.00     0.039 C 
ATOM      2  C   UNL     1     119.822 179.122 122.479  1.00  0.00    -0.070 C 
ATOM      3  C   UNL     1     119.794 178.960 123.835  1.00  0.00    -0.006 C 
ATOM      4  C   UNL     1     121.064 179.073 124.667  1.00  0.00     0.047 C 
ATOM      5  C   UNL     1     121.031 178.183 125.936  1.00  0.00     0.025 C 
ATOM      6  C   UNL     1     122.265 178.286 126.833  1.00  0.00    -0.073 C 
ATOM      7  C   UNL     1     123.318 179.086 126.580  1.00  0.00     0.008 C 
ATOM      8  C   UNL     1     122.284 177.386 128.047  1.00  0.00     0.031 C 
ATOM      9  C   UNL     1     121.007 177.572 128.869  1.00  0.00     0.005 C 
ATOM     10  C   UNL     1     119.746 177.431 127.999  1.00  0.00     0.008 C 
ATOM     11  C   UNL     1     119.734 178.399 126.777  1.00  0.00    -0.018 C 
ATOM     12  C   UNL     1     118.510 178.048 125.897  1.00  0.00     0.088 C 
ATOM     13  C   UNL     1     118.520 178.790 124.591  1.00  0.00     0.159 C 
ATOM     14  O   UNL     1     117.437 179.272 124.164  1.00  0.00    -0.295 OA
ATOM     15  C   UNL     1     119.605 179.865 127.277  1.00  0.00     0.012 C 
ATOM     16  C   UNL     1     118.582 178.955 121.631  1.00  0.00     0.039 C 
ENDROOT
TORSDOF 0
ENDMDL
MODEL 3
REMARK VINA RESULT:    -7.009      1.482      5.003
REMARK INTER + INTRA:          -7.009
REMARK INTER:                  -7.009
REMARK INTRA:                   0.000
REMARK UNBOUND:                 0.000
REMARK SMILES C=C1CCC[C@]2(C)CC(=O)C(=C(C)C)C[C@@H]12
REMARK SMILES IDX 13 1 12 2 11 3 15 4 16 5 2 6 1 7 3 8 4 9 5 10 6 11 8 12 9 13
REMARK SMILES IDX 10 14 7 15 14 16
REMARK H PARENT
REMARK Flexibility Score: inf
ROOT
ATOM      1  C   UNL     1     117.726 178.318 124.959  1.00  0.00     0.039 C 
ATOM      2  C   UNL     1     119.154 178.710 125.261  1.00  0.00    -0.070 C 
ATOM      3  C   UNL     1     119.835 178.160 126.310  1.00  0.00    -0.006 C 
ATOM      4  C   UNL     1     119.174 177.144 127.231  1.00  0.00     0.047 C 
ATOM      5  C   UNL     1     119.728 177.196 128.677  1.00  0.00     0.025 C 
ATOM      6  C   UNL     1     119.128 176.169 129.639  1.00  0.00    -0.073 C 
ATOM      7  C   UNL     1     118.195 175.264 129.291  1.00  0.00     0.008 C 
ATOM      8  C   UNL     1     119.608 176.236 131.070  1.00  0.00     0.031 C 
ATOM      9  C   UNL     1     121.138 176.191 131.123  1.00  0.00     0.005 C 
ATOM     10  C   UNL     1     121.769 177.244 130.196  1.00  0.00     0.008 C 
ATOM     11  C   UNL     1     121.287 177.127 128.718  1.00  0.00    -0.018 C 
ATOM     12  C   UNL     1     121.856 178.330 127.928  1.00  0.00     0.088 C 
ATOM     13  C   UNL     1     121.285 178.418 126.542  1.00  0.00     0.159 C 
ATOM     14  O   UNL     1     122.060 178.701 125.589  1.00  0.00    -0.295 OA
ATOM     15  C   UNL     1     121.824 175.806 128.100  1.00  0.00     0.012 C 
ATOM     16  C   UNL     1     119.776 179.764 124.372  1.00  0.00     0.039 C 
ENDROOT
TORSDOF 0
ENDMDL
MODEL 4
REMARK VINA RESULT:    -6.847      3.464      6.874
REMARK INTER + INTRA:          -6.847
REMARK INTER:                  -6.847
REMARK INTRA:                   0.000
REMARK UNBOUND:                 0.000
REMARK SMILES C=C1CCC[C@]2(C)CC(=O)C(=C(C)C)C[C@@H]12
REMARK SMILES IDX 13 1 12 2 11 3 15 4 16 5 2 6 1 7 3 8 4 9 5 10 6 11 8 12 9 13
REMARK SMILES IDX 10 14 7 15 14 16
REMARK H PARENT
REMARK Flexibility Score: inf
ROOT
ATOM      1  C   UNL     1     118.086 176.316 130.102  1.00  0.00     0.039 C 
ATOM      2  C   UNL     1     119.095 176.095 128.999  1.00  0.00    -0.070 C 
ATOM      3  C   UNL     1     119.626 174.859 128.760  1.00  0.00    -0.006 C 
ATOM      4  C   UNL     1     119.238 173.657 129.611  1.00  0.00     0.047 C 
ATOM      5  C   UNL     1     120.377 172.614 129.732  1.00  0.00     0.025 C 
ATOM      6  C   UNL     1     120.031 171.366 130.543  1.00  0.00    -0.073 C 
ATOM      7  C   UNL     1     118.833 171.146 131.116  1.00  0.00     0.008 C 
ATOM      8  C   UNL     1     121.143 170.359 130.726  1.00  0.00     0.031 C 
ATOM      9  C   UNL     1     121.738 169.969 129.370  1.00  0.00     0.005 C 
ATOM     10  C   UNL     1     122.136 171.207 128.548  1.00  0.00     0.008 C 
ATOM     11  C   UNL     1     120.960 172.209 128.341  1.00  0.00    -0.018 C 
ATOM     12  C   UNL     1     121.522 173.477 127.653  1.00  0.00     0.088 C 
ATOM     13  C   UNL     1     120.509 174.584 127.590  1.00  0.00     0.159 C 
ATOM     14  O   UNL     1     120.419 175.258 126.529  1.00  0.00    -0.295 OA
ATOM     15  C   UNL     1     119.882 171.563 127.428  1.00  0.00     0.012 C 
ATOM     16  C   UNL     1     119.514 177.309 128.202  1.00  0.00     0.039 C 
ENDROOT
TORSDOF 0
ENDMDL
MODEL 5
REMARK VINA RESULT:    -6.685      2.589      3.807
REMARK INTER + INTRA:          -6.685
REMARK INTER:                  -6.685
REMARK INTRA:                   0.000
REMARK UNBOUND:                 0.000
REMARK SMILES C=C1CCC[C@]2(C)CC(=O)C(=C(C)C)C[C@@H]12
REMARK SMILES IDX 13 1 12 2 11 3 15 4 16 5 2 6 1 7 3 8 4 9 5 10 6 11 8 12 9 13
REMARK SMILES IDX 10 14 7 15 14 16
REMARK H PARENT
REMARK Flexibility Score: inf
ROOT
ATOM      1  C   UNL     1     120.311 172.820 128.295  1.00  0.00     0.039 C 
ATOM      2  C   UNL     1     120.312 173.918 129.334  1.00  0.00    -0.070 C 
ATOM      3  C   UNL     1     120.731 175.182 129.031  1.00  0.00    -0.006 C 
ATOM      4  C   UNL     1     121.236 175.531 127.637  1.00  0.00     0.047 C 
ATOM      5  C   UNL     1     122.302 176.656 127.649  1.00  0.00     0.025 C 
ATOM      6  C   UNL     1     122.817 177.076 126.272  1.00  0.00    -0.073 C 
ATOM      7  C   UNL     1     122.393 176.541 125.112  1.00  0.00     0.008 C 
ATOM      8  C   UNL     1     123.900 178.130 126.258  1.00  0.00     0.031 C 
ATOM      9  C   UNL     1     123.461 179.356 127.064  1.00  0.00     0.005 C 
ATOM     10  C   UNL     1     122.978 178.966 128.472  1.00  0.00     0.008 C 
ATOM     11  C   UNL     1     121.834 177.908 128.455  1.00  0.00    -0.018 C 
ATOM     12  C   UNL     1     121.553 177.478 129.915  1.00  0.00     0.088 C 
ATOM     13  C   UNL     1     120.606 176.315 129.992  1.00  0.00     0.159 C 
ATOM     14  O   UNL     1     119.705 176.329 130.873  1.00  0.00    -0.295 OA
ATOM     15  C   UNL     1     120.550 178.539 127.849  1.00  0.00     0.012 C 
ATOM     16  C   UNL     1     119.864 173.540 130.728  1.00  0.00     0.039 C 
ENDROOT
TORSDOF 0
ENDMDL
MODEL 6
REMARK VINA RESULT:    -6.678      3.119      4.916
REMARK INTER + INTRA:          -6.678
REMARK INTER:                  -6.678
REMARK INTRA:                   0.000
REMARK UNBOUND:                 0.000
REMARK SMILES C=C1CCC[C@]2(C)CC(=O)C(=C(C)C)C[C@@H]12
REMARK SMILES IDX 13 1 12 2 11 3 15 4 16 5 2 6 1 7 3 8 4 9 5 10 6 11 8 12 9 13
REMARK SMILES IDX 10 14 7 15 14 16
REMARK H PARENT
REMARK Flexibility Score: inf
ROOT
ATOM      1  C   UNL     1     118.922 171.016 131.125  1.00  0.00     0.039 C 
ATOM      2  C   UNL     1     120.044 171.053 130.113  1.00  0.00    -0.070 C 
ATOM      3  C   UNL     1     120.411 172.219 129.501  1.00  0.00    -0.006 C 
ATOM      4  C   UNL     1     119.688 173.525 129.800  1.00  0.00     0.047 C 
ATOM      5  C   UNL     1     119.678 174.495 128.591  1.00  0.00     0.025 C 
ATOM      6  C   UNL     1     118.999 175.842 128.846  1.00  0.00    -0.073 C 
ATOM      7  C   UNL     1     118.449 176.200 130.021  1.00  0.00     0.008 C 
ATOM      8  C   UNL     1     118.924 176.784 127.666  1.00  0.00     0.031 C 
ATOM      9  C   UNL     1     120.314 176.990 127.059  1.00  0.00     0.005 C 
ATOM     10  C   UNL     1     121.004 175.649 126.752  1.00  0.00     0.008 C 
ATOM     11  C   UNL     1     121.104 174.714 127.995  1.00  0.00    -0.018 C 
ATOM     12  C   UNL     1     121.658 173.347 127.526  1.00  0.00     0.088 C 
ATOM     13  C   UNL     1     121.604 172.311 128.612  1.00  0.00     0.159 C 
ATOM     14  O   UNL     1     122.590 171.539 128.758  1.00  0.00    -0.295 OA
ATOM     15  C   UNL     1     122.077 175.334 129.035  1.00  0.00     0.012 C 
ATOM     16  C   UNL     1     120.712 169.737 129.784  1.00  0.00     0.039 C 
ENDROOT
TORSDOF 0
ENDMDL
MODEL 7
REMARK VINA RESULT:    -6.619      2.020      5.303
REMARK INTER + INTRA:          -6.619
REMARK INTER:                  -6.619
REMARK INTRA:                   0.000
REMARK UNBOUND:                 0.000
REMARK SMILES C=C1CCC[C@]2(C)CC(=O)C(=C(C)C)C[C@@H]12
REMARK SMILES IDX 13 1 12 2 11 3 15 4 16 5 2 6 1 7 3 8 4 9 5 10 6 11 8 12 9 13
REMARK SMILES IDX 10 14 7 15 14 16
REMARK H PARENT
REMARK Flexibility Score: inf
ROOT
ATOM      1  C   UNL     1     124.570 176.418 124.368  1.00  0.00     0.039 C 
ATOM      2  C   UNL     1     123.264 177.133 124.109  1.00  0.00    -0.070 C 
ATOM      3  C   UNL     1     122.369 177.363 125.115  1.00  0.00    -0.006 C 
ATOM      4  C   UNL     1     122.643 176.889 126.536  1.00  0.00     0.047 C 
ATOM      5  C   UNL     1     121.347 176.550 127.316  1.00  0.00     0.025 C 
ATOM      6  C   UNL     1     121.558 176.106 128.763  1.00  0.00    -0.073 C 
ATOM      7  C   UNL     1     122.763 176.014 129.357  1.00  0.00     0.008 C 
ATOM      8  C   UNL     1     120.316 175.713 129.528  1.00  0.00     0.031 C 
ATOM      9  C   UNL     1     119.270 176.829 129.457  1.00  0.00     0.005 C 
ATOM     10  C   UNL     1     119.005 177.266 128.006  1.00  0.00     0.008 C 
ATOM     11  C   UNL     1     120.298 177.704 127.253  1.00  0.00    -0.018 C 
ATOM     12  C   UNL     1     119.931 177.958 125.771  1.00  0.00     0.088 C 
ATOM     13  C   UNL     1     121.144 178.191 124.918  1.00  0.00     0.159 C 
ATOM     14  O   UNL     1     121.104 179.104 124.050  1.00  0.00    -0.295 OA
ATOM     15  C   UNL     1     120.845 179.017 127.879  1.00  0.00     0.012 C 
ATOM     16  C   UNL     1     122.981 177.544 122.682  1.00  0.00     0.039 C 
ENDROOT
TORSDOF 0
ENDMDL
MODEL 8
REMARK VINA RESULT:    -6.602      2.171      4.764
REMARK INTER + INTRA:          -6.602
REMARK INTER:                  -6.602
REMARK INTRA:                   0.000
REMARK UNBOUND:                 0.000
REMARK SMILES C=C1CCC[C@]2(C)CC(=O)C(=C(C)C)C[C@@H]12
REMARK SMILES IDX 13 1 12 2 11 3 15 4 16 5 2 6 1 7 3 8 4 9 5 10 6 11 8 12 9 13
REMARK SMILES IDX 10 14 7 15 14 16
REMARK H PARENT
REMARK Flexibility Score: inf
ROOT
ATOM      1  C   UNL     1     117.649 177.134 125.743  1.00  0.00     0.039 C 
ATOM      2  C   UNL     1     118.540 178.271 125.298  1.00  0.00    -0.070 C 
ATOM      3  C   UNL     1     119.823 178.388 125.752  1.00  0.00    -0.006 C 
ATOM      4  C   UNL     1     120.402 177.386 126.742  1.00  0.00     0.047 C 
ATOM      5  C   UNL     1     121.469 178.013 127.675  1.00  0.00     0.025 C 
ATOM      6  C   UNL     1     122.115 177.043 128.665  1.00  0.00    -0.073 C 
ATOM      7  C   UNL     1     121.814 175.733 128.745  1.00  0.00     0.008 C 
ATOM      8  C   UNL     1     123.117 177.640 129.626  1.00  0.00     0.031 C 
ATOM      9  C   UNL     1     124.190 178.420 128.862  1.00  0.00     0.005 C 
ATOM     10  C   UNL     1     123.568 179.435 127.887  1.00  0.00     0.008 C 
ATOM     11  C   UNL     1     122.569 178.786 126.882  1.00  0.00    -0.018 C 
ATOM     12  C   UNL     1     121.892 179.920 126.075  1.00  0.00     0.088 C 
ATOM     13  C   UNL     1     120.767 179.413 125.220  1.00  0.00     0.159 C 
ATOM     14  O   UNL     1     120.651 179.862 124.048  1.00  0.00    -0.295 OA
ATOM     15  C   UNL     1     123.343 177.854 125.908  1.00  0.00     0.012 C 
ATOM     16  C   UNL     1     117.931 179.290 124.362  1.00  0.00     0.039 C 
ENDROOT
TORSDOF 0
ENDMDL
MODEL 9
REMARK VINA RESULT:    -6.574      1.782      5.513
REMARK INTER + INTRA:          -6.574
REMARK INTER:                  -6.574
REMARK INTRA:                   0.000
REMARK UNBOUND:                 0.000
REMARK SMILES C=C1CCC[C@]2(C)CC(=O)C(=C(C)C)C[C@@H]12
REMARK SMILES IDX 13 1 12 2 11 3 15 4 16 5 2 6 1 7 3 8 4 9 5 10 6 11 8 12 9 13
REMARK SMILES IDX 10 14 7 15 14 16
REMARK H PARENT
REMARK Flexibility Score: inf
ROOT
ATOM      1  C   UNL     1     122.477 177.495 124.163  1.00  0.00     0.039 C 
ATOM      2  C   UNL     1     121.374 178.164 124.952  1.00  0.00    -0.070 C 
ATOM      3  C   UNL     1     120.945 177.654 126.145  1.00  0.00    -0.006 C 
ATOM      4  C   UNL     1     121.545 176.377 126.717  1.00  0.00     0.047 C 
ATOM      5  C   UNL     1     120.536 175.571 127.573  1.00  0.00     0.025 C 
ATOM      6  C   UNL     1     121.096 174.297 128.207  1.00  0.00    -0.073 C 
ATOM      7  C   UNL     1     122.368 173.879 128.065  1.00  0.00     0.008 C 
ATOM      8  C   UNL     1     120.118 173.461 128.999  1.00  0.00     0.031 C 
ATOM      9  C   UNL     1     119.413 174.319 130.053  1.00  0.00     0.005 C 
ATOM     10  C   UNL     1     118.802 175.589 129.435  1.00  0.00     0.008 C 
ATOM     11  C   UNL     1     119.841 176.453 128.657  1.00  0.00    -0.018 C 
ATOM     12  C   UNL     1     119.081 177.599 127.949  1.00  0.00     0.088 C 
ATOM     13  C   UNL     1     119.965 178.371 127.011  1.00  0.00     0.159 C 
ATOM     14  O   UNL     1     119.866 179.627 126.987  1.00  0.00    -0.295 OA
ATOM     15  C   UNL     1     120.866 177.056 129.657  1.00  0.00     0.012 C 
ATOM     16  C   UNL     1     120.748 179.397 124.342  1.00  0.00     0.039 C 
ENDROOT
TORSDOF 0
ENDMDL
