MODEL 1
REMARK VINA RESULT:    -4.508      0.000      0.000
REMARK INTER + INTRA:          -8.837
REMARK INTER:                  -7.670
REMARK INTRA:                  -1.166
REMARK UNBOUND:                -1.166
REMARK SMILES CCCCCCCCCCCCCC(=O)[O-]
REMARK SMILES IDX 8 1 9 2 10 3 11 4 12 5 13 6 14 7 15 8 16 9 7 10 6 11 5 12
REMARK SMILES IDX 4 13 3 14 2 15 1 16
REMARK H PARENT
REMARK Flexibility Score: inf
ROOT
ATOM      1  C   UNL     1       9.959   3.007   0.952  1.00  0.00     0.000 C 
ENDROOT
BRANCH   1   2
ATOM      2  C   UNL     1       8.703   3.878   0.831  1.00  0.00     0.000 C 
BRANCH   2   3
ATOM      3  C   UNL     1       8.580   4.475  -0.580  1.00  0.00     0.000 C 
BRANCH   3   4
ATOM      4  C   UNL     1       9.167   5.895  -0.684  1.00  0.00     0.000 C 
BRANCH   4   5
ATOM      5  C   UNL     1       8.725   6.864   0.428  1.00  0.00     0.006 C 
BRANCH   5   6
ATOM      6  C   UNL     1       9.886   7.315   1.323  1.00  0.00     0.053 C 
BRANCH   6   7
ATOM      7  C   UNL     1       9.756   6.718   2.688  1.00  0.00     0.041 C 
ATOM      8  O   UNL     1      10.736   6.127   3.218  1.00  0.00    -0.550 OA
ATOM      9  O   UNL     1       8.540   6.767   3.357  1.00  0.00    -0.550 OA
ENDBRANCH   6   7
ENDBRANCH   5   6
ENDBRANCH   4   5
ENDBRANCH   3   4
ENDBRANCH   2   3
ENDBRANCH   1   2
BRANCH   1  10
ATOM     10  C   UNL     1      10.162   2.157  -0.311  1.00  0.00     0.000 C 
BRANCH  10  11
ATOM     11  C   UNL     1      11.574   1.553  -0.404  1.00  0.00    -0.000 C 
BRANCH  11  12
ATOM     12  C   UNL     1      12.389   1.977  -1.644  1.00  0.00    -0.000 C 
BRANCH  12  13
ATOM     13  C   UNL     1      11.729   3.059  -2.516  1.00  0.00    -0.000 C 
BRANCH  13  14
ATOM     14  C   UNL     1      11.461   2.582  -3.954  1.00  0.00    -0.000 C 
BRANCH  14  15
ATOM     15  C   UNL     1      11.153   1.079  -4.026  1.00  0.00    -0.003 C 
ATOM     16  C   UNL     1      11.731   0.418  -5.278  1.00  0.00     0.004 C 
ENDBRANCH  14  15
ENDBRANCH  13  14
ENDBRANCH  12  13
ENDBRANCH  11  12
ENDBRANCH  10  11
ENDBRANCH   1  10
TORSDOF 12
ENDMDL
MODEL 2
REMARK VINA RESULT:    -4.445      1.238      2.821
REMARK INTER + INTRA:          -8.729
REMARK INTER:                  -6.954
REMARK INTRA:                  -1.774
REMARK UNBOUND:                -1.166
REMARK SMILES CCCCCCCCCCCCCC(=O)[O-]
REMARK SMILES IDX 8 1 9 2 10 3 11 4 12 5 13 6 14 7 15 8 16 9 7 10 6 11 5 12
REMARK SMILES IDX 4 13 3 14 2 15 1 16
REMARK H PARENT
REMARK Flexibility Score: inf
ROOT
ATOM      1  C   UNL     1      11.612   1.623  -0.451  1.00  0.00     0.000 C 
ENDROOT
BRANCH   1   2
ATOM      2  C   UNL     1      10.133   2.023  -0.402  1.00  0.00     0.000 C 
BRANCH   2   3
ATOM      3  C   UNL     1       9.901   3.154   0.611  1.00  0.00     0.000 C 
BRANCH   3   4
ATOM      4  C   UNL     1       8.535   3.844   0.438  1.00  0.00     0.000 C 
BRANCH   4   5
ATOM      5  C   UNL     1       8.292   5.045   1.371  1.00  0.00     0.006 C 
BRANCH   5   6
ATOM      6  C   UNL     1       9.267   6.203   1.121  1.00  0.00     0.053 C 
BRANCH   6   7
ATOM      7  C   UNL     1       9.987   6.560   2.382  1.00  0.00     0.041 C 
ATOM      8  O   UNL     1      10.830   5.765   2.878  1.00  0.00    -0.550 OA
ATOM      9  O   UNL     1       9.694   7.748   3.039  1.00  0.00    -0.550 OA
ENDBRANCH   6   7
ENDBRANCH   5   6
ENDBRANCH   4   5
ENDBRANCH   3   4
ENDBRANCH   2   3
ENDBRANCH   1   2
BRANCH   1  10
ATOM     10  C   UNL     1      12.245   2.020  -1.793  1.00  0.00     0.000 C 
BRANCH  10  11
ATOM     11  C   UNL     1      11.591   1.314  -2.994  1.00  0.00    -0.000 C 
BRANCH  11  12
ATOM     12  C   UNL     1      11.176   2.243  -4.154  1.00  0.00    -0.000 C 
BRANCH  12  13
ATOM     13  C   UNL     1      11.128   3.740  -3.802  1.00  0.00    -0.000 C 
BRANCH  13  14
ATOM     14  C   UNL     1       9.739   4.192  -3.317  1.00  0.00    -0.000 C 
BRANCH  14  15
ATOM     15  C   UNL     1       9.787   5.531  -2.565  1.00  0.00    -0.003 C 
ATOM     16  C   UNL     1      11.131   5.774  -1.877  1.00  0.00     0.004 C 
ENDBRANCH  14  15
ENDBRANCH  13  14
ENDBRANCH  12  13
ENDBRANCH  11  12
ENDBRANCH  10  11
ENDBRANCH   1  10
TORSDOF 12
ENDMDL
MODEL 3
REMARK VINA RESULT:    -4.420      1.674      3.530
REMARK INTER + INTRA:          -8.687
REMARK INTER:                  -7.733
REMARK INTRA:                  -0.954
REMARK UNBOUND:                -1.166
REMARK SMILES CCCCCCCCCCCCCC(=O)[O-]
REMARK SMILES IDX 8 1 9 2 10 3 11 4 12 5 13 6 14 7 15 8 16 9 7 10 6 11 5 12
REMARK SMILES IDX 4 13 3 14 2 15 1 16
REMARK H PARENT
REMARK Flexibility Score: inf
ROOT
ATOM      1  C   UNL     1      10.747   4.135  -2.313  1.00  0.00     0.000 C 
ENDROOT
BRANCH   1   2
ATOM      2  C   UNL     1       9.271   4.089  -1.902  1.00  0.00     0.000 C 
BRANCH   2   3
ATOM      3  C   UNL     1       9.053   3.106  -0.741  1.00  0.00     0.000 C 
BRANCH   3   4
ATOM      4  C   UNL     1       8.671   3.807   0.575  1.00  0.00     0.000 C 
BRANCH   4   5
ATOM      5  C   UNL     1       9.862   4.308   1.413  1.00  0.00     0.006 C 
BRANCH   5   6
ATOM      6  C   UNL     1       9.993   5.836   1.412  1.00  0.00     0.053 C 
BRANCH   6   7
ATOM      7  C   UNL     1      10.008   6.361   2.813  1.00  0.00     0.041 C 
ATOM      8  O   UNL     1       9.093   7.130   3.211  1.00  0.00    -0.550 OA
ATOM      9  O   UNL     1      11.058   6.042   3.664  1.00  0.00    -0.550 OA
ENDBRANCH   6   7
ENDBRANCH   5   6
ENDBRANCH   4   5
ENDBRANCH   3   4
ENDBRANCH   2   3
ENDBRANCH   1   2
BRANCH   1  10
ATOM     10  C   UNL     1      11.038   3.125  -3.433  1.00  0.00     0.000 C 
BRANCH  10  11
ATOM     11  C   UNL     1      11.518   1.763  -2.901  1.00  0.00    -0.000 C 
BRANCH  11  12
ATOM     12  C   UNL     1      12.549   1.834  -1.755  1.00  0.00    -0.000 C 
BRANCH  12  13
ATOM     13  C   UNL     1      12.132   1.114  -0.460  1.00  0.00    -0.000 C 
BRANCH  13  14
ATOM     14  C   UNL     1      13.179   0.092   0.016  1.00  0.00    -0.000 C 
BRANCH  14  15
ATOM     15  C   UNL     1      12.721  -0.682   1.261  1.00  0.00    -0.003 C 
ATOM     16  C   UNL     1      13.556  -0.354   2.499  1.00  0.00     0.004 C 
ENDBRANCH  14  15
ENDBRANCH  13  14
ENDBRANCH  12  13
ENDBRANCH  11  12
ENDBRANCH  10  11
ENDBRANCH   1  10
TORSDOF 12
ENDMDL
MODEL 4
REMARK VINA RESULT:    -4.405      3.761      5.952
REMARK INTER + INTRA:          -8.662
REMARK INTER:                  -6.882
REMARK INTRA:                  -1.780
REMARK UNBOUND:                -1.166
REMARK SMILES CCCCCCCCCCCCCC(=O)[O-]
REMARK SMILES IDX 8 1 9 2 10 3 11 4 12 5 13 6 14 7 15 8 16 9 7 10 6 11 5 12
REMARK SMILES IDX 4 13 3 14 2 15 1 16
REMARK H PARENT
REMARK Flexibility Score: inf
ROOT
ATOM      1  C   UNL     1       9.151   4.011   0.868  1.00  0.00     0.000 C 
ENDROOT
BRANCH   1   2
ATOM      2  C   UNL     1      10.089   2.799   0.926  1.00  0.00     0.000 C 
BRANCH   2   3
ATOM      3  C   UNL     1      10.300   2.199  -0.472  1.00  0.00     0.000 C 
BRANCH   3   4
ATOM      4  C   UNL     1      11.787   2.049  -0.843  1.00  0.00     0.000 C 
BRANCH   4   5
ATOM      5  C   UNL     1      12.097   2.173  -2.346  1.00  0.00     0.006 C 
BRANCH   5   6
ATOM      6  C   UNL     1      11.002   1.570  -3.234  1.00  0.00     0.053 C 
BRANCH   6   7
ATOM      7  C   UNL     1      11.465   1.492  -4.654  1.00  0.00     0.041 C 
ATOM      8  O   UNL     1      11.903   0.405  -5.119  1.00  0.00    -0.550 OA
ATOM      9  O   UNL     1      11.462   2.629  -5.451  1.00  0.00    -0.550 OA
ENDBRANCH   6   7
ENDBRANCH   5   6
ENDBRANCH   4   5
ENDBRANCH   3   4
ENDBRANCH   2   3
ENDBRANCH   1   2
BRANCH   1  10
ATOM     10  C   UNL     1       9.911   5.310   1.178  1.00  0.00     0.000 C 
BRANCH  10  11
ATOM     11  C   UNL     1       9.963   6.273  -0.022  1.00  0.00    -0.000 C 
BRANCH  11  12
ATOM     12  C   UNL     1      10.620   5.699  -1.295  1.00  0.00    -0.000 C 
BRANCH  12  13
ATOM     13  C   UNL     1      10.005   6.186  -2.619  1.00  0.00    -0.000 C 
BRANCH  13  14
ATOM     14  C   UNL     1       9.451   5.034  -3.475  1.00  0.00    -0.000 C 
BRANCH  14  15
ATOM     15  C   UNL     1       8.411   4.190  -2.723  1.00  0.00    -0.003 C 
ATOM     16  C   UNL     1       7.052   4.884  -2.619  1.00  0.00     0.004 C 
ENDBRANCH  14  15
ENDBRANCH  13  14
ENDBRANCH  12  13
ENDBRANCH  11  12
ENDBRANCH  10  11
ENDBRANCH   1  10
TORSDOF 12
ENDMDL
MODEL 5
REMARK VINA RESULT:    -4.359      3.957      6.441
REMARK INTER + INTRA:          -8.583
REMARK INTER:                  -7.023
REMARK INTRA:                  -1.560
REMARK UNBOUND:                -1.166
REMARK SMILES CCCCCCCCCCCCCC(=O)[O-]
REMARK SMILES IDX 8 1 9 2 10 3 11 4 12 5 13 6 14 7 15 8 16 9 7 10 6 11 5 12
REMARK SMILES IDX 4 13 3 14 2 15 1 16
REMARK H PARENT
REMARK Flexibility Score: inf
ROOT
ATOM      1  C   UNL     1       9.908   2.538  -0.346  1.00  0.00     0.000 C 
ENDROOT
BRANCH   1   2
ATOM      2  C   UNL     1      11.097   1.578  -0.215  1.00  0.00     0.000 C 
BRANCH   2   3
ATOM      3  C   UNL     1      12.194   1.918  -1.235  1.00  0.00     0.000 C 
BRANCH   3   4
ATOM      4  C   UNL     1      11.809   3.083  -2.166  1.00  0.00     0.000 C 
BRANCH   4   5
ATOM      5  C   UNL     1      11.473   2.675  -3.612  1.00  0.00     0.006 C 
BRANCH   5   6
ATOM      6  C   UNL     1      11.829   1.215  -3.919  1.00  0.00     0.053 C 
BRANCH   6   7
ATOM      7  C   UNL     1      11.521   0.891  -5.347  1.00  0.00     0.041 C 
ATOM      8  O   UNL     1      11.105   1.791  -6.125  1.00  0.00    -0.550 OA
ATOM      9  O   UNL     1      11.644  -0.413  -5.807  1.00  0.00    -0.550 OA
ENDBRANCH   6   7
ENDBRANCH   5   6
ENDBRANCH   4   5
ENDBRANCH   3   4
ENDBRANCH   2   3
ENDBRANCH   1   2
BRANCH   1  10
ATOM     10  C   UNL     1       9.598   3.214   0.998  1.00  0.00     0.000 C 
BRANCH  10  11
ATOM     11  C   UNL     1       9.256   4.708   0.851  1.00  0.00    -0.000 C 
BRANCH  11  12
ATOM     12  C   UNL     1      10.117   5.480  -0.170  1.00  0.00    -0.000 C 
BRANCH  12  13
ATOM     13  C   UNL     1       9.322   6.255  -1.236  1.00  0.00    -0.000 C 
BRANCH  13  14
ATOM     14  C   UNL     1       8.788   5.347  -2.357  1.00  0.00    -0.000 C 
BRANCH  14  15
ATOM     15  C   UNL     1       7.287   5.055  -2.211  1.00  0.00    -0.003 C 
ATOM     16  C   UNL     1       6.954   3.573  -2.389  1.00  0.00     0.004 C 
ENDBRANCH  14  15
ENDBRANCH  13  14
ENDBRANCH  12  13
ENDBRANCH  11  12
ENDBRANCH  10  11
ENDBRANCH   1  10
TORSDOF 12
ENDMDL
MODEL 6
REMARK VINA RESULT:    -4.355      3.205      6.043
REMARK INTER + INTRA:          -8.576
REMARK INTER:                  -6.927
REMARK INTRA:                  -1.649
REMARK UNBOUND:                -1.166
REMARK SMILES CCCCCCCCCCCCCC(=O)[O-]
REMARK SMILES IDX 8 1 9 2 10 3 11 4 12 5 13 6 14 7 15 8 16 9 7 10 6 11 5 12
REMARK SMILES IDX 4 13 3 14 2 15 1 16
REMARK H PARENT
REMARK Flexibility Score: inf
ROOT
ATOM      1  C   UNL     1      10.343   3.703  -4.036  1.00  0.00     0.000 C 
ENDROOT
BRANCH   1   2
ATOM      2  C   UNL     1      11.243   2.758  -4.841  1.00  0.00     0.000 C 
BRANCH   2   3
ATOM      3  C   UNL     1      11.676   1.553  -3.992  1.00  0.00     0.000 C 
BRANCH   3   4
ATOM      4  C   UNL     1      11.177   1.633  -2.538  1.00  0.00     0.000 C 
BRANCH   4   5
ATOM      5  C   UNL     1      12.285   1.768  -1.477  1.00  0.00     0.006 C 
BRANCH   5   6
ATOM      6  C   UNL     1      11.857   1.256  -0.097  1.00  0.00     0.053 C 
BRANCH   6   7
ATOM      7  C   UNL     1      12.781   0.176   0.370  1.00  0.00     0.041 C 
ATOM      8  O   UNL     1      13.753  -0.181  -0.349  1.00  0.00    -0.550 OA
ATOM      9  O   UNL     1      12.542  -0.473   1.574  1.00  0.00    -0.550 OA
ENDBRANCH   6   7
ENDBRANCH   5   6
ENDBRANCH   4   5
ENDBRANCH   3   4
ENDBRANCH   2   3
ENDBRANCH   1   2
BRANCH   1  10
ATOM     10  C   UNL     1      10.458   5.145  -4.553  1.00  0.00     0.000 C 
BRANCH  10  11
ATOM     11  C   UNL     1      10.241   6.195  -3.449  1.00  0.00    -0.000 C 
BRANCH  11  12
ATOM     12  C   UNL     1      10.975   5.911  -2.121  1.00  0.00    -0.000 C 
BRANCH  12  13
ATOM     13  C   UNL     1      10.067   5.826  -0.882  1.00  0.00    -0.000 C 
BRANCH  13  14
ATOM     14  C   UNL     1       9.914   4.390  -0.354  1.00  0.00    -0.000 C 
BRANCH  14  15
ATOM     15  C   UNL     1       8.529   3.797  -0.656  1.00  0.00    -0.003 C 
ATOM     16  C   UNL     1       7.557   4.830  -1.227  1.00  0.00     0.004 C 
ENDBRANCH  14  15
ENDBRANCH  13  14
ENDBRANCH  12  13
ENDBRANCH  11  12
ENDBRANCH  10  11
ENDBRANCH   1  10
TORSDOF 12
ENDMDL
MODEL 7
REMARK VINA RESULT:    -4.331      2.975      3.521
REMARK INTER + INTRA:          -8.536
REMARK INTER:                  -7.140
REMARK INTRA:                  -1.396
REMARK UNBOUND:                -1.166
REMARK SMILES CCCCCCCCCCCCCC(=O)[O-]
REMARK SMILES IDX 8 1 9 2 10 3 11 4 12 5 13 6 14 7 15 8 16 9 7 10 6 11 5 12
REMARK SMILES IDX 4 13 3 14 2 15 1 16
REMARK H PARENT
REMARK Flexibility Score: inf
ROOT
ATOM      1  C   UNL     1      10.130   3.034   0.622  1.00  0.00     0.000 C 
ENDROOT
BRANCH   1   2
ATOM      2  C   UNL     1       8.884   3.922   0.517  1.00  0.00     0.000 C 
BRANCH   2   3
ATOM      3  C   UNL     1       9.028   4.941  -0.623  1.00  0.00     0.000 C 
BRANCH   3   4
ATOM      4  C   UNL     1      10.228   5.887  -0.435  1.00  0.00     0.000 C 
BRANCH   4   5
ATOM      5  C   UNL     1      11.081   6.115  -1.697  1.00  0.00     0.006 C 
BRANCH   5   6
ATOM      6  C   UNL     1      10.353   5.723  -2.989  1.00  0.00     0.053 C 
BRANCH   6   7
ATOM      7  C   UNL     1       9.978   6.944  -3.767  1.00  0.00     0.041 C 
ATOM      8  O   UNL     1      10.858   7.589  -4.398  1.00  0.00    -0.550 OA
ATOM      9  O   UNL     1       8.666   7.400  -3.757  1.00  0.00    -0.550 OA
ENDBRANCH   6   7
ENDBRANCH   5   6
ENDBRANCH   4   5
ENDBRANCH   3   4
ENDBRANCH   2   3
ENDBRANCH   1   2
BRANCH   1  10
ATOM     10  C   UNL     1      10.180   2.019  -0.530  1.00  0.00     0.000 C 
BRANCH  10  11
ATOM     11  C   UNL     1      11.615   1.611  -0.905  1.00  0.00    -0.000 C 
BRANCH  11  12
ATOM     12  C   UNL     1      12.238   2.405  -2.073  1.00  0.00    -0.000 C 
BRANCH  12  13
ATOM     13  C   UNL     1      11.462   2.324  -3.400  1.00  0.00    -0.000 C 
BRANCH  13  14
ATOM     14  C   UNL     1      11.414   0.898  -3.975  1.00  0.00    -0.000 C 
BRANCH  14  15
ATOM     15  C   UNL     1      11.498   0.880  -5.508  1.00  0.00    -0.003 C 
ATOM     16  C   UNL     1      11.439   2.281  -6.119  1.00  0.00     0.004 C 
ENDBRANCH  14  15
ENDBRANCH  13  14
ENDBRANCH  12  13
ENDBRANCH  11  12
ENDBRANCH  10  11
ENDBRANCH   1  10
TORSDOF 12
ENDMDL
MODEL 8
REMARK VINA RESULT:    -4.316      1.722      2.102
REMARK INTER + INTRA:          -8.511
REMARK INTER:                  -7.022
REMARK INTRA:                  -1.489
REMARK UNBOUND:                -1.166
REMARK SMILES CCCCCCCCCCCCCC(=O)[O-]
REMARK SMILES IDX 8 1 9 2 10 3 11 4 12 5 13 6 14 7 15 8 16 9 7 10 6 11 5 12
REMARK SMILES IDX 4 13 3 14 2 15 1 16
REMARK H PARENT
REMARK Flexibility Score: inf
ROOT
ATOM      1  C   UNL     1      10.353   2.775   0.598  1.00  0.00     0.000 C 
ENDROOT
BRANCH   1   2
ATOM      2  C   UNL     1       9.489   3.972   0.184  1.00  0.00     0.000 C 
BRANCH   2   3
ATOM      3  C   UNL     1       9.088   3.877  -1.296  1.00  0.00     0.000 C 
BRANCH   3   4
ATOM      4  C   UNL     1       9.831   4.889  -2.186  1.00  0.00     0.000 C 
BRANCH   4   5
ATOM      5  C   UNL     1      10.830   5.796  -1.444  1.00  0.00     0.006 C 
BRANCH   5   6
ATOM      6  C   UNL     1      10.439   7.279  -1.488  1.00  0.00     0.053 C 
BRANCH   6   7
ATOM      7  C   UNL     1       9.473   7.597  -0.391  1.00  0.00     0.041 C 
ATOM      8  O   UNL     1       9.895   7.954   0.741  1.00  0.00    -0.550 OA
ATOM      9  O   UNL     1       8.108   7.451  -0.602  1.00  0.00    -0.550 OA
ENDBRANCH   6   7
ENDBRANCH   5   6
ENDBRANCH   4   5
ENDBRANCH   3   4
ENDBRANCH   2   3
ENDBRANCH   1   2
BRANCH   1  10
ATOM     10  C   UNL     1      10.525   1.792  -0.570  1.00  0.00     0.000 C 
BRANCH  10  11
ATOM     11  C   UNL     1      11.991   1.640  -1.013  1.00  0.00    -0.000 C 
BRANCH  11  12
ATOM     12  C   UNL     1      12.289   2.089  -2.459  1.00  0.00    -0.000 C 
BRANCH  12  13
ATOM     13  C   UNL     1      11.244   1.655  -3.502  1.00  0.00    -0.000 C 
BRANCH  13  14
ATOM     14  C   UNL     1      11.260   2.537  -4.762  1.00  0.00    -0.000 C 
BRANCH  14  15
ATOM     15  C   UNL     1      11.467   1.722  -6.048  1.00  0.00    -0.003 C 
ATOM     16  C   UNL     1      11.698   0.235  -5.772  1.00  0.00     0.004 C 
ENDBRANCH  14  15
ENDBRANCH  13  14
ENDBRANCH  12  13
ENDBRANCH  11  12
ENDBRANCH  10  11
ENDBRANCH   1  10
TORSDOF 12
ENDMDL
MODEL 9
REMARK VINA RESULT:    -4.274      3.586      5.958
REMARK INTER + INTRA:          -8.438
REMARK INTER:                  -6.807
REMARK INTRA:                  -1.631
REMARK UNBOUND:                -1.166
REMARK SMILES CCCCCCCCCCCCCC(=O)[O-]
REMARK SMILES IDX 8 1 9 2 10 3 11 4 12 5 13 6 14 7 15 8 16 9 7 10 6 11 5 12
REMARK SMILES IDX 4 13 3 14 2 15 1 16
REMARK H PARENT
REMARK Flexibility Score: inf
ROOT
ATOM      1  C   UNL     1       8.595   3.566   1.010  1.00  0.00     0.000 C 
ENDROOT
BRANCH   1   2
ATOM      2  C   UNL     1       9.951   3.527   0.295  1.00  0.00     0.000 C 
BRANCH   2   3
ATOM      3  C   UNL     1      10.096   2.248  -0.544  1.00  0.00     0.000 C 
BRANCH   3   4
ATOM      4  C   UNL     1      11.482   1.593  -0.406  1.00  0.00     0.000 C 
BRANCH   4   5
ATOM      5  C   UNL     1      12.265   1.446  -1.724  1.00  0.00     0.006 C 
BRANCH   5   6
ATOM      6  C   UNL     1      12.017   2.603  -2.699  1.00  0.00     0.053 C 
BRANCH   6   7
ATOM      7  C   UNL     1      11.549   2.083  -4.021  1.00  0.00     0.041 C 
ATOM      8  O   UNL     1      11.291   2.881  -4.961  1.00  0.00    -0.550 OA
ATOM      9  O   UNL     1      11.348   0.720  -4.200  1.00  0.00    -0.550 OA
ENDBRANCH   6   7
ENDBRANCH   5   6
ENDBRANCH   4   5
ENDBRANCH   3   4
ENDBRANCH   2   3
ENDBRANCH   1   2
BRANCH   1  10
ATOM     10  C   UNL     1       7.997   4.980   0.978  1.00  0.00     0.000 C 
BRANCH  10  11
ATOM     11  C   UNL     1       6.994   5.180  -0.172  1.00  0.00    -0.000 C 
BRANCH  11  12
ATOM     12  C   UNL     1       7.525   5.991  -1.372  1.00  0.00    -0.000 C 
BRANCH  12  13
ATOM     13  C   UNL     1       7.712   5.185  -2.670  1.00  0.00    -0.000 C 
BRANCH  13  14
ATOM     14  C   UNL     1       9.192   4.921  -2.997  1.00  0.00    -0.000 C 
BRANCH  14  15
ATOM     15  C   UNL     1      10.042   6.199  -2.945  1.00  0.00    -0.003 C 
ATOM     16  C   UNL     1      11.114   6.151  -1.855  1.00  0.00     0.004 C 
ENDBRANCH  14  15
ENDBRANCH  13  14
ENDBRANCH  12  13
ENDBRANCH  11  12
ENDBRANCH  10  11
ENDBRANCH   1  10
TORSDOF 12
ENDMDL
