MODEL 1
REMARK VINA RESULT:    -2.581      0.000      0.000
REMARK INTER + INTRA:          -3.295
REMARK INTER:                  -3.185
REMARK INTRA:                  -0.110
REMARK UNBOUND:                -0.110
REMARK SMILES CCCCCC(=O)[O-]
REMARK SMILES IDX 4 1 5 2 6 3 7 4 8 5 3 6 2 7 1 8
REMARK H PARENT
REMARK Flexibility Score: inf
ROOT
ATOM      1  C   UNL     1      93.503  16.256 119.573  1.00  0.00     0.006 C 
ENDROOT
BRANCH   1   2
ATOM      2  C   UNL     1      92.708  16.829 120.752  1.00  0.00     0.053 C 
BRANCH   2   3
ATOM      3  C   UNL     1      91.668  17.808 120.297  1.00  0.00     0.041 C 
ATOM      4  O   UNL     1      91.747  18.334 119.157  1.00  0.00    -0.550 OA
ATOM      5  O   UNL     1      90.594  18.113 121.124  1.00  0.00    -0.550 OA
ENDBRANCH   2   3
ENDBRANCH   1   2
BRANCH   1   6
ATOM      6  C   UNL     1      94.749  15.484 120.032  1.00  0.00     0.000 C 
BRANCH   6   7
ATOM      7  C   UNL     1      95.500  16.253 121.125  1.00  0.00    -0.003 C 
ATOM      8  C   UNL     1      96.760  16.910 120.569  1.00  0.00     0.004 C 
ENDBRANCH   6   7
ENDBRANCH   1   6
TORSDOF 4
ENDMDL
MODEL 2
REMARK VINA RESULT:    -2.419      2.811      4.459
REMARK INTER + INTRA:          -3.095
REMARK INTER:                  -2.987
REMARK INTRA:                  -0.108
REMARK UNBOUND:                -0.110
REMARK SMILES CCCCCC(=O)[O-]
REMARK SMILES IDX 4 1 5 2 6 3 7 4 8 5 3 6 2 7 1 8
REMARK H PARENT
REMARK Flexibility Score: inf
ROOT
ATOM      1  C   UNL     1      92.769  16.833 119.672  1.00  0.00     0.006 C 
ENDROOT
BRANCH   1   2
ATOM      2  C   UNL     1      93.299  16.597 121.092  1.00  0.00     0.053 C 
BRANCH   2   3
ATOM      3  C   UNL     1      94.513  15.720 121.094  1.00  0.00     0.041 C 
ATOM      4  O   UNL     1      95.664  16.228 121.121  1.00  0.00    -0.550 OA
ATOM      5  O   UNL     1      94.371  14.338 121.098  1.00  0.00    -0.550 OA
ENDBRANCH   2   3
ENDBRANCH   1   2
BRANCH   1   6
ATOM      6  C   UNL     1      91.561  17.781 119.652  1.00  0.00     0.000 C 
BRANCH   6   7
ATOM      7  C   UNL     1      91.071  18.077 121.074  1.00  0.00    -0.003 C 
ATOM      8  C   UNL     1      89.549  18.175 121.124  1.00  0.00     0.004 C 
ENDBRANCH   6   7
ENDBRANCH   1   6
TORSDOF 4
ENDMDL
MODEL 3
REMARK VINA RESULT:    -2.014      2.456      4.954
REMARK INTER + INTRA:          -2.595
REMARK INTER:                  -2.548
REMARK INTRA:                  -0.047
REMARK UNBOUND:                -0.110
REMARK SMILES CCCCCC(=O)[O-]
REMARK SMILES IDX 4 1 5 2 6 3 7 4 8 5 3 6 2 7 1 8
REMARK H PARENT
REMARK Flexibility Score: inf
ROOT
ATOM      1  C   UNL     1      91.766  17.790 120.262  1.00  0.00     0.006 C 
ENDROOT
BRANCH   1   2
ATOM      2  C   UNL     1      92.755  16.883 121.003  1.00  0.00     0.053 C 
BRANCH   2   3
ATOM      3  C   UNL     1      93.718  16.225 120.062  1.00  0.00     0.041 C 
ATOM      4  O   UNL     1      94.758  15.670 120.503  1.00  0.00    -0.550 OA
ATOM      5  O   UNL     1      93.448  16.199 118.699  1.00  0.00    -0.550 OA
ENDBRANCH   2   3
ENDBRANCH   1   2
BRANCH   1   6
ATOM      6  C   UNL     1      90.544  18.144 121.123  1.00  0.00     0.000 C 
BRANCH   6   7
ATOM      7  C   UNL     1      89.265  18.167 120.278  1.00  0.00    -0.003 C 
ATOM      8  C   UNL     1      88.055  18.562 121.120  1.00  0.00     0.004 C 
ENDBRANCH   6   7
ENDBRANCH   1   6
TORSDOF 4
ENDMDL
MODEL 4
REMARK VINA RESULT:    -1.957      1.023      1.961
REMARK INTER + INTRA:          -2.524
REMARK INTER:                  -2.693
REMARK INTRA:                   0.169
REMARK UNBOUND:                -0.110
REMARK SMILES CCCCCC(=O)[O-]
REMARK SMILES IDX 4 1 5 2 6 3 7 4 8 5 3 6 2 7 1 8
REMARK H PARENT
REMARK Flexibility Score: inf
ROOT
ATOM      1  C   UNL     1      93.248  16.176 119.458  1.00  0.00     0.006 C 
ENDROOT
BRANCH   1   2
ATOM      2  C   UNL     1      92.510  16.727 120.685  1.00  0.00     0.053 C 
BRANCH   2   3
ATOM      3  C   UNL     1      91.553  17.818 120.315  1.00  0.00     0.041 C 
ATOM      4  O   UNL     1      90.612  18.128 121.090  1.00  0.00    -0.550 OA
ATOM      5  O   UNL     1      91.723  18.515 119.125  1.00  0.00    -0.550 OA
ENDBRANCH   2   3
ENDBRANCH   1   2
BRANCH   1   6
ATOM      6  C   UNL     1      94.703  15.800 119.775  1.00  0.00     0.000 C 
BRANCH   6   7
ATOM      7  C   UNL     1      94.799  15.057 121.112  1.00  0.00    -0.003 C 
ATOM      8  C   UNL     1      93.896  13.826 121.125  1.00  0.00     0.004 C 
ENDBRANCH   6   7
ENDBRANCH   1   6
TORSDOF 4
ENDMDL
MODEL 5
REMARK VINA RESULT:    -1.508      3.510      6.281
REMARK INTER + INTRA:          -1.971
REMARK INTER:                  -1.927
REMARK INTRA:                  -0.044
REMARK UNBOUND:                -0.110
REMARK SMILES CCCCCC(=O)[O-]
REMARK SMILES IDX 4 1 5 2 6 3 7 4 8 5 3 6 2 7 1 8
REMARK H PARENT
REMARK Flexibility Score: inf
ROOT
ATOM      1  C   UNL     1      89.040  18.111 120.266  1.00  0.00     0.006 C 
ENDROOT
BRANCH   1   2
ATOM      2  C   UNL     1      90.309  18.053 121.125  1.00  0.00     0.053 C 
BRANCH   2   3
ATOM      3  C   UNL     1      91.527  17.777 120.298  1.00  0.00     0.041 C 
ATOM      4  O   UNL     1      92.610  17.450 120.851  1.00  0.00    -0.550 OA
ATOM      5  O   UNL     1      91.457  17.850 118.912  1.00  0.00    -0.550 OA
ENDBRANCH   2   3
ENDBRANCH   1   2
BRANCH   1   6
ATOM      6  C   UNL     1      87.763  18.180 121.119  1.00  0.00     0.000 C 
BRANCH   6   7
ATOM      7  C   UNL     1      86.547  17.687 120.327  1.00  0.00    -0.003 C 
ATOM      8  C   UNL     1      85.245  18.047 121.035  1.00  0.00     0.004 C 
ENDBRANCH   6   7
ENDBRANCH   1   6
TORSDOF 4
ENDMDL
MODEL 6
REMARK VINA RESULT:    -1.367     14.783     15.677
REMARK INTER + INTRA:          -1.797
REMARK INTER:                  -1.754
REMARK INTRA:                  -0.042
REMARK UNBOUND:                -0.110
REMARK SMILES CCCCCC(=O)[O-]
REMARK SMILES IDX 4 1 5 2 6 3 7 4 8 5 3 6 2 7 1 8
REMARK H PARENT
REMARK Flexibility Score: inf
ROOT
ATOM      1  C   UNL     1      89.257   7.713 109.440  1.00  0.00     0.006 C 
ENDROOT
BRANCH   1   2
ATOM      2  C   UNL     1      89.894   6.875 108.325  1.00  0.00     0.053 C 
BRANCH   2   3
ATOM      3  C   UNL     1      90.964   7.635 107.602  1.00  0.00     0.041 C 
ATOM      4  O   UNL     1      92.158   7.582 107.996  1.00  0.00    -0.550 OA
ATOM      5  O   UNL     1      90.645   8.376 106.471  1.00  0.00    -0.550 OA
ENDBRANCH   2   3
ENDBRANCH   1   2
BRANCH   1   6
ATOM      6  C   UNL     1      88.306   6.886 110.318  1.00  0.00     0.000 C 
BRANCH   6   7
ATOM      7  C   UNL     1      87.473   7.793 111.231  1.00  0.00    -0.003 C 
ATOM      8  C   UNL     1      87.167   7.107 112.559  1.00  0.00     0.004 C 
ENDBRANCH   6   7
ENDBRANCH   1   6
TORSDOF 4
ENDMDL
MODEL 7
REMARK VINA RESULT:    -1.358      2.804      4.430
REMARK INTER + INTRA:          -1.786
REMARK INTER:                  -1.653
REMARK INTRA:                  -0.133
REMARK UNBOUND:                -0.110
REMARK SMILES CCCCCC(=O)[O-]
REMARK SMILES IDX 4 1 5 2 6 3 7 4 8 5 3 6 2 7 1 8
REMARK H PARENT
REMARK Flexibility Score: inf
ROOT
ATOM      1  C   UNL     1      94.536  15.525 120.507  1.00  0.00     0.006 C 
ENDROOT
BRANCH   1   2
ATOM      2  C   UNL     1      95.737  16.251 121.125  1.00  0.00     0.053 C 
BRANCH   2   3
ATOM      3  C   UNL     1      96.609  16.873 120.077  1.00  0.00     0.041 C 
ATOM      4  O   UNL     1      97.765  17.276 120.371  1.00  0.00    -0.550 OA
ATOM      5  O   UNL     1      96.155  16.978 118.769  1.00  0.00    -0.550 OA
ENDBRANCH   2   3
ENDBRANCH   1   2
BRANCH   1   6
ATOM      6  C   UNL     1      93.224  16.299 120.704  1.00  0.00     0.000 C 
BRANCH   6   7
ATOM      7  C   UNL     1      92.720  16.872 119.374  1.00  0.00    -0.003 C 
ATOM      8  C   UNL     1      91.620  17.905 119.601  1.00  0.00     0.004 C 
ENDBRANCH   6   7
ENDBRANCH   1   6
TORSDOF 4
ENDMDL
MODEL 8
REMARK VINA RESULT:    -1.238      5.023      6.795
REMARK INTER + INTRA:          -1.637
REMARK INTER:                  -1.578
REMARK INTRA:                  -0.059
REMARK UNBOUND:                -0.110
REMARK SMILES CCCCCC(=O)[O-]
REMARK SMILES IDX 4 1 5 2 6 3 7 4 8 5 3 6 2 7 1 8
REMARK H PARENT
REMARK Flexibility Score: inf
ROOT
ATOM      1  C   UNL     1      87.156  18.465 120.236  1.00  0.00     0.006 C 
ENDROOT
BRANCH   1   2
ATOM      2  C   UNL     1      85.906  18.460 121.125  1.00  0.00     0.053 C 
BRANCH   2   3
ATOM      3  C   UNL     1      84.928  17.408 120.701  1.00  0.00     0.041 C 
ATOM      4  O   UNL     1      85.330  16.353 120.144  1.00  0.00    -0.550 OA
ATOM      5  O   UNL     1      83.572  17.579 120.952  1.00  0.00    -0.550 OA
ENDBRANCH   2   3
ENDBRANCH   1   2
BRANCH   1   6
ATOM      6  C   UNL     1      88.383  19.040 120.961  1.00  0.00     0.000 C 
BRANCH   6   7
ATOM      7  C   UNL     1      89.473  17.975 121.125  1.00  0.00    -0.003 C 
ATOM      8  C   UNL     1      90.585  18.162 120.096  1.00  0.00     0.004 C 
ENDBRANCH   6   7
ENDBRANCH   1   6
TORSDOF 4
ENDMDL
MODEL 9
REMARK VINA RESULT:    -0.749     14.656     15.289
REMARK INTER + INTRA:          -1.035
REMARK INTER:                  -0.970
REMARK INTRA:                  -0.065
REMARK UNBOUND:                -0.110
REMARK SMILES CCCCCC(=O)[O-]
REMARK SMILES IDX 4 1 5 2 6 3 7 4 8 5 3 6 2 7 1 8
REMARK H PARENT
REMARK Flexibility Score: inf
ROOT
ATOM      1  C   UNL     1      89.499   7.681 109.129  1.00  0.00     0.006 C 
ENDROOT
BRANCH   1   2
ATOM      2  C   UNL     1      88.855   6.875 110.263  1.00  0.00     0.053 C 
BRANCH   2   3
ATOM      3  C   UNL     1      87.609   7.531 110.773  1.00  0.00     0.041 C 
ATOM      4  O   UNL     1      86.824   8.111 109.977  1.00  0.00    -0.550 OA
ATOM      5  O   UNL     1      87.298   7.474 112.126  1.00  0.00    -0.550 OA
ENDBRANCH   2   3
ENDBRANCH   1   2
BRANCH   1   6
ATOM      6  C   UNL     1      90.570   6.875 108.378  1.00  0.00     0.000 C 
BRANCH   6   7
ATOM      7  C   UNL     1      91.403   7.785 107.468  1.00  0.00    -0.003 C 
ATOM      8  C   UNL     1      90.555   8.355 106.334  1.00  0.00     0.004 C 
ENDBRANCH   6   7
ENDBRANCH   1   6
TORSDOF 4
ENDMDL
