MODEL 1
REMARK VINA RESULT:    -4.756      0.000      0.000
REMARK INTER + INTRA:         -11.701
REMARK INTER:                  -8.927
REMARK INTRA:                  -2.774
REMARK UNBOUND:                -2.774
REMARK SMILES CCCCCCCCC=CCCCCCCCC(=O)[O-]
REMARK SMILES IDX 10 1 9 2 11 3 12 4 13 5 14 6 15 7 16 8 17 9 18 10 19 11
REMARK SMILES IDX 20 12 8 13 7 14 6 15 5 16 4 17 3 18 2 19 1 20
REMARK H PARENT
REMARK Flexibility Score: inf
ROOT
ATOM      1  C   UNL     1     -25.040 -62.294   2.865  1.00  0.00    -0.031 C 
ATOM      2  C   UNL     1     -25.784 -62.127   3.976  1.00  0.00    -0.031 C 
ENDROOT
BRANCH   1   3
ATOM      3  C   UNL     1     -23.870 -63.237   2.723  1.00  0.00     0.027 C 
BRANCH   3   4
ATOM      4  C   UNL     1     -22.634 -62.521   2.162  1.00  0.00     0.004 C 
BRANCH   4   5
ATOM      5  C   UNL     1     -23.009 -61.379   1.203  1.00  0.00     0.000 C 
BRANCH   5   6
ATOM      6  C   UNL     1     -21.900 -61.077   0.183  1.00  0.00     0.000 C 
BRANCH   6   7
ATOM      7  C   UNL     1     -22.406 -60.260  -1.017  1.00  0.00     0.000 C 
BRANCH   7   8
ATOM      8  C   UNL     1     -23.276 -59.083  -0.553  1.00  0.00     0.006 C 
BRANCH   8   9
ATOM      9  C   UNL     1     -24.111 -58.491  -1.695  1.00  0.00     0.053 C 
BRANCH   9  10
ATOM     10  C   UNL     1     -25.354 -59.287  -1.946  1.00  0.00     0.041 C 
ATOM     11  O   UNL     1     -26.033 -59.724  -0.979  1.00  0.00    -0.550 OA
ATOM     12  O   UNL     1     -25.783 -59.518  -3.247  1.00  0.00    -0.550 OA
ENDBRANCH   9  10
ENDBRANCH   8   9
ENDBRANCH   7   8
ENDBRANCH   6   7
ENDBRANCH   5   6
ENDBRANCH   4   5
ENDBRANCH   3   4
ENDBRANCH   1   3
BRANCH   2  13
ATOM     13  C   UNL     1     -25.624 -62.894   5.267  1.00  0.00     0.027 C 
BRANCH  13  14
ATOM     14  C   UNL     1     -24.745 -62.135   6.269  1.00  0.00     0.004 C 
BRANCH  14  15
ATOM     15  C   UNL     1     -23.273 -62.573   6.201  1.00  0.00     0.000 C 
BRANCH  15  16
ATOM     16  C   UNL     1     -22.348 -61.453   5.699  1.00  0.00     0.000 C 
BRANCH  16  17
ATOM     17  C   UNL     1     -23.014 -60.067   5.755  1.00  0.00    -0.000 C 
BRANCH  17  18
ATOM     18  C   UNL     1     -23.150 -59.420   4.368  1.00  0.00    -0.000 C 
BRANCH  18  19
ATOM     19  C   UNL     1     -24.475 -58.661   4.200  1.00  0.00    -0.003 C 
ATOM     20  C   UNL     1     -24.856 -58.540   2.727  1.00  0.00     0.004 C 
ENDBRANCH  18  19
ENDBRANCH  17  18
ENDBRANCH  16  17
ENDBRANCH  15  16
ENDBRANCH  14  15
ENDBRANCH  13  14
ENDBRANCH   2  13
TORSDOF 15
ENDMDL
MODEL 2
REMARK VINA RESULT:    -4.676      1.421      2.142
REMARK INTER + INTRA:         -11.550
REMARK INTER:                  -9.284
REMARK INTRA:                  -2.267
REMARK UNBOUND:                -2.774
REMARK SMILES CCCCCCCCC=CCCCCCCCC(=O)[O-]
REMARK SMILES IDX 10 1 9 2 11 3 12 4 13 5 14 6 15 7 16 8 17 9 18 10 19 11
REMARK SMILES IDX 20 12 8 13 7 14 6 15 5 16 4 17 3 18 2 19 1 20
REMARK H PARENT
REMARK Flexibility Score: inf
ROOT
ATOM      1  C   UNL     1     -24.149 -62.240   2.479  1.00  0.00    -0.031 C 
ATOM      2  C   UNL     1     -25.130 -62.754   3.245  1.00  0.00    -0.031 C 
ENDROOT
BRANCH   1   3
ATOM      3  C   UNL     1     -22.968 -63.005   1.930  1.00  0.00     0.027 C 
BRANCH   3   4
ATOM      4  C   UNL     1     -21.915 -62.063   1.333  1.00  0.00     0.004 C 
BRANCH   4   5
ATOM      5  C   UNL     1     -22.251 -61.653  -0.110  1.00  0.00     0.000 C 
BRANCH   5   6
ATOM      6  C   UNL     1     -22.291 -60.128  -0.298  1.00  0.00     0.000 C 
BRANCH   6   7
ATOM      7  C   UNL     1     -23.672 -59.529   0.009  1.00  0.00     0.000 C 
BRANCH   7   8
ATOM      8  C   UNL     1     -24.619 -59.691  -1.190  1.00  0.00     0.006 C 
BRANCH   8   9
ATOM      9  C   UNL     1     -24.795 -58.383  -1.971  1.00  0.00     0.053 C 
BRANCH   9  10
ATOM     10  C   UNL     1     -25.900 -58.480  -2.977  1.00  0.00     0.041 C 
ATOM     11  O   UNL     1     -25.924 -59.431  -3.803  1.00  0.00    -0.550 OA
ATOM     12  O   UNL     1     -26.922 -57.539  -2.984  1.00  0.00    -0.550 OA
ENDBRANCH   9  10
ENDBRANCH   8   9
ENDBRANCH   7   8
ENDBRANCH   6   7
ENDBRANCH   5   6
ENDBRANCH   4   5
ENDBRANCH   3   4
ENDBRANCH   1   3
BRANCH   2  13
ATOM     13  C   UNL     1     -25.264 -64.203   3.649  1.00  0.00     0.027 C 
BRANCH  13  14
ATOM     14  C   UNL     1     -24.722 -64.448   5.063  1.00  0.00     0.004 C 
BRANCH  14  15
ATOM     15  C   UNL     1     -23.281 -64.984   5.048  1.00  0.00     0.000 C 
BRANCH  15  16
ATOM     16  C   UNL     1     -22.273 -63.983   5.635  1.00  0.00     0.000 C 
BRANCH  16  17
ATOM     17  C   UNL     1     -22.953 -62.730   6.213  1.00  0.00    -0.000 C 
BRANCH  17  18
ATOM     18  C   UNL     1     -22.308 -61.426   5.720  1.00  0.00    -0.000 C 
BRANCH  18  19
ATOM     19  C   UNL     1     -23.329 -60.290   5.554  1.00  0.00    -0.003 C 
ATOM     20  C   UNL     1     -24.650 -60.635   6.235  1.00  0.00     0.004 C 
ENDBRANCH  18  19
ENDBRANCH  17  18
ENDBRANCH  16  17
ENDBRANCH  15  16
ENDBRANCH  14  15
ENDBRANCH  13  14
ENDBRANCH   2  13
TORSDOF 15
ENDMDL
MODEL 3
REMARK VINA RESULT:    -4.621      1.597      3.020
REMARK INTER + INTRA:         -11.448
REMARK INTER:                  -8.905
REMARK INTRA:                  -2.542
REMARK UNBOUND:                -2.774
REMARK SMILES CCCCCCCCC=CCCCCCCCC(=O)[O-]
REMARK SMILES IDX 10 1 9 2 11 3 12 4 13 5 14 6 15 7 16 8 17 9 18 10 19 11
REMARK SMILES IDX 20 12 8 13 7 14 6 15 5 16 4 17 3 18 2 19 1 20
REMARK H PARENT
REMARK Flexibility Score: inf
ROOT
ATOM      1  C   UNL     1     -24.327 -59.714   2.439  1.00  0.00    -0.031 C 
ATOM      2  C   UNL     1     -24.549 -60.998   2.099  1.00  0.00    -0.031 C 
ENDROOT
BRANCH   1   3
ATOM      3  C   UNL     1     -22.973 -59.066   2.597  1.00  0.00     0.027 C 
BRANCH   3   4
ATOM      4  C   UNL     1     -22.627 -58.183   1.392  1.00  0.00     0.004 C 
BRANCH   4   5
ATOM      5  C   UNL     1     -21.877 -58.959   0.297  1.00  0.00     0.000 C 
BRANCH   5   6
ATOM      6  C   UNL     1     -22.560 -58.855  -1.076  1.00  0.00     0.000 C 
BRANCH   6   7
ATOM      7  C   UNL     1     -23.651 -59.918  -1.276  1.00  0.00     0.000 C 
BRANCH   7   8
ATOM      8  C   UNL     1     -25.049 -59.282  -1.249  1.00  0.00     0.006 C 
BRANCH   8   9
ATOM      9  C   UNL     1     -25.638 -59.114  -2.655  1.00  0.00     0.053 C 
BRANCH   9  10
ATOM     10  C   UNL     1     -25.756 -57.672  -3.040  1.00  0.00     0.041 C 
ATOM     11  O   UNL     1     -25.049 -56.802  -2.466  1.00  0.00    -0.550 OA
ATOM     12  O   UNL     1     -26.623 -57.291  -4.057  1.00  0.00    -0.550 OA
ENDBRANCH   9  10
ENDBRANCH   8   9
ENDBRANCH   7   8
ENDBRANCH   6   7
ENDBRANCH   5   6
ENDBRANCH   4   5
ENDBRANCH   3   4
ENDBRANCH   1   3
BRANCH   2  13
ATOM     13  C   UNL     1     -23.486 -62.014   1.753  1.00  0.00     0.027 C 
BRANCH  13  14
ATOM     14  C   UNL     1     -23.686 -63.326   2.523  1.00  0.00     0.004 C 
BRANCH  14  15
ATOM     15  C   UNL     1     -24.724 -63.187   3.650  1.00  0.00     0.000 C 
BRANCH  15  16
ATOM     16  C   UNL     1     -24.079 -63.159   5.044  1.00  0.00     0.000 C 
BRANCH  16  17
ATOM     17  C   UNL     1     -22.609 -62.706   5.007  1.00  0.00    -0.000 C 
BRANCH  17  18
ATOM     18  C   UNL     1     -22.398 -61.329   5.654  1.00  0.00    -0.000 C 
BRANCH  18  19
ATOM     19  C   UNL     1     -23.723 -60.640   6.017  1.00  0.00    -0.003 C 
ATOM     20  C   UNL     1     -23.527 -59.137   6.203  1.00  0.00     0.004 C 
ENDBRANCH  18  19
ENDBRANCH  17  18
ENDBRANCH  16  17
ENDBRANCH  15  16
ENDBRANCH  14  15
ENDBRANCH  13  14
ENDBRANCH   2  13
TORSDOF 15
ENDMDL
MODEL 4
REMARK VINA RESULT:    -4.583      1.401      2.948
REMARK INTER + INTRA:         -11.376
REMARK INTER:                  -8.432
REMARK INTRA:                  -2.944
REMARK UNBOUND:                -2.774
REMARK SMILES CCCCCCCCC=CCCCCCCCC(=O)[O-]
REMARK SMILES IDX 10 1 9 2 11 3 12 4 13 5 14 6 15 7 16 8 17 9 18 10 19 11
REMARK SMILES IDX 20 12 8 13 7 14 6 15 5 16 4 17 3 18 2 19 1 20
REMARK H PARENT
REMARK Flexibility Score: inf
ROOT
ATOM      1  C   UNL     1     -25.629 -62.365   6.132  1.00  0.00    -0.031 C 
ATOM      2  C   UNL     1     -24.442 -61.930   6.598  1.00  0.00    -0.031 C 
ENDROOT
BRANCH   1   3
ATOM      3  C   UNL     1     -25.826 -63.314   4.975  1.00  0.00     0.027 C 
BRANCH   3   4
ATOM      4  C   UNL     1     -25.771 -62.581   3.628  1.00  0.00     0.004 C 
BRANCH   4   5
ATOM      5  C   UNL     1     -24.574 -63.025   2.772  1.00  0.00     0.000 C 
BRANCH   5   6
ATOM      6  C   UNL     1     -23.844 -61.842   2.116  1.00  0.00     0.000 C 
BRANCH   6   7
ATOM      7  C   UNL     1     -22.422 -62.203   1.660  1.00  0.00     0.000 C 
BRANCH   7   8
ATOM      8  C   UNL     1     -22.003 -61.360   0.447  1.00  0.00     0.006 C 
BRANCH   8   9
ATOM      9  C   UNL     1     -22.620 -59.956   0.474  1.00  0.00     0.053 C 
BRANCH   9  10
ATOM     10  C   UNL     1     -22.851 -59.422  -0.905  1.00  0.00     0.041 C 
ATOM     11  O   UNL     1     -22.170 -58.452  -1.332  1.00  0.00    -0.550 OA
ATOM     12  O   UNL     1     -23.795 -60.016  -1.734  1.00  0.00    -0.550 OA
ENDBRANCH   9  10
ENDBRANCH   8   9
ENDBRANCH   7   8
ENDBRANCH   6   7
ENDBRANCH   5   6
ENDBRANCH   4   5
ENDBRANCH   3   4
ENDBRANCH   1   3
BRANCH   2  13
ATOM     13  C   UNL     1     -23.086 -62.358   6.089  1.00  0.00     0.027 C 
BRANCH  13  14
ATOM     14  C   UNL     1     -22.256 -61.157   5.616  1.00  0.00     0.004 C 
BRANCH  14  15
ATOM     15  C   UNL     1     -23.007 -59.827   5.787  1.00  0.00     0.000 C 
BRANCH  15  16
ATOM     16  C   UNL     1     -23.280 -59.128   4.446  1.00  0.00     0.000 C 
BRANCH  16  17
ATOM     17  C   UNL     1     -24.771 -58.811   4.237  1.00  0.00    -0.000 C 
BRANCH  17  18
ATOM     18  C   UNL     1     -25.101 -58.453   2.779  1.00  0.00    -0.000 C 
BRANCH  18  19
ATOM     19  C   UNL     1     -26.375 -59.148   2.276  1.00  0.00    -0.003 C 
ATOM     20  C   UNL     1     -26.311 -59.388   0.770  1.00  0.00     0.004 C 
ENDBRANCH  18  19
ENDBRANCH  17  18
ENDBRANCH  16  17
ENDBRANCH  15  16
ENDBRANCH  14  15
ENDBRANCH  13  14
ENDBRANCH   2  13
TORSDOF 15
ENDMDL
MODEL 5
REMARK VINA RESULT:    -4.577      1.329      2.037
REMARK INTER + INTRA:         -11.365
REMARK INTER:                  -9.311
REMARK INTRA:                  -2.054
REMARK UNBOUND:                -2.774
REMARK SMILES CCCCCCCCC=CCCCCCCCC(=O)[O-]
REMARK SMILES IDX 10 1 9 2 11 3 12 4 13 5 14 6 15 7 16 8 17 9 18 10 19 11
REMARK SMILES IDX 20 12 8 13 7 14 6 15 5 16 4 17 3 18 2 19 1 20
REMARK H PARENT
REMARK Flexibility Score: inf
ROOT
ATOM      1  C   UNL     1     -25.251 -64.200   3.963  1.00  0.00    -0.031 C 
ATOM      2  C   UNL     1     -25.051 -64.668   5.210  1.00  0.00    -0.031 C 
ENDROOT
BRANCH   1   3
ATOM      3  C   UNL     1     -25.619 -62.780   3.605  1.00  0.00     0.027 C 
BRANCH   3   4
ATOM      4  C   UNL     1     -24.637 -62.182   2.589  1.00  0.00     0.004 C 
BRANCH   4   5
ATOM      5  C   UNL     1     -23.536 -63.178   2.188  1.00  0.00     0.000 C 
BRANCH   5   6
ATOM      6  C   UNL     1     -22.230 -62.481   1.774  1.00  0.00     0.000 C 
BRANCH   6   7
ATOM      7  C   UNL     1     -22.272 -61.954   0.331  1.00  0.00     0.000 C 
BRANCH   7   8
ATOM      8  C   UNL     1     -21.876 -60.471   0.276  1.00  0.00     0.006 C 
BRANCH   8   9
ATOM      9  C   UNL     1     -22.053 -59.875  -1.126  1.00  0.00     0.053 C 
BRANCH   9  10
ATOM     10  C   UNL     1     -23.296 -59.046  -1.226  1.00  0.00     0.041 C 
ATOM     11  O   UNL     1     -23.357 -57.923  -0.660  1.00  0.00    -0.550 OA
ATOM     12  O   UNL     1     -24.377 -59.498  -1.973  1.00  0.00    -0.550 OA
ENDBRANCH   9  10
ENDBRANCH   8   9
ENDBRANCH   7   8
ENDBRANCH   6   7
ENDBRANCH   5   6
ENDBRANCH   4   5
ENDBRANCH   3   4
ENDBRANCH   1   3
BRANCH   2  13
ATOM     13  C   UNL     1     -25.101 -63.849   6.478  1.00  0.00     0.027 C 
BRANCH  13  14
ATOM     14  C   UNL     1     -23.694 -63.539   7.005  1.00  0.00     0.004 C 
BRANCH  14  15
ATOM     15  C   UNL     1     -22.642 -63.526   5.884  1.00  0.00     0.000 C 
BRANCH  15  16
ATOM     16  C   UNL     1     -22.242 -62.102   5.468  1.00  0.00     0.000 C 
BRANCH  16  17
ATOM     17  C   UNL     1     -23.233 -61.038   5.971  1.00  0.00    -0.000 C 
BRANCH  17  18
ATOM     18  C   UNL     1     -22.853 -59.618   5.526  1.00  0.00    -0.000 C 
BRANCH  18  19
ATOM     19  C   UNL     1     -23.312 -59.306   4.093  1.00  0.00    -0.003 C 
ATOM     20  C   UNL     1     -22.949 -57.877   3.698  1.00  0.00     0.004 C 
ENDBRANCH  18  19
ENDBRANCH  17  18
ENDBRANCH  16  17
ENDBRANCH  15  16
ENDBRANCH  14  15
ENDBRANCH  13  14
ENDBRANCH   2  13
TORSDOF 15
ENDMDL
MODEL 6
REMARK VINA RESULT:    -4.576      1.716      2.715
REMARK INTER + INTRA:         -11.362
REMARK INTER:                  -8.623
REMARK INTRA:                  -2.740
REMARK UNBOUND:                -2.774
REMARK SMILES CCCCCCCCC=CCCCCCCCC(=O)[O-]
REMARK SMILES IDX 10 1 9 2 11 3 12 4 13 5 14 6 15 7 16 8 17 9 18 10 19 11
REMARK SMILES IDX 20 12 8 13 7 14 6 15 5 16 4 17 3 18 2 19 1 20
REMARK H PARENT
REMARK Flexibility Score: inf
ROOT
ATOM      1  C   UNL     1     -25.704 -61.738   3.362  1.00  0.00    -0.031 C 
ATOM      2  C   UNL     1     -25.502 -60.529   3.918  1.00  0.00    -0.031 C 
ENDROOT
BRANCH   1   3
ATOM      3  C   UNL     1     -24.977 -63.009   3.731  1.00  0.00     0.027 C 
BRANCH   3   4
ATOM      4  C   UNL     1     -24.089 -63.504   2.582  1.00  0.00     0.004 C 
BRANCH   4   5
ATOM      5  C   UNL     1     -22.842 -62.626   2.391  1.00  0.00     0.000 C 
BRANCH   5   6
ATOM      6  C   UNL     1     -22.335 -62.625   0.940  1.00  0.00     0.000 C 
BRANCH   6   7
ATOM      7  C   UNL     1     -21.896 -61.231   0.467  1.00  0.00     0.000 C 
BRANCH   7   8
ATOM      8  C   UNL     1     -22.654 -60.130   1.223  1.00  0.00     0.006 C 
BRANCH   8   9
ATOM      9  C   UNL     1     -23.900 -59.657   0.464  1.00  0.00     0.053 C 
BRANCH   9  10
ATOM     10  C   UNL     1     -23.576 -59.246  -0.939  1.00  0.00     0.041 C 
ATOM     11  O   UNL     1     -24.157 -59.797  -1.911  1.00  0.00    -0.550 OA
ATOM     12  O   UNL     1     -22.657 -58.230  -1.173  1.00  0.00    -0.550 OA
ENDBRANCH   9  10
ENDBRANCH   8   9
ENDBRANCH   7   8
ENDBRANCH   6   7
ENDBRANCH   5   6
ENDBRANCH   4   5
ENDBRANCH   3   4
ENDBRANCH   1   3
BRANCH   2  13
ATOM     13  C   UNL     1     -24.553 -60.229   5.054  1.00  0.00     0.027 C 
BRANCH  13  14
ATOM     14  C   UNL     1     -23.266 -59.560   4.554  1.00  0.00     0.004 C 
BRANCH  14  15
ATOM     15  C   UNL     1     -22.747 -58.492   5.531  1.00  0.00     0.000 C 
BRANCH  15  16
ATOM     16  C   UNL     1     -22.578 -57.118   4.866  1.00  0.00     0.000 C 
BRANCH  16  17
ATOM     17  C   UNL     1     -23.044 -57.109   3.400  1.00  0.00    -0.000 C 
BRANCH  17  18
ATOM     18  C   UNL     1     -24.198 -56.125   3.152  1.00  0.00    -0.000 C 
BRANCH  18  19
ATOM     19  C   UNL     1     -25.568 -56.726   3.500  1.00  0.00    -0.003 C 
ATOM     20  C   UNL     1     -26.233 -57.330   2.266  1.00  0.00     0.004 C 
ENDBRANCH  18  19
ENDBRANCH  17  18
ENDBRANCH  16  17
ENDBRANCH  15  16
ENDBRANCH  14  15
ENDBRANCH  13  14
ENDBRANCH   2  13
TORSDOF 15
ENDMDL
MODEL 7
REMARK VINA RESULT:    -4.538      1.833      4.858
REMARK INTER + INTRA:         -11.292
REMARK INTER:                  -8.517
REMARK INTRA:                  -2.775
REMARK UNBOUND:                -2.774
REMARK SMILES CCCCCCCCC=CCCCCCCCC(=O)[O-]
REMARK SMILES IDX 10 1 9 2 11 3 12 4 13 5 14 6 15 7 16 8 17 9 18 10 19 11
REMARK SMILES IDX 20 12 8 13 7 14 6 15 5 16 4 17 3 18 2 19 1 20
REMARK H PARENT
REMARK Flexibility Score: inf
ROOT
ATOM      1  C   UNL     1     -23.588 -57.143   2.378  1.00  0.00    -0.031 C 
ATOM      2  C   UNL     1     -22.835 -57.466   1.310  1.00  0.00    -0.031 C 
ENDROOT
BRANCH   1   3
ATOM      3  C   UNL     1     -23.658 -57.917   3.673  1.00  0.00     0.027 C 
BRANCH   3   4
ATOM      4  C   UNL     1     -25.059 -58.498   3.907  1.00  0.00     0.004 C 
BRANCH   4   5
ATOM      5  C   UNL     1     -25.104 -60.018   3.684  1.00  0.00     0.000 C 
BRANCH   5   6
ATOM      6  C   UNL     1     -26.030 -60.419   2.525  1.00  0.00     0.000 C 
BRANCH   6   7
ATOM      7  C   UNL     1     -26.440 -59.222   1.654  1.00  0.00     0.000 C 
BRANCH   7   8
ATOM      8  C   UNL     1     -25.948 -59.398   0.210  1.00  0.00     0.006 C 
BRANCH   8   9
ATOM      9  C   UNL     1     -25.774 -58.056  -0.513  1.00  0.00     0.053 C 
BRANCH   9  10
ATOM     10  C   UNL     1     -25.194 -58.232  -1.882  1.00  0.00     0.041 C 
ATOM     11  O   UNL     1     -24.789 -57.232  -2.532  1.00  0.00    -0.550 OA
ATOM     12  O   UNL     1     -25.070 -59.503  -2.429  1.00  0.00    -0.550 OA
ENDBRANCH   9  10
ENDBRANCH   8   9
ENDBRANCH   7   8
ENDBRANCH   6   7
ENDBRANCH   5   6
ENDBRANCH   4   5
ENDBRANCH   3   4
ENDBRANCH   1   3
BRANCH   2  13
ATOM     13  C   UNL     1     -21.875 -58.630   1.228  1.00  0.00     0.027 C 
BRANCH  13  14
ATOM     14  C   UNL     1     -21.981 -59.355  -0.120  1.00  0.00     0.004 C 
BRANCH  14  15
ATOM     15  C   UNL     1     -22.759 -60.677  -0.010  1.00  0.00     0.000 C 
BRANCH  15  16
ATOM     16  C   UNL     1     -21.974 -61.761   0.745  1.00  0.00     0.000 C 
BRANCH  16  17
ATOM     17  C   UNL     1     -22.566 -62.060   2.133  1.00  0.00    -0.000 C 
BRANCH  17  18
ATOM     18  C   UNL     1     -23.557 -63.234   2.114  1.00  0.00    -0.000 C 
BRANCH  18  19
ATOM     19  C   UNL     1     -23.784 -63.836   3.509  1.00  0.00    -0.003 C 
ATOM     20  C   UNL     1     -25.271 -63.879   3.852  1.00  0.00     0.004 C 
ENDBRANCH  18  19
ENDBRANCH  17  18
ENDBRANCH  16  17
ENDBRANCH  15  16
ENDBRANCH  14  15
ENDBRANCH  13  14
ENDBRANCH   2  13
TORSDOF 15
ENDMDL
MODEL 8
REMARK VINA RESULT:    -4.526      1.153      1.986
REMARK INTER + INTRA:         -11.268
REMARK INTER:                  -8.644
REMARK INTRA:                  -2.625
REMARK UNBOUND:                -2.774
REMARK SMILES CCCCCCCCC=CCCCCCCCC(=O)[O-]
REMARK SMILES IDX 10 1 9 2 11 3 12 4 13 5 14 6 15 7 16 8 17 9 18 10 19 11
REMARK SMILES IDX 20 12 8 13 7 14 6 15 5 16 4 17 3 18 2 19 1 20
REMARK H PARENT
REMARK Flexibility Score: inf
ROOT
ATOM      1  C   UNL     1     -25.173 -62.653   4.024  1.00  0.00    -0.031 C 
ATOM      2  C   UNL     1     -24.793 -62.178   5.226  1.00  0.00    -0.031 C 
ENDROOT
BRANCH   1   3
ATOM      3  C   UNL     1     -24.253 -63.226   2.974  1.00  0.00     0.027 C 
BRANCH   3   4
ATOM      4  C   UNL     1     -23.640 -62.124   2.099  1.00  0.00     0.004 C 
BRANCH   4   5
ATOM      5  C   UNL     1     -22.305 -62.556   1.469  1.00  0.00     0.000 C 
BRANCH   5   6
ATOM      6  C   UNL     1     -21.918 -61.695   0.257  1.00  0.00     0.000 C 
BRANCH   6   7
ATOM      7  C   UNL     1     -21.876 -60.194   0.585  1.00  0.00     0.000 C 
BRANCH   7   8
ATOM      8  C   UNL     1     -22.336 -59.356  -0.617  1.00  0.00     0.006 C 
BRANCH   8   9
ATOM      9  C   UNL     1     -23.589 -59.936  -1.284  1.00  0.00     0.053 C 
BRANCH   9  10
ATOM     10  C   UNL     1     -24.637 -58.890  -1.506  1.00  0.00     0.041 C 
ATOM     11  O   UNL     1     -24.305 -57.697  -1.732  1.00  0.00    -0.550 OA
ATOM     12  O   UNL     1     -25.983 -59.238  -1.495  1.00  0.00    -0.550 OA
ENDBRANCH   9  10
ENDBRANCH   8   9
ENDBRANCH   7   8
ENDBRANCH   6   7
ENDBRANCH   5   6
ENDBRANCH   4   5
ENDBRANCH   3   4
ENDBRANCH   1   3
BRANCH   2  13
ATOM     13  C   UNL     1     -23.384 -62.185   5.771  1.00  0.00     0.027 C 
BRANCH  13  14
ATOM     14  C   UNL     1     -22.655 -60.870   5.468  1.00  0.00     0.004 C 
BRANCH  14  15
ATOM     15  C   UNL     1     -23.393 -59.649   6.040  1.00  0.00     0.000 C 
BRANCH  15  16
ATOM     16  C   UNL     1     -23.267 -58.409   5.142  1.00  0.00     0.000 C 
BRANCH  16  17
ATOM     17  C   UNL     1     -23.232 -58.764   3.645  1.00  0.00    -0.000 C 
BRANCH  17  18
ATOM     18  C   UNL     1     -24.633 -58.811   3.016  1.00  0.00    -0.000 C 
BRANCH  18  19
ATOM     19  C   UNL     1     -24.884 -57.643   2.049  1.00  0.00    -0.003 C 
ATOM     20  C   UNL     1     -23.592 -56.882   1.761  1.00  0.00     0.004 C 
ENDBRANCH  18  19
ENDBRANCH  17  18
ENDBRANCH  16  17
ENDBRANCH  15  16
ENDBRANCH  14  15
ENDBRANCH  13  14
ENDBRANCH   2  13
TORSDOF 15
ENDMDL
MODEL 9
REMARK VINA RESULT:    -4.390      1.417      3.001
REMARK INTER + INTRA:         -11.014
REMARK INTER:                  -8.219
REMARK INTRA:                  -2.795
REMARK UNBOUND:                -2.774
REMARK SMILES CCCCCCCCC=CCCCCCCCC(=O)[O-]
REMARK SMILES IDX 10 1 9 2 11 3 12 4 13 5 14 6 15 7 16 8 17 9 18 10 19 11
REMARK SMILES IDX 20 12 8 13 7 14 6 15 5 16 4 17 3 18 2 19 1 20
REMARK H PARENT
REMARK Flexibility Score: inf
ROOT
ATOM      1  C   UNL     1     -25.854 -62.472   3.673  1.00  0.00    -0.031 C 
ATOM      2  C   UNL     1     -26.599 -61.353   3.584  1.00  0.00    -0.031 C 
ENDROOT
BRANCH   1   3
ATOM      3  C   UNL     1     -24.345 -62.525   3.704  1.00  0.00     0.027 C 
BRANCH   3   4
ATOM      4  C   UNL     1     -23.782 -63.261   2.481  1.00  0.00     0.004 C 
BRANCH   4   5
ATOM      5  C   UNL     1     -22.778 -62.403   1.695  1.00  0.00     0.000 C 
BRANCH   5   6
ATOM      6  C   UNL     1     -22.970 -60.897   1.938  1.00  0.00     0.000 C 
BRANCH   6   7
ATOM      7  C   UNL     1     -22.898 -60.075   0.642  1.00  0.00     0.000 C 
BRANCH   7   8
ATOM      8  C   UNL     1     -24.274 -59.992  -0.034  1.00  0.00     0.006 C 
BRANCH   8   9
ATOM      9  C   UNL     1     -24.189 -59.429  -1.458  1.00  0.00     0.053 C 
BRANCH   9  10
ATOM     10  C   UNL     1     -25.542 -59.105  -2.011  1.00  0.00     0.041 C 
ATOM     11  O   UNL     1     -25.906 -59.583  -3.118  1.00  0.00    -0.550 OA
ATOM     12  O   UNL     1     -26.417 -58.302  -1.289  1.00  0.00    -0.550 OA
ENDBRANCH   9  10
ENDBRANCH   8   9
ENDBRANCH   7   8
ENDBRANCH   6   7
ENDBRANCH   5   6
ENDBRANCH   4   5
ENDBRANCH   3   4
ENDBRANCH   1   3
BRANCH   2  13
ATOM     13  C   UNL     1     -26.067 -59.940   3.559  1.00  0.00     0.027 C 
BRANCH  13  14
ATOM     14  C   UNL     1     -26.752 -59.098   2.475  1.00  0.00     0.004 C 
BRANCH  14  15
ATOM     15  C   UNL     1     -26.074 -57.731   2.284  1.00  0.00     0.000 C 
BRANCH  15  16
ATOM     16  C   UNL     1     -25.066 -57.412   3.400  1.00  0.00     0.000 C 
BRANCH  16  17
ATOM     17  C   UNL     1     -23.630 -57.252   2.871  1.00  0.00    -0.000 C 
BRANCH  17  18
ATOM     18  C   UNL     1     -22.569 -57.575   3.935  1.00  0.00    -0.000 C 
BRANCH  18  19
ATOM     19  C   UNL     1     -23.188 -58.040   5.262  1.00  0.00    -0.003 C 
ATOM     20  C   UNL     1     -22.868 -59.507   5.534  1.00  0.00     0.004 C 
ENDBRANCH  18  19
ENDBRANCH  17  18
ENDBRANCH  16  17
ENDBRANCH  15  16
ENDBRANCH  14  15
ENDBRANCH  13  14
ENDBRANCH   2  13
TORSDOF 15
ENDMDL
