MODEL 1
REMARK VINA RESULT:    -3.270      0.000      0.000
REMARK INTER + INTRA:          -3.862
REMARK INTER:                  -3.843
REMARK INTRA:                  -0.019
REMARK UNBOUND:                -0.019
REMARK SMILES CCCCC(=O)[O-]
REMARK SMILES IDX 4 1 5 2 6 3 7 4 3 5 2 6 1 7
REMARK H PARENT
REMARK Flexibility Score: inf
ROOT
ATOM      1  C   UNL     1      -4.669 -13.387   6.615  1.00  0.00     0.053 C 
ENDROOT
BRANCH   1   2
ATOM      2  C   UNL     1      -6.115 -13.777   6.636  1.00  0.00     0.041 C 
ATOM      3  O   UNL     1      -6.504 -14.729   7.363  1.00  0.00    -0.550 OA
ATOM      4  O   UNL     1      -7.036 -13.070   5.875  1.00  0.00    -0.550 OA
ENDBRANCH   1   2
BRANCH   1   5
ATOM      5  C   UNL     1      -3.750 -14.572   6.954  1.00  0.00     0.006 C 
BRANCH   5   6
ATOM      6  C   UNL     1      -2.278 -14.359   6.559  1.00  0.00    -0.003 C 
ATOM      7  C   UNL     1      -1.389 -14.001   7.751  1.00  0.00     0.004 C 
ENDBRANCH   5   6
ENDBRANCH   1   5
TORSDOF 3
ENDMDL
MODEL 2
REMARK VINA RESULT:    -3.238      2.786      4.261
REMARK INTER + INTRA:          -3.825
REMARK INTER:                  -3.778
REMARK INTRA:                  -0.047
REMARK UNBOUND:                -0.019
REMARK SMILES CCCCC(=O)[O-]
REMARK SMILES IDX 4 1 5 2 6 3 7 4 3 5 2 6 1 7
REMARK H PARENT
REMARK Flexibility Score: inf
ROOT
ATOM      1  C   UNL     1      -3.007 -14.475   6.666  1.00  0.00     0.053 C 
ENDROOT
BRANCH   1   2
ATOM      2  C   UNL     1      -2.202 -13.777   7.719  1.00  0.00     0.041 C 
ATOM      3  O   UNL     1      -2.740 -12.911   8.459  1.00  0.00    -0.550 OA
ATOM      4  O   UNL     1      -0.865 -14.105   7.904  1.00  0.00    -0.550 OA
ENDBRANCH   1   2
BRANCH   1   5
ATOM      5  C   UNL     1      -4.189 -13.618   6.186  1.00  0.00     0.006 C 
BRANCH   5   6
ATOM      6  C   UNL     1      -5.565 -14.128   6.649  1.00  0.00    -0.003 C 
ATOM      7  C   UNL     1      -6.725 -13.468   5.903  1.00  0.00     0.004 C 
ENDBRANCH   5   6
ENDBRANCH   1   5
TORSDOF 3
ENDMDL
MODEL 3
REMARK VINA RESULT:    -3.225      2.825      4.334
REMARK INTER + INTRA:          -3.810
REMARK INTER:                  -3.780
REMARK INTRA:                  -0.030
REMARK UNBOUND:                -0.019
REMARK SMILES CCCCC(=O)[O-]
REMARK SMILES IDX 4 1 5 2 6 3 7 4 3 5 2 6 1 7
REMARK H PARENT
REMARK Flexibility Score: inf
ROOT
ATOM      1  C   UNL     1      -3.511 -13.526   7.430  1.00  0.00     0.053 C 
ENDROOT
BRANCH   1   2
ATOM      2  C   UNL     1      -2.176 -14.096   7.060  1.00  0.00     0.041 C 
ATOM      3  O   UNL     1      -2.017 -14.671   5.952  1.00  0.00    -0.550 OA
ATOM      4  O   UNL     1      -1.100 -13.965   7.929  1.00  0.00    -0.550 OA
ENDBRANCH   1   2
BRANCH   1   5
ATOM      5  C   UNL     1      -4.519 -13.632   6.275  1.00  0.00     0.006 C 
BRANCH   5   6
ATOM      6  C   UNL     1      -5.945 -14.008   6.716  1.00  0.00    -0.003 C 
ATOM      7  C   UNL     1      -7.025 -13.327   5.876  1.00  0.00     0.004 C 
ENDBRANCH   5   6
ENDBRANCH   1   5
TORSDOF 3
ENDMDL
MODEL 4
REMARK VINA RESULT:    -1.842      1.861      2.426
REMARK INTER + INTRA:          -2.183
REMARK INTER:                  -2.135
REMARK INTRA:                  -0.049
REMARK UNBOUND:                -0.019
REMARK SMILES CCCCC(=O)[O-]
REMARK SMILES IDX 4 1 5 2 6 3 7 4 3 5 2 6 1 7
REMARK H PARENT
REMARK Flexibility Score: inf
ROOT
ATOM      1  C   UNL     1      -2.828 -14.412   6.896  1.00  0.00     0.053 C 
ENDROOT
BRANCH   1   2
ATOM      2  C   UNL     1      -3.958 -13.428   6.903  1.00  0.00     0.041 C 
ATOM      3  O   UNL     1      -3.827 -12.316   7.479  1.00  0.00    -0.550 OA
ATOM      4  O   UNL     1      -5.144 -13.729   6.246  1.00  0.00    -0.550 OA
ENDBRANCH   1   2
BRANCH   1   5
ATOM      5  C   UNL     1      -1.893 -14.219   8.101  1.00  0.00     0.006 C 
BRANCH   5   6
ATOM      6  C   UNL     1      -0.497 -13.685   7.735  1.00  0.00    -0.003 C 
ATOM      7  C   UNL     1       0.616 -14.303   8.581  1.00  0.00     0.004 C 
ENDBRANCH   5   6
ENDBRANCH   1   5
TORSDOF 3
ENDMDL
MODEL 5
REMARK VINA RESULT:    -0.284      2.248      2.908
REMARK INTER + INTRA:          -0.353
REMARK INTER:                  -0.322
REMARK INTRA:                  -0.031
REMARK UNBOUND:                -0.019
REMARK SMILES CCCCC(=O)[O-]
REMARK SMILES IDX 4 1 5 2 6 3 7 4 3 5 2 6 1 7
REMARK H PARENT
REMARK Flexibility Score: inf
ROOT
ATOM      1  C   UNL     1      -2.350 -13.593   7.761  1.00  0.00     0.053 C 
ENDROOT
BRANCH   1   2
ATOM      2  C   UNL     1      -3.534 -12.687   7.619  1.00  0.00     0.041 C 
ATOM      3  O   UNL     1      -3.511 -11.529   8.114  1.00  0.00    -0.550 OA
ATOM      4  O   UNL     1      -4.652 -13.111   6.913  1.00  0.00    -0.550 OA
ENDBRANCH   1   2
BRANCH   1   5
ATOM      5  C   UNL     1      -2.082 -14.393   6.477  1.00  0.00     0.006 C 
BRANCH   5   6
ATOM      6  C   UNL     1      -2.277 -15.912   6.628  1.00  0.00    -0.003 C 
ATOM      7  C   UNL     1      -3.739 -16.307   6.831  1.00  0.00     0.004 C 
ENDBRANCH   5   6
ENDBRANCH   1   5
TORSDOF 3
ENDMDL
