MODEL 1
REMARK VINA RESULT:    10.156      0.000      0.000
REMARK INTER + INTRA:          21.524
REMARK INTER:                  16.687
REMARK INTRA:                   4.836
REMARK UNBOUND:                 4.836
REMARK SMILES C[C@H]1O[C@@H](OC[C@H]2O[C@@H](Oc3c(-c4ccc(O)c(O)c4)oc4cc(O)cc(O)c4c3=O)[C@@H](O)[C@@H](O)[C@@H]2O)[C@@H](O)[C@H](O)[C@H]1O
REMARK SMILES IDX 7 1 36 2 34 3 32 4 9 5 8 6 6 7 5 8 4 9 1 10 2 11 42 12 3 13
REMARK SMILES IDX 40 14 38 15 43 16 41 18 39 20 37 22 35 24 10 26 11 27 12 28
REMARK SMILES IDX 30 29 21 30 29 31 31 32 22 33 27 34 23 35 26 36 24 37 13 38
REMARK SMILES IDX 20 39 14 40 18 41 15 42 16 43 19 44 17 46 28 48 25 50 33 52
REMARK H PARENT 43 17 41 19 39 21 37 23 35 25 19 45 17 47 28 49 25 51 33 53
REMARK Flexibility Score: inf
ROOT
ATOM      1  C   UNL     1      43.888 113.657 -15.720  1.00  0.00     0.180 C 
ATOM      2  C   UNL     1      44.055 112.280 -15.029  1.00  0.00     0.177 C 
ATOM      3  C   UNL     1      42.881 112.065 -14.080  1.00  0.00     0.180 C 
ATOM      4  C   UNL     1      41.575 112.173 -14.880  1.00  0.00     0.214 C 
ATOM      5  C   UNL     1      41.529 113.514 -15.660  1.00  0.00     0.339 C 
ATOM      6  O   UNL     1      42.685 113.670 -16.489  1.00  0.00    -0.332 OA
ENDROOT
BRANCH   1   7
ATOM      7  C   UNL     1      45.114 113.925 -16.623  1.00  0.00     0.198 C 
BRANCH   7   8
ATOM      8  O   UNL     1      45.346 112.887 -17.564  1.00  0.00    -0.347 OA
BRANCH   8   9
ATOM      9  C   UNL     1      46.658 112.359 -17.422  1.00  0.00     0.281 C 
ATOM     10  C   UNL     1      47.706 108.861 -17.363  1.00  0.00     0.041 C 
ATOM     11  C   UNL     1      47.779 110.352 -17.018  1.00  0.00     0.150 C 
ATOM     12  C   UNL     1      48.114 110.609 -15.521  1.00  0.00     0.174 C 
ATOM     13  O   UNL     1      46.537 110.950 -17.351  1.00  0.00    -0.344 OA
ATOM     14  C   UNL     1      47.451 111.925 -15.034  1.00  0.00     0.179 C 
ATOM     15  C   UNL     1      47.382 112.962 -16.179  1.00  0.00     0.202 C 
BRANCH  12  16
ATOM     16  O   UNL     1      47.662 109.549 -14.709  1.00  0.00    -0.388 OA
ATOM     17  H   UNL     1      47.627 109.890 -13.781  1.00  0.00     0.211 HD
ENDBRANCH  12  16
BRANCH  14  18
ATOM     18  O   UNL     1      48.121 112.461 -13.911  1.00  0.00    -0.387 OA
ATOM     19  H   UNL     1      47.852 111.941 -13.108  1.00  0.00     0.211 HD
ENDBRANCH  14  18
BRANCH  15  20
ATOM     20  O   UNL     1      46.722 114.125 -15.739  1.00  0.00    -0.385 OA
ATOM     21  H   UNL     1      45.966 113.833 -15.152  1.00  0.00     0.211 HD
ENDBRANCH  15  20
ENDBRANCH   8   9
ENDBRANCH   7   8
ENDBRANCH   1   7
BRANCH   2  22
ATOM     22  O   UNL     1      45.258 112.217 -14.305  1.00  0.00    -0.387 OA
ATOM     23  H   UNL     1      45.782 113.028 -14.567  1.00  0.00     0.211 HD
ENDBRANCH   2  22
BRANCH   3  24
ATOM     24  O   UNL     1      42.952 110.802 -13.456  1.00  0.00    -0.387 OA
ATOM     25  H   UNL     1      43.360 110.955 -12.558  1.00  0.00     0.211 HD
ENDBRANCH   3  24
BRANCH   5  26
ATOM     26  O   UNL     1      40.360 113.558 -16.501  1.00  0.00    -0.454 OA
BRANCH  26  27
ATOM     27  C   UNL     1      39.054 113.272 -16.067  1.00  0.00     0.214 A 
ATOM     28  C   UNL     1      38.017 112.913 -16.959  1.00  0.00     0.180 A 
ATOM     29  C   UNL     1      38.720 113.427 -14.708  1.00  0.00     0.239 A 
ATOM     30  O   UNL     1      36.907 112.363 -16.476  1.00  0.00    -0.452 OA
ATOM     31  C   UNL     1      37.436 113.037 -14.256  1.00  0.00     0.111 A 
ATOM     32  O   UNL     1      39.564 113.913 -13.908  1.00  0.00    -0.285 OA
ATOM     33  C   UNL     1      36.606 112.367 -15.183  1.00  0.00     0.146 A 
ATOM     34  C   UNL     1      36.942 113.292 -12.951  1.00  0.00     0.134 A 
ATOM     35  C   UNL     1      35.435 111.738 -14.753  1.00  0.00     0.094 A 
ATOM     36  C   UNL     1      35.710 112.737 -12.551  1.00  0.00     0.093 A 
ATOM     37  C   UNL     1      34.990 111.910 -13.428  1.00  0.00     0.123 A 
BRANCH  28  38
ATOM     38  C   UNL     1      38.006 113.300 -18.393  1.00  0.00     0.025 A 
ATOM     39  C   UNL     1      36.780 113.584 -19.032  1.00  0.00     0.062 A 
ATOM     40  C   UNL     1      39.155 113.104 -19.199  1.00  0.00     0.016 A 
ATOM     41  C   UNL     1      36.712 113.734 -20.419  1.00  0.00     0.158 A 
ATOM     42  C   UNL     1      39.062 113.160 -20.603  1.00  0.00     0.051 A 
ATOM     43  C   UNL     1      37.836 113.473 -21.212  1.00  0.00     0.157 A 
BRANCH  41  44
ATOM     44  O   UNL     1      35.502 114.123 -21.004  1.00  0.00    -0.504 OA
ATOM     45  H   UNL     1      34.665 113.545 -20.950  1.00  0.00     0.293 HD
ENDBRANCH  41  44
BRANCH  43  46
ATOM     46  O   UNL     1      37.705 113.436 -22.607  1.00  0.00    -0.504 OA
ATOM     47  H   UNL     1      38.381 113.888 -23.205  1.00  0.00     0.293 HD
ENDBRANCH  43  46
ENDBRANCH  28  38
BRANCH  34  48
ATOM     48  O   UNL     1      37.650 114.107 -12.070  1.00  0.00    -0.507 OA
ATOM     49  H   UNL     1      38.624 113.912 -11.824  1.00  0.00     0.293 HD
ENDBRANCH  34  48
BRANCH  37  50
ATOM     50  O   UNL     1      33.826 111.281 -12.979  1.00  0.00    -0.508 OA
ATOM     51  H   UNL     1      32.913 111.645 -13.219  1.00  0.00     0.293 HD
ENDBRANCH  37  50
ENDBRANCH  26  27
ENDBRANCH   5  26
BRANCH   4  52
ATOM     52  O   UNL     1      41.469 111.107 -15.800  1.00  0.00    -0.384 OA
ATOM     53  H   UNL     1      41.340 110.269 -15.290  1.00  0.00     0.211 HD
ENDBRANCH   4  52
TORSDOF 16
ENDMDL
