MODEL 1
REMARK VINA RESULT:    -3.405      0.000      0.000
REMARK INTER + INTRA:          -3.504
REMARK INTER:                  -3.504
REMARK INTRA:                   0.000
REMARK UNBOUND:                 0.000
REMARK SMILES Oc1ccc2[nH]ccc2c1
REMARK SMILES IDX 3 1 4 2 5 3 9 4 8 5 7 6 6 7 10 8 2 9 1 11
REMARK H PARENT 6 10 1 12
REMARK Flexibility Score: inf
ROOT
ATOM      1  C   UNL     1     111.216 120.686 119.513  1.00  0.00     0.048 A 
ATOM      2  C   UNL     1     112.294 120.114 120.211  1.00  0.00     0.030 A 
ATOM      3  C   UNL     1     113.443 119.798 119.488  1.00  0.00     0.046 A 
ATOM      4  C   UNL     1     113.533 120.031 118.141  1.00  0.00     0.003 A 
ATOM      5  C   UNL     1     114.780 119.612 117.733  1.00  0.00     0.028 A 
ATOM      6  C   UNL     1     115.398 119.135 118.884  1.00  0.00     0.083 A 
ATOM      7  N   UNL     1     114.577 119.250 119.954  1.00  0.00    -0.361 N 
ATOM      8  C   UNL     1     112.483 120.597 117.420  1.00  0.00     0.056 A 
ATOM      9  C   UNL     1     111.306 120.928 118.120  1.00  0.00     0.116 A 
ATOM     10  H   UNL     1     114.786 118.969 120.937  1.00  0.00     0.166 HD
ENDROOT
BRANCH   9  11
ATOM     11  O   UNL     1     110.237 121.495 117.429  1.00  0.00    -0.508 OA
ATOM     12  H   UNL     1     110.292 121.685 116.436  1.00  0.00     0.293 HD
ENDBRANCH   9  11
TORSDOF 1
ENDMDL
MODEL 2
REMARK VINA RESULT:    -3.405      7.183      7.687
REMARK INTER + INTRA:          -3.504
REMARK INTER:                  -3.504
REMARK INTRA:                   0.000
REMARK UNBOUND:                 0.000
REMARK SMILES Oc1ccc2[nH]ccc2c1
REMARK SMILES IDX 3 1 4 2 5 3 9 4 8 5 7 6 6 7 10 8 2 9 1 11
REMARK H PARENT 6 10 1 12
REMARK Flexibility Score: inf
ROOT
ATOM      1  C   UNL     1     120.735 122.012 119.517  1.00  0.00     0.048 A 
ATOM      2  C   UNL     1     120.166 120.937 120.222  1.00  0.00     0.030 A 
ATOM      3  C   UNL     1     119.831 119.791 119.502  1.00  0.00     0.046 A 
ATOM      4  C   UNL     1     120.045 119.701 118.152  1.00  0.00     0.003 A 
ATOM      5  C   UNL     1     119.612 118.456 117.749  1.00  0.00     0.028 A 
ATOM      6  C   UNL     1     119.146 117.841 118.907  1.00  0.00     0.083 A 
ATOM      7  N   UNL     1     119.282 118.660 119.975  1.00  0.00    -0.361 N 
ATOM      8  C   UNL     1     120.607 120.747 117.425  1.00  0.00     0.056 A 
ATOM      9  C   UNL     1     120.957 121.921 118.120  1.00  0.00     0.116 A 
ATOM     10  H   UNL     1     119.014 118.452 120.963  1.00  0.00     0.166 HD
ENDROOT
BRANCH   9  11
ATOM     11  O   UNL     1     121.521 122.986 117.422  1.00  0.00    -0.508 OA
ATOM     12  H   UNL     1     121.148 123.291 116.531  1.00  0.00     0.293 HD
ENDBRANCH   9  11
TORSDOF 1
ENDMDL
MODEL 3
REMARK VINA RESULT:    -3.398      7.200      7.673
REMARK INTER + INTRA:          -3.497
REMARK INTER:                  -3.497
REMARK INTRA:                   0.000
REMARK UNBOUND:                 0.000
REMARK SMILES Oc1ccc2[nH]ccc2c1
REMARK SMILES IDX 3 1 4 2 5 3 9 4 8 5 7 6 6 7 10 8 2 9 1 11
REMARK H PARENT 6 10 1 12
REMARK Flexibility Score: inf
ROOT
ATOM      1  C   UNL     1     112.463 111.224 119.534  1.00  0.00     0.048 A 
ATOM      2  C   UNL     1     113.024 112.317 120.218  1.00  0.00     0.030 A 
ATOM      3  C   UNL     1     113.355 113.449 119.475  1.00  0.00     0.046 A 
ATOM      4  C   UNL     1     113.147 113.508 118.122  1.00  0.00     0.003 A 
ATOM      5  C   UNL     1     113.574 114.746 117.693  1.00  0.00     0.028 A 
ATOM      6  C   UNL     1     114.031 115.390 118.839  1.00  0.00     0.083 A 
ATOM      7  N   UNL     1     113.895 114.593 119.925  1.00  0.00    -0.361 N 
ATOM      8  C   UNL     1     112.593 112.443 117.415  1.00  0.00     0.056 A 
ATOM      9  C   UNL     1     112.248 111.282 118.135  1.00  0.00     0.116 A 
ATOM     10  H   UNL     1     114.158 114.825 120.908  1.00  0.00     0.166 HD
ENDROOT
BRANCH   9  11
ATOM     11  O   UNL     1     111.692 110.199 117.459  1.00  0.00    -0.508 OA
ATOM     12  H   UNL     1     112.066 109.882 116.573  1.00  0.00     0.293 HD
ENDBRANCH   9  11
TORSDOF 1
ENDMDL
MODEL 4
REMARK VINA RESULT:    -3.386      9.122     10.996
REMARK INTER + INTRA:          -3.485
REMARK INTER:                  -3.485
REMARK INTRA:                   0.000
REMARK UNBOUND:                 0.000
REMARK SMILES Oc1ccc2[nH]ccc2c1
REMARK SMILES IDX 3 1 4 2 5 3 9 4 8 5 7 6 6 7 10 8 2 9 1 11
REMARK H PARENT 6 10 1 12
REMARK Flexibility Score: inf
ROOT
ATOM      1  C   UNL     1     121.947 112.106 119.548  1.00  0.00     0.048 A 
ATOM      2  C   UNL     1     120.829 112.573 120.261  1.00  0.00     0.030 A 
ATOM      3  C   UNL     1     119.744 113.052 119.530  1.00  0.00     0.046 A 
ATOM      4  C   UNL     1     119.752 113.074 118.160  1.00  0.00     0.003 A 
ATOM      5  C   UNL     1     118.546 113.599 117.749  1.00  0.00     0.028 A 
ATOM      6  C   UNL     1     117.851 113.875 118.922  1.00  0.00     0.083 A 
ATOM      7  N   UNL     1     118.587 113.540 120.007  1.00  0.00    -0.361 N 
ATOM      8  C   UNL     1     120.843 112.618 117.423  1.00  0.00     0.056 A 
ATOM      9  C   UNL     1     121.958 112.128 118.131  1.00  0.00     0.116 A 
ATOM     10  H   UNL     1     118.309 113.641 121.009  1.00  0.00     0.166 HD
ENDROOT
BRANCH   9  11
ATOM     11  O   UNL     1     123.066 111.665 117.425  1.00  0.00    -0.508 OA
ATOM     12  H   UNL     1     123.019 111.480 116.430  1.00  0.00     0.293 HD
ENDBRANCH   9  11
TORSDOF 1
ENDMDL
MODEL 5
REMARK VINA RESULT:    -3.350     10.247     11.697
REMARK INTER + INTRA:          -3.448
REMARK INTER:                  -3.448
REMARK INTRA:                   0.000
REMARK UNBOUND:                 0.000
REMARK SMILES Oc1ccc2[nH]ccc2c1
REMARK SMILES IDX 3 1 4 2 5 3 9 4 8 5 7 6 6 7 10 8 2 9 1 11
REMARK H PARENT 6 10 1 12
REMARK Flexibility Score: inf
ROOT
ATOM      1  C   UNL     1     119.798 113.204 118.190  1.00  0.00     0.048 A 
ATOM      2  C   UNL     1     120.835 112.686 117.393  1.00  0.00     0.030 A 
ATOM      3  C   UNL     1     121.967 112.193 118.039  1.00  0.00     0.046 A 
ATOM      4  C   UNL     1     122.081 112.206 119.404  1.00  0.00     0.003 A 
ATOM      5  C   UNL     1     123.304 111.655 119.721  1.00  0.00     0.028 A 
ATOM      6  C   UNL     1     123.882 111.328 118.498  1.00  0.00     0.083 A 
ATOM      7  N   UNL     1     123.062 111.659 117.474  1.00  0.00    -0.361 N 
ATOM      8  C   UNL     1     121.073 112.711 120.222  1.00  0.00     0.056 A 
ATOM      9  C   UNL     1     119.914 113.219 119.602  1.00  0.00     0.116 A 
ATOM     10  H   UNL     1     123.247 111.524 116.455  1.00  0.00     0.166 HD
ENDROOT
BRANCH   9  11
ATOM     11  O   UNL     1     118.887 113.732 120.391  1.00  0.00    -0.508 OA
ATOM     12  H   UNL     1     117.922 113.458 120.246  1.00  0.00     0.293 HD
ENDBRANCH   9  11
TORSDOF 1
ENDMDL
MODEL 6
REMARK VINA RESULT:    -3.341      7.590      8.544
REMARK INTER + INTRA:          -3.439
REMARK INTER:                  -3.439
REMARK INTRA:                   0.000
REMARK UNBOUND:                 0.000
REMARK SMILES Oc1ccc2[nH]ccc2c1
REMARK SMILES IDX 3 1 4 2 5 3 9 4 8 5 7 6 6 7 10 8 2 9 1 11
REMARK H PARENT 6 10 1 12
REMARK Flexibility Score: inf
ROOT
ATOM      1  C   UNL     1     120.006 119.817 118.165  1.00  0.00     0.048 A 
ATOM      2  C   UNL     1     120.522 120.876 117.395  1.00  0.00     0.030 A 
ATOM      3  C   UNL     1     121.007 121.995 118.070  1.00  0.00     0.046 A 
ATOM      4  C   UNL     1     120.987 122.076 119.438  1.00  0.00     0.003 A 
ATOM      5  C   UNL     1     121.530 123.293 119.787  1.00  0.00     0.028 A 
ATOM      6  C   UNL     1     121.860 123.903 118.580  1.00  0.00     0.083 A 
ATOM      7  N   UNL     1     121.538 123.106 117.535  1.00  0.00    -0.361 N 
ATOM      8  C   UNL     1     120.483 121.045 120.228  1.00  0.00     0.056 A 
ATOM      9  C   UNL     1     119.984 119.899 119.579  1.00  0.00     0.116 A 
ATOM     10  H   UNL     1     121.676 123.316 116.521  1.00  0.00     0.166 HD
ENDROOT
BRANCH   9  11
ATOM     11  O   UNL     1     119.473 118.850 120.340  1.00  0.00    -0.508 OA
ATOM     12  H   UNL     1     119.196 118.984 121.305  1.00  0.00     0.293 HD
ENDBRANCH   9  11
TORSDOF 1
ENDMDL
MODEL 7
REMARK VINA RESULT:    -3.281      5.143      6.177
REMARK INTER + INTRA:          -3.377
REMARK INTER:                  -3.377
REMARK INTRA:                   0.000
REMARK UNBOUND:                 0.000
REMARK SMILES Oc1ccc2[nH]ccc2c1
REMARK SMILES IDX 3 1 4 2 5 3 9 4 8 5 7 6 6 7 10 8 2 9 1 11
REMARK H PARENT 6 10 1 12
REMARK Flexibility Score: inf
ROOT
ATOM      1  C   UNL     1     118.088 119.656 118.903  1.00  0.00     0.048 A 
ATOM      2  C   UNL     1     116.782 119.212 118.632  1.00  0.00     0.030 A 
ATOM      3  C   UNL     1     116.633 118.074 117.841  1.00  0.00     0.046 A 
ATOM      4  C   UNL     1     117.714 117.400 117.338  1.00  0.00     0.003 A 
ATOM      5  C   UNL     1     117.232 116.334 116.609  1.00  0.00     0.028 A 
ATOM      6  C   UNL     1     115.847 116.420 116.712  1.00  0.00     0.083 A 
ATOM      7  N   UNL     1     115.486 117.485 117.465  1.00  0.00    -0.361 N 
ATOM      8  C   UNL     1     119.020 117.813 117.588  1.00  0.00     0.056 A 
ATOM      9  C   UNL     1     119.208 118.961 118.383  1.00  0.00     0.116 A 
ATOM     10  H   UNL     1     114.514 117.783 117.702  1.00  0.00     0.166 HD
ENDROOT
BRANCH   9  11
ATOM     11  O   UNL     1     120.502 119.402 118.653  1.00  0.00    -0.508 OA
ATOM     12  H   UNL     1     120.681 120.130 119.334  1.00  0.00     0.293 HD
ENDBRANCH   9  11
TORSDOF 1
ENDMDL
MODEL 8
REMARK VINA RESULT:    -3.259      5.452      6.199
REMARK INTER + INTRA:          -3.354
REMARK INTER:                  -3.354
REMARK INTRA:                   0.000
REMARK UNBOUND:                 0.000
REMARK SMILES Oc1ccc2[nH]ccc2c1
REMARK SMILES IDX 3 1 4 2 5 3 9 4 8 5 7 6 6 7 10 8 2 9 1 11
REMARK H PARENT 6 10 1 12
REMARK Flexibility Score: inf
ROOT
ATOM      1  C   UNL     1     114.852 113.390 119.055  1.00  0.00     0.048 A 
ATOM      2  C   UNL     1     116.182 113.782 118.822  1.00  0.00     0.030 A 
ATOM      3  C   UNL     1     116.399 114.920 118.046  1.00  0.00     0.046 A 
ATOM      4  C   UNL     1     115.360 115.641 117.521  1.00  0.00     0.003 A 
ATOM      5  C   UNL     1     115.903 116.692 116.814  1.00  0.00     0.028 A 
ATOM      6  C   UNL     1     117.280 116.548 116.951  1.00  0.00     0.083 A 
ATOM      7  N   UNL     1     117.578 115.464 117.704  1.00  0.00    -0.361 N 
ATOM      8  C   UNL     1     114.031 115.280 117.733  1.00  0.00     0.056 A 
ATOM      9  C   UNL     1     113.776 114.135 118.513  1.00  0.00     0.116 A 
ATOM     10  H   UNL     1     118.530 115.124 117.964  1.00  0.00     0.166 HD
ENDROOT
BRANCH   9  11
ATOM     11  O   UNL     1     112.458 113.745 118.745  1.00  0.00    -0.508 OA
ATOM     12  H   UNL     1     112.116 112.839 118.451  1.00  0.00     0.293 HD
ENDBRANCH   9  11
TORSDOF 1
ENDMDL
MODEL 9
REMARK VINA RESULT:    -3.255      2.765      3.489
REMARK INTER + INTRA:          -3.350
REMARK INTER:                  -3.350
REMARK INTRA:                   0.000
REMARK UNBOUND:                 0.000
REMARK SMILES Oc1ccc2[nH]ccc2c1
REMARK SMILES IDX 3 1 4 2 5 3 9 4 8 5 7 6 6 7 10 8 2 9 1 11
REMARK H PARENT 6 10 1 12
REMARK Flexibility Score: inf
ROOT
ATOM      1  C   UNL     1     113.339 118.377 119.055  1.00  0.00     0.048 A 
ATOM      2  C   UNL     1     113.750 117.051 118.826  1.00  0.00     0.030 A 
ATOM      3  C   UNL     1     114.888 116.848 118.048  1.00  0.00     0.046 A 
ATOM      4  C   UNL     1     115.593 117.895 117.515  1.00  0.00     0.003 A 
ATOM      5  C   UNL     1     116.649 117.363 116.808  1.00  0.00     0.028 A 
ATOM      6  C   UNL     1     116.526 115.985 116.952  1.00  0.00     0.083 A 
ATOM      7  N   UNL     1     115.448 115.675 117.710  1.00  0.00    -0.361 N 
ATOM      8  C   UNL     1     115.213 119.219 117.723  1.00  0.00     0.056 A 
ATOM      9  C   UNL     1     114.066 119.461 118.505  1.00  0.00     0.116 A 
ATOM     10  H   UNL     1     115.123 114.719 117.976  1.00  0.00     0.166 HD
ENDROOT
BRANCH   9  11
ATOM     11  O   UNL     1     113.658 120.774 118.731  1.00  0.00    -0.508 OA
ATOM     12  H   UNL     1     114.256 121.559 118.504  1.00  0.00     0.293 HD
ENDBRANCH   9  11
TORSDOF 1
ENDMDL
