MODEL 1
REMARK VINA RESULT:    -3.928      0.000      0.000
REMARK INTER + INTRA:          -4.296
REMARK INTER:                  -4.157
REMARK INTRA:                  -0.139
REMARK UNBOUND:                -0.139
REMARK SMILES CC1=CC=C(C(C)C)CC1
REMARK SMILES IDX 1 1 2 2 3 3 4 4 5 5 9 6 10 7 6 8 7 9 8 10
REMARK H PARENT
REMARK Flexibility Score: inf
ROOT
ATOM      1  C   UNL     1      17.224   4.496  16.596  1.00  0.00     0.039 C 
ATOM      2  C   UNL     1      15.763   4.835  16.539  1.00  0.00    -0.073 C 
ATOM      3  C   UNL     1      15.378   6.074  16.201  1.00  0.00    -0.001 C 
ATOM      4  C   UNL     1      13.947   6.431  16.144  1.00  0.00    -0.001 C 
ATOM      5  C   UNL     1      13.007   5.606  16.643  1.00  0.00    -0.067 C 
ATOM      6  C   UNL     1      13.439   4.350  17.369  1.00  0.00     0.035 C 
ATOM      7  C   UNL     1      14.723   3.763  16.761  1.00  0.00     0.035 C 
ENDROOT
BRANCH   5   8
ATOM      8  C   UNL     1      11.532   5.956  16.570  1.00  0.00     0.009 C 
ATOM      9  C   UNL     1      11.315   7.305  15.875  1.00  0.00     0.012 C 
ATOM     10  C   UNL     1      10.880   5.938  17.960  1.00  0.00     0.012 C 
ENDBRANCH   5   8
TORSDOF 1
ENDMDL
MODEL 2
REMARK VINA RESULT:    -3.903      1.507      4.429
REMARK INTER + INTRA:          -4.270
REMARK INTER:                  -4.126
REMARK INTRA:                  -0.144
REMARK UNBOUND:                -0.139
REMARK SMILES CC1=CC=C(C(C)C)CC1
REMARK SMILES IDX 1 1 2 2 3 3 4 4 5 5 9 6 10 7 6 8 7 9 8 10
REMARK H PARENT
REMARK Flexibility Score: inf
ROOT
ATOM      1  C   UNL     1      11.060   7.692  15.875  1.00  0.00     0.039 C 
ATOM      2  C   UNL     1      11.772   6.549  16.536  1.00  0.00    -0.073 C 
ATOM      3  C   UNL     1      11.080   5.663  17.267  1.00  0.00    -0.001 C 
ATOM      4  C   UNL     1      11.760   4.535  17.930  1.00  0.00    -0.001 C 
ATOM      5  C   UNL     1      13.104   4.487  18.013  1.00  0.00    -0.067 C 
ATOM      6  C   UNL     1      13.914   5.665  17.514  1.00  0.00     0.035 C 
ATOM      7  C   UNL     1      13.248   6.332  16.300  1.00  0.00     0.035 C 
ENDROOT
BRANCH   5   8
ATOM      8  C   UNL     1      13.813   3.321  18.676  1.00  0.00     0.009 C 
ATOM      9  C   UNL     1      13.926   3.528  20.190  1.00  0.00     0.012 C 
ATOM     10  C   UNL     1      15.190   3.068  18.047  1.00  0.00     0.012 C 
ENDBRANCH   5   8
TORSDOF 1
ENDMDL
MODEL 3
REMARK VINA RESULT:    -3.731      2.761      3.536
REMARK INTER + INTRA:          -4.088
REMARK INTER:                  -3.924
REMARK INTRA:                  -0.164
REMARK UNBOUND:                -0.139
REMARK SMILES CC1=CC=C(C(C)C)CC1
REMARK SMILES IDX 1 1 2 2 3 3 4 4 5 5 9 6 10 7 6 8 7 9 8 10
REMARK H PARENT
REMARK Flexibility Score: inf
ROOT
ATOM      1  C   UNL     1      13.898   3.261  21.152  1.00  0.00     0.039 C 
ATOM      2  C   UNL     1      13.179   4.203  20.231  1.00  0.00    -0.073 C 
ATOM      3  C   UNL     1      12.657   5.340  20.713  1.00  0.00    -0.001 C 
ATOM      4  C   UNL     1      11.942   6.278  19.827  1.00  0.00    -0.001 C 
ATOM      5  C   UNL     1      11.594   5.921  18.575  1.00  0.00    -0.067 C 
ATOM      6  C   UNL     1      11.847   4.500  18.118  1.00  0.00     0.035 C 
ATOM      7  C   UNL     1      13.126   3.926  18.747  1.00  0.00     0.035 C 
ENDROOT
BRANCH   5   8
ATOM      8  C   UNL     1      10.875   6.886  17.651  1.00  0.00     0.009 C 
ATOM      9  C   UNL     1      10.878   6.376  16.205  1.00  0.00     0.012 C 
ATOM     10  C   UNL     1      11.469   8.299  17.741  1.00  0.00     0.012 C 
ENDBRANCH   5   8
TORSDOF 1
ENDMDL
MODEL 4
REMARK VINA RESULT:    -3.726      1.267      2.074
REMARK INTER + INTRA:          -4.083
REMARK INTER:                  -3.921
REMARK INTRA:                  -0.162
REMARK UNBOUND:                -0.139
REMARK SMILES CC1=CC=C(C(C)C)CC1
REMARK SMILES IDX 1 1 2 2 3 3 4 4 5 5 9 6 10 7 6 8 7 9 8 10
REMARK H PARENT
REMARK Flexibility Score: inf
ROOT
ATOM      1  C   UNL     1      16.066   2.536  18.463  1.00  0.00     0.039 C 
ATOM      2  C   UNL     1      15.133   3.548  17.865  1.00  0.00    -0.073 C 
ATOM      3  C   UNL     1      13.865   3.624  18.295  1.00  0.00    -0.001 C 
ATOM      4  C   UNL     1      12.929   4.607  17.718  1.00  0.00    -0.001 C 
ATOM      5  C   UNL     1      13.245   5.293  16.602  1.00  0.00    -0.067 C 
ATOM      6  C   UNL     1      14.531   4.963  15.875  1.00  0.00     0.035 C 
ATOM      7  C   UNL     1      15.641   4.549  16.855  1.00  0.00     0.035 C 
ENDROOT
BRANCH   5   8
ATOM      8  C   UNL     1      12.297   6.321  16.012  1.00  0.00     0.009 C 
ATOM      9  C   UNL     1      12.816   7.746  16.232  1.00  0.00     0.012 C 
ATOM     10  C   UNL     1      10.875   6.158  16.567  1.00  0.00     0.012 C 
ENDBRANCH   5   8
TORSDOF 1
ENDMDL
MODEL 5
REMARK VINA RESULT:    -3.640      1.762      2.380
REMARK INTER + INTRA:          -3.991
REMARK INTER:                  -3.853
REMARK INTRA:                  -0.139
REMARK UNBOUND:                -0.139
REMARK SMILES CC1=CC=C(C(C)C)CC1
REMARK SMILES IDX 1 1 2 2 3 3 4 4 5 5 9 6 10 7 6 8 7 9 8 10
REMARK H PARENT
REMARK Flexibility Score: inf
ROOT
ATOM      1  C   UNL     1      16.026   2.496  18.751  1.00  0.00     0.039 C 
ATOM      2  C   UNL     1      14.757   3.280  18.588  1.00  0.00    -0.073 C 
ATOM      3  C   UNL     1      14.410   3.747  17.379  1.00  0.00    -0.001 C 
ATOM      4  C   UNL     1      13.170   4.524  17.197  1.00  0.00    -0.001 C 
ATOM      5  C   UNL     1      12.475   4.980  18.258  1.00  0.00    -0.067 C 
ATOM      6  C   UNL     1      13.040   4.782  19.648  1.00  0.00     0.035 C 
ATOM      7  C   UNL     1      13.817   3.460  19.757  1.00  0.00     0.035 C 
ENDROOT
BRANCH   5   8
ATOM      8  C   UNL     1      11.188   5.763  18.079  1.00  0.00     0.009 C 
ATOM      9  C   UNL     1      10.875   5.987  16.596  1.00  0.00     0.012 C 
ATOM     10  C   UNL     1      11.229   7.094  18.844  1.00  0.00     0.012 C 
ENDBRANCH   5   8
TORSDOF 1
ENDMDL
MODEL 6
REMARK VINA RESULT:    -3.635     11.049     14.341
REMARK INTER + INTRA:          -3.987
REMARK INTER:                  -3.820
REMARK INTRA:                  -0.166
REMARK UNBOUND:                -0.139
REMARK SMILES CC1=CC=C(C(C)C)CC1
REMARK SMILES IDX 1 1 2 2 3 3 4 4 5 5 9 6 10 7 6 8 7 9 8 10
REMARK H PARENT
REMARK Flexibility Score: inf
ROOT
ATOM      1  C   UNL     1      23.607   1.216  17.599  1.00  0.00     0.039 C 
ATOM      2  C   UNL     1      25.026   1.638  17.357  1.00  0.00    -0.073 C 
ATOM      3  C   UNL     1      25.363   2.217  16.195  1.00  0.00    -0.001 C 
ATOM      4  C   UNL     1      26.753   2.635  15.934  1.00  0.00    -0.001 C 
ATOM      5  C   UNL     1      27.757   2.248  16.745  1.00  0.00    -0.067 C 
ATOM      6  C   UNL     1      27.462   1.282  17.873  1.00  0.00     0.035 C 
ATOM      7  C   UNL     1      26.057   1.507  18.454  1.00  0.00     0.035 C 
ENDROOT
BRANCH   5   8
ATOM      8  C   UNL     1      29.187   2.690  16.495  1.00  0.00     0.009 C 
ATOM      9  C   UNL     1      30.022   2.619  17.779  1.00  0.00     0.012 C 
ATOM     10  C   UNL     1      29.243   4.092  15.875  1.00  0.00     0.012 C 
ENDBRANCH   5   8
TORSDOF 1
ENDMDL
MODEL 7
REMARK VINA RESULT:    -3.588      2.210      3.599
REMARK INTER + INTRA:          -3.937
REMARK INTER:                  -3.772
REMARK INTRA:                  -0.165
REMARK UNBOUND:                -0.139
REMARK SMILES CC1=CC=C(C(C)C)CC1
REMARK SMILES IDX 1 1 2 2 3 3 4 4 5 5 9 6 10 7 6 8 7 9 8 10
REMARK H PARENT
REMARK Flexibility Score: inf
ROOT
ATOM      1  C   UNL     1      14.273   2.307  21.403  1.00  0.00     0.039 C 
ATOM      2  C   UNL     1      14.153   3.035  20.097  1.00  0.00    -0.073 C 
ATOM      3  C   UNL     1      13.040   3.729  19.818  1.00  0.00    -0.001 C 
ATOM      4  C   UNL     1      12.899   4.447  18.537  1.00  0.00    -0.001 C 
ATOM      5  C   UNL     1      13.769   4.245  17.529  1.00  0.00    -0.067 C 
ATOM      6  C   UNL     1      14.837   3.184  17.681  1.00  0.00     0.035 C 
ATOM      7  C   UNL     1      15.319   3.074  19.136  1.00  0.00     0.035 C 
ENDROOT
BRANCH   5   8
ATOM      8  C   UNL     1      13.642   4.994  16.215  1.00  0.00     0.009 C 
ATOM      9  C   UNL     1      14.936   5.742  15.876  1.00  0.00     0.012 C 
ATOM     10  C   UNL     1      12.439   5.947  16.225  1.00  0.00     0.012 C 
ENDBRANCH   5   8
TORSDOF 1
ENDMDL
MODEL 8
REMARK VINA RESULT:    -3.521      2.947      4.894
REMARK INTER + INTRA:          -3.865
REMARK INTER:                  -3.698
REMARK INTRA:                  -0.167
REMARK UNBOUND:                -0.139
REMARK SMILES CC1=CC=C(C(C)C)CC1
REMARK SMILES IDX 1 1 2 2 3 3 4 4 5 5 9 6 10 7 6 8 7 9 8 10
REMARK H PARENT
REMARK Flexibility Score: inf
ROOT
ATOM      1  C   UNL     1      10.876   6.114  16.212  1.00  0.00     0.039 C 
ATOM      2  C   UNL     1      11.327   5.805  17.610  1.00  0.00    -0.073 C 
ATOM      3  C   UNL     1      11.229   6.740  18.566  1.00  0.00    -0.001 C 
ATOM      4  C   UNL     1      11.671   6.459  19.945  1.00  0.00    -0.001 C 
ATOM      5  C   UNL     1      12.387   5.355  20.232  1.00  0.00    -0.067 C 
ATOM      6  C   UNL     1      12.833   4.452  19.102  1.00  0.00     0.035 C 
ATOM      7  C   UNL     1      11.796   4.414  17.969  1.00  0.00     0.035 C 
ENDROOT
BRANCH   5   8
ATOM      8  C   UNL     1      12.829   5.048  21.652  1.00  0.00     0.009 C 
ATOM      9  C   UNL     1      12.965   3.539  21.877  1.00  0.00     0.012 C 
ATOM     10  C   UNL     1      11.884   5.679  22.684  1.00  0.00     0.012 C 
ENDBRANCH   5   8
TORSDOF 1
ENDMDL
MODEL 9
REMARK VINA RESULT:    -3.499      9.795     12.651
REMARK INTER + INTRA:          -3.842
REMARK INTER:                  -3.698
REMARK INTRA:                  -0.144
REMARK UNBOUND:                -0.139
REMARK SMILES CC1=CC=C(C(C)C)CC1
REMARK SMILES IDX 1 1 2 2 3 3 4 4 5 5 9 6 10 7 6 8 7 9 8 10
REMARK H PARENT
REMARK Flexibility Score: inf
ROOT
ATOM      1  C   UNL     1      29.349   2.203  16.688  1.00  0.00     0.039 C 
ATOM      2  C   UNL     1      27.869   1.983  16.810  1.00  0.00    -0.073 C 
ATOM      3  C   UNL     1      27.041   2.472  15.875  1.00  0.00    -0.001 C 
ATOM      4  C   UNL     1      25.583   2.272  15.978  1.00  0.00    -0.001 C 
ATOM      5  C   UNL     1      25.026   1.802  17.111  1.00  0.00    -0.067 C 
ATOM      6  C   UNL     1      25.902   1.583  18.326  1.00  0.00     0.035 C 
ATOM      7  C   UNL     1      27.315   1.129  17.926  1.00  0.00     0.035 C 
ENDROOT
BRANCH   5   8
ATOM      8  C   UNL     1      23.530   1.576  17.219  1.00  0.00     0.009 C 
ATOM      9  C   UNL     1      22.810   2.842  17.694  1.00  0.00     0.012 C 
ATOM     10  C   UNL     1      23.205   0.381  18.127  1.00  0.00     0.012 C 
ENDBRANCH   5   8
TORSDOF 1
ENDMDL
