MODEL 1
REMARK VINA RESULT:    -3.731      0.000      0.000
REMARK INTER + INTRA:          -7.915
REMARK INTER:                  -5.803
REMARK INTRA:                  -2.112
REMARK UNBOUND:                -2.112
REMARK SMILES COc1cc(CNC(=O)CCCCC=CC(C)C)ccc1O
REMARK SMILES IDX 11 1 12 2 13 3 14 4 15 5 16 6 17 7 18 8 10 9 8 10 9 11 7 12
REMARK SMILES IDX 6 14 5 15 4 16 19 17 3 18 20 19 21 20 2 21 1 22 22 23
REMARK H PARENT 7 13 22 24
REMARK Flexibility Score: inf
ROOT
ATOM      1  C   UNL     1     143.503 140.290 141.820  1.00  0.00     0.010 C 
ENDROOT
BRANCH   1   2
ATOM      2  C   UNL     1     143.650 138.766 141.703  1.00  0.00     0.005 C 
BRANCH   2   3
ATOM      3  C   UNL     1     143.376 138.044 143.031  1.00  0.00     0.027 C 
BRANCH   3   4
ATOM      4  C   UNL     1     142.663 136.737 142.795  1.00  0.00    -0.031 C 
ATOM      5  C   UNL     1     141.327 136.575 142.838  1.00  0.00    -0.028 C 
BRANCH   5   6
ATOM      6  C   UNL     1     140.338 137.661 143.206  1.00  0.00     0.005 C 
ATOM      7  C   UNL     1     139.207 137.070 144.053  1.00  0.00     0.012 C 
ATOM      8  C   UNL     1     139.776 138.308 141.936  1.00  0.00     0.012 C 
ENDBRANCH   5   6
ENDBRANCH   3   4
ENDBRANCH   2   3
ENDBRANCH   1   2
BRANCH   1   9
ATOM      9  C   UNL     1     142.766 140.715 143.097  1.00  0.00     0.100 C 
BRANCH   9  10
ATOM     10  C   UNL     1     141.510 141.455 142.752  1.00  0.00     0.220 C 
ATOM     11  O   UNL     1     141.283 141.767 141.551  1.00  0.00    -0.275 OA
ATOM     12  N   UNL     1     140.554 141.765 143.775  1.00  0.00    -0.352 N 
ATOM     13  H   UNL     1     140.744 141.459 144.756  1.00  0.00     0.163 HD
BRANCH  12  14
ATOM     14  C   UNL     1     139.302 142.464 143.494  1.00  0.00     0.151 C 
BRANCH  14  15
ATOM     15  C   UNL     1     138.233 141.483 143.094  1.00  0.00    -0.025 A 
ATOM     16  C   UNL     1     137.788 141.433 141.763  1.00  0.00     0.056 A 
ATOM     17  C   UNL     1     137.690 140.599 144.037  1.00  0.00     0.009 A 
ATOM     18  C   UNL     1     136.798 140.509 141.373  1.00  0.00     0.160 A 
ATOM     19  C   UNL     1     136.709 139.683 143.658  1.00  0.00     0.050 A 
ATOM     20  C   UNL     1     136.260 139.633 142.334  1.00  0.00     0.157 A 
BRANCH  18  21
ATOM     21  O   UNL     1     136.330 140.436 140.052  1.00  0.00    -0.493 OA
ATOM     22  C   UNL     1     136.845 139.555 139.059  1.00  0.00     0.278 C 
ENDBRANCH  18  21
BRANCH  20  23
ATOM     23  O   UNL     1     135.279 138.703 141.992  1.00  0.00    -0.504 OA
ATOM     24  H   UNL     1     135.492 137.726 141.832  1.00  0.00     0.293 HD
ENDBRANCH  20  23
ENDBRANCH  14  15
ENDBRANCH  12  14
ENDBRANCH   9  10
ENDBRANCH   1   9
TORSDOF 10
ENDMDL
MODEL 2
REMARK VINA RESULT:    -3.699      2.952      5.236
REMARK INTER + INTRA:          -7.865
REMARK INTER:                  -6.677
REMARK INTRA:                  -1.188
REMARK UNBOUND:                -2.112
REMARK SMILES COc1cc(CNC(=O)CCCCC=CC(C)C)ccc1O
REMARK SMILES IDX 11 1 12 2 13 3 14 4 15 5 16 6 17 7 18 8 10 9 8 10 9 11 7 12
REMARK SMILES IDX 6 14 5 15 4 16 19 17 3 18 20 19 21 20 2 21 1 22 22 23
REMARK H PARENT 7 13 22 24
REMARK Flexibility Score: inf
ROOT
ATOM      1  C   UNL     1     139.400 145.415 142.947  1.00  0.00     0.010 C 
ENDROOT
BRANCH   1   2
ATOM      2  C   UNL     1     140.366 145.653 144.118  1.00  0.00     0.005 C 
BRANCH   2   3
ATOM      3  C   UNL     1     141.773 145.102 143.842  1.00  0.00     0.027 C 
BRANCH   3   4
ATOM      4  C   UNL     1     141.774 143.595 143.869  1.00  0.00    -0.031 C 
ATOM      5  C   UNL     1     142.691 142.819 143.259  1.00  0.00    -0.028 C 
BRANCH   5   6
ATOM      6  C   UNL     1     143.816 143.336 142.388  1.00  0.00     0.005 C 
ATOM      7  C   UNL     1     143.344 143.440 140.935  1.00  0.00     0.012 C 
ATOM      8  C   UNL     1     145.028 142.403 142.494  1.00  0.00     0.012 C 
ENDBRANCH   5   6
ENDBRANCH   3   4
ENDBRANCH   2   3
ENDBRANCH   1   2
BRANCH   1   9
ATOM      9  C   UNL     1     140.015 145.784 141.592  1.00  0.00     0.100 C 
BRANCH   9  10
ATOM     10  C   UNL     1     139.549 144.833 140.532  1.00  0.00     0.220 C 
ATOM     11  O   UNL     1     140.302 144.574 139.555  1.00  0.00    -0.275 OA
ATOM     12  N   UNL     1     138.273 144.188 140.655  1.00  0.00    -0.352 N 
ATOM     13  H   UNL     1     137.685 144.385 141.495  1.00  0.00     0.163 HD
BRANCH  12  14
ATOM     14  C   UNL     1     137.777 143.235 139.665  1.00  0.00     0.151 C 
BRANCH  14  15
ATOM     15  C   UNL     1     137.248 142.001 140.345  1.00  0.00    -0.025 A 
ATOM     16  C   UNL     1     137.709 141.652 141.625  1.00  0.00     0.056 A 
ATOM     17  C   UNL     1     136.279 141.205 139.721  1.00  0.00     0.009 A 
ATOM     18  C   UNL     1     137.212 140.508 142.278  1.00  0.00     0.160 A 
ATOM     19  C   UNL     1     135.782 140.069 140.361  1.00  0.00     0.050 A 
ATOM     20  C   UNL     1     136.243 139.716 141.634  1.00  0.00     0.157 A 
BRANCH  18  21
ATOM     21  O   UNL     1     137.654 140.130 143.556  1.00  0.00    -0.493 OA
ATOM     22  C   UNL     1     138.969 140.354 144.054  1.00  0.00     0.278 C 
ENDBRANCH  18  21
BRANCH  20  23
ATOM     23  O   UNL     1     135.722 138.575 142.245  1.00  0.00    -0.504 OA
ATOM     24  H   UNL     1     134.868 138.595 142.788  1.00  0.00     0.293 HD
ENDBRANCH  20  23
ENDBRANCH  14  15
ENDBRANCH  12  14
ENDBRANCH   9  10
ENDBRANCH   1   9
TORSDOF 10
ENDMDL
MODEL 3
REMARK VINA RESULT:    -3.646      2.662      4.818
REMARK INTER + INTRA:          -7.783
REMARK INTER:                  -5.839
REMARK INTRA:                  -1.943
REMARK UNBOUND:                -2.112
REMARK SMILES COc1cc(CNC(=O)CCCCC=CC(C)C)ccc1O
REMARK SMILES IDX 11 1 12 2 13 3 14 4 15 5 16 6 17 7 18 8 10 9 8 10 9 11 7 12
REMARK SMILES IDX 6 14 5 15 4 16 19 17 3 18 20 19 21 20 2 21 1 22 22 23
REMARK H PARENT 7 13 22 24
REMARK Flexibility Score: inf
ROOT
ATOM      1  C   UNL     1     142.681 139.143 143.675  1.00  0.00     0.010 C 
ENDROOT
BRANCH   1   2
ATOM      2  C   UNL     1     144.024 139.114 142.929  1.00  0.00     0.005 C 
BRANCH   2   3
ATOM      3  C   UNL     1     144.123 140.206 141.853  1.00  0.00     0.027 C 
BRANCH   3   4
ATOM      4  C   UNL     1     145.107 141.274 142.259  1.00  0.00    -0.031 C 
ATOM      5  C   UNL     1     144.767 142.487 142.735  1.00  0.00    -0.028 C 
BRANCH   5   6
ATOM      6  C   UNL     1     143.347 142.997 142.864  1.00  0.00     0.005 C 
ATOM      7  C   UNL     1     142.898 143.626 141.541  1.00  0.00     0.012 C 
ATOM      8  C   UNL     1     143.261 144.019 144.002  1.00  0.00     0.012 C 
ENDBRANCH   5   6
ENDBRANCH   3   4
ENDBRANCH   2   3
ENDBRANCH   1   2
BRANCH   1   9
ATOM      9  C   UNL     1     141.489 138.855 142.755  1.00  0.00     0.100 C 
BRANCH   9  10
ATOM     10  C   UNL     1     140.333 139.742 143.106  1.00  0.00     0.220 C 
ATOM     11  O   UNL     1     139.157 139.349 142.878  1.00  0.00    -0.275 OA
ATOM     12  N   UNL     1     140.566 141.007 143.739  1.00  0.00    -0.352 N 
ATOM     13  H   UNL     1     141.546 141.293 143.958  1.00  0.00     0.163 HD
BRANCH  12  14
ATOM     14  C   UNL     1     139.477 141.903 144.125  1.00  0.00     0.151 C 
BRANCH  14  15
ATOM     15  C   UNL     1     139.471 143.126 143.248  1.00  0.00    -0.025 A 
ATOM     16  C   UNL     1     139.211 143.004 141.874  1.00  0.00     0.056 A 
ATOM     17  C   UNL     1     139.700 144.396 143.797  1.00  0.00     0.009 A 
ATOM     18  C   UNL     1     139.187 144.144 141.045  1.00  0.00     0.160 A 
ATOM     19  C   UNL     1     139.680 145.528 142.982  1.00  0.00     0.050 A 
ATOM     20  C   UNL     1     139.426 145.409 141.611  1.00  0.00     0.157 A 
BRANCH  18  21
ATOM     21  O   UNL     1     138.934 144.055 139.667  1.00  0.00    -0.493 OA
ATOM     22  C   UNL     1     137.734 143.543 139.098  1.00  0.00     0.278 C 
ENDBRANCH  18  21
BRANCH  20  23
ATOM     23  O   UNL     1     139.412 146.564 140.828  1.00  0.00    -0.504 OA
ATOM     24  H   UNL     1     140.052 146.701 140.056  1.00  0.00     0.293 HD
ENDBRANCH  20  23
ENDBRANCH  14  15
ENDBRANCH  12  14
ENDBRANCH   9  10
ENDBRANCH   1   9
TORSDOF 10
ENDMDL
MODEL 4
REMARK VINA RESULT:    -3.574      2.693      6.968
REMARK INTER + INTRA:          -7.670
REMARK INTER:                  -5.703
REMARK INTRA:                  -1.968
REMARK UNBOUND:                -2.112
REMARK SMILES COc1cc(CNC(=O)CCCCC=CC(C)C)ccc1O
REMARK SMILES IDX 11 1 12 2 13 3 14 4 15 5 16 6 17 7 18 8 10 9 8 10 9 11 7 12
REMARK SMILES IDX 6 14 5 15 4 16 19 17 3 18 20 19 21 20 2 21 1 22 22 23
REMARK H PARENT 7 13 22 24
REMARK Flexibility Score: inf
ROOT
ATOM      1  C   UNL     1     138.813 140.868 141.473  1.00  0.00     0.010 C 
ENDROOT
BRANCH   1   2
ATOM      2  C   UNL     1     138.110 142.229 141.355  1.00  0.00     0.005 C 
BRANCH   2   3
ATOM      3  C   UNL     1     138.274 143.087 142.618  1.00  0.00     0.027 C 
BRANCH   3   4
ATOM      4  C   UNL     1     138.795 144.459 142.272  1.00  0.00    -0.031 C 
ATOM      5  C   UNL     1     140.099 144.796 142.239  1.00  0.00    -0.028 C 
BRANCH   5   6
ATOM      6  C   UNL     1     141.238 143.874 142.621  1.00  0.00     0.005 C 
ATOM      7  C   UNL     1     141.883 144.355 143.924  1.00  0.00     0.012 C 
ATOM      8  C   UNL     1     142.274 143.831 141.492  1.00  0.00     0.012 C 
ENDBRANCH   5   6
ENDBRANCH   3   4
ENDBRANCH   2   3
ENDBRANCH   1   2
BRANCH   1   9
ATOM      9  C   UNL     1     138.518 140.166 142.804  1.00  0.00     0.100 C 
BRANCH   9  10
ATOM     10  C   UNL     1     139.783 139.633 143.405  1.00  0.00     0.220 C 
ATOM     11  O   UNL     1     139.801 138.467 143.883  1.00  0.00    -0.275 OA
ATOM     12  N   UNL     1     140.975 140.430 143.391  1.00  0.00    -0.352 N 
ATOM     13  H   UNL     1     140.948 141.377 142.951  1.00  0.00     0.163 HD
BRANCH  12  14
ATOM     14  C   UNL     1     142.243 139.954 143.942  1.00  0.00     0.151 C 
BRANCH  14  15
ATOM     15  C   UNL     1     143.399 140.606 143.231  1.00  0.00    -0.025 A 
ATOM     16  C   UNL     1     143.628 140.339 141.872  1.00  0.00     0.056 A 
ATOM     17  C   UNL     1     144.240 141.498 143.911  1.00  0.00     0.009 A 
ATOM     18  C   UNL     1     144.698 140.954 141.192  1.00  0.00     0.160 A 
ATOM     19  C   UNL     1     145.303 142.109 143.244  1.00  0.00     0.050 A 
ATOM     20  C   UNL     1     145.537 141.842 141.891  1.00  0.00     0.157 A 
BRANCH  18  21
ATOM     21  O   UNL     1     144.956 140.706 139.834  1.00  0.00    -0.493 OA
ATOM     22  C   UNL     1     143.970 140.326 138.881  1.00  0.00     0.278 C 
ENDBRANCH  18  21
BRANCH  20  23
ATOM     23  O   UNL     1     146.607 142.473 141.257  1.00  0.00    -0.504 OA
ATOM     24  H   UNL     1     146.641 143.476 141.123  1.00  0.00     0.293 HD
ENDBRANCH  20  23
ENDBRANCH  14  15
ENDBRANCH  12  14
ENDBRANCH   9  10
ENDBRANCH   1   9
TORSDOF 10
ENDMDL
MODEL 5
REMARK VINA RESULT:    -3.551      3.094      5.919
REMARK INTER + INTRA:          -7.636
REMARK INTER:                  -5.971
REMARK INTRA:                  -1.664
REMARK UNBOUND:                -2.112
REMARK SMILES COc1cc(CNC(=O)CCCCC=CC(C)C)ccc1O
REMARK SMILES IDX 11 1 12 2 13 3 14 4 15 5 16 6 17 7 18 8 10 9 8 10 9 11 7 12
REMARK SMILES IDX 6 14 5 15 4 16 19 17 3 18 20 19 21 20 2 21 1 22 22 23
REMARK H PARENT 7 13 22 24
REMARK Flexibility Score: inf
ROOT
ATOM      1  C   UNL     1     140.991 144.417 142.031  1.00  0.00     0.010 C 
ENDROOT
BRANCH   1   2
ATOM      2  C   UNL     1     139.623 145.108 142.146  1.00  0.00     0.005 C 
BRANCH   2   3
ATOM      3  C   UNL     1     138.453 144.118 142.037  1.00  0.00     0.027 C 
BRANCH   3   4
ATOM      4  C   UNL     1     138.030 143.633 143.401  1.00  0.00    -0.031 C 
ATOM      5  C   UNL     1     138.201 142.377 143.853  1.00  0.00    -0.028 C 
BRANCH   5   6
ATOM      6  C   UNL     1     138.771 141.235 143.037  1.00  0.00     0.005 C 
ATOM      7  C   UNL     1     137.853 140.014 143.135  1.00  0.00     0.012 C 
ATOM      8  C   UNL     1     140.179 140.891 143.534  1.00  0.00     0.012 C 
ENDBRANCH   5   6
ENDBRANCH   3   4
ENDBRANCH   2   3
ENDBRANCH   1   2
BRANCH   1   9
ATOM      9  C   UNL     1     141.732 144.350 143.371  1.00  0.00     0.100 C 
BRANCH   9  10
ATOM     10  C   UNL     1     142.954 143.490 143.249  1.00  0.00     0.220 C 
ATOM     11  O   UNL     1     143.857 143.567 144.125  1.00  0.00    -0.275 OA
ATOM     12  N   UNL     1     143.070 142.557 142.166  1.00  0.00    -0.352 N 
ATOM     13  H   UNL     1     142.290 142.481 141.476  1.00  0.00     0.163 HD
BRANCH  12  14
ATOM     14  C   UNL     1     144.227 141.678 142.009  1.00  0.00     0.151 C 
BRANCH  14  15
ATOM     15  C   UNL     1     143.858 140.261 142.355  1.00  0.00    -0.025 A 
ATOM     16  C   UNL     1     143.478 139.366 141.342  1.00  0.00     0.056 A 
ATOM     17  C   UNL     1     143.913 139.815 143.683  1.00  0.00     0.009 A 
ATOM     18  C   UNL     1     143.145 138.032 141.651  1.00  0.00     0.160 A 
ATOM     19  C   UNL     1     143.583 138.497 143.997  1.00  0.00     0.050 A 
ATOM     20  C   UNL     1     143.199 137.604 142.990  1.00  0.00     0.157 A 
BRANCH  18  21
ATOM     21  O   UNL     1     142.758 137.115 140.662  1.00  0.00    -0.493 OA
ATOM     22  C   UNL     1     141.434 136.983 140.155  1.00  0.00     0.278 C 
ENDBRANCH  18  21
BRANCH  20  23
ATOM     23  O   UNL     1     142.878 136.293 143.341  1.00  0.00    -0.504 OA
ATOM     24  H   UNL     1     142.692 135.578 142.649  1.00  0.00     0.293 HD
ENDBRANCH  20  23
ENDBRANCH  14  15
ENDBRANCH  12  14
ENDBRANCH   9  10
ENDBRANCH   1   9
TORSDOF 10
ENDMDL
MODEL 6
REMARK VINA RESULT:    -3.549      1.796      2.429
REMARK INTER + INTRA:          -7.632
REMARK INTER:                  -5.387
REMARK INTRA:                  -2.246
REMARK UNBOUND:                -2.112
REMARK SMILES COc1cc(CNC(=O)CCCCC=CC(C)C)ccc1O
REMARK SMILES IDX 11 1 12 2 13 3 14 4 15 5 16 6 17 7 18 8 10 9 8 10 9 11 7 12
REMARK SMILES IDX 6 14 5 15 4 16 19 17 3 18 20 19 21 20 2 21 1 22 22 23
REMARK H PARENT 7 13 22 24
REMARK Flexibility Score: inf
ROOT
ATOM      1  C   UNL     1     142.714 142.614 142.341  1.00  0.00     0.010 C 
ENDROOT
BRANCH   1   2
ATOM      2  C   UNL     1     143.656 141.757 143.201  1.00  0.00     0.005 C 
BRANCH   2   3
ATOM      3  C   UNL     1     143.045 140.394 143.563  1.00  0.00     0.027 C 
BRANCH   3   4
ATOM      4  C   UNL     1     141.598 140.543 143.959  1.00  0.00    -0.031 C 
ATOM      5  C   UNL     1     140.574 139.888 143.379  1.00  0.00    -0.028 C 
BRANCH   5   6
ATOM      6  C   UNL     1     140.707 138.961 142.189  1.00  0.00     0.005 C 
ATOM      7  C   UNL     1     140.582 139.761 140.889  1.00  0.00     0.012 C 
ATOM      8  C   UNL     1     139.631 137.871 142.255  1.00  0.00     0.012 C 
ENDBRANCH   5   6
ENDBRANCH   3   4
ENDBRANCH   2   3
ENDBRANCH   1   2
BRANCH   1   9
ATOM      9  C   UNL     1     142.434 143.987 142.965  1.00  0.00     0.100 C 
BRANCH   9  10
ATOM     10  C   UNL     1     140.960 144.185 143.148  1.00  0.00     0.220 C 
ATOM     11  O   UNL     1     140.541 144.873 144.118  1.00  0.00    -0.275 OA
ATOM     12  N   UNL     1     140.038 143.633 142.198  1.00  0.00    -0.352 N 
ATOM     13  H   UNL     1     140.410 143.103 141.379  1.00  0.00     0.163 HD
BRANCH  12  14
ATOM     14  C   UNL     1     138.592 143.814 142.313  1.00  0.00     0.151 C 
BRANCH  14  15
ATOM     15  C   UNL     1     137.917 142.491 142.555  1.00  0.00    -0.025 A 
ATOM     16  C   UNL     1     137.584 141.663 141.470  1.00  0.00     0.056 A 
ATOM     17  C   UNL     1     137.636 142.064 143.860  1.00  0.00     0.009 A 
ATOM     18  C   UNL     1     136.965 140.415 141.684  1.00  0.00     0.160 A 
ATOM     19  C   UNL     1     137.022 140.830 144.079  1.00  0.00     0.050 A 
ATOM     20  C   UNL     1     136.685 140.005 143.000  1.00  0.00     0.157 A 
BRANCH  18  21
ATOM     21  O   UNL     1     136.618 139.567 140.621  1.00  0.00    -0.493 OA
ATOM     22  C   UNL     1     136.753 139.900 139.244  1.00  0.00     0.278 C 
ENDBRANCH  18  21
BRANCH  20  23
ATOM     23  O   UNL     1     136.074 138.778 143.258  1.00  0.00    -0.504 OA
ATOM     24  H   UNL     1     136.222 137.966 142.672  1.00  0.00     0.293 HD
ENDBRANCH  20  23
ENDBRANCH  14  15
ENDBRANCH  12  14
ENDBRANCH   9  10
ENDBRANCH   1   9
TORSDOF 10
ENDMDL
MODEL 7
REMARK VINA RESULT:    -3.549      3.032      4.527
REMARK INTER + INTRA:          -7.632
REMARK INTER:                  -5.348
REMARK INTRA:                  -2.284
REMARK UNBOUND:                -2.112
REMARK SMILES COc1cc(CNC(=O)CCCCC=CC(C)C)ccc1O
REMARK SMILES IDX 11 1 12 2 13 3 14 4 15 5 16 6 17 7 18 8 10 9 8 10 9 11 7 12
REMARK SMILES IDX 6 14 5 15 4 16 19 17 3 18 20 19 21 20 2 21 1 22 22 23
REMARK H PARENT 7 13 22 24
REMARK Flexibility Score: inf
ROOT
ATOM      1  C   UNL     1     143.858 138.797 142.196  1.00  0.00     0.010 C 
ENDROOT
BRANCH   1   2
ATOM      2  C   UNL     1     142.963 137.550 142.260  1.00  0.00     0.005 C 
BRANCH   2   3
ATOM      3  C   UNL     1     141.695 137.778 143.098  1.00  0.00     0.027 C 
BRANCH   3   4
ATOM      4  C   UNL     1     141.854 138.977 143.997  1.00  0.00    -0.031 C 
ATOM      5  C   UNL     1     141.028 140.041 144.007  1.00  0.00    -0.028 C 
BRANCH   5   6
ATOM      6  C   UNL     1     139.858 140.234 143.065  1.00  0.00     0.005 C 
ATOM      7  C   UNL     1     140.339 140.888 141.766  1.00  0.00     0.012 C 
ATOM      8  C   UNL     1     138.785 141.097 143.737  1.00  0.00     0.012 C 
ENDBRANCH   5   6
ENDBRANCH   3   4
ENDBRANCH   2   3
ENDBRANCH   1   2
BRANCH   1   9
ATOM      9  C   UNL     1     143.830 139.473 140.820  1.00  0.00     0.100 C 
BRANCH   9  10
ATOM     10  C   UNL     1     143.966 140.958 140.966  1.00  0.00     0.220 C 
ATOM     11  O   UNL     1     144.016 141.681 139.934  1.00  0.00    -0.275 OA
ATOM     12  N   UNL     1     143.994 141.553 142.271  1.00  0.00    -0.352 N 
ATOM     13  H   UNL     1     143.908 140.938 143.110  1.00  0.00     0.163 HD
BRANCH  12  14
ATOM     14  C   UNL     1     144.102 142.996 142.473  1.00  0.00     0.151 C 
BRANCH  14  15
ATOM     15  C   UNL     1     142.738 143.601 142.668  1.00  0.00    -0.025 A 
ATOM     16  C   UNL     1     142.024 144.095 141.565  1.00  0.00     0.056 A 
ATOM     17  C   UNL     1     142.161 143.657 143.944  1.00  0.00     0.009 A 
ATOM     18  C   UNL     1     140.740 144.651 141.732  1.00  0.00     0.160 A 
ATOM     19  C   UNL     1     140.891 144.208 144.118  1.00  0.00     0.050 A 
ATOM     20  C   UNL     1     140.178 144.704 143.021  1.00  0.00     0.157 A 
BRANCH  18  21
ATOM     21  O   UNL     1     140.002 145.155 140.650  1.00  0.00    -0.493 OA
ATOM     22  C   UNL     1     139.602 144.391 139.518  1.00  0.00     0.278 C 
ENDBRANCH  18  21
BRANCH  20  23
ATOM     23  O   UNL     1     138.910 145.245 143.233  1.00  0.00    -0.504 OA
ATOM     24  H   UNL     1     138.546 145.423 144.161  1.00  0.00     0.293 HD
ENDBRANCH  20  23
ENDBRANCH  14  15
ENDBRANCH  12  14
ENDBRANCH   9  10
ENDBRANCH   1   9
TORSDOF 10
ENDMDL
MODEL 8
REMARK VINA RESULT:    -3.524      2.112      4.754
REMARK INTER + INTRA:          -7.593
REMARK INTER:                  -6.010
REMARK INTRA:                  -1.583
REMARK UNBOUND:                -2.112
REMARK SMILES COc1cc(CNC(=O)CCCCC=CC(C)C)ccc1O
REMARK SMILES IDX 11 1 12 2 13 3 14 4 15 5 16 6 17 7 18 8 10 9 8 10 9 11 7 12
REMARK SMILES IDX 6 14 5 15 4 16 19 17 3 18 20 19 21 20 2 21 1 22 22 23
REMARK H PARENT 7 13 22 24
REMARK Flexibility Score: inf
ROOT
ATOM      1  C   UNL     1     140.623 137.944 142.807  1.00  0.00     0.010 C 
ENDROOT
BRANCH   1   2
ATOM      2  C   UNL     1     140.387 139.003 141.719  1.00  0.00     0.005 C 
BRANCH   2   3
ATOM      3  C   UNL     1     141.437 140.123 141.750  1.00  0.00     0.027 C 
BRANCH   3   4
ATOM      4  C   UNL     1     141.550 140.716 143.131  1.00  0.00    -0.031 C 
ATOM      5  C   UNL     1     142.660 140.676 143.893  1.00  0.00    -0.028 C 
BRANCH   5   6
ATOM      6  C   UNL     1     143.941 139.962 143.515  1.00  0.00     0.005 C 
ATOM      7  C   UNL     1     143.954 138.557 144.125  1.00  0.00     0.012 C 
ATOM      8  C   UNL     1     145.150 140.769 143.998  1.00  0.00     0.012 C 
ENDBRANCH   5   6
ENDBRANCH   3   4
ENDBRANCH   2   3
ENDBRANCH   1   2
BRANCH   1   9
ATOM      9  C   UNL     1     139.325 137.510 143.498  1.00  0.00     0.100 C 
BRANCH   9  10
ATOM     10  C   UNL     1     138.253 138.536 143.287  1.00  0.00     0.220 C 
ATOM     11  O   UNL     1     137.348 138.323 142.436  1.00  0.00    -0.275 OA
ATOM     12  N   UNL     1     138.235 139.730 144.082  1.00  0.00    -0.352 N 
ATOM     13  H   UNL     1     138.971 139.866 144.811  1.00  0.00     0.163 HD
BRANCH  12  14
ATOM     14  C   UNL     1     137.203 140.754 143.936  1.00  0.00     0.151 C 
BRANCH  14  15
ATOM     15  C   UNL     1     137.721 141.907 143.118  1.00  0.00    -0.025 A 
ATOM     16  C   UNL     1     138.178 143.071 143.756  1.00  0.00     0.056 A 
ATOM     17  C   UNL     1     137.773 141.821 141.720  1.00  0.00     0.009 A 
ATOM     18  C   UNL     1     138.679 144.151 143.003  1.00  0.00     0.160 A 
ATOM     19  C   UNL     1     138.266 142.887 140.968  1.00  0.00     0.050 A 
ATOM     20  C   UNL     1     138.718 144.050 141.600  1.00  0.00     0.157 A 
BRANCH  18  21
ATOM     21  O   UNL     1     139.140 145.330 143.610  1.00  0.00    -0.493 OA
ATOM     22  C   UNL     1     140.461 145.521 144.104  1.00  0.00     0.278 C 
ENDBRANCH  18  21
BRANCH  20  23
ATOM     23  O   UNL     1     139.207 145.095 140.815  1.00  0.00    -0.504 OA
ATOM     24  H   UNL     1     140.113 145.515 140.978  1.00  0.00     0.293 HD
ENDBRANCH  20  23
ENDBRANCH  14  15
ENDBRANCH  12  14
ENDBRANCH   9  10
ENDBRANCH   1   9
TORSDOF 10
ENDMDL
MODEL 9
REMARK VINA RESULT:    -3.517      2.764      5.078
REMARK INTER + INTRA:          -7.582
REMARK INTER:                  -5.760
REMARK INTRA:                  -1.822
REMARK UNBOUND:                -2.112
REMARK SMILES COc1cc(CNC(=O)CCCCC=CC(C)C)ccc1O
REMARK SMILES IDX 11 1 12 2 13 3 14 4 15 5 16 6 17 7 18 8 10 9 8 10 9 11 7 12
REMARK SMILES IDX 6 14 5 15 4 16 19 17 3 18 20 19 21 20 2 21 1 22 22 23
REMARK H PARENT 7 13 22 24
REMARK Flexibility Score: inf
ROOT
ATOM      1  C   UNL     1     140.327 138.665 144.091  1.00  0.00     0.010 C 
ENDROOT
BRANCH   1   2
ATOM      2  C   UNL     1     139.246 137.710 143.563  1.00  0.00     0.005 C 
BRANCH   2   3
ATOM      3  C   UNL     1     138.379 138.349 142.468  1.00  0.00     0.027 C 
BRANCH   3   4
ATOM      4  C   UNL     1     137.102 138.902 143.048  1.00  0.00    -0.031 C 
ATOM      5  C   UNL     1     136.864 140.210 143.266  1.00  0.00    -0.028 C 
BRANCH   5   6
ATOM      6  C   UNL     1     137.868 141.320 143.037  1.00  0.00     0.005 C 
ATOM      7  C   UNL     1     137.712 142.394 144.117  1.00  0.00     0.012 C 
ATOM      8  C   UNL     1     137.668 141.925 141.644  1.00  0.00     0.012 C 
ENDBRANCH   5   6
ENDBRANCH   3   4
ENDBRANCH   2   3
ENDBRANCH   1   2
BRANCH   1   9
ATOM      9  C   UNL     1     141.375 139.014 143.027  1.00  0.00     0.100 C 
BRANCH   9  10
ATOM     10  C   UNL     1     142.030 140.323 143.350  1.00  0.00     0.220 C 
ATOM     11  O   UNL     1     143.279 140.441 143.220  1.00  0.00    -0.275 OA
ATOM     12  N   UNL     1     141.234 141.443 143.759  1.00  0.00    -0.352 N 
ATOM     13  H   UNL     1     140.197 141.334 143.818  1.00  0.00     0.163 HD
BRANCH  12  14
ATOM     14  C   UNL     1     141.815 142.749 144.065  1.00  0.00     0.151 C 
BRANCH  14  15
ATOM     15  C   UNL     1     141.119 143.828 143.282  1.00  0.00    -0.025 A 
ATOM     16  C   UNL     1     141.048 143.746 141.882  1.00  0.00     0.056 A 
ATOM     17  C   UNL     1     140.517 144.909 143.940  1.00  0.00     0.009 A 
ATOM     18  C   UNL     1     140.386 144.743 141.137  1.00  0.00     0.160 A 
ATOM     19  C   UNL     1     139.861 145.901 143.209  1.00  0.00     0.050 A 
ATOM     20  C   UNL     1     139.792 145.824 141.814  1.00  0.00     0.157 A 
BRANCH  18  21
ATOM     21  O   UNL     1     140.301 144.691 139.737  1.00  0.00    -0.493 OA
ATOM     22  C   UNL     1     141.178 143.943 138.901  1.00  0.00     0.278 C 
ENDBRANCH  18  21
BRANCH  20  23
ATOM     23  O   UNL     1     139.127 146.833 141.118  1.00  0.00    -0.504 OA
ATOM     24  H   UNL     1     138.453 147.444 141.563  1.00  0.00     0.293 HD
ENDBRANCH  20  23
ENDBRANCH  14  15
ENDBRANCH  12  14
ENDBRANCH   9  10
ENDBRANCH   1   9
TORSDOF 10
ENDMDL
