MODEL 1
REMARK VINA RESULT:    -3.985      0.000      0.000
REMARK INTER + INTRA:          -7.734
REMARK INTER:                  -7.479
REMARK INTRA:                  -0.255
REMARK UNBOUND:                -0.255
REMARK SMILES O=C([O-])CCCCCCCCCCCCCCC(=O)[O-]
REMARK SMILES IDX 10 1 9 2 8 3 7 4 6 5 5 6 4 7 2 8 1 9 3 10 11 11 12 12 13 13
REMARK SMILES IDX 14 14 15 15 16 16 17 17 18 18 19 19 20 20
REMARK H PARENT
REMARK Flexibility Score: inf
ROOT
ATOM      1  C   UNL     1      -0.479   0.066   9.967  1.00  0.00     0.000 C 
ENDROOT
BRANCH   1   2
ATOM      2  C   UNL     1       1.050   0.209  10.045  1.00  0.00     0.000 C 
BRANCH   2   3
ATOM      3  C   UNL     1       1.527   1.635   9.720  1.00  0.00     0.000 C 
BRANCH   3   4
ATOM      4  C   UNL     1       2.992   1.872  10.124  1.00  0.00     0.000 C 
BRANCH   4   5
ATOM      5  C   UNL     1       3.600   3.110   9.442  1.00  0.00     0.000 C 
BRANCH   5   6
ATOM      6  C   UNL     1       4.914   3.567  10.100  1.00  0.00     0.006 C 
BRANCH   6   7
ATOM      7  C   UNL     1       5.306   5.022   9.792  1.00  0.00     0.053 C 
BRANCH   7   8
ATOM      8  C   UNL     1       6.677   5.121   9.195  1.00  0.00     0.041 C 
ATOM      9  O   UNL     1       7.684   4.758   9.857  1.00  0.00    -0.550 OA
ATOM     10  O   UNL     1       6.837   5.581   7.894  1.00  0.00    -0.550 OA
ENDBRANCH   7   8
ENDBRANCH   6   7
ENDBRANCH   5   6
ENDBRANCH   4   5
ENDBRANCH   3   4
ENDBRANCH   2   3
ENDBRANCH   1   2
BRANCH   1  11
ATOM     11  C   UNL     1      -0.940  -1.398   9.964  1.00  0.00     0.000 C 
BRANCH  11  12
ATOM     12  C   UNL     1      -2.463  -1.495  10.120  1.00  0.00     0.000 C 
BRANCH  12  13
ATOM     13  C   UNL     1      -2.927  -2.960  10.096  1.00  0.00     0.000 C 
BRANCH  13  14
ATOM     14  C   UNL     1      -4.457  -3.099  10.125  1.00  0.00     0.000 C 
BRANCH  14  15
ATOM     15  C   UNL     1      -4.925  -4.532   9.821  1.00  0.00     0.000 C 
BRANCH  15  16
ATOM     16  C   UNL     1      -6.454  -4.682   9.893  1.00  0.00     0.006 C 
BRANCH  16  17
ATOM     17  C   UNL     1      -7.088  -4.960   8.524  1.00  0.00     0.053 C 
BRANCH  17  18
ATOM     18  C   UNL     1      -7.226  -6.433   8.302  1.00  0.00     0.041 C 
ATOM     19  O   UNL     1      -7.785  -6.866   7.260  1.00  0.00    -0.550 OA
ATOM     20  O   UNL     1      -6.782  -7.326   9.267  1.00  0.00    -0.550 OA
ENDBRANCH  17  18
ENDBRANCH  16  17
ENDBRANCH  15  16
ENDBRANCH  14  15
ENDBRANCH  13  14
ENDBRANCH  12  13
ENDBRANCH  11  12
ENDBRANCH   1  11
TORSDOF 15
ENDMDL
MODEL 2
REMARK VINA RESULT:    -3.639      1.469     12.937
REMARK INTER + INTRA:          -7.085
REMARK INTER:                  -6.892
REMARK INTRA:                  -0.193
REMARK UNBOUND:                -0.255
REMARK SMILES O=C([O-])CCCCCCCCCCCCCCC(=O)[O-]
REMARK SMILES IDX 10 1 9 2 8 3 7 4 6 5 5 6 4 7 2 8 1 9 3 10 11 11 12 12 13 13
REMARK SMILES IDX 14 14 15 15 16 16 17 17 18 18 19 19 20 20
REMARK H PARENT
REMARK Flexibility Score: inf
ROOT
ATOM      1  C   UNL     1       0.588   1.319   9.421  1.00  0.00     0.000 C 
ENDROOT
BRANCH   1   2
ATOM      2  C   UNL     1       0.336  -0.164   9.742  1.00  0.00     0.000 C 
BRANCH   2   3
ATOM      3  C   UNL     1      -1.127  -0.445  10.125  1.00  0.00     0.000 C 
BRANCH   3   4
ATOM      4  C   UNL     1      -1.465  -1.945  10.100  1.00  0.00     0.000 C 
BRANCH   4   5
ATOM      5  C   UNL     1      -2.978  -2.208  10.026  1.00  0.00     0.000 C 
BRANCH   5   6
ATOM      6  C   UNL     1      -3.313  -3.683   9.739  1.00  0.00     0.006 C 
BRANCH   6   7
ATOM      7  C   UNL     1      -4.817  -3.988   9.650  1.00  0.00     0.053 C 
BRANCH   7   8
ATOM      8  C   UNL     1      -5.082  -5.431   9.346  1.00  0.00     0.041 C 
ATOM      9  O   UNL     1      -4.288  -6.080   8.616  1.00  0.00    -0.550 OA
ATOM     10  O   UNL     1      -6.187  -6.067   9.898  1.00  0.00    -0.550 OA
ENDBRANCH   7   8
ENDBRANCH   6   7
ENDBRANCH   5   6
ENDBRANCH   4   5
ENDBRANCH   3   4
ENDBRANCH   2   3
ENDBRANCH   1   2
BRANCH   1  11
ATOM     11  C   UNL     1       1.841   1.873  10.114  1.00  0.00     0.000 C 
BRANCH  11  12
ATOM     12  C   UNL     1       3.081   1.703   9.228  1.00  0.00     0.000 C 
BRANCH  12  13
ATOM     13  C   UNL     1       4.370   1.901  10.040  1.00  0.00     0.000 C 
BRANCH  13  14
ATOM     14  C   UNL     1       4.799   3.374  10.124  1.00  0.00     0.000 C 
BRANCH  14  15
ATOM     15  C   UNL     1       3.729   4.333   9.575  1.00  0.00     0.000 C 
BRANCH  15  16
ATOM     16  C   UNL     1       4.278   5.746   9.317  1.00  0.00     0.006 C 
BRANCH  16  17
ATOM     17  C   UNL     1       5.626   5.993  10.007  1.00  0.00     0.053 C 
BRANCH  17  18
ATOM     18  C   UNL     1       6.541   6.761   9.105  1.00  0.00     0.041 C 
ATOM     19  O   UNL     1       6.252   7.939   8.766  1.00  0.00    -0.550 OA
ATOM     20  O   UNL     1       7.685   6.159   8.600  1.00  0.00    -0.550 OA
ENDBRANCH  17  18
ENDBRANCH  16  17
ENDBRANCH  15  16
ENDBRANCH  14  15
ENDBRANCH  13  14
ENDBRANCH  12  13
ENDBRANCH  11  12
ENDBRANCH   1  11
TORSDOF 15
ENDMDL
MODEL 3
REMARK VINA RESULT:    -3.286      1.295      1.645
REMARK INTER + INTRA:          -6.423
REMARK INTER:                  -6.121
REMARK INTRA:                  -0.301
REMARK UNBOUND:                -0.255
REMARK SMILES O=C([O-])CCCCCCCCCCCCCCC(=O)[O-]
REMARK SMILES IDX 10 1 9 2 8 3 7 4 6 5 5 6 4 7 2 8 1 9 3 10 11 11 12 12 13 13
REMARK SMILES IDX 14 14 15 15 16 16 17 17 18 18 19 19 20 20
REMARK H PARENT
REMARK Flexibility Score: inf
ROOT
ATOM      1  C   UNL     1       0.238   1.033  10.036  1.00  0.00     0.000 C 
ENDROOT
BRANCH   1   2
ATOM      2  C   UNL     1       1.762   1.229  10.087  1.00  0.00     0.000 C 
BRANCH   2   3
ATOM      3  C   UNL     1       2.165   2.714  10.118  1.00  0.00     0.000 C 
BRANCH   3   4
ATOM      4  C   UNL     1       3.653   2.927   9.796  1.00  0.00     0.000 C 
BRANCH   4   5
ATOM      5  C   UNL     1       3.967   4.376   9.385  1.00  0.00     0.000 C 
BRANCH   5   6
ATOM      6  C   UNL     1       5.299   4.884   9.966  1.00  0.00     0.006 C 
BRANCH   6   7
ATOM      7  C   UNL     1       5.632   6.343   9.610  1.00  0.00     0.053 C 
BRANCH   7   8
ATOM      8  C   UNL     1       7.086   6.528   9.301  1.00  0.00     0.041 C 
ATOM      9  O   UNL     1       7.778   5.556   8.901  1.00  0.00    -0.550 OA
ATOM     10  O   UNL     1       7.669   7.784   9.423  1.00  0.00    -0.550 OA
ENDBRANCH   7   8
ENDBRANCH   6   7
ENDBRANCH   5   6
ENDBRANCH   4   5
ENDBRANCH   3   4
ENDBRANCH   2   3
ENDBRANCH   1   2
BRANCH   1  11
ATOM     11  C   UNL     1      -0.166  -0.430   9.801  1.00  0.00     0.000 C 
BRANCH  11  12
ATOM     12  C   UNL     1      -1.691  -0.580   9.757  1.00  0.00     0.000 C 
BRANCH  12  13
ATOM     13  C   UNL     1      -2.094  -1.992   9.306  1.00  0.00     0.000 C 
BRANCH  13  14
ATOM     14  C   UNL     1      -3.389  -2.483   9.974  1.00  0.00     0.000 C 
BRANCH  14  15
ATOM     15  C   UNL     1      -3.520  -4.015   9.952  1.00  0.00     0.000 C 
BRANCH  15  16
ATOM     16  C   UNL     1      -4.974  -4.486  10.125  1.00  0.00     0.006 C 
BRANCH  16  17
ATOM     17  C   UNL     1      -5.470  -5.327   8.942  1.00  0.00     0.053 C 
BRANCH  17  18
ATOM     18  C   UNL     1      -6.963  -5.414   8.953  1.00  0.00     0.041 C 
ATOM     19  O   UNL     1      -7.622  -4.871   9.879  1.00  0.00    -0.550 OA
ATOM     20  O   UNL     1      -7.625  -6.137   7.971  1.00  0.00    -0.550 OA
ENDBRANCH  17  18
ENDBRANCH  16  17
ENDBRANCH  15  16
ENDBRANCH  14  15
ENDBRANCH  13  14
ENDBRANCH  12  13
ENDBRANCH  11  12
ENDBRANCH   1  11
TORSDOF 15
ENDMDL
MODEL 4
REMARK VINA RESULT:    -3.241     20.312     21.395
REMARK INTER + INTRA:          -6.339
REMARK INTER:                  -6.148
REMARK INTRA:                  -0.191
REMARK UNBOUND:                -0.255
REMARK SMILES O=C([O-])CCCCCCCCCCCCCCC(=O)[O-]
REMARK SMILES IDX 10 1 9 2 8 3 7 4 6 5 5 6 4 7 2 8 1 9 3 10 11 11 12 12 13 13
REMARK SMILES IDX 14 14 15 15 16 16 17 17 18 18 19 19 20 20
REMARK H PARENT
REMARK Flexibility Score: inf
ROOT
ATOM      1  C   UNL     1      -0.104   0.851 -10.045  1.00  0.00     0.000 C 
ENDROOT
BRANCH   1   2
ATOM      2  C   UNL     1      -1.331   1.375  -9.282  1.00  0.00     0.000 C 
BRANCH   2   3
ATOM      3  C   UNL     1      -2.640   1.193 -10.071  1.00  0.00     0.000 C 
BRANCH   3   4
ATOM      4  C   UNL     1      -3.801   2.013  -9.483  1.00  0.00     0.000 C 
BRANCH   4   5
ATOM      5  C   UNL     1      -3.924   3.406 -10.123  1.00  0.00     0.000 C 
BRANCH   5   6
ATOM      6  C   UNL     1      -3.748   4.547  -9.105  1.00  0.00     0.006 C 
BRANCH   6   7
ATOM      7  C   UNL     1      -4.489   5.844  -9.469  1.00  0.00     0.053 C 
BRANCH   7   8
ATOM      8  C   UNL     1      -5.968   5.721  -9.272  1.00  0.00     0.041 C 
ATOM      9  O   UNL     1      -6.469   4.627  -8.903  1.00  0.00    -0.550 OA
ATOM     10  O   UNL     1      -6.790   6.825  -9.462  1.00  0.00    -0.550 OA
ENDBRANCH   7   8
ENDBRANCH   6   7
ENDBRANCH   5   6
ENDBRANCH   4   5
ENDBRANCH   3   4
ENDBRANCH   2   3
ENDBRANCH   1   2
BRANCH   1  11
ATOM     11  C   UNL     1       0.132  -0.651  -9.833  1.00  0.00     0.000 C 
BRANCH  11  12
ATOM     12  C   UNL     1       1.596  -1.022 -10.102  1.00  0.00     0.000 C 
BRANCH  12  13
ATOM     13  C   UNL     1       1.783  -2.547 -10.125  1.00  0.00     0.000 C 
BRANCH  13  14
ATOM     14  C   UNL     1       3.262  -2.964 -10.123  1.00  0.00     0.000 C 
BRANCH  14  15
ATOM     15  C   UNL     1       3.474  -4.382  -9.568  1.00  0.00     0.000 C 
BRANCH  15  16
ATOM     16  C   UNL     1       4.956  -4.793  -9.550  1.00  0.00     0.006 C 
BRANCH  16  17
ATOM     17  C   UNL     1       5.210  -6.060  -8.724  1.00  0.00     0.053 C 
BRANCH  17  18
ATOM     18  C   UNL     1       6.637  -6.491  -8.854  1.00  0.00     0.041 C 
ATOM     19  O   UNL     1       7.394  -6.483  -7.847  1.00  0.00    -0.550 OA
ATOM     20  O   UNL     1       7.145  -6.853 -10.094  1.00  0.00    -0.550 OA
ENDBRANCH  17  18
ENDBRANCH  16  17
ENDBRANCH  15  16
ENDBRANCH  14  15
ENDBRANCH  13  14
ENDBRANCH  12  13
ENDBRANCH  11  12
ENDBRANCH   1  11
TORSDOF 15
ENDMDL
MODEL 5
REMARK VINA RESULT:    -3.093      1.624      2.387
REMARK INTER + INTRA:          -6.061
REMARK INTER:                  -5.624
REMARK INTRA:                  -0.436
REMARK UNBOUND:                -0.255
REMARK SMILES O=C([O-])CCCCCCCCCCCCCCC(=O)[O-]
REMARK SMILES IDX 10 1 9 2 8 3 7 4 6 5 5 6 4 7 2 8 1 9 3 10 11 11 12 12 13 13
REMARK SMILES IDX 14 14 15 15 16 16 17 17 18 18 19 19 20 20
REMARK H PARENT
REMARK Flexibility Score: inf
ROOT
ATOM      1  C   UNL     1      -1.513  -2.273   9.195  1.00  0.00     0.000 C 
ENDROOT
BRANCH   1   2
ATOM      2  C   UNL     1      -0.325  -1.652   9.947  1.00  0.00     0.000 C 
BRANCH   2   3
ATOM      3  C   UNL     1      -0.161  -0.150   9.654  1.00  0.00     0.000 C 
BRANCH   3   4
ATOM      4  C   UNL     1       1.291   0.327   9.818  1.00  0.00     0.000 C 
BRANCH   4   5
ATOM      5  C   UNL     1       1.430   1.853   9.679  1.00  0.00     0.000 C 
BRANCH   5   6
ATOM      6  C   UNL     1       2.833   2.360  10.062  1.00  0.00     0.006 C 
BRANCH   6   7
ATOM      7  C   UNL     1       2.968   3.892  10.092  1.00  0.00     0.053 C 
BRANCH   7   8
ATOM      8  C   UNL     1       4.337   4.344   9.684  1.00  0.00     0.041 C 
ATOM      9  O   UNL     1       5.352   3.693  10.045  1.00  0.00    -0.550 OA
ATOM     10  O   UNL     1       4.488   5.463   8.875  1.00  0.00    -0.550 OA
ENDBRANCH   7   8
ENDBRANCH   6   7
ENDBRANCH   5   6
ENDBRANCH   4   5
ENDBRANCH   3   4
ENDBRANCH   2   3
ENDBRANCH   1   2
BRANCH   1  11
ATOM     11  C   UNL     1      -2.817  -1.486   9.388  1.00  0.00     0.000 C 
BRANCH  11  12
ATOM     12  C   UNL     1      -3.865  -2.330  10.125  1.00  0.00     0.000 C 
BRANCH  12  13
ATOM     13  C   UNL     1      -3.822  -3.793   9.656  1.00  0.00     0.000 C 
BRANCH  13  14
ATOM     14  C   UNL     1      -5.117  -4.557   9.974  1.00  0.00     0.000 C 
BRANCH  14  15
ATOM     15  C   UNL     1      -5.448  -5.623   8.915  1.00  0.00     0.000 C 
BRANCH  15  16
ATOM     16  C   UNL     1      -5.971  -6.929   9.537  1.00  0.00     0.006 C 
BRANCH  16  17
ATOM     17  C   UNL     1      -7.025  -7.621   8.663  1.00  0.00     0.053 C 
BRANCH  17  18
ATOM     18  C   UNL     1      -7.257  -9.021   9.136  1.00  0.00     0.041 C 
ATOM     19  O   UNL     1      -8.413  -9.391   9.474  1.00  0.00    -0.550 OA
ATOM     20  O   UNL     1      -6.191  -9.902   9.252  1.00  0.00    -0.550 OA
ENDBRANCH  17  18
ENDBRANCH  16  17
ENDBRANCH  15  16
ENDBRANCH  14  15
ENDBRANCH  13  14
ENDBRANCH  12  13
ENDBRANCH  11  12
ENDBRANCH   1  11
TORSDOF 15
ENDMDL
MODEL 6
REMARK VINA RESULT:    -2.414     20.692     21.590
REMARK INTER + INTRA:          -4.786
REMARK INTER:                  -4.280
REMARK INTRA:                  -0.506
REMARK UNBOUND:                -0.255
REMARK SMILES O=C([O-])CCCCCCCCCCCCCCC(=O)[O-]
REMARK SMILES IDX 10 1 9 2 8 3 7 4 6 5 5 6 4 7 2 8 1 9 3 10 11 11 12 12 13 13
REMARK SMILES IDX 14 14 15 15 16 16 17 17 18 18 19 19 20 20
REMARK H PARENT
REMARK Flexibility Score: inf
ROOT
ATOM      1  C   UNL     1      -4.541   4.007  -9.162  1.00  0.00     0.000 C 
ENDROOT
BRANCH   1   2
ATOM      2  C   UNL     1      -4.793   2.796 -10.075  1.00  0.00     0.000 C 
BRANCH   2   3
ATOM      3  C   UNL     1      -4.278   1.481  -9.465  1.00  0.00     0.000 C 
BRANCH   3   4
ATOM      4  C   UNL     1      -2.971   1.000 -10.118  1.00  0.00     0.000 C 
BRANCH   4   5
ATOM      5  C   UNL     1      -1.763   1.871  -9.731  1.00  0.00     0.000 C 
BRANCH   5   6
ATOM      6  C   UNL     1      -0.418   1.225 -10.111  1.00  0.00     0.006 C 
BRANCH   6   7
ATOM      7  C   UNL     1       0.159   0.283  -9.041  1.00  0.00     0.053 C 
BRANCH   7   8
ATOM      8  C   UNL     1       0.444  -1.082  -9.588  1.00  0.00     0.041 C 
ATOM      9  O   UNL     1      -0.497  -1.892  -9.792  1.00  0.00    -0.550 OA
ATOM     10  O   UNL     1       1.747  -1.446  -9.906  1.00  0.00    -0.550 OA
ENDBRANCH   7   8
ENDBRANCH   6   7
ENDBRANCH   5   6
ENDBRANCH   4   5
ENDBRANCH   3   4
ENDBRANCH   2   3
ENDBRANCH   1   2
BRANCH   1  11
ATOM     11  C   UNL     1      -4.313   5.307  -9.948  1.00  0.00     0.000 C 
BRANCH  11  12
ATOM     12  C   UNL     1      -4.081   6.490  -8.999  1.00  0.00     0.000 C 
BRANCH  12  13
ATOM     13  C   UNL     1      -4.339   7.827  -9.712  1.00  0.00     0.000 C 
BRANCH  13  14
ATOM     14  C   UNL     1      -5.813   8.016 -10.105  1.00  0.00     0.000 C 
BRANCH  14  15
ATOM     15  C   UNL     1      -6.781   7.412  -9.074  1.00  0.00     0.000 C 
BRANCH  15  16
ATOM     16  C   UNL     1      -7.811   6.467  -9.715  1.00  0.00     0.006 C 
BRANCH  16  17
ATOM     17  C   UNL     1      -9.162   7.147  -9.968  1.00  0.00     0.053 C 
BRANCH  17  18
ATOM     18  C   UNL     1      -9.325   8.334  -9.072  1.00  0.00     0.041 C 
ATOM     19  O   UNL     1      -9.392   8.180  -7.823  1.00  0.00    -0.550 OA
ATOM     20  O   UNL     1      -9.453   9.605  -9.616  1.00  0.00    -0.550 OA
ENDBRANCH  17  18
ENDBRANCH  16  17
ENDBRANCH  15  16
ENDBRANCH  14  15
ENDBRANCH  13  14
ENDBRANCH  12  13
ENDBRANCH  11  12
ENDBRANCH   1  11
TORSDOF 15
ENDMDL
MODEL 7
REMARK VINA RESULT:    -2.325      3.522      6.307
REMARK INTER + INTRA:          -4.618
REMARK INTER:                  -4.102
REMARK INTRA:                  -0.517
REMARK UNBOUND:                -0.255
REMARK SMILES O=C([O-])CCCCCCCCCCCCCCC(=O)[O-]
REMARK SMILES IDX 10 1 9 2 8 3 7 4 6 5 5 6 4 7 2 8 1 9 3 10 11 11 12 12 13 13
REMARK SMILES IDX 14 14 15 15 16 16 17 17 18 18 19 19 20 20
REMARK H PARENT
REMARK Flexibility Score: inf
ROOT
ATOM      1  C   UNL     1       4.158   4.630  10.035  1.00  0.00     0.000 C 
ENDROOT
BRANCH   1   2
ATOM      2  C   UNL     1       4.311   5.531   8.799  1.00  0.00     0.000 C 
BRANCH   2   3
ATOM      3  C   UNL     1       4.385   7.024   9.162  1.00  0.00     0.000 C 
BRANCH   3   4
ATOM      4  C   UNL     1       5.640   7.707   8.594  1.00  0.00     0.000 C 
BRANCH   4   5
ATOM      5  C   UNL     1       5.889   9.093   9.213  1.00  0.00     0.000 C 
BRANCH   5   6
ATOM      6  C   UNL     1       7.358   9.542   9.097  1.00  0.00     0.006 C 
BRANCH   6   7
ATOM      7  C   UNL     1       8.265   8.556   8.342  1.00  0.00     0.053 C 
BRANCH   7   8
ATOM      8  C   UNL     1       9.374   8.038   9.205  1.00  0.00     0.041 C 
ATOM      9  O   UNL     1       9.976   8.811   9.995  1.00  0.00    -0.550 OA
ATOM     10  O   UNL     1       9.720   6.693   9.161  1.00  0.00    -0.550 OA
ENDBRANCH   7   8
ENDBRANCH   6   7
ENDBRANCH   5   6
ENDBRANCH   4   5
ENDBRANCH   3   4
ENDBRANCH   2   3
ENDBRANCH   1   2
BRANCH   1  11
ATOM     11  C   UNL     1       2.864   3.802  10.011  1.00  0.00     0.000 C 
BRANCH  11  12
ATOM     12  C   UNL     1       3.172   2.303   9.907  1.00  0.00     0.000 C 
BRANCH  12  13
ATOM     13  C   UNL     1       2.121   1.584   9.048  1.00  0.00     0.000 C 
BRANCH  13  14
ATOM     14  C   UNL     1       0.746   1.508   9.729  1.00  0.00     0.000 C 
BRANCH  14  15
ATOM     15  C   UNL     1       0.351   0.070  10.105  1.00  0.00     0.000 C 
BRANCH  15  16
ATOM     16  C   UNL     1      -0.889  -0.421   9.339  1.00  0.00     0.006 C 
BRANCH  16  17
ATOM     17  C   UNL     1      -2.200  -0.110  10.072  1.00  0.00     0.053 C 
BRANCH  17  18
ATOM     18  C   UNL     1      -3.119  -1.289  10.020  1.00  0.00     0.041 C 
ATOM     19  O   UNL     1      -2.652  -2.458  10.067  1.00  0.00    -0.550 OA
ATOM     20  O   UNL     1      -4.486  -1.099   9.871  1.00  0.00    -0.550 OA
ENDBRANCH  17  18
ENDBRANCH  16  17
ENDBRANCH  15  16
ENDBRANCH  14  15
ENDBRANCH  13  14
ENDBRANCH  12  13
ENDBRANCH  11  12
ENDBRANCH   1  11
TORSDOF 15
ENDMDL
MODEL 8
REMARK VINA RESULT:    -2.137     20.196     21.388
REMARK INTER + INTRA:          -4.266
REMARK INTER:                  -4.383
REMARK INTRA:                   0.117
REMARK UNBOUND:                -0.255
REMARK SMILES O=C([O-])CCCCCCCCCCCCCCC(=O)[O-]
REMARK SMILES IDX 10 1 9 2 8 3 7 4 6 5 5 6 4 7 2 8 1 9 3 10 11 11 12 12 13 13
REMARK SMILES IDX 14 14 15 15 16 16 17 17 18 18 19 19 20 20
REMARK H PARENT
REMARK Flexibility Score: inf
ROOT
ATOM      1  C   UNL     1      -4.078   3.336  -9.828  1.00  0.00     0.000 C 
ENDROOT
BRANCH   1   2
ATOM      2  C   UNL     1      -5.448   3.398  -9.134  1.00  0.00     0.000 C 
BRANCH   2   3
ATOM      3  C   UNL     1      -6.381   4.447  -9.762  1.00  0.00     0.000 C 
BRANCH   3   4
ATOM      4  C   UNL     1      -7.519   4.865  -8.815  1.00  0.00     0.000 C 
BRANCH   4   5
ATOM      5  C   UNL     1      -7.390   6.323  -8.343  1.00  0.00     0.000 C 
BRANCH   5   6
ATOM      6  C   UNL     1      -7.250   7.317  -9.511  1.00  0.00     0.006 C 
BRANCH   6   7
ATOM      7  C   UNL     1      -6.360   8.533  -9.207  1.00  0.00     0.053 C 
BRANCH   7   8
ATOM      8  C   UNL     1      -4.906   8.231  -9.407  1.00  0.00     0.041 C 
ATOM      9  O   UNL     1      -4.084   9.167  -9.588  1.00  0.00    -0.550 OA
ATOM     10  O   UNL     1      -4.455   6.918  -9.359  1.00  0.00    -0.550 OA
ENDBRANCH   7   8
ENDBRANCH   6   7
ENDBRANCH   5   6
ENDBRANCH   4   5
ENDBRANCH   3   4
ENDBRANCH   2   3
ENDBRANCH   1   2
BRANCH   1  11
ATOM     11  C   UNL     1      -3.614   1.898 -10.103  1.00  0.00     0.000 C 
BRANCH  11  12
ATOM     12  C   UNL     1      -2.385   1.545  -9.256  1.00  0.00     0.000 C 
BRANCH  12  13
ATOM     13  C   UNL     1      -1.273   0.937 -10.125  1.00  0.00     0.000 C 
BRANCH  13  14
ATOM     14  C   UNL     1      -0.181   0.246  -9.294  1.00  0.00     0.000 C 
BRANCH  14  15
ATOM     15  C   UNL     1       0.588  -0.816 -10.099  1.00  0.00     0.000 C 
BRANCH  15  16
ATOM     16  C   UNL     1       1.300  -1.839  -9.197  1.00  0.00     0.006 C 
BRANCH  16  17
ATOM     17  C   UNL     1       2.512  -2.487  -9.877  1.00  0.00     0.053 C 
BRANCH  17  18
ATOM     18  C   UNL     1       3.651  -1.520  -9.949  1.00  0.00     0.041 C 
ATOM     19  O   UNL     1       3.427  -0.288 -10.089  1.00  0.00    -0.550 OA
ATOM     20  O   UNL     1       4.959  -1.981  -9.911  1.00  0.00    -0.550 OA
ENDBRANCH  17  18
ENDBRANCH  16  17
ENDBRANCH  15  16
ENDBRANCH  14  15
ENDBRANCH  13  14
ENDBRANCH  12  13
ENDBRANCH  11  12
ENDBRANCH   1  11
TORSDOF 15
ENDMDL
MODEL 9
REMARK VINA RESULT:    -1.603      1.931      3.382
REMARK INTER + INTRA:          -3.263
REMARK INTER:                  -2.803
REMARK INTRA:                  -0.460
REMARK UNBOUND:                -0.255
REMARK SMILES O=C([O-])CCCCCCCCCCCCCCC(=O)[O-]
REMARK SMILES IDX 10 1 9 2 8 3 7 4 6 5 5 6 4 7 2 8 1 9 3 10 11 11 12 12 13 13
REMARK SMILES IDX 14 14 15 15 16 16 17 17 18 18 19 19 20 20
REMARK H PARENT
REMARK Flexibility Score: inf
ROOT
ATOM      1  C   UNL     1       2.596   0.764   9.622  1.00  0.00     0.000 C 
ENDROOT
BRANCH   1   2
ATOM      2  C   UNL     1       4.012   1.349   9.498  1.00  0.00     0.000 C 
BRANCH   2   3
ATOM      3  C   UNL     1       4.130   2.748  10.125  1.00  0.00     0.000 C 
BRANCH   3   4
ATOM      4  C   UNL     1       4.033   3.872   9.080  1.00  0.00     0.000 C 
BRANCH   4   5
ATOM      5  C   UNL     1       5.390   4.543   8.806  1.00  0.00     0.000 C 
BRANCH   5   6
ATOM      6  C   UNL     1       5.259   6.044   8.490  1.00  0.00     0.006 C 
BRANCH   6   7
ATOM      7  C   UNL     1       6.019   6.966   9.459  1.00  0.00     0.053 C 
BRANCH   7   8
ATOM      8  C   UNL     1       7.426   7.215   9.011  1.00  0.00     0.041 C 
ATOM      9  O   UNL     1       8.278   7.664   9.821  1.00  0.00    -0.550 OA
ATOM     10  O   UNL     1       7.805   6.918   7.708  1.00  0.00    -0.550 OA
ENDBRANCH   7   8
ENDBRANCH   6   7
ENDBRANCH   5   6
ENDBRANCH   4   5
ENDBRANCH   3   4
ENDBRANCH   2   3
ENDBRANCH   1   2
BRANCH   1  11
ATOM     11  C   UNL     1       1.570   1.791  10.125  1.00  0.00     0.000 C 
BRANCH  11  12
ATOM     12  C   UNL     1       0.143   1.239  10.021  1.00  0.00     0.000 C 
BRANCH  12  13
ATOM     13  C   UNL     1       0.151  -0.295   9.928  1.00  0.00     0.000 C 
BRANCH  13  14
ATOM     14  C   UNL     1      -1.095  -0.854   9.223  1.00  0.00     0.000 C 
BRANCH  14  15
ATOM     15  C   UNL     1      -1.861  -1.864  10.093  1.00  0.00     0.000 C 
BRANCH  15  16
ATOM     16  C   UNL     1      -2.885  -2.681   9.287  1.00  0.00     0.006 C 
BRANCH  16  17
ATOM     17  C   UNL     1      -4.269  -2.716   9.948  1.00  0.00     0.053 C 
BRANCH  17  18
ATOM     18  C   UNL     1      -4.859  -4.088   9.850  1.00  0.00     0.041 C 
ATOM     19  O   UNL     1      -4.146  -5.058   9.481  1.00  0.00    -0.550 OA
ATOM     20  O   UNL     1      -6.206  -4.286  10.120  1.00  0.00    -0.550 OA
ENDBRANCH  17  18
ENDBRANCH  16  17
ENDBRANCH  15  16
ENDBRANCH  14  15
ENDBRANCH  13  14
ENDBRANCH  12  13
ENDBRANCH  11  12
ENDBRANCH   1  11
TORSDOF 15
ENDMDL
