MODEL 1
REMARK VINA RESULT:    -8.668      0.000      0.000
REMARK INTER + INTRA:         -14.032
REMARK INTER:                 -12.722
REMARK INTRA:                  -1.310
REMARK UNBOUND:                -1.310
REMARK SMILES O=c1c(O[C@H]2O[C@@H](CO)[C@H](O)[C@H](O)[C@H]2O)c(-c2ccc(O)c(O)c2)oc2cc(O)cc(O)c12
REMARK SMILES IDX 4 1 3 2 16 3 25 4 2 5 26 6 1 7 33 8 27 9 31 10 28 11 30 12
REMARK SMILES IDX 17 13 18 14 19 15 20 16 24 17 22 18 21 19 23 21 32 23 29 25
REMARK SMILES IDX 5 27 14 28 6 29 12 30 7 31 10 32 15 33 13 35 8 37 9 38 11 40
REMARK H PARENT 21 20 23 22 32 24 29 26 15 34 13 36 9 39 11 41
REMARK Flexibility Score: inf
ROOT
ATOM      1  O   UNL     1     -13.379 -44.506  -6.710  1.00  0.00    -0.454 OA
ENDROOT
BRANCH   1   2
ATOM      2  C   UNL     1     -12.876 -45.170  -5.547  1.00  0.00     0.214 A 
ATOM      3  C   UNL     1     -13.728 -45.533  -4.469  1.00  0.00     0.180 A 
ATOM      4  O   UNL     1     -13.361 -45.193  -3.224  1.00  0.00    -0.452 OA
ATOM      5  C   UNL     1     -11.512 -45.014  -5.281  1.00  0.00     0.239 A 
ATOM      6  C   UNL     1     -12.090 -44.858  -2.930  1.00  0.00     0.146 A 
ATOM      7  O   UNL     1     -10.708 -44.867  -6.242  1.00  0.00    -0.285 OA
ATOM      8  C   UNL     1     -11.089 -44.875  -3.942  1.00  0.00     0.111 A 
ATOM      9  C   UNL     1     -11.772 -44.441  -1.637  1.00  0.00     0.094 A 
ATOM     10  C   UNL     1      -9.752 -44.547  -3.604  1.00  0.00     0.134 A 
ATOM     11  C   UNL     1     -10.461 -44.045  -1.303  1.00  0.00     0.123 A 
ATOM     12  C   UNL     1      -9.451 -44.110  -2.298  1.00  0.00     0.093 A 
BRANCH   3  13
ATOM     13  C   UNL     1     -14.820 -46.552  -4.615  1.00  0.00     0.025 A 
ATOM     14  C   UNL     1     -14.400 -47.737  -5.218  1.00  0.00     0.016 A 
ATOM     15  C   UNL     1     -13.848 -48.759  -4.382  1.00  0.00     0.051 A 
ATOM     16  C   UNL     1     -13.936 -48.624  -2.984  1.00  0.00     0.157 A 
ATOM     17  C   UNL     1     -15.501 -46.797  -3.397  1.00  0.00     0.062 A 
ATOM     18  C   UNL     1     -14.775 -47.606  -2.464  1.00  0.00     0.158 A 
BRANCH  16  19
ATOM     19  O   UNL     1     -13.240 -49.499  -2.166  1.00  0.00    -0.504 OA
ATOM     20  H   UNL     1     -12.352 -49.261  -1.801  1.00  0.00     0.293 HD
ENDBRANCH  16  19
BRANCH  18  21
ATOM     21  O   UNL     1     -14.944 -47.361  -1.085  1.00  0.00    -0.504 OA
ATOM     22  H   UNL     1     -14.709 -48.044  -0.353  1.00  0.00     0.293 HD
ENDBRANCH  18  21
ENDBRANCH   3  13
BRANCH  10  23
ATOM     23  O   UNL     1      -8.740 -44.552  -4.577  1.00  0.00    -0.507 OA
ATOM     24  H   UNL     1      -7.932 -45.152  -4.465  1.00  0.00     0.293 HD
ENDBRANCH  10  23
BRANCH  11  25
ATOM     25  O   UNL     1     -10.183 -43.609  -0.004  1.00  0.00    -0.508 OA
ATOM     26  H   UNL     1      -9.466 -44.077   0.559  1.00  0.00     0.293 HD
ENDBRANCH  11  25
ENDBRANCH   1   2
BRANCH   1  27
ATOM     27  C   UNL     1     -13.555 -43.040  -6.717  1.00  0.00     0.339 C 
ATOM     28  C   UNL     1     -15.055 -42.680  -6.878  1.00  0.00     0.214 C 
ATOM     29  O   UNL     1     -12.693 -42.435  -7.778  1.00  0.00    -0.332 OA
ATOM     30  C   UNL     1     -15.337 -42.326  -8.344  1.00  0.00     0.180 C 
ATOM     31  C   UNL     1     -13.075 -41.079  -8.244  1.00  0.00     0.179 C 
ATOM     32  C   UNL     1     -14.549 -41.051  -8.718  1.00  0.00     0.177 C 
BRANCH  28  33
ATOM     33  O   UNL     1     -15.839 -43.752  -6.459  1.00  0.00    -0.384 OA
ATOM     34  H   UNL     1     -16.711 -43.418  -6.148  1.00  0.00     0.211 HD
ENDBRANCH  28  33
BRANCH  30  35
ATOM     35  O   UNL     1     -16.711 -42.153  -8.662  1.00  0.00    -0.387 OA
ATOM     36  H   UNL     1     -16.846 -42.532  -9.565  1.00  0.00     0.211 HD
ENDBRANCH  30  35
BRANCH  31  37
ATOM     37  C   UNL     1     -12.175 -40.320  -9.412  1.00  0.00     0.191 C 
BRANCH  37  38
ATOM     38  O   UNL     1     -13.045 -39.340 -10.094  1.00  0.00    -0.394 OA
ATOM     39  H   UNL     1     -12.891 -39.636 -11.035  1.00  0.00     0.210 HD
ENDBRANCH  37  38
ENDBRANCH  31  37
BRANCH  32  40
ATOM     40  O   UNL     1     -15.218 -39.907  -8.235  1.00  0.00    -0.387 OA
ATOM     41  H   UNL     1     -15.934 -40.226  -7.615  1.00  0.00     0.211 HD
ENDBRANCH  32  40
ENDBRANCH   1  27
TORSDOF 12
ENDMDL
MODEL 2
REMARK VINA RESULT:    -8.653      1.492      2.145
REMARK INTER + INTRA:         -14.010
REMARK INTER:                 -12.751
REMARK INTRA:                  -1.259
REMARK UNBOUND:                -1.310
REMARK SMILES O=c1c(O[C@H]2O[C@@H](CO)[C@H](O)[C@H](O)[C@H]2O)c(-c2ccc(O)c(O)c2)oc2cc(O)cc(O)c12
REMARK SMILES IDX 4 1 3 2 16 3 25 4 2 5 26 6 1 7 33 8 27 9 31 10 28 11 30 12
REMARK SMILES IDX 17 13 18 14 19 15 20 16 24 17 22 18 21 19 23 21 32 23 29 25
REMARK SMILES IDX 5 27 14 28 6 29 12 30 7 31 10 32 15 33 13 35 8 37 9 38 11 40
REMARK H PARENT 21 20 23 22 32 24 29 26 15 34 13 36 9 39 11 41
REMARK Flexibility Score: inf
ROOT
ATOM      1  O   UNL     1     -13.340 -43.791  -6.819  1.00  0.00    -0.454 OA
ENDROOT
BRANCH   1   2
ATOM      2  C   UNL     1     -12.867 -44.546  -5.699  1.00  0.00     0.214 A 
ATOM      3  C   UNL     1     -13.740 -44.962  -4.658  1.00  0.00     0.180 A 
ATOM      4  O   UNL     1     -13.381 -44.717  -3.389  1.00  0.00    -0.452 OA
ATOM      5  C   UNL     1     -11.502 -44.442  -5.409  1.00  0.00     0.239 A 
ATOM      6  C   UNL     1     -12.106 -44.434  -3.059  1.00  0.00     0.146 A 
ATOM      7  O   UNL     1     -10.684 -44.249  -6.349  1.00  0.00    -0.285 OA
ATOM      8  C   UNL     1     -11.093 -44.405  -4.059  1.00  0.00     0.111 A 
ATOM      9  C   UNL     1     -11.794 -44.116  -1.737  1.00  0.00     0.094 A 
ATOM     10  C   UNL     1      -9.753 -44.134  -3.685  1.00  0.00     0.134 A 
ATOM     11  C   UNL     1     -10.478 -43.775  -1.363  1.00  0.00     0.123 A 
ATOM     12  C   UNL     1      -9.458 -43.796  -2.348  1.00  0.00     0.093 A 
BRANCH   3  13
ATOM     13  C   UNL     1     -14.854 -45.941  -4.886  1.00  0.00     0.025 A 
ATOM     14  C   UNL     1     -15.046 -46.823  -3.823  1.00  0.00     0.016 A 
ATOM     15  C   UNL     1     -15.908 -46.414  -2.756  1.00  0.00     0.051 A 
ATOM     16  C   UNL     1     -16.682 -45.249  -2.907  1.00  0.00     0.157 A 
ATOM     17  C   UNL     1     -16.063 -45.310  -5.267  1.00  0.00     0.062 A 
ATOM     18  C   UNL     1     -16.758 -44.661  -4.195  1.00  0.00     0.158 A 
BRANCH  16  19
ATOM     19  O   UNL     1     -17.366 -44.734  -1.817  1.00  0.00    -0.504 OA
ATOM     20  H   UNL     1     -17.854 -45.327  -1.194  1.00  0.00     0.293 HD
ENDBRANCH  16  19
BRANCH  18  21
ATOM     21  O   UNL     1     -17.491 -43.490  -4.478  1.00  0.00    -0.504 OA
ATOM     22  H   UNL     1     -18.241 -43.444  -5.180  1.00  0.00     0.293 HD
ENDBRANCH  18  21
ENDBRANCH   3  13
BRANCH  10  23
ATOM     23  O   UNL     1      -8.729 -44.097  -4.645  1.00  0.00    -0.507 OA
ATOM     24  H   UNL     1      -8.474 -43.221  -5.082  1.00  0.00     0.293 HD
ENDBRANCH  10  23
BRANCH  11  25
ATOM     25  O   UNL     1     -10.206 -43.437  -0.034  1.00  0.00    -0.508 OA
ATOM     26  H   UNL     1      -9.346 -43.762   0.420  1.00  0.00     0.293 HD
ENDBRANCH  11  25
ENDBRANCH   1   2
BRANCH   1  27
ATOM     27  C   UNL     1     -13.035 -42.351  -6.933  1.00  0.00     0.339 C 
ATOM     28  C   UNL     1     -14.347 -41.524  -6.937  1.00  0.00     0.214 C 
ATOM     29  O   UNL     1     -12.188 -42.110  -8.140  1.00  0.00    -0.332 OA
ATOM     30  C   UNL     1     -14.711 -41.159  -8.383  1.00  0.00     0.180 C 
ATOM     31  C   UNL     1     -12.178 -40.724  -8.673  1.00  0.00     0.179 C 
ATOM     32  C   UNL     1     -13.618 -40.232  -8.962  1.00  0.00     0.177 C 
BRANCH  28  33
ATOM     33  O   UNL     1     -15.364 -42.258  -6.333  1.00  0.00    -0.384 OA
ATOM     34  H   UNL     1     -16.193 -41.729  -6.332  1.00  0.00     0.211 HD
ENDBRANCH  28  33
BRANCH  30  35
ATOM     35  O   UNL     1     -15.987 -40.555  -8.543  1.00  0.00    -0.387 OA
ATOM     36  H   UNL     1     -16.320 -40.345  -7.636  1.00  0.00     0.211 HD
ENDBRANCH  30  35
BRANCH  31  37
ATOM     37  C   UNL     1     -11.262 -40.355 -10.005  1.00  0.00     0.191 C 
BRANCH  37  38
ATOM     38  O   UNL     1     -12.057 -39.459 -10.871  1.00  0.00    -0.394 OA
ATOM     39  H   UNL     1     -12.310 -38.779 -10.185  1.00  0.00     0.210 HD
ENDBRANCH  37  38
ENDBRANCH  31  37
BRANCH  32  40
ATOM     40  O   UNL     1     -13.806 -38.912  -8.501  1.00  0.00    -0.387 OA
ATOM     41  H   UNL     1     -14.692 -38.605  -8.845  1.00  0.00     0.211 HD
ENDBRANCH  32  40
ENDBRANCH   1  27
TORSDOF 12
ENDMDL
MODEL 3
REMARK VINA RESULT:    -8.501      1.432      4.380
REMARK INTER + INTRA:         -13.787
REMARK INTER:                 -12.215
REMARK INTRA:                  -1.571
REMARK UNBOUND:                -1.310
REMARK SMILES O=c1c(O[C@H]2O[C@@H](CO)[C@H](O)[C@H](O)[C@H]2O)c(-c2ccc(O)c(O)c2)oc2cc(O)cc(O)c12
REMARK SMILES IDX 4 1 3 2 16 3 25 4 2 5 26 6 1 7 33 8 27 9 31 10 28 11 30 12
REMARK SMILES IDX 17 13 18 14 19 15 20 16 24 17 22 18 21 19 23 21 32 23 29 25
REMARK SMILES IDX 5 27 14 28 6 29 12 30 7 31 10 32 15 33 13 35 8 37 9 38 11 40
REMARK H PARENT 21 20 23 22 32 24 29 26 15 34 13 36 9 39 11 41
REMARK Flexibility Score: inf
ROOT
ATOM      1  O   UNL     1     -13.501 -44.010  -6.966  1.00  0.00    -0.454 OA
ENDROOT
BRANCH   1   2
ATOM      2  C   UNL     1     -13.145 -44.413  -5.640  1.00  0.00     0.214 A 
ATOM      3  C   UNL     1     -11.839 -44.875  -5.326  1.00  0.00     0.180 A 
ATOM      4  O   UNL     1     -11.715 -46.026  -4.648  1.00  0.00    -0.452 OA
ATOM      5  C   UNL     1     -14.197 -44.801  -4.803  1.00  0.00     0.239 A 
ATOM      6  C   UNL     1     -12.746 -46.553  -3.959  1.00  0.00     0.146 A 
ATOM      7  O   UNL     1     -15.331 -44.269  -4.950  1.00  0.00    -0.285 OA
ATOM      8  C   UNL     1     -14.002 -45.883  -3.919  1.00  0.00     0.111 A 
ATOM      9  C   UNL     1     -12.590 -47.788  -3.330  1.00  0.00     0.094 A 
ATOM     10  C   UNL     1     -15.064 -46.441  -3.165  1.00  0.00     0.134 A 
ATOM     11  C   UNL     1     -13.660 -48.389  -2.634  1.00  0.00     0.123 A 
ATOM     12  C   UNL     1     -14.897 -47.699  -2.550  1.00  0.00     0.093 A 
BRANCH   3  13
ATOM     13  C   UNL     1     -10.630 -43.990  -5.413  1.00  0.00     0.025 A 
ATOM     14  C   UNL     1     -10.891 -42.658  -5.092  1.00  0.00     0.016 A 
ATOM     15  C   UNL     1     -10.813 -42.271  -3.715  1.00  0.00     0.051 A 
ATOM     16  C   UNL     1     -10.285 -43.176  -2.776  1.00  0.00     0.157 A 
ATOM     17  C   UNL     1      -9.529 -44.499  -4.683  1.00  0.00     0.062 A 
ATOM     18  C   UNL     1      -9.633 -44.337  -3.263  1.00  0.00     0.158 A 
BRANCH  16  19
ATOM     19  O   UNL     1     -10.384 -42.895  -1.423  1.00  0.00    -0.504 OA
ATOM     20  H   UNL     1     -10.783 -43.544  -0.794  1.00  0.00     0.293 HD
ENDBRANCH  16  19
BRANCH  18  21
ATOM     21  O   UNL     1      -9.069 -45.324  -2.428  1.00  0.00    -0.504 OA
ATOM     22  H   UNL     1      -9.047 -45.257  -1.402  1.00  0.00     0.293 HD
ENDBRANCH  18  21
ENDBRANCH   3  13
BRANCH  10  23
ATOM     23  O   UNL     1     -16.316 -45.808  -3.104  1.00  0.00    -0.507 OA
ATOM     24  H   UNL     1     -17.089 -46.157  -3.657  1.00  0.00     0.293 HD
ENDBRANCH  10  23
BRANCH  11  25
ATOM     25  O   UNL     1     -13.476 -49.639  -2.036  1.00  0.00    -0.508 OA
ATOM     26  H   UNL     1     -14.137 -50.403  -2.215  1.00  0.00     0.293 HD
ENDBRANCH  11  25
ENDBRANCH   1   2
BRANCH   1  27
ATOM     27  C   UNL     1     -13.640 -42.579  -7.300  1.00  0.00     0.339 C 
ATOM     28  C   UNL     1     -15.048 -42.299  -7.888  1.00  0.00     0.214 C 
ATOM     29  O   UNL     1     -12.533 -42.165  -8.215  1.00  0.00    -0.332 OA
ATOM     30  C   UNL     1     -14.956 -42.244  -9.419  1.00  0.00     0.180 C 
ATOM     31  C   UNL     1     -12.763 -40.936  -9.015  1.00  0.00     0.179 C 
ATOM     32  C   UNL     1     -14.075 -41.042  -9.830  1.00  0.00     0.177 C 
BRANCH  28  33
ATOM     33  O   UNL     1     -15.932 -43.292  -7.473  1.00  0.00    -0.384 OA
ATOM     34  H   UNL     1     -15.693 -43.583  -6.564  1.00  0.00     0.211 HD
ENDBRANCH  28  33
BRANCH  30  35
ATOM     35  O   UNL     1     -16.207 -42.174 -10.090  1.00  0.00    -0.387 OA
ATOM     36  H   UNL     1     -16.011 -42.020 -11.046  1.00  0.00     0.211 HD
ENDBRANCH  30  35
BRANCH  31  37
ATOM     37  C   UNL     1     -11.590 -40.392 -10.053  1.00  0.00     0.191 C 
BRANCH  37  38
ATOM     38  O   UNL     1     -12.188 -39.349 -10.912  1.00  0.00    -0.394 OA
ATOM     39  H   UNL     1     -13.066 -39.791 -11.088  1.00  0.00     0.210 HD
ENDBRANCH  37  38
ENDBRANCH  31  37
BRANCH  32  40
ATOM     40  O   UNL     1     -14.819 -39.846  -9.755  1.00  0.00    -0.387 OA
ATOM     41  H   UNL     1     -15.416 -39.821 -10.556  1.00  0.00     0.211 HD
ENDBRANCH  32  40
ENDBRANCH   1  27
TORSDOF 12
ENDMDL
MODEL 4
REMARK VINA RESULT:    -8.258      1.543      7.098
REMARK INTER + INTRA:         -13.431
REMARK INTER:                 -12.259
REMARK INTRA:                  -1.172
REMARK UNBOUND:                -1.310
REMARK SMILES O=c1c(O[C@H]2O[C@@H](CO)[C@H](O)[C@H](O)[C@H]2O)c(-c2ccc(O)c(O)c2)oc2cc(O)cc(O)c12
REMARK SMILES IDX 4 1 3 2 16 3 25 4 2 5 26 6 1 7 33 8 27 9 31 10 28 11 30 12
REMARK SMILES IDX 17 13 18 14 19 15 20 16 24 17 22 18 21 19 23 21 32 23 29 25
REMARK SMILES IDX 5 27 14 28 6 29 12 30 7 31 10 32 15 33 13 35 8 37 9 38 11 40
REMARK H PARENT 21 20 23 22 32 24 29 26 15 34 13 36 9 39 11 41
REMARK Flexibility Score: inf
ROOT
ATOM      1  O   UNL     1     -14.467 -44.093  -4.177  1.00  0.00    -0.454 OA
ENDROOT
BRANCH   1   2
ATOM      2  C   UNL     1     -14.012 -43.815  -5.505  1.00  0.00     0.214 A 
ATOM      3  C   UNL     1     -12.648 -43.527  -5.781  1.00  0.00     0.180 A 
ATOM      4  O   UNL     1     -12.361 -42.441  -6.515  1.00  0.00    -0.452 OA
ATOM      5  C   UNL     1     -14.975 -43.359  -6.412  1.00  0.00     0.239 A 
ATOM      6  C   UNL     1     -13.293 -41.841  -7.281  1.00  0.00     0.146 A 
ATOM      7  O   UNL     1     -16.169 -43.746  -6.290  1.00  0.00    -0.285 OA
ATOM      8  C   UNL     1     -14.617 -42.362  -7.344  1.00  0.00     0.111 A 
ATOM      9  C   UNL     1     -12.967 -40.673  -7.969  1.00  0.00     0.094 A 
ATOM     10  C   UNL     1     -15.574 -41.732  -8.178  1.00  0.00     0.134 A 
ATOM     11  C   UNL     1     -13.928 -39.996  -8.748  1.00  0.00     0.123 A 
ATOM     12  C   UNL     1     -15.234 -40.541  -8.853  1.00  0.00     0.093 A 
BRANCH   3  13
ATOM     13  C   UNL     1     -11.557 -44.539  -5.587  1.00  0.00     0.025 A 
ATOM     14  C   UNL     1     -10.329 -44.143  -6.117  1.00  0.00     0.016 A 
ATOM     15  C   UNL     1      -9.461 -43.361  -5.290  1.00  0.00     0.051 A 
ATOM     16  C   UNL     1      -9.774 -43.196  -3.928  1.00  0.00     0.157 A 
ATOM     17  C   UNL     1     -11.436 -44.956  -4.239  1.00  0.00     0.062 A 
ATOM     18  C   UNL     1     -10.802 -44.003  -3.378  1.00  0.00     0.158 A 
BRANCH  16  19
ATOM     19  O   UNL     1      -9.057 -42.288  -3.165  1.00  0.00    -0.504 OA
ATOM     20  H   UNL     1      -8.435 -42.592  -2.460  1.00  0.00     0.293 HD
ENDBRANCH  16  19
BRANCH  18  21
ATOM     21  O   UNL     1     -11.217 -43.929  -2.032  1.00  0.00    -0.504 OA
ATOM     22  H   UNL     1     -11.731 -44.681  -1.553  1.00  0.00     0.293 HD
ENDBRANCH  18  21
ENDBRANCH   3  13
BRANCH  10  23
ATOM     23  O   UNL     1     -16.888 -42.218  -8.264  1.00  0.00    -0.507 OA
ATOM     24  H   UNL     1     -17.639 -41.741  -7.781  1.00  0.00     0.293 HD
ENDBRANCH  10  23
BRANCH  11  25
ATOM     25  O   UNL     1     -13.573 -38.813  -9.404  1.00  0.00    -0.508 OA
ATOM     26  H   UNL     1     -13.169 -38.843 -10.346  1.00  0.00     0.293 HD
ENDBRANCH  11  25
ENDBRANCH   1   2
BRANCH   1  27
ATOM     27  C   UNL     1     -15.127 -45.376  -3.867  1.00  0.00     0.339 C 
ATOM     28  C   UNL     1     -15.049 -45.666  -2.345  1.00  0.00     0.214 C 
ATOM     29  O   UNL     1     -14.530 -46.464  -4.699  1.00  0.00    -0.332 OA
ATOM     30  C   UNL     1     -13.898 -46.644  -2.074  1.00  0.00     0.180 C 
ATOM     31  C   UNL     1     -14.720 -47.851  -4.207  1.00  0.00     0.179 C 
ATOM     32  C   UNL     1     -14.212 -47.997  -2.751  1.00  0.00     0.177 C 
BRANCH  28  33
ATOM     33  O   UNL     1     -14.868 -44.471  -1.652  1.00  0.00    -0.384 OA
ATOM     34  H   UNL     1     -15.665 -43.904  -1.765  1.00  0.00     0.211 HD
ENDBRANCH  28  33
BRANCH  30  35
ATOM     35  O   UNL     1     -13.603 -46.851  -0.699  1.00  0.00    -0.387 OA
ATOM     36  H   UNL     1     -14.359 -47.360  -0.318  1.00  0.00     0.211 HD
ENDBRANCH  30  35
BRANCH  31  37
ATOM     37  C   UNL     1     -14.101 -49.127  -5.066  1.00  0.00     0.191 C 
BRANCH  37  38
ATOM     38  O   UNL     1     -12.789 -48.719  -5.610  1.00  0.00    -0.394 OA
ATOM     39  H   UNL     1     -13.086 -48.457  -6.527  1.00  0.00     0.210 HD
ENDBRANCH  37  38
ENDBRANCH  31  37
BRANCH  32  40
ATOM     40  O   UNL     1     -15.124 -48.733  -1.966  1.00  0.00    -0.387 OA
ATOM     41  H   UNL     1     -15.308 -49.586  -2.452  1.00  0.00     0.211 HD
ENDBRANCH  32  40
ENDBRANCH   1  27
TORSDOF 12
ENDMDL
MODEL 5
REMARK VINA RESULT:    -8.196      2.066      7.205
REMARK INTER + INTRA:         -13.340
REMARK INTER:                 -12.037
REMARK INTRA:                  -1.303
REMARK UNBOUND:                -1.310
REMARK SMILES O=c1c(O[C@H]2O[C@@H](CO)[C@H](O)[C@H](O)[C@H]2O)c(-c2ccc(O)c(O)c2)oc2cc(O)cc(O)c12
REMARK SMILES IDX 4 1 3 2 16 3 25 4 2 5 26 6 1 7 33 8 27 9 31 10 28 11 30 12
REMARK SMILES IDX 17 13 18 14 19 15 20 16 24 17 22 18 21 19 23 21 32 23 29 25
REMARK SMILES IDX 5 27 14 28 6 29 12 30 7 31 10 32 15 33 13 35 8 37 9 38 11 40
REMARK H PARENT 21 20 23 22 32 24 29 26 15 34 13 36 9 39 11 41
REMARK Flexibility Score: inf
ROOT
ATOM      1  O   UNL     1     -11.168 -42.556  -5.265  1.00  0.00    -0.454 OA
ENDROOT
BRANCH   1   2
ATOM      2  C   UNL     1     -12.435 -42.912  -5.827  1.00  0.00     0.214 A 
ATOM      3  C   UNL     1     -13.402 -41.930  -6.168  1.00  0.00     0.180 A 
ATOM      4  O   UNL     1     -14.660 -42.094  -5.732  1.00  0.00    -0.452 OA
ATOM      5  C   UNL     1     -12.882 -44.215  -5.581  1.00  0.00     0.239 A 
ATOM      6  C   UNL     1     -15.110 -43.291  -5.310  1.00  0.00     0.146 A 
ATOM      7  O   UNL     1     -12.038 -45.143  -5.450  1.00  0.00    -0.285 OA
ATOM      8  C   UNL     1     -14.255 -44.431  -5.335  1.00  0.00     0.111 A 
ATOM      9  C   UNL     1     -16.402 -43.397  -4.798  1.00  0.00     0.094 A 
ATOM     10  C   UNL     1     -14.757 -45.687  -4.915  1.00  0.00     0.134 A 
ATOM     11  C   UNL     1     -16.892 -44.627  -4.310  1.00  0.00     0.123 A 
ATOM     12  C   UNL     1     -16.060 -45.773  -4.381  1.00  0.00     0.093 A 
BRANCH   3  13
ATOM     13  C   UNL     1     -13.172 -40.917  -7.252  1.00  0.00     0.025 A 
ATOM     14  C   UNL     1     -12.360 -41.383  -8.286  1.00  0.00     0.016 A 
ATOM     15  C   UNL     1     -12.984 -42.086  -9.367  1.00  0.00     0.051 A 
ATOM     16  C   UNL     1     -14.388 -42.103  -9.455  1.00  0.00     0.157 A 
ATOM     17  C   UNL     1     -14.380 -40.363  -7.744  1.00  0.00     0.062 A 
ATOM     18  C   UNL     1     -15.120 -41.229  -8.612  1.00  0.00     0.158 A 
BRANCH  16  19
ATOM     19  O   UNL     1     -15.006 -42.936 -10.374  1.00  0.00    -0.504 OA
ATOM     20  H   UNL     1     -14.853 -43.913 -10.362  1.00  0.00     0.293 HD
ENDBRANCH  16  19
BRANCH  18  21
ATOM     21  O   UNL     1     -16.528 -41.156  -8.597  1.00  0.00    -0.504 OA
ATOM     22  H   UNL     1     -17.060 -40.550  -7.958  1.00  0.00     0.293 HD
ENDBRANCH  18  21
ENDBRANCH   3  13
BRANCH  10  23
ATOM     23  O   UNL     1     -13.942 -46.830  -4.925  1.00  0.00    -0.507 OA
ATOM     24  H   UNL     1     -13.533 -47.154  -5.792  1.00  0.00     0.293 HD
ENDBRANCH  10  23
BRANCH  11  25
ATOM     25  O   UNL     1     -18.184 -44.691  -3.780  1.00  0.00    -0.508 OA
ATOM     26  H   UNL     1     -18.655 -43.841  -3.454  1.00  0.00     0.293 HD
ENDBRANCH  11  25
ENDBRANCH   1   2
BRANCH   1  27
ATOM     27  C   UNL     1     -11.040 -42.288  -3.819  1.00  0.00     0.339 C 
ATOM     28  C   UNL     1      -9.725 -42.903  -3.273  1.00  0.00     0.214 C 
ATOM     29  O   UNL     1     -12.256 -42.784  -3.106  1.00  0.00    -0.332 OA
ATOM     30  C   UNL     1     -10.036 -44.246  -2.596  1.00  0.00     0.180 C 
ATOM     31  C   UNL     1     -12.113 -43.031  -1.649  1.00  0.00     0.179 C 
ATOM     32  C   UNL     1     -10.935 -43.995  -1.365  1.00  0.00     0.177 C 
BRANCH  28  33
ATOM     33  O   UNL     1      -8.818 -43.065  -4.317  1.00  0.00    -0.384 OA
ATOM     34  H   UNL     1      -8.678 -44.024  -4.483  1.00  0.00     0.211 HD
ENDBRANCH  28  33
BRANCH  30  35
ATOM     35  O   UNL     1      -8.894 -44.999  -2.213  1.00  0.00    -0.387 OA
ATOM     36  H   UNL     1      -8.217 -44.874  -2.923  1.00  0.00     0.211 HD
ENDBRANCH  30  35
BRANCH  31  37
ATOM     37  C   UNL     1     -13.409 -43.574  -0.769  1.00  0.00     0.191 C 
BRANCH  37  38
ATOM     38  O   UNL     1     -12.947 -44.691   0.081  1.00  0.00    -0.394 OA
ATOM     39  H   UNL     1     -13.118 -45.440  -0.557  1.00  0.00     0.210 HD
ENDBRANCH  37  38
ENDBRANCH  31  37
BRANCH  32  40
ATOM     40  O   UNL     1     -10.157 -43.542  -0.279  1.00  0.00    -0.387 OA
ATOM     41  H   UNL     1      -9.371 -44.154  -0.207  1.00  0.00     0.211 HD
ENDBRANCH  32  40
ENDBRANCH   1  27
TORSDOF 12
ENDMDL
MODEL 6
REMARK VINA RESULT:    -8.185      2.711      7.311
REMARK INTER + INTRA:         -13.324
REMARK INTER:                 -11.737
REMARK INTRA:                  -1.586
REMARK UNBOUND:                -1.310
REMARK SMILES O=c1c(O[C@H]2O[C@@H](CO)[C@H](O)[C@H](O)[C@H]2O)c(-c2ccc(O)c(O)c2)oc2cc(O)cc(O)c12
REMARK SMILES IDX 4 1 3 2 16 3 25 4 2 5 26 6 1 7 33 8 27 9 31 10 28 11 30 12
REMARK SMILES IDX 17 13 18 14 19 15 20 16 24 17 22 18 21 19 23 21 32 23 29 25
REMARK SMILES IDX 5 27 14 28 6 29 12 30 7 31 10 32 15 33 13 35 8 37 9 38 11 40
REMARK H PARENT 21 20 23 22 32 24 29 26 15 34 13 36 9 39 11 41
REMARK Flexibility Score: inf
ROOT
ATOM      1  O   UNL     1     -15.106 -42.568  -5.030  1.00  0.00    -0.454 OA
ENDROOT
BRANCH   1   2
ATOM      2  C   UNL     1     -14.302 -42.722  -6.203  1.00  0.00     0.214 A 
ATOM      3  C   UNL     1     -12.901 -42.484  -6.185  1.00  0.00     0.180 A 
ATOM      4  O   UNL     1     -12.377 -41.689  -7.129  1.00  0.00    -0.452 OA
ATOM      5  C   UNL     1     -14.966 -42.630  -7.431  1.00  0.00     0.239 A 
ATOM      6  C   UNL     1     -13.041 -41.412  -8.267  1.00  0.00     0.146 A 
ATOM      7  O   UNL     1     -16.168 -43.006  -7.512  1.00  0.00    -0.285 OA
ATOM      8  C   UNL     1     -14.326 -41.980  -8.507  1.00  0.00     0.111 A 
ATOM      9  C   UNL     1     -12.487 -40.523  -9.187  1.00  0.00     0.094 A 
ATOM     10  C   UNL     1     -14.995 -41.700  -9.724  1.00  0.00     0.134 A 
ATOM     11  C   UNL     1     -13.173 -40.180 -10.371  1.00  0.00     0.123 A 
ATOM     12  C   UNL     1     -14.429 -40.784 -10.635  1.00  0.00     0.093 A 
BRANCH   3  13
ATOM     13  C   UNL     1     -11.952 -43.330  -5.387  1.00  0.00     0.025 A 
ATOM     14  C   UNL     1     -12.233 -44.694  -5.451  1.00  0.00     0.016 A 
ATOM     15  C   UNL     1     -11.666 -45.448  -6.528  1.00  0.00     0.051 A 
ATOM     16  C   UNL     1     -10.696 -44.846  -7.351  1.00  0.00     0.157 A 
ATOM     17  C   UNL     1     -10.596 -43.060  -5.691  1.00  0.00     0.062 A 
ATOM     18  C   UNL     1     -10.147 -43.606  -6.937  1.00  0.00     0.158 A 
BRANCH  16  19
ATOM     19  O   UNL     1     -10.284 -45.489  -8.507  1.00  0.00    -0.504 OA
ATOM     20  H   UNL     1     -10.940 -45.888  -9.131  1.00  0.00     0.293 HD
ENDBRANCH  16  19
BRANCH  18  21
ATOM     21  O   UNL     1      -9.176 -42.897  -7.673  1.00  0.00    -0.504 OA
ATOM     22  H   UNL     1      -8.823 -41.969  -7.404  1.00  0.00     0.293 HD
ENDBRANCH  18  21
ENDBRANCH   3  13
BRANCH  10  23
ATOM     23  O   UNL     1     -16.261 -42.242  -9.993  1.00  0.00    -0.507 OA
ATOM     24  H   UNL     1     -17.087 -41.838  -9.569  1.00  0.00     0.293 HD
ENDBRANCH  10  23
BRANCH  11  25
ATOM     25  O   UNL     1     -12.599 -39.265 -11.258  1.00  0.00    -0.508 OA
ATOM     26  H   UNL     1     -11.587 -39.270 -11.428  1.00  0.00     0.293 HD
ENDBRANCH  11  25
ENDBRANCH   1   2
BRANCH   1  27
ATOM     27  C   UNL     1     -15.446 -43.739  -4.197  1.00  0.00     0.339 C 
ATOM     28  C   UNL     1     -16.963 -43.745  -3.874  1.00  0.00     0.214 C 
ATOM     29  O   UNL     1     -14.589 -43.752  -2.973  1.00  0.00    -0.332 OA
ATOM     30  C   UNL     1     -17.184 -43.174  -2.466  1.00  0.00     0.180 C 
ATOM     31  C   UNL     1     -15.090 -44.549  -1.825  1.00  0.00     0.179 C 
ATOM     32  C   UNL     1     -16.522 -44.111  -1.431  1.00  0.00     0.177 C 
BRANCH  28  33
ATOM     33  O   UNL     1     -17.647 -43.000  -4.832  1.00  0.00    -0.384 OA
ATOM     34  H   UNL     1     -18.600 -42.956  -4.592  1.00  0.00     0.211 HD
ENDBRANCH  28  33
BRANCH  30  35
ATOM     35  O   UNL     1     -18.544 -42.956  -2.118  1.00  0.00    -0.387 OA
ATOM     36  H   UNL     1     -18.555 -42.229  -1.448  1.00  0.00     0.211 HD
ENDBRANCH  30  35
BRANCH  31  37
ATOM     37  C   UNL     1     -14.205 -44.633  -0.425  1.00  0.00     0.191 C 
BRANCH  37  38
ATOM     38  O   UNL     1     -14.749 -45.737   0.393  1.00  0.00    -0.394 OA
ATOM     39  H   UNL     1     -15.715 -45.489   0.350  1.00  0.00     0.210 HD
ENDBRANCH  37  38
ENDBRANCH  31  37
BRANCH  32  40
ATOM     40  O   UNL     1     -17.348 -45.229  -1.189  1.00  0.00    -0.387 OA
ATOM     41  H   UNL     1     -17.504 -45.271  -0.204  1.00  0.00     0.211 HD
ENDBRANCH  32  40
ENDBRANCH   1  27
TORSDOF 12
ENDMDL
MODEL 7
REMARK VINA RESULT:    -8.165      3.196      6.416
REMARK INTER + INTRA:         -13.294
REMARK INTER:                 -12.042
REMARK INTRA:                  -1.252
REMARK UNBOUND:                -1.310
REMARK SMILES O=c1c(O[C@H]2O[C@@H](CO)[C@H](O)[C@H](O)[C@H]2O)c(-c2ccc(O)c(O)c2)oc2cc(O)cc(O)c12
REMARK SMILES IDX 4 1 3 2 16 3 25 4 2 5 26 6 1 7 33 8 27 9 31 10 28 11 30 12
REMARK SMILES IDX 17 13 18 14 19 15 20 16 24 17 22 18 21 19 23 21 32 23 29 25
REMARK SMILES IDX 5 27 14 28 6 29 12 30 7 31 10 32 15 33 13 35 8 37 9 38 11 40
REMARK H PARENT 21 20 23 22 32 24 29 26 15 34 13 36 9 39 11 41
REMARK Flexibility Score: inf
ROOT
ATOM      1  O   UNL     1     -14.081 -42.987  -3.549  1.00  0.00    -0.454 OA
ENDROOT
BRANCH   1   2
ATOM      2  C   UNL     1     -14.880 -44.099  -3.137  1.00  0.00     0.214 A 
ATOM      3  C   UNL     1     -15.238 -44.298  -1.776  1.00  0.00     0.180 A 
ATOM      4  O   UNL     1     -15.034 -45.507  -1.232  1.00  0.00    -0.452 OA
ATOM      5  C   UNL     1     -14.884 -45.212  -3.985  1.00  0.00     0.239 A 
ATOM      6  C   UNL     1     -14.852 -46.602  -1.996  1.00  0.00     0.146 A 
ATOM      7  O   UNL     1     -14.744 -45.043  -5.227  1.00  0.00    -0.285 OA
ATOM      8  C   UNL     1     -14.892 -46.504  -3.416  1.00  0.00     0.111 A 
ATOM      9  C   UNL     1     -14.572 -47.825  -1.386  1.00  0.00     0.094 A 
ATOM     10  C   UNL     1     -14.727 -47.673  -4.200  1.00  0.00     0.134 A 
ATOM     11  C   UNL     1     -14.337 -48.983  -2.155  1.00  0.00     0.123 A 
ATOM     12  C   UNL     1     -14.425 -48.898  -3.569  1.00  0.00     0.093 A 
BRANCH   3  13
ATOM     13  C   UNL     1     -16.127 -43.345  -1.031  1.00  0.00     0.025 A 
ATOM     14  C   UNL     1     -17.201 -42.877  -1.789  1.00  0.00     0.016 A 
ATOM     15  C   UNL     1     -18.403 -43.655  -1.805  1.00  0.00     0.051 A 
ATOM     16  C   UNL     1     -18.535 -44.733  -0.911  1.00  0.00     0.157 A 
ATOM     17  C   UNL     1     -16.553 -43.862   0.217  1.00  0.00     0.062 A 
ATOM     18  C   UNL     1     -17.578 -44.860   0.128  1.00  0.00     0.158 A 
BRANCH  16  19
ATOM     19  O   UNL     1     -19.599 -45.610  -1.047  1.00  0.00    -0.504 OA
ATOM     20  H   UNL     1     -19.729 -46.359  -0.415  1.00  0.00     0.293 HD
ENDBRANCH  16  19
BRANCH  18  21
ATOM     21  O   UNL     1     -17.592 -45.898   1.081  1.00  0.00    -0.504 OA
ATOM     22  H   UNL     1     -18.279 -45.960   1.845  1.00  0.00     0.293 HD
ENDBRANCH  18  21
ENDBRANCH   3  13
BRANCH  10  23
ATOM     23  O   UNL     1     -14.759 -47.613  -5.602  1.00  0.00    -0.507 OA
ATOM     24  H   UNL     1     -15.604 -47.324  -6.079  1.00  0.00     0.293 HD
ENDBRANCH  10  23
BRANCH  11  25
ATOM     25  O   UNL     1     -14.033 -50.186  -1.512  1.00  0.00    -0.508 OA
ATOM     26  H   UNL     1     -14.624 -50.531  -0.748  1.00  0.00     0.293 HD
ENDBRANCH  11  25
ENDBRANCH   1   2
BRANCH   1  27
ATOM     27  C   UNL     1     -12.771 -42.732  -2.917  1.00  0.00     0.339 C 
ATOM     28  C   UNL     1     -11.650 -43.475  -3.690  1.00  0.00     0.214 C 
ATOM     29  O   UNL     1     -12.829 -43.105  -1.471  1.00  0.00    -0.332 OA
ATOM     30  C   UNL     1     -11.308 -44.780  -2.957  1.00  0.00     0.180 C 
ATOM     31  C   UNL     1     -11.528 -43.365  -0.804  1.00  0.00     0.179 C 
ATOM     32  C   UNL     1     -10.720 -44.442  -1.568  1.00  0.00     0.177 C 
BRANCH  28  33
ATOM     33  O   UNL     1     -12.069 -43.726  -4.994  1.00  0.00    -0.384 OA
ATOM     34  H   UNL     1     -11.533 -44.458  -5.374  1.00  0.00     0.211 HD
ENDBRANCH  28  33
BRANCH  30  35
ATOM     35  O   UNL     1     -10.423 -45.643  -3.657  1.00  0.00    -0.387 OA
ATOM     36  H   UNL     1     -10.544 -46.547  -3.276  1.00  0.00     0.211 HD
ENDBRANCH  30  35
BRANCH  31  37
ATOM     37  C   UNL     1     -11.488 -43.776   0.802  1.00  0.00     0.191 C 
BRANCH  37  38
ATOM     38  O   UNL     1     -10.155 -43.421   1.331  1.00  0.00    -0.394 OA
ATOM     39  H   UNL     1      -9.606 -43.707   0.548  1.00  0.00     0.210 HD
ENDBRANCH  37  38
ENDBRANCH  31  37
BRANCH  32  40
ATOM     40  O   UNL     1      -9.365 -44.068  -1.693  1.00  0.00    -0.387 OA
ATOM     41  H   UNL     1      -8.990 -44.578  -2.465  1.00  0.00     0.211 HD
ENDBRANCH  32  40
ENDBRANCH   1  27
TORSDOF 12
ENDMDL
MODEL 8
REMARK VINA RESULT:    -8.135      2.719      6.044
REMARK INTER + INTRA:         -13.249
REMARK INTER:                 -11.473
REMARK INTRA:                  -1.776
REMARK UNBOUND:                -1.310
REMARK SMILES O=c1c(O[C@H]2O[C@@H](CO)[C@H](O)[C@H](O)[C@H]2O)c(-c2ccc(O)c(O)c2)oc2cc(O)cc(O)c12
REMARK SMILES IDX 4 1 3 2 16 3 25 4 2 5 26 6 1 7 33 8 27 9 31 10 28 11 30 12
REMARK SMILES IDX 17 13 18 14 19 15 20 16 24 17 22 18 21 19 23 21 32 23 29 25
REMARK SMILES IDX 5 27 14 28 6 29 12 30 7 31 10 32 15 33 13 35 8 37 9 38 11 40
REMARK H PARENT 21 20 23 22 32 24 29 26 15 34 13 36 9 39 11 41
REMARK Flexibility Score: inf
ROOT
ATOM      1  O   UNL     1     -13.761 -43.907  -1.013  1.00  0.00    -0.454 OA
ENDROOT
BRANCH   1   2
ATOM      2  C   UNL     1     -13.042 -45.083  -1.395  1.00  0.00     0.214 A 
ATOM      3  C   UNL     1     -11.965 -45.032  -2.321  1.00  0.00     0.180 A 
ATOM      4  O   UNL     1     -11.966 -45.895  -3.348  1.00  0.00    -0.452 OA
ATOM      5  C   UNL     1     -13.708 -46.303  -1.231  1.00  0.00     0.239 A 
ATOM      6  C   UNL     1     -12.723 -47.008  -3.334  1.00  0.00     0.146 A 
ATOM      7  O   UNL     1     -14.545 -46.428  -0.296  1.00  0.00    -0.285 OA
ATOM      8  C   UNL     1     -13.539 -47.309  -2.205  1.00  0.00     0.111 A 
ATOM      9  C   UNL     1     -12.746 -47.838  -4.455  1.00  0.00     0.094 A 
ATOM     10  C   UNL     1     -14.305 -48.501  -2.198  1.00  0.00     0.134 A 
ATOM     11  C   UNL     1     -13.558 -48.990  -4.490  1.00  0.00     0.123 A 
ATOM     12  C   UNL     1     -14.332 -49.319  -3.347  1.00  0.00     0.093 A 
BRANCH   3  13
ATOM     13  C   UNL     1     -10.684 -44.308  -2.026  1.00  0.00     0.025 A 
ATOM     14  C   UNL     1      -9.561 -44.909  -2.594  1.00  0.00     0.016 A 
ATOM     15  C   UNL     1      -9.210 -44.547  -3.934  1.00  0.00     0.051 A 
ATOM     16  C   UNL     1      -9.870 -43.468  -4.549  1.00  0.00     0.157 A 
ATOM     17  C   UNL     1     -10.755 -42.928  -2.339  1.00  0.00     0.062 A 
ATOM     18  C   UNL     1     -10.682 -42.634  -3.739  1.00  0.00     0.158 A 
BRANCH  16  19
ATOM     19  O   UNL     1      -9.683 -43.232  -5.902  1.00  0.00    -0.504 OA
ATOM     20  H   UNL     1      -9.710 -43.971  -6.558  1.00  0.00     0.293 HD
ENDBRANCH  16  19
BRANCH  18  21
ATOM     21  O   UNL     1     -11.401 -41.526  -4.234  1.00  0.00    -0.504 OA
ATOM     22  H   UNL     1     -12.261 -41.166  -3.799  1.00  0.00     0.293 HD
ENDBRANCH  18  21
ENDBRANCH   3  13
BRANCH  10  23
ATOM     23  O   UNL     1     -15.121 -48.829  -1.103  1.00  0.00    -0.507 OA
ATOM     24  H   UNL     1     -15.881 -49.488  -1.215  1.00  0.00     0.293 HD
ENDBRANCH  10  23
BRANCH  11  25
ATOM     25  O   UNL     1     -13.575 -49.785  -5.640  1.00  0.00    -0.508 OA
ATOM     26  H   UNL     1     -13.723 -49.362  -6.562  1.00  0.00     0.293 HD
ENDBRANCH  11  25
ENDBRANCH   1   2
BRANCH   1  27
ATOM     27  C   UNL     1     -14.678 -43.249  -1.965  1.00  0.00     0.339 C 
ATOM     28  C   UNL     1     -16.150 -43.596  -1.620  1.00  0.00     0.214 C 
ATOM     29  O   UNL     1     -14.303 -43.622  -3.363  1.00  0.00    -0.332 OA
ATOM     30  C   UNL     1     -16.634 -44.725  -2.542  1.00  0.00     0.180 C 
ATOM     31  C   UNL     1     -15.356 -43.454  -4.396  1.00  0.00     0.179 C 
ATOM     32  C   UNL     1     -16.644 -44.217  -4.001  1.00  0.00     0.177 C 
BRANCH  28  33
ATOM     33  O   UNL     1     -16.240 -43.967  -0.281  1.00  0.00    -0.384 OA
ATOM     34  H   UNL     1     -15.342 -43.956   0.122  1.00  0.00     0.211 HD
ENDBRANCH  28  33
BRANCH  30  35
ATOM     35  O   UNL     1     -17.906 -45.261  -2.209  1.00  0.00    -0.387 OA
ATOM     36  H   UNL     1     -17.743 -46.074  -1.671  1.00  0.00     0.211 HD
ENDBRANCH  30  35
BRANCH  31  37
ATOM     37  C   UNL     1     -15.033 -43.832  -5.978  1.00  0.00     0.191 C 
BRANCH  37  38
ATOM     38  O   UNL     1     -16.303 -44.231  -6.620  1.00  0.00    -0.394 OA
ATOM     39  H   UNL     1     -16.096 -45.198  -6.764  1.00  0.00     0.210 HD
ENDBRANCH  37  38
ENDBRANCH  31  37
BRANCH  32  40
ATOM     40  O   UNL     1     -17.792 -43.432  -4.234  1.00  0.00    -0.387 OA
ATOM     41  H   UNL     1     -17.609 -42.877  -5.044  1.00  0.00     0.211 HD
ENDBRANCH  32  40
ENDBRANCH   1  27
TORSDOF 12
ENDMDL
MODEL 9
REMARK VINA RESULT:    -8.117      1.940      3.049
REMARK INTER + INTRA:         -13.224
REMARK INTER:                 -11.818
REMARK INTRA:                  -1.406
REMARK UNBOUND:                -1.310
REMARK SMILES O=c1c(O[C@H]2O[C@@H](CO)[C@H](O)[C@H](O)[C@H]2O)c(-c2ccc(O)c(O)c2)oc2cc(O)cc(O)c12
REMARK SMILES IDX 4 1 3 2 16 3 25 4 2 5 26 6 1 7 33 8 27 9 31 10 28 11 30 12
REMARK SMILES IDX 17 13 18 14 19 15 20 16 24 17 22 18 21 19 23 21 32 23 29 25
REMARK SMILES IDX 5 27 14 28 6 29 12 30 7 31 10 32 15 33 13 35 8 37 9 38 11 40
REMARK H PARENT 21 20 23 22 32 24 29 26 15 34 13 36 9 39 11 41
REMARK Flexibility Score: inf
ROOT
ATOM      1  O   UNL     1     -12.613 -41.943  -6.584  1.00  0.00    -0.454 OA
ENDROOT
BRANCH   1   2
ATOM      2  C   UNL     1     -12.703 -42.891  -5.516  1.00  0.00     0.214 A 
ATOM      3  C   UNL     1     -13.748 -42.834  -4.554  1.00  0.00     0.180 A 
ATOM      4  O   UNL     1     -13.422 -42.885  -3.254  1.00  0.00    -0.452 OA
ATOM      5  C   UNL     1     -11.518 -43.543  -5.158  1.00  0.00     0.239 A 
ATOM      6  C   UNL     1     -12.222 -43.339  -2.845  1.00  0.00     0.146 A 
ATOM      7  O   UNL     1     -10.644 -43.764  -6.041  1.00  0.00    -0.285 OA
ATOM      8  C   UNL     1     -11.265 -43.800  -3.794  1.00  0.00     0.111 A 
ATOM      9  C   UNL     1     -11.902 -43.304  -1.488  1.00  0.00     0.094 A 
ATOM     10  C   UNL     1     -10.020 -44.301  -3.340  1.00  0.00     0.134 A 
ATOM     11  C   UNL     1     -10.640 -43.735  -1.028  1.00  0.00     0.123 A 
ATOM     12  C   UNL     1      -9.704 -44.241  -1.967  1.00  0.00     0.093 A 
BRANCH   3  13
ATOM     13  C   UNL     1     -15.187 -43.060  -4.916  1.00  0.00     0.025 A 
ATOM     14  C   UNL     1     -15.384 -44.152  -5.760  1.00  0.00     0.016 A 
ATOM     15  C   UNL     1     -15.553 -45.442  -5.163  1.00  0.00     0.051 A 
ATOM     16  C   UNL     1     -15.719 -45.537  -3.769  1.00  0.00     0.157 A 
ATOM     17  C   UNL     1     -16.031 -43.116  -3.781  1.00  0.00     0.062 A 
ATOM     18  C   UNL     1     -15.951 -44.342  -3.042  1.00  0.00     0.158 A 
BRANCH  16  19
ATOM     19  O   UNL     1     -15.685 -46.780  -3.157  1.00  0.00    -0.504 OA
ATOM     20  H   UNL     1     -15.112 -46.947  -2.369  1.00  0.00     0.293 HD
ENDBRANCH  16  19
BRANCH  18  21
ATOM     21  O   UNL     1     -16.125 -44.299  -1.644  1.00  0.00    -0.504 OA
ATOM     22  H   UNL     1     -15.741 -43.556  -1.045  1.00  0.00     0.293 HD
ENDBRANCH  18  21
ENDBRANCH   3  13
BRANCH  10  23
ATOM     23  O   UNL     1      -9.053 -44.762  -4.247  1.00  0.00    -0.507 OA
ATOM     24  H   UNL     1      -8.408 -44.111  -4.677  1.00  0.00     0.293 HD
ENDBRANCH  10  23
BRANCH  11  25
ATOM     25  O   UNL     1     -10.343 -43.662   0.336  1.00  0.00    -0.508 OA
ATOM     26  H   UNL     1     -10.910 -44.176   1.019  1.00  0.00     0.293 HD
ENDBRANCH  11  25
ENDBRANCH   1   2
BRANCH   1  27
ATOM     27  C   UNL     1     -13.146 -42.271  -7.921  1.00  0.00     0.339 C 
ATOM     28  C   UNL     1     -12.109 -41.906  -9.016  1.00  0.00     0.214 C 
ATOM     29  O   UNL     1     -14.464 -41.596  -8.117  1.00  0.00    -0.332 OA
ATOM     30  C   UNL     1     -12.480 -40.550  -9.633  1.00  0.00     0.180 C 
ATOM     31  C   UNL     1     -14.913 -41.419  -9.521  1.00  0.00     0.179 C 
ATOM     32  C   UNL     1     -13.840 -40.679 -10.357  1.00  0.00     0.177 C 
BRANCH  28  33
ATOM     33  O   UNL     1     -10.834 -41.872  -8.458  1.00  0.00    -0.384 OA
ATOM     34  H   UNL     1     -10.347 -42.690  -8.705  1.00  0.00     0.211 HD
ENDBRANCH  28  33
BRANCH  30  35
ATOM     35  O   UNL     1     -11.511 -40.014 -10.523  1.00  0.00    -0.387 OA
ATOM     36  H   UNL     1     -12.000 -39.688 -11.317  1.00  0.00     0.211 HD
ENDBRANCH  30  35
BRANCH  31  37
ATOM     37  C   UNL     1     -16.367 -40.689  -9.841  1.00  0.00     0.191 C 
BRANCH  37  38
ATOM     38  O   UNL     1     -17.351 -41.178  -8.853  1.00  0.00    -0.394 OA
ATOM     39  H   UNL     1     -17.845 -41.815  -9.442  1.00  0.00     0.210 HD
ENDBRANCH  37  38
ENDBRANCH  31  37
BRANCH  32  40
ATOM     40  O   UNL     1     -13.664 -41.290 -11.616  1.00  0.00    -0.387 OA
ATOM     41  H   UNL     1     -13.426 -40.566 -12.262  1.00  0.00     0.211 HD
ENDBRANCH  32  40
ENDBRANCH   1  27
TORSDOF 12
ENDMDL
