MODEL 1
REMARK VINA RESULT:    -4.192      0.000      0.000
REMARK INTER + INTRA:          -6.155
REMARK INTER:                  -5.663
REMARK INTRA:                  -0.493
REMARK UNBOUND:                -0.493
REMARK SMILES O=C[C@H](O)[C@@H](O)[C@H](O)CO
REMARK SMILES IDX 7 1 9 2 10 3 5 5 3 6 2 7 1 8 4 9 6 11 8 13
REMARK H PARENT 10 4 4 10 6 12 8 14
REMARK Flexibility Score: inf
ROOT
ATOM      1  C   UNL     1       1.477  12.568  39.783  1.00  0.00     0.171 C 
ENDROOT
BRANCH   1   2
ATOM      2  C   UNL     1       0.154  13.358  39.714  1.00  0.00     0.190 C 
BRANCH   2   3
ATOM      3  O   UNL     1      -0.255  13.739  40.999  1.00  0.00    -0.394 OA
ATOM      4  H   UNL     1       0.343  13.271  41.640  1.00  0.00     0.210 HD
ENDBRANCH   2   3
ENDBRANCH   1   2
BRANCH   1   5
ATOM      5  C   UNL     1       1.392  11.143  39.167  1.00  0.00     0.181 C 
BRANCH   5   6
ATOM      6  C   UNL     1       2.229  10.053  39.888  1.00  0.00     0.209 C 
BRANCH   6   7
ATOM      7  C   UNL     1       2.691   8.980  38.939  1.00  0.00     0.258 C 
ATOM      8  O   UNL     1       2.219   8.898  37.816  1.00  0.00    -0.300 OA
ENDBRANCH   6   7
BRANCH   6   9
ATOM      9  O   UNL     1       1.449   9.470  40.900  1.00  0.00    -0.383 OA
ATOM     10  H   UNL     1       2.069   8.966  41.489  1.00  0.00     0.211 HD
ENDBRANCH   6   9
ENDBRANCH   5   6
BRANCH   5  11
ATOM     11  O   UNL     1       0.047  10.741  39.057  1.00  0.00    -0.387 OA
ATOM     12  H   UNL     1      -0.522  11.551  39.120  1.00  0.00     0.211 HD
ENDBRANCH   5  11
ENDBRANCH   1   5
BRANCH   1  13
ATOM     13  O   UNL     1       1.907  12.478  41.118  1.00  0.00    -0.388 OA
ATOM     14  H   UNL     1       1.237  12.955  41.675  1.00  0.00     0.211 HD
ENDBRANCH   1  13
TORSDOF 8
ENDMDL
MODEL 2
REMARK VINA RESULT:    -4.065      7.347      9.595
REMARK INTER + INTRA:          -5.984
REMARK INTER:                  -5.848
REMARK INTRA:                  -0.135
REMARK UNBOUND:                -0.493
REMARK SMILES O=C[C@H](O)[C@@H](O)[C@H](O)CO
REMARK SMILES IDX 7 1 9 2 10 3 5 5 3 6 2 7 1 8 4 9 6 11 8 13
REMARK H PARENT 10 4 4 10 6 12 8 14
REMARK Flexibility Score: inf
ROOT
ATOM      1  C   UNL     1       1.813   1.278  41.444  1.00  0.00     0.171 C 
ENDROOT
BRANCH   1   2
ATOM      2  C   UNL     1       1.375   0.472  42.685  1.00  0.00     0.190 C 
BRANCH   2   3
ATOM      3  O   UNL     1       2.348   0.555  43.690  1.00  0.00    -0.394 OA
ATOM      4  H   UNL     1       3.102   1.080  43.314  1.00  0.00     0.210 HD
ENDBRANCH   2   3
ENDBRANCH   1   2
BRANCH   1   5
ATOM      5  C   UNL     1       0.698   2.191  40.862  1.00  0.00     0.181 C 
BRANCH   5   6
ATOM      6  C   UNL     1       1.044   3.703  40.790  1.00  0.00     0.209 C 
BRANCH   6   7
ATOM      7  C   UNL     1       1.923   4.022  39.610  1.00  0.00     0.258 C 
ATOM      8  O   UNL     1       1.901   5.132  39.101  1.00  0.00    -0.300 OA
ENDBRANCH   6   7
BRANCH   6   9
ATOM      9  O   UNL     1       1.703   4.079  41.971  1.00  0.00    -0.383 OA
ATOM     10  H   UNL     1       2.411   3.404  42.136  1.00  0.00     0.211 HD
ENDBRANCH   6   9
ENDBRANCH   5   6
BRANCH   5  11
ATOM     11  O   UNL     1       0.291   1.717  39.600  1.00  0.00    -0.387 OA
ATOM     12  H   UNL     1       0.727   0.840  39.447  1.00  0.00     0.211 HD
ENDBRANCH   5  11
ENDBRANCH   1   5
BRANCH   1  13
ATOM     13  O   UNL     1       2.272   0.400  40.446  1.00  0.00    -0.388 OA
ATOM     14  H   UNL     1       1.642  -0.367  40.418  1.00  0.00     0.211 HD
ENDBRANCH   1  13
TORSDOF 8
ENDMDL
MODEL 3
REMARK VINA RESULT:    -3.992      1.169      4.131
REMARK INTER + INTRA:          -5.885
REMARK INTER:                  -5.552
REMARK INTRA:                  -0.332
REMARK UNBOUND:                -0.493
REMARK SMILES O=C[C@H](O)[C@@H](O)[C@H](O)CO
REMARK SMILES IDX 7 1 9 2 10 3 5 5 3 6 2 7 1 8 4 9 6 11 8 13
REMARK H PARENT 10 4 4 10 6 12 8 14
REMARK Flexibility Score: inf
ROOT
ATOM      1  C   UNL     1       1.462  11.083  39.203  1.00  0.00     0.171 C 
ENDROOT
BRANCH   1   2
ATOM      2  C   UNL     1       2.298  10.063  40.002  1.00  0.00     0.190 C 
BRANCH   2   3
ATOM      3  O   UNL     1       1.491   9.384  40.925  1.00  0.00    -0.394 OA
ATOM      4  H   UNL     1       1.901   9.522  41.819  1.00  0.00     0.210 HD
ENDBRANCH   2   3
ENDBRANCH   1   2
BRANCH   1   5
ATOM      5  C   UNL     1       1.474  12.516  39.807  1.00  0.00     0.181 C 
BRANCH   5   6
ATOM      6  C   UNL     1       0.138  13.299  39.691  1.00  0.00     0.209 C 
BRANCH   6   7
ATOM      7  C   UNL     1       0.256  14.474  38.757  1.00  0.00     0.258 C 
ATOM      8  O   UNL     1       1.292  14.680  38.145  1.00  0.00    -0.300 OA
ENDBRANCH   6   7
BRANCH   6   9
ATOM      9  O   UNL     1      -0.237  13.757  40.964  1.00  0.00    -0.383 OA
ATOM     10  H   UNL     1      -0.416  12.954  41.520  1.00  0.00     0.211 HD
ENDBRANCH   6   9
ENDBRANCH   5   6
BRANCH   5  11
ATOM     11  O   UNL     1       1.909  12.475  41.146  1.00  0.00    -0.387 OA
ATOM     12  H   UNL     1       1.972  11.524  41.419  1.00  0.00     0.211 HD
ENDBRANCH   5  11
ENDBRANCH   1   5
BRANCH   1  13
ATOM     13  O   UNL     1       0.136  10.629  39.095  1.00  0.00    -0.388 OA
ATOM     14  H   UNL     1      -0.096  10.192  39.956  1.00  0.00     0.211 HD
ENDBRANCH   1  13
TORSDOF 8
ENDMDL
MODEL 4
REMARK VINA RESULT:    -3.878      5.538      7.673
REMARK INTER + INTRA:          -5.730
REMARK INTER:                  -4.851
REMARK INTRA:                  -0.880
REMARK UNBOUND:                -0.493
REMARK SMILES O=C[C@H](O)[C@@H](O)[C@H](O)CO
REMARK SMILES IDX 7 1 9 2 10 3 5 5 3 6 2 7 1 8 4 9 6 11 8 13
REMARK H PARENT 10 4 4 10 6 12 8 14
REMARK Flexibility Score: inf
ROOT
ATOM      1  C   UNL     1       4.061   7.739  33.075  1.00  0.00     0.171 C 
ENDROOT
BRANCH   1   2
ATOM      2  C   UNL     1       5.423   7.962  32.387  1.00  0.00     0.190 C 
BRANCH   2   3
ATOM      3  O   UNL     1       6.432   8.133  33.345  1.00  0.00    -0.394 OA
ATOM      4  H   UNL     1       7.126   8.709  32.929  1.00  0.00     0.210 HD
ENDBRANCH   2   3
ENDBRANCH   1   2
BRANCH   1   5
ATOM      5  C   UNL     1       3.684   8.847  34.098  1.00  0.00     0.181 C 
BRANCH   5   6
ATOM      6  C   UNL     1       2.215   8.820  34.599  1.00  0.00     0.209 C 
BRANCH   6   7
ATOM      7  C   UNL     1       2.109   8.273  35.998  1.00  0.00     0.258 C 
ATOM      8  O   UNL     1       2.697   7.250  36.311  1.00  0.00    -0.300 OA
ENDBRANCH   6   7
BRANCH   6   9
ATOM      9  O   UNL     1       1.449   8.025  33.733  1.00  0.00    -0.383 OA
ATOM     10  H   UNL     1       0.877   7.445  34.301  1.00  0.00     0.211 HD
ENDBRANCH   6   9
ENDBRANCH   5   6
BRANCH   5  11
ATOM     11  O   UNL     1       4.578   8.828  35.186  1.00  0.00    -0.387 OA
ATOM     12  H   UNL     1       4.870   7.891  35.327  1.00  0.00     0.211 HD
ENDBRANCH   5  11
ENDBRANCH   1   5
BRANCH   1  13
ATOM     13  O   UNL     1       4.051   6.486  33.713  1.00  0.00    -0.388 OA
ATOM     14  H   UNL     1       4.694   5.905  33.228  1.00  0.00     0.211 HD
ENDBRANCH   1  13
TORSDOF 8
ENDMDL
MODEL 5
REMARK VINA RESULT:    -3.842      2.782      4.145
REMARK INTER + INTRA:          -5.682
REMARK INTER:                  -4.942
REMARK INTRA:                  -0.740
REMARK UNBOUND:                -0.493
REMARK SMILES O=C[C@H](O)[C@@H](O)[C@H](O)CO
REMARK SMILES IDX 7 1 9 2 10 3 5 5 3 6 2 7 1 8 4 9 6 11 8 13
REMARK H PARENT 10 4 4 10 6 12 8 14
REMARK Flexibility Score: inf
ROOT
ATOM      1  C   UNL     1       2.256   9.279  38.575  1.00  0.00     0.171 C 
ENDROOT
BRANCH   1   2
ATOM      2  C   UNL     1       2.545   9.584  40.059  1.00  0.00     0.190 C 
BRANCH   2   3
ATOM      3  O   UNL     1       1.450   9.219  40.855  1.00  0.00    -0.394 OA
ATOM      4  H   UNL     1       0.792   8.783  40.252  1.00  0.00     0.210 HD
ENDBRANCH   2   3
ENDBRANCH   1   2
BRANCH   1   5
ATOM      5  C   UNL     1       3.426   8.567  37.840  1.00  0.00     0.181 C 
BRANCH   5   6
ATOM      6  C   UNL     1       3.123   8.113  36.387  1.00  0.00     0.209 C 
BRANCH   6   7
ATOM      7  C   UNL     1       3.815   8.983  35.371  1.00  0.00     0.258 C 
ATOM      8  O   UNL     1       3.588  10.182  35.320  1.00  0.00    -0.300 OA
ENDBRANCH   6   7
BRANCH   6   9
ATOM      9  O   UNL     1       1.737   8.163  36.170  1.00  0.00    -0.383 OA
ATOM     10  H   UNL     1       1.379   7.260  36.373  1.00  0.00     0.211 HD
ENDBRANCH   6   9
ENDBRANCH   5   6
BRANCH   5  11
ATOM     11  O   UNL     1       4.583   9.370  37.876  1.00  0.00    -0.387 OA
ATOM     12  H   UNL     1       4.882   9.435  38.819  1.00  0.00     0.211 HD
ENDBRANCH   5  11
ENDBRANCH   1   5
BRANCH   1  13
ATOM     13  O   UNL     1       1.932  10.469  37.901  1.00  0.00    -0.388 OA
ATOM     14  H   UNL     1       1.098  10.300  37.390  1.00  0.00     0.211 HD
ENDBRANCH   1  13
TORSDOF 8
ENDMDL
MODEL 6
REMARK VINA RESULT:    -3.791      1.327      4.301
REMARK INTER + INTRA:          -5.613
REMARK INTER:                  -5.301
REMARK INTRA:                  -0.311
REMARK UNBOUND:                -0.493
REMARK SMILES O=C[C@H](O)[C@@H](O)[C@H](O)CO
REMARK SMILES IDX 7 1 9 2 10 3 5 5 3 6 2 7 1 8 4 9 6 11 8 13
REMARK H PARENT 10 4 4 10 6 12 8 14
REMARK Flexibility Score: inf
ROOT
ATOM      1  C   UNL     1       2.657   8.658  38.796  1.00  0.00     0.171 C 
ENDROOT
BRANCH   1   2
ATOM      2  C   UNL     1       3.073   9.142  37.392  1.00  0.00     0.190 C 
BRANCH   2   3
ATOM      3  O   UNL     1       4.467   9.269  37.312  1.00  0.00    -0.394 OA
ATOM      4  H   UNL     1       4.835   8.347  37.270  1.00  0.00     0.210 HD
ENDBRANCH   2   3
ENDBRANCH   1   2
BRANCH   1   5
ATOM      5  C   UNL     1       2.221   9.803  39.752  1.00  0.00     0.181 C 
BRANCH   5   6
ATOM      6  C   UNL     1       1.446  10.971  39.084  1.00  0.00     0.209 C 
BRANCH   6   7
ATOM      7  C   UNL     1       1.602  12.259  39.849  1.00  0.00     0.258 C 
ATOM      8  O   UNL     1       2.217  12.285  40.904  1.00  0.00    -0.300 OA
ENDBRANCH   6   7
BRANCH   6   9
ATOM      9  O   UNL     1       0.085  10.638  39.013  1.00  0.00    -0.383 OA
ATOM     10  H   UNL     1      -0.396  11.449  38.701  1.00  0.00     0.211 HD
ENDBRANCH   6   9
ENDBRANCH   5   6
BRANCH   5  11
ATOM     11  O   UNL     1       1.488   9.280  40.835  1.00  0.00    -0.387 OA
ATOM     12  H   UNL     1       1.863   9.658  41.671  1.00  0.00     0.211 HD
ENDBRANCH   5  11
ENDBRANCH   1   5
BRANCH   1  13
ATOM     13  O   UNL     1       3.711   7.933  39.380  1.00  0.00    -0.388 OA
ATOM     14  H   UNL     1       4.437   8.580  39.578  1.00  0.00     0.211 HD
ENDBRANCH   1  13
TORSDOF 8
ENDMDL
MODEL 7
REMARK VINA RESULT:    -3.719      2.573      3.870
REMARK INTER + INTRA:          -5.515
REMARK INTER:                  -4.766
REMARK INTRA:                  -0.749
REMARK UNBOUND:                -0.493
REMARK SMILES O=C[C@H](O)[C@@H](O)[C@H](O)CO
REMARK SMILES IDX 7 1 9 2 10 3 5 5 3 6 2 7 1 8 4 9 6 11 8 13
REMARK H PARENT 10 4 4 10 6 12 8 14
REMARK Flexibility Score: inf
ROOT
ATOM      1  C   UNL     1       2.623   9.477  38.709  1.00  0.00     0.171 C 
ENDROOT
BRANCH   1   2
ATOM      2  C   UNL     1       1.634  10.058  39.740  1.00  0.00     0.190 C 
BRANCH   2   3
ATOM      3  O   UNL     1       1.523   9.204  40.846  1.00  0.00    -0.394 OA
ATOM      4  H   UNL     1       0.803   9.575  41.421  1.00  0.00     0.210 HD
ENDBRANCH   2   3
ENDBRANCH   1   2
BRANCH   1   5
ATOM      5  C   UNL     1       2.262   9.808  37.234  1.00  0.00     0.181 C 
BRANCH   5   6
ATOM      6  C   UNL     1       3.351   9.457  36.185  1.00  0.00     0.209 C 
BRANCH   6   7
ATOM      7  C   UNL     1       3.017   8.197  35.431  1.00  0.00     0.258 C 
ATOM      8  O   UNL     1       2.936   7.127  36.012  1.00  0.00    -0.300 OA
ENDBRANCH   6   7
BRANCH   6   9
ATOM      9  O   UNL     1       4.581   9.291  36.839  1.00  0.00    -0.383 OA
ATOM     10  H   UNL     1       5.162  10.047  36.561  1.00  0.00     0.211 HD
ENDBRANCH   6   9
ENDBRANCH   5   6
BRANCH   5  11
ATOM     11  O   UNL     1       1.033   9.213  36.890  1.00  0.00    -0.387 OA
ATOM     12  H   UNL     1       1.047   8.274  37.206  1.00  0.00     0.211 HD
ENDBRANCH   5  11
ENDBRANCH   1   5
BRANCH   1  13
ATOM     13  O   UNL     1       2.712   8.083  38.870  1.00  0.00    -0.388 OA
ATOM     14  H   UNL     1       2.319   7.668  38.058  1.00  0.00     0.211 HD
ENDBRANCH   1  13
TORSDOF 8
ENDMDL
MODEL 8
REMARK VINA RESULT:    -3.709      2.744      4.781
REMARK INTER + INTRA:          -5.502
REMARK INTER:                  -4.529
REMARK INTRA:                  -0.973
REMARK UNBOUND:                -0.493
REMARK SMILES O=C[C@H](O)[C@@H](O)[C@H](O)CO
REMARK SMILES IDX 7 1 9 2 10 3 5 5 3 6 2 7 1 8 4 9 6 11 8 13
REMARK H PARENT 10 4 4 10 6 12 8 14
REMARK Flexibility Score: inf
ROOT
ATOM      1  C   UNL     1       2.426   8.176  36.712  1.00  0.00     0.171 C 
ENDROOT
BRANCH   1   2
ATOM      2  C   UNL     1       3.254   8.940  35.660  1.00  0.00     0.190 C 
BRANCH   2   3
ATOM      3  O   UNL     1       4.477   9.355  36.207  1.00  0.00    -0.394 OA
ATOM      4  H   UNL     1       4.922   9.915  35.518  1.00  0.00     0.210 HD
ENDBRANCH   2   3
ENDBRANCH   1   2
BRANCH   1   5
ATOM      5  C   UNL     1       2.114   9.004  37.990  1.00  0.00     0.181 C 
BRANCH   5   6
ATOM      6  C   UNL     1       2.907   8.594  39.260  1.00  0.00     0.209 C 
BRANCH   6   7
ATOM      7  C   UNL     1       2.430   9.332  40.483  1.00  0.00     0.258 C 
ATOM      8  O   UNL     1       2.541  10.546  40.560  1.00  0.00    -0.300 OA
ENDBRANCH   6   7
BRANCH   6   9
ATOM      9  O   UNL     1       4.269   8.868  39.059  1.00  0.00    -0.383 OA
ATOM     10  H   UNL     1       4.435   9.785  39.403  1.00  0.00     0.211 HD
ENDBRANCH   6   9
ENDBRANCH   5   6
BRANCH   5  11
ATOM     11  O   UNL     1       2.274  10.378  37.729  1.00  0.00    -0.387 OA
ATOM     12  H   UNL     1       3.195  10.522  37.392  1.00  0.00     0.211 HD
ENDBRANCH   5  11
ENDBRANCH   1   5
BRANCH   1  13
ATOM     13  O   UNL     1       3.091   6.990  37.070  1.00  0.00    -0.388 OA
ATOM     14  H   UNL     1       3.715   7.215  37.809  1.00  0.00     0.211 HD
ENDBRANCH   1  13
TORSDOF 8
ENDMDL
MODEL 9
REMARK VINA RESULT:    -3.703      1.533      2.491
REMARK INTER + INTRA:          -5.495
REMARK INTER:                  -5.159
REMARK INTRA:                  -0.336
REMARK UNBOUND:                -0.493
REMARK SMILES O=C[C@H](O)[C@@H](O)[C@H](O)CO
REMARK SMILES IDX 7 1 9 2 10 3 5 5 3 6 2 7 1 8 4 9 6 11 8 13
REMARK H PARENT 10 4 4 10 6 12 8 14
REMARK Flexibility Score: inf
ROOT
ATOM      1  C   UNL     1       2.246  10.293  40.148  1.00  0.00     0.171 C 
ENDROOT
BRANCH   1   2
ATOM      2  C   UNL     1       2.456  11.632  40.885  1.00  0.00     0.190 C 
BRANCH   2   3
ATOM      3  O   UNL     1       1.438  12.537  40.554  1.00  0.00    -0.394 OA
ATOM      4  H   UNL     1       1.362  13.171  41.315  1.00  0.00     0.210 HD
ENDBRANCH   2   3
ENDBRANCH   1   2
BRANCH   1   5
ATOM      5  C   UNL     1       1.534  10.436  38.774  1.00  0.00     0.181 C 
BRANCH   5   6
ATOM      6  C   UNL     1       1.890   9.351  37.722  1.00  0.00     0.209 C 
BRANCH   6   7
ATOM      7  C   UNL     1       3.338   8.946  37.801  1.00  0.00     0.258 C 
ATOM      8  O   UNL     1       4.130   9.297  36.940  1.00  0.00    -0.300 OA
ENDBRANCH   6   7
BRANCH   6   9
ATOM      9  O   UNL     1       1.619   9.850  36.438  1.00  0.00    -0.383 OA
ATOM     10  H   UNL     1       2.349  10.485  36.214  1.00  0.00     0.211 HD
ENDBRANCH   6   9
ENDBRANCH   5   6
BRANCH   5  11
ATOM     11  O   UNL     1       0.140  10.511  38.955  1.00  0.00    -0.387 OA
ATOM     12  H   UNL     1      -0.220   9.587  38.953  1.00  0.00     0.211 HD
ENDBRANCH   5  11
ENDBRANCH   1   5
BRANCH   1  13
ATOM     13  O   UNL     1       1.519   9.411  40.966  1.00  0.00    -0.388 OA
ATOM     14  H   UNL     1       0.723   9.120  40.449  1.00  0.00     0.211 HD
ENDBRANCH   1  13
TORSDOF 8
ENDMDL
