MODEL 1
REMARK VINA RESULT:    -5.577      0.000      0.000
REMARK INTER + INTRA:          -8.790
REMARK INTER:                  -7.859
REMARK INTRA:                  -0.931
REMARK UNBOUND:                -0.931
REMARK SMILES OCC1=C[C@@H](O)[C@@H]2C=CO[C@H](O[C@@H]3O[C@@H](CO)[C@@H](O)[C@@H](O)[C@H]3O)[C@H]12
REMARK SMILES IDX 12 1 11 2 8 3 9 4 7 5 10 6 24 7 5 8 3 9 4 10 6 11 2 13 1 14
REMARK SMILES IDX 13 16 22 17 14 18 20 19 15 20 18 21 23 22 21 24 16 26 17 27
REMARK SMILES IDX 19 29
REMARK H PARENT 6 12 1 15 23 23 21 25 17 28 19 30
REMARK Flexibility Score: inf
ROOT
ATOM      1  O   UNL     1      29.443   2.712 103.631  1.00  0.00    -0.310 OA
ENDROOT
BRANCH   1   2
ATOM      2  C   UNL     1      30.018   3.738 104.416  1.00  0.00     0.316 C 
ATOM      3  C   UNL     1      31.896   5.003 106.115  1.00  0.00     0.018 C 
ATOM      4  C   UNL     1      31.169   3.979 106.564  1.00  0.00     0.186 C 
ATOM      5  C   UNL     1      32.051   5.300 104.635  1.00  0.00     0.061 C 
ATOM      6  O   UNL     1      30.400   3.218 105.687  1.00  0.00    -0.472 OA
ATOM      7  C   UNL     1      31.244   4.349 103.704  1.00  0.00     0.096 C 
ATOM      8  C   UNL     1      33.522   5.081 104.229  1.00  0.00     0.145 C 
ATOM      9  C   UNL     1      32.276   3.358 103.243  1.00  0.00    -0.036 C 
ATOM     10  C   UNL     1      33.505   3.762 103.537  1.00  0.00     0.007 C 
BRANCH   8  11
ATOM     11  O   UNL     1      33.925   6.081 103.331  1.00  0.00    -0.388 OA
ATOM     12  H   UNL     1      34.680   5.707 102.807  1.00  0.00     0.211 HD
ENDBRANCH   8  11
BRANCH   9  13
ATOM     13  C   UNL     1      32.016   2.192 102.323  1.00  0.00     0.187 C 
BRANCH  13  14
ATOM     14  O   UNL     1      31.178   2.585 101.271  1.00  0.00    -0.392 OA
ATOM     15  H   UNL     1      30.641   1.786 101.024  1.00  0.00     0.211 HD
ENDBRANCH  13  14
ENDBRANCH   9  13
ENDBRANCH   1   2
BRANCH   1  16
ATOM     16  C   UNL     1      28.031   2.659 103.783  1.00  0.00     0.286 C 
ATOM     17  C   UNL     1      27.353   2.313 102.435  1.00  0.00     0.202 C 
ATOM     18  O   UNL     1      27.682   1.718 104.789  1.00  0.00    -0.341 OA
ATOM     19  C   UNL     1      27.685   0.865 102.026  1.00  0.00     0.179 C 
ATOM     20  C   UNL     1      28.112   0.405 104.456  1.00  0.00     0.178 C 
ATOM     21  C   UNL     1      27.399  -0.107 103.185  1.00  0.00     0.177 C 
BRANCH  17  22
ATOM     22  O   UNL     1      25.960   2.470 102.544  1.00  0.00    -0.385 OA
ATOM     23  H   UNL     1      25.738   3.347 102.132  1.00  0.00     0.211 HD
ENDBRANCH  17  22
BRANCH  19  24
ATOM     24  O   UNL     1      26.946   0.489 100.892  1.00  0.00    -0.387 OA
ATOM     25  H   UNL     1      26.430  -0.322 101.143  1.00  0.00     0.211 HD
ENDBRANCH  19  24
BRANCH  20  26
ATOM     26  C   UNL     1      27.886  -0.526 105.659  1.00  0.00     0.191 C 
BRANCH  26  27
ATOM     27  O   UNL     1      27.333   0.164 106.748  1.00  0.00    -0.394 OA
ATOM     28  H   UNL     1      26.632  -0.423 107.133  1.00  0.00     0.210 HD
ENDBRANCH  26  27
ENDBRANCH  20  26
BRANCH  21  29
ATOM     29  O   UNL     1      26.015  -0.203 103.412  1.00  0.00    -0.387 OA
ATOM     30  H   UNL     1      25.737   0.631 103.873  1.00  0.00     0.211 HD
ENDBRANCH  21  29
ENDBRANCH   1  16
TORSDOF 10
ENDMDL
MODEL 2
REMARK VINA RESULT:    -5.546      3.958      6.542
REMARK INTER + INTRA:          -8.746
REMARK INTER:                  -7.939
REMARK INTRA:                  -0.807
REMARK UNBOUND:                -0.931
REMARK SMILES OCC1=C[C@@H](O)[C@@H]2C=CO[C@H](O[C@@H]3O[C@@H](CO)[C@@H](O)[C@@H](O)[C@H]3O)[C@H]12
REMARK SMILES IDX 12 1 11 2 8 3 9 4 7 5 10 6 24 7 5 8 3 9 4 10 6 11 2 13 1 14
REMARK SMILES IDX 13 16 22 17 14 18 20 19 15 20 18 21 23 22 21 24 16 26 17 27
REMARK SMILES IDX 19 29
REMARK H PARENT 6 12 1 15 23 23 21 25 17 28 19 30
REMARK Flexibility Score: inf
ROOT
ATOM      1  O   UNL     1      24.716   3.489 102.995  1.00  0.00    -0.310 OA
ENDROOT
BRANCH   1   2
ATOM      2  C   UNL     1      26.116   3.382 102.827  1.00  0.00     0.316 C 
ATOM      3  C   UNL     1      28.754   2.471 103.298  1.00  0.00     0.018 C 
ATOM      4  C   UNL     1      28.124   3.201 104.218  1.00  0.00     0.186 C 
ATOM      5  C   UNL     1      28.017   1.779 102.165  1.00  0.00     0.061 C 
ATOM      6  O   UNL     1      26.764   3.477 104.093  1.00  0.00    -0.472 OA
ATOM      7  C   UNL     1      26.485   2.048 102.143  1.00  0.00     0.096 C 
ATOM      8  C   UNL     1      28.138   0.253 102.344  1.00  0.00     0.145 C 
ATOM      9  C   UNL     1      25.907   0.818 102.786  1.00  0.00    -0.036 C 
ATOM     10  C   UNL     1      26.813  -0.146 102.895  1.00  0.00     0.007 C 
BRANCH   8  11
ATOM     11  O   UNL     1      28.337  -0.361 101.098  1.00  0.00    -0.388 OA
ATOM     12  H   UNL     1      28.659   0.346 100.480  1.00  0.00     0.211 HD
ENDBRANCH   8  11
BRANCH   9  13
ATOM     13  C   UNL     1      24.441   0.569 103.032  1.00  0.00     0.187 C 
BRANCH  13  14
ATOM     14  O   UNL     1      24.269  -0.615 103.762  1.00  0.00    -0.392 OA
ATOM     15  H   UNL     1      23.533  -0.446 104.407  1.00  0.00     0.211 HD
ENDBRANCH  13  14
ENDBRANCH   9  13
ENDBRANCH   1   2
BRANCH   1  16
ATOM     16  C   UNL     1      24.265   4.827 102.835  1.00  0.00     0.286 C 
ATOM     17  C   UNL     1      23.482   4.980 101.509  1.00  0.00     0.202 C 
ATOM     18  O   UNL     1      23.469   5.212 103.948  1.00  0.00    -0.341 OA
ATOM     19  C   UNL     1      22.153   4.202 101.579  1.00  0.00     0.179 C 
ATOM     20  C   UNL     1      22.312   4.396 104.076  1.00  0.00     0.178 C 
ATOM     21  C   UNL     1      21.377   4.565 102.857  1.00  0.00     0.177 C 
BRANCH  17  22
ATOM     22  O   UNL     1      23.225   6.339 101.258  1.00  0.00    -0.385 OA
ATOM     23  H   UNL     1      23.138   6.783 102.142  1.00  0.00     0.211 HD
ENDBRANCH  17  22
BRANCH  19  24
ATOM     24  O   UNL     1      21.364   4.467 100.448  1.00  0.00    -0.387 OA
ATOM     25  H   UNL     1      21.617   3.797  99.760  1.00  0.00     0.211 HD
ENDBRANCH  19  24
BRANCH  20  26
ATOM     26  C   UNL     1      21.600   4.727 105.399  1.00  0.00     0.191 C 
BRANCH  26  27
ATOM     27  O   UNL     1      20.206   4.765 105.239  1.00  0.00    -0.394 OA
ATOM     28  H   UNL     1      20.019   4.515 104.298  1.00  0.00     0.210 HD
ENDBRANCH  26  27
ENDBRANCH  20  26
BRANCH  21  29
ATOM     29  O   UNL     1      20.908   5.888 102.786  1.00  0.00    -0.387 OA
ATOM     30  H   UNL     1      20.186   5.978 103.461  1.00  0.00     0.211 HD
ENDBRANCH  21  29
ENDBRANCH   1  16
TORSDOF 10
ENDMDL
MODEL 3
REMARK VINA RESULT:    -5.484      5.748      8.718
REMARK INTER + INTRA:          -8.659
REMARK INTER:                  -7.778
REMARK INTRA:                  -0.881
REMARK UNBOUND:                -0.931
REMARK SMILES OCC1=C[C@@H](O)[C@@H]2C=CO[C@H](O[C@@H]3O[C@@H](CO)[C@@H](O)[C@@H](O)[C@H]3O)[C@H]12
REMARK SMILES IDX 12 1 11 2 8 3 9 4 7 5 10 6 24 7 5 8 3 9 4 10 6 11 2 13 1 14
REMARK SMILES IDX 13 16 22 17 14 18 20 19 15 20 18 21 23 22 21 24 16 26 17 27
REMARK SMILES IDX 19 29
REMARK H PARENT 6 12 1 15 23 23 21 25 17 28 19 30
REMARK Flexibility Score: inf
ROOT
ATOM      1  O   UNL     1      23.864  -3.510 101.461  1.00  0.00    -0.310 OA
ENDROOT
BRANCH   1   2
ATOM      2  C   UNL     1      24.309  -2.886 102.649  1.00  0.00     0.316 C 
ATOM      3  C   UNL     1      26.120  -1.696 104.469  1.00  0.00     0.018 C 
ATOM      4  C   UNL     1      26.223  -2.992 104.174  1.00  0.00     0.186 C 
ATOM      5  C   UNL     1      25.327  -0.727 103.611  1.00  0.00     0.061 C 
ATOM      6  O   UNL     1      25.479  -3.541 103.131  1.00  0.00    -0.472 OA
ATOM      7  C   UNL     1      24.602  -1.390 102.404  1.00  0.00     0.096 C 
ATOM      8  C   UNL     1      26.295   0.287 102.970  1.00  0.00     0.145 C 
ATOM      9  C   UNL     1      25.517  -1.099 101.247  1.00  0.00    -0.036 C 
ATOM     10  C   UNL     1      26.433  -0.193 101.567  1.00  0.00     0.007 C 
BRANCH   8  11
ATOM     11  O   UNL     1      25.720   1.567 102.978  1.00  0.00    -0.388 OA
ATOM     12  H   UNL     1      24.760   1.448 103.203  1.00  0.00     0.211 HD
ENDBRANCH   8  11
BRANCH   9  13
ATOM     13  C   UNL     1      25.292  -1.539  99.824  1.00  0.00     0.187 C 
BRANCH  13  14
ATOM     14  O   UNL     1      25.989  -0.701  98.943  1.00  0.00    -0.392 OA
ATOM     15  H   UNL     1      26.884  -0.550  99.346  1.00  0.00     0.211 HD
ENDBRANCH  13  14
ENDBRANCH   9  13
ENDBRANCH   1   2
BRANCH   1  16
ATOM     16  C   UNL     1      22.449  -3.636 101.428  1.00  0.00     0.286 C 
ATOM     17  C   UNL     1      21.947  -3.740  99.968  1.00  0.00     0.202 C 
ATOM     18  O   UNL     1      22.040  -4.763 102.192  1.00  0.00    -0.341 OA
ATOM     19  C   UNL     1      22.401  -5.073  99.340  1.00  0.00     0.179 C 
ATOM     20  C   UNL     1      22.576  -5.974 101.675  1.00  0.00     0.178 C 
ATOM     21  C   UNL     1      22.039  -6.256 100.254  1.00  0.00     0.177 C 
BRANCH  17  22
ATOM     22  O   UNL     1      20.545  -3.651  99.934  1.00  0.00    -0.385 OA
ATOM     23  H   UNL     1      20.206  -4.554  99.697  1.00  0.00     0.211 HD
ENDBRANCH  17  22
BRANCH  19  24
ATOM     24  O   UNL     1      21.816  -5.248  98.075  1.00  0.00    -0.387 OA
ATOM     25  H   UNL     1      21.613  -4.341  97.726  1.00  0.00     0.211 HD
ENDBRANCH  19  24
BRANCH  20  26
ATOM     26  C   UNL     1      22.266  -7.124 102.648  1.00  0.00     0.191 C 
BRANCH  26  27
ATOM     27  O   UNL     1      20.980  -7.006 103.195  1.00  0.00    -0.394 OA
ATOM     28  H   UNL     1      20.920  -6.099 103.594  1.00  0.00     0.210 HD
ENDBRANCH  26  27
ENDBRANCH  20  26
BRANCH  21  29
ATOM     29  O   UNL     1      20.645  -6.438 100.290  1.00  0.00    -0.387 OA
ATOM     30  H   UNL     1      20.279  -5.758 100.913  1.00  0.00     0.211 HD
ENDBRANCH  21  29
ENDBRANCH   1  16
TORSDOF 10
ENDMDL
MODEL 4
REMARK VINA RESULT:    -5.463      4.956      8.258
REMARK INTER + INTRA:          -8.629
REMARK INTER:                  -7.821
REMARK INTRA:                  -0.808
REMARK UNBOUND:                -0.931
REMARK SMILES OCC1=C[C@@H](O)[C@@H]2C=CO[C@H](O[C@@H]3O[C@@H](CO)[C@@H](O)[C@@H](O)[C@H]3O)[C@H]12
REMARK SMILES IDX 12 1 11 2 8 3 9 4 7 5 10 6 24 7 5 8 3 9 4 10 6 11 2 13 1 14
REMARK SMILES IDX 13 16 22 17 14 18 20 19 15 20 18 21 23 22 21 24 16 26 17 27
REMARK SMILES IDX 19 29
REMARK H PARENT 6 12 1 15 23 23 21 25 17 28 19 30
REMARK Flexibility Score: inf
ROOT
ATOM      1  O   UNL     1      23.054   1.794 102.983  1.00  0.00    -0.310 OA
ENDROOT
BRANCH   1   2
ATOM      2  C   UNL     1      23.138   0.383 103.036  1.00  0.00     0.316 C 
ATOM      3  C   UNL     1      23.933  -2.229 102.293  1.00  0.00     0.018 C 
ATOM      4  C   UNL     1      23.143  -1.516 101.490  1.00  0.00     0.186 C 
ATOM      5  C   UNL     1      24.741  -1.595 103.411  1.00  0.00     0.061 C 
ATOM      6  O   UNL     1      22.916  -0.164 101.739  1.00  0.00    -0.472 OA
ATOM      7  C   UNL     1      24.516  -0.063 103.571  1.00  0.00     0.096 C 
ATOM      8  C   UNL     1      26.242  -1.733 103.089  1.00  0.00     0.145 C 
ATOM      9  C   UNL     1      25.700   0.537 102.866  1.00  0.00    -0.036 C 
ATOM     10  C   UNL     1      26.626  -0.377 102.605  1.00  0.00     0.007 C 
BRANCH   8  11
ATOM     11  O   UNL     1      26.955  -2.038 104.258  1.00  0.00    -0.388 OA
ATOM     12  H   UNL     1      27.869  -2.304 103.974  1.00  0.00     0.211 HD
ENDBRANCH   8  11
BRANCH   9  13
ATOM     13  C   UNL     1      25.966   2.012 102.708  1.00  0.00     0.187 C 
BRANCH  13  14
ATOM     14  O   UNL     1      27.146   2.214 101.978  1.00  0.00    -0.392 OA
ATOM     15  H   UNL     1      27.888   1.867 102.539  1.00  0.00     0.211 HD
ENDBRANCH  13  14
ENDBRANCH   9  13
ENDBRANCH   1   2
BRANCH   1  16
ATOM     16  C   UNL     1      21.733   2.255 103.231  1.00  0.00     0.286 C 
ATOM     17  C   UNL     1      21.660   2.980 104.596  1.00  0.00     0.202 C 
ATOM     18  O   UNL     1      21.305   3.105 102.176  1.00  0.00    -0.341 OA
ATOM     19  C   UNL     1      22.454   4.300 104.545  1.00  0.00     0.179 C 
ATOM     20  C   UNL     1      22.131   4.256 102.057  1.00  0.00     0.178 C 
ATOM     21  C   UNL     1      22.039   5.137 103.323  1.00  0.00     0.177 C 
BRANCH  17  22
ATOM     22  O   UNL     1      20.320   3.244 104.928  1.00  0.00    -0.385 OA
ATOM     23  H   UNL     1      19.814   2.404 104.768  1.00  0.00     0.211 HD
ENDBRANCH  17  22
BRANCH  19  24
ATOM     24  O   UNL     1      22.260   5.041 105.722  1.00  0.00    -0.387 OA
ATOM     25  H   UNL     1      21.367   4.789 106.074  1.00  0.00     0.211 HD
ENDBRANCH  19  24
BRANCH  20  26
ATOM     26  C   UNL     1      21.745   5.031 100.786  1.00  0.00     0.191 C 
BRANCH  26  27
ATOM     27  O   UNL     1      21.754   6.417 101.004  1.00  0.00    -0.394 OA
ATOM     28  H   UNL     1      22.635   6.640 101.400  1.00  0.00     0.210 HD
ENDBRANCH  26  27
ENDBRANCH  20  26
BRANCH  21  29
ATOM     29  O   UNL     1      20.729   5.621 103.483  1.00  0.00    -0.387 OA
ATOM     30  H   UNL     1      20.176   5.201 102.773  1.00  0.00     0.211 HD
ENDBRANCH  21  29
ENDBRANCH   1  16
TORSDOF 10
ENDMDL
MODEL 5
REMARK VINA RESULT:    -5.386      1.535      6.727
REMARK INTER + INTRA:          -8.520
REMARK INTER:                  -7.623
REMARK INTRA:                  -0.897
REMARK UNBOUND:                -0.931
REMARK SMILES OCC1=C[C@@H](O)[C@@H]2C=CO[C@H](O[C@@H]3O[C@@H](CO)[C@@H](O)[C@@H](O)[C@H]3O)[C@H]12
REMARK SMILES IDX 12 1 11 2 8 3 9 4 7 5 10 6 24 7 5 8 3 9 4 10 6 11 2 13 1 14
REMARK SMILES IDX 13 16 22 17 14 18 20 19 15 20 18 21 23 22 21 24 16 26 17 27
REMARK SMILES IDX 19 29
REMARK H PARENT 6 12 1 15 23 23 21 25 17 28 19 30
REMARK Flexibility Score: inf
ROOT
ATOM      1  O   UNL     1      30.083   2.255 104.082  1.00  0.00    -0.310 OA
ENDROOT
BRANCH   1   2
ATOM      2  C   UNL     1      29.388   1.812 102.933  1.00  0.00     0.316 C 
ATOM      3  C   UNL     1      28.041   0.015 101.211  1.00  0.00     0.018 C 
ATOM      4  C   UNL     1      29.343  -0.138 101.451  1.00  0.00     0.186 C 
ATOM      5  C   UNL     1      27.146   0.868 102.091  1.00  0.00     0.061 C 
ATOM      6  O   UNL     1      29.970   0.604 102.451  1.00  0.00    -0.472 OA
ATOM      7  C   UNL     1      27.893   1.590 103.250  1.00  0.00     0.096 C 
ATOM      8  C   UNL     1      26.121  -0.040 102.799  1.00  0.00     0.145 C 
ATOM      9  C   UNL     1      27.615   0.714 104.440  1.00  0.00    -0.036 C 
ATOM     10  C   UNL     1      26.658  -0.168 104.183  1.00  0.00     0.007 C 
BRANCH   8  11
ATOM     11  O   UNL     1      24.868   0.590 102.833  1.00  0.00    -0.388 OA
ATOM     12  H   UNL     1      24.209  -0.065 102.482  1.00  0.00     0.211 HD
ENDBRANCH   8  11
BRANCH   9  13
ATOM     13  C   UNL     1      28.128   0.951 105.837  1.00  0.00     0.187 C 
BRANCH  13  14
ATOM     14  O   UNL     1      27.382   0.204 106.759  1.00  0.00    -0.392 OA
ATOM     15  H   UNL     1      26.437   0.241 106.454  1.00  0.00     0.211 HD
ENDBRANCH  13  14
ENDBRANCH   9  13
ENDBRANCH   1   2
BRANCH   1  16
ATOM     16  C   UNL     1      30.135   3.674 104.154  1.00  0.00     0.286 C 
ATOM     17  C   UNL     1      30.191   4.140 105.628  1.00  0.00     0.202 C 
ATOM     18  O   UNL     1      31.250   4.160 103.419  1.00  0.00    -0.341 OA
ATOM     19  C   UNL     1      31.536   3.739 106.265  1.00  0.00     0.179 C 
ATOM     20  C   UNL     1      32.479   3.673 103.941  1.00  0.00     0.178 C 
ATOM     21  C   UNL     1      32.712   4.185 105.380  1.00  0.00     0.177 C 
BRANCH  17  22
ATOM     22  O   UNL     1      30.029   5.535 105.697  1.00  0.00    -0.385 OA
ATOM     23  H   UNL     1      29.650   5.735 106.592  1.00  0.00     0.211 HD
ENDBRANCH  17  22
BRANCH  19  24
ATOM     24  O   UNL     1      31.663   4.297 107.547  1.00  0.00    -0.387 OA
ATOM     25  H   UNL     1      31.929   3.560 108.156  1.00  0.00     0.211 HD
ENDBRANCH  19  24
BRANCH  20  26
ATOM     26  C   UNL     1      33.626   4.068 102.995  1.00  0.00     0.191 C 
BRANCH  26  27
ATOM     27  O   UNL     1      33.413   5.332 102.425  1.00  0.00    -0.394 OA
ATOM     28  H   UNL     1      33.588   5.241 101.453  1.00  0.00     0.210 HD
ENDBRANCH  26  27
ENDBRANCH  20  26
BRANCH  21  29
ATOM     29  O   UNL     1      32.823   5.587 105.383  1.00  0.00    -0.387 OA
ATOM     30  H   UNL     1      33.120   5.857 104.475  1.00  0.00     0.211 HD
ENDBRANCH  21  29
ENDBRANCH   1  16
TORSDOF 10
ENDMDL
MODEL 6
REMARK VINA RESULT:    -5.335      2.028      2.722
REMARK INTER + INTRA:          -8.449
REMARK INTER:                  -6.930
REMARK INTRA:                  -1.519
REMARK UNBOUND:                -0.931
REMARK SMILES OCC1=C[C@@H](O)[C@@H]2C=CO[C@H](O[C@@H]3O[C@@H](CO)[C@@H](O)[C@@H](O)[C@H]3O)[C@H]12
REMARK SMILES IDX 12 1 11 2 8 3 9 4 7 5 10 6 24 7 5 8 3 9 4 10 6 11 2 13 1 14
REMARK SMILES IDX 13 16 22 17 14 18 20 19 15 20 18 21 23 22 21 24 16 26 17 27
REMARK SMILES IDX 19 29
REMARK H PARENT 6 12 1 15 23 23 21 25 17 28 19 30
REMARK Flexibility Score: inf
ROOT
ATOM      1  O   UNL     1      29.745   1.546 104.238  1.00  0.00    -0.310 OA
ENDROOT
BRANCH   1   2
ATOM      2  C   UNL     1      29.971   2.935 104.376  1.00  0.00     0.316 C 
ATOM      3  C   UNL     1      31.320   5.317 105.093  1.00  0.00     0.018 C 
ATOM      4  C   UNL     1      30.865   4.495 106.038  1.00  0.00     0.186 C 
ATOM      5  C   UNL     1      31.492   4.880 103.650  1.00  0.00     0.061 C 
ATOM      6  O   UNL     1      30.389   3.228 105.706  1.00  0.00    -0.472 OA
ATOM      7  C   UNL     1      31.035   3.419 103.367  1.00  0.00     0.096 C 
ATOM      8  C   UNL     1      32.992   4.889 103.296  1.00  0.00     0.145 C 
ATOM      9  C   UNL     1      32.323   2.644 103.375  1.00  0.00    -0.036 C 
ATOM     10  C   UNL     1      33.376   3.451 103.342  1.00  0.00     0.007 C 
BRANCH   8  11
ATOM     11  O   UNL     1      33.174   5.386 101.997  1.00  0.00    -0.388 OA
ATOM     12  H   UNL     1      33.962   4.916 101.618  1.00  0.00     0.211 HD
ENDBRANCH   8  11
BRANCH   9  13
ATOM     13  C   UNL     1      32.448   1.157 103.166  1.00  0.00     0.187 C 
BRANCH  13  14
ATOM     14  O   UNL     1      32.742   0.522 104.381  1.00  0.00    -0.392 OA
ATOM     15  H   UNL     1      32.725   1.227 105.080  1.00  0.00     0.211 HD
ENDBRANCH  13  14
ENDBRANCH   9  13
ENDBRANCH   1   2
BRANCH   1  16
ATOM     16  C   UNL     1      29.394   0.942 105.475  1.00  0.00     0.286 C 
ATOM     17  C   UNL     1      27.869   0.682 105.538  1.00  0.00     0.202 C 
ATOM     18  O   UNL     1      30.127  -0.262 105.658  1.00  0.00    -0.341 OA
ATOM     19  C   UNL     1      27.470  -0.409 104.525  1.00  0.00     0.179 C 
ATOM     20  C   UNL     1      29.845  -1.212 104.638  1.00  0.00     0.178 C 
ATOM     21  C   UNL     1      28.365  -1.651 104.683  1.00  0.00     0.177 C 
BRANCH  17  22
ATOM     22  O   UNL     1      27.503   0.284 106.835  1.00  0.00    -0.385 OA
ATOM     23  H   UNL     1      26.929   1.005 107.205  1.00  0.00     0.211 HD
ENDBRANCH  17  22
BRANCH  19  24
ATOM     24  O   UNL     1      26.122  -0.766 104.688  1.00  0.00    -0.387 OA
ATOM     25  H   UNL     1      25.605  -0.239 104.024  1.00  0.00     0.211 HD
ENDBRANCH  19  24
BRANCH  20  26
ATOM     26  C   UNL     1      30.805  -2.405 104.773  1.00  0.00     0.191 C 
BRANCH  26  27
ATOM     27  O   UNL     1      31.946  -2.068 105.517  1.00  0.00    -0.394 OA
ATOM     28  H   UNL     1      32.732  -2.280 104.950  1.00  0.00     0.210 HD
ENDBRANCH  26  27
ENDBRANCH  20  26
BRANCH  21  29
ATOM     29  O   UNL     1      28.089  -2.301 105.899  1.00  0.00    -0.387 OA
ATOM     30  H   UNL     1      27.204  -1.976 106.208  1.00  0.00     0.211 HD
ENDBRANCH  21  29
ENDBRANCH   1  16
TORSDOF 10
ENDMDL
MODEL 7
REMARK VINA RESULT:    -5.311      6.043     10.553
REMARK INTER + INTRA:          -8.415
REMARK INTER:                  -6.906
REMARK INTRA:                  -1.509
REMARK UNBOUND:                -0.931
REMARK SMILES OCC1=C[C@@H](O)[C@@H]2C=CO[C@H](O[C@@H]3O[C@@H](CO)[C@@H](O)[C@@H](O)[C@H]3O)[C@H]12
REMARK SMILES IDX 12 1 11 2 8 3 9 4 7 5 10 6 24 7 5 8 3 9 4 10 6 11 2 13 1 14
REMARK SMILES IDX 13 16 22 17 14 18 20 19 15 20 18 21 23 22 21 24 16 26 17 27
REMARK SMILES IDX 19 29
REMARK H PARENT 6 12 1 15 23 23 21 25 17 28 19 30
REMARK Flexibility Score: inf
ROOT
ATOM      1  O   UNL     1      24.742  -3.155 101.365  1.00  0.00    -0.310 OA
ENDROOT
BRANCH   1   2
ATOM      2  C   UNL     1      23.358  -3.406 101.221  1.00  0.00     0.316 C 
ATOM      3  C   UNL     1      21.005  -4.760 100.422  1.00  0.00     0.018 C 
ATOM      4  C   UNL     1      21.806  -4.213  99.508  1.00  0.00     0.186 C 
ATOM      5  C   UNL     1      21.461  -5.029 101.844  1.00  0.00     0.061 C 
ATOM      6  O   UNL     1      23.063  -3.730  99.866  1.00  0.00    -0.472 OA
ATOM      7  C   UNL     1      22.911  -4.556 102.150  1.00  0.00     0.096 C 
ATOM      8  C   UNL     1      21.493  -6.552 102.083  1.00  0.00     0.145 C 
ATOM      9  C   UNL     1      23.719  -5.819 102.038  1.00  0.00    -0.036 C 
ATOM     10  C   UNL     1      22.941  -6.893 101.997  1.00  0.00     0.007 C 
BRANCH   8  11
ATOM     11  O   UNL     1      21.014  -6.844 103.369  1.00  0.00    -0.388 OA
ATOM     12  H   UNL     1      20.377  -6.121 103.608  1.00  0.00     0.211 HD
ENDBRANCH   8  11
BRANCH   9  13
ATOM     13  C   UNL     1      25.211  -5.920 102.225  1.00  0.00     0.187 C 
BRANCH  13  14
ATOM     14  O   UNL     1      25.839  -6.136 100.991  1.00  0.00    -0.392 OA
ATOM     15  H   UNL     1      26.696  -6.599 101.187  1.00  0.00     0.211 HD
ENDBRANCH  13  14
ENDBRANCH   9  13
ENDBRANCH   1   2
BRANCH   1  16
ATOM     16  C   UNL     1      25.332  -2.730 100.144  1.00  0.00     0.286 C 
ATOM     17  C   UNL     1      25.570  -1.201 100.161  1.00  0.00     0.202 C 
ATOM     18  O   UNL     1      26.545  -3.435  99.915  1.00  0.00    -0.341 OA
ATOM     19  C   UNL     1      26.662  -0.840 101.186  1.00  0.00     0.179 C 
ATOM     20  C   UNL     1      27.498  -3.194 100.942  1.00  0.00     0.178 C 
ATOM     21  C   UNL     1      27.916  -1.707 100.973  1.00  0.00     0.177 C 
BRANCH  17  22
ATOM     22  O   UNL     1      25.953  -0.761  98.882  1.00  0.00    -0.385 OA
ATOM     23  H   UNL     1      26.071   0.224  98.941  1.00  0.00     0.211 HD
ENDBRANCH  17  22
BRANCH  19  24
ATOM     24  O   UNL     1      26.999   0.520 101.092  1.00  0.00    -0.387 OA
ATOM     25  H   UNL     1      27.685   0.597 100.379  1.00  0.00     0.211 HD
ENDBRANCH  19  24
BRANCH  20  26
ATOM     26  C   UNL     1      28.704  -4.128 100.748  1.00  0.00     0.191 C 
BRANCH  26  27
ATOM     27  O   UNL     1      28.395  -5.198  99.894  1.00  0.00    -0.394 OA
ATOM     28  H   UNL     1      28.778  -6.014 100.308  1.00  0.00     0.210 HD
ENDBRANCH  26  27
ENDBRANCH  20  26
BRANCH  21  29
ATOM     29  O   UNL     1      28.553  -1.358  99.769  1.00  0.00    -0.387 OA
ATOM     30  H   UNL     1      29.098  -0.549  99.953  1.00  0.00     0.211 HD
ENDBRANCH  21  29
ENDBRANCH   1  16
TORSDOF 10
ENDMDL
MODEL 8
REMARK VINA RESULT:    -5.278      5.821      8.949
REMARK INTER + INTRA:          -8.368
REMARK INTER:                  -6.893
REMARK INTRA:                  -1.475
REMARK UNBOUND:                -0.931
REMARK SMILES OCC1=C[C@@H](O)[C@@H]2C=CO[C@H](O[C@@H]3O[C@@H](CO)[C@@H](O)[C@@H](O)[C@H]3O)[C@H]12
REMARK SMILES IDX 12 1 11 2 8 3 9 4 7 5 10 6 24 7 5 8 3 9 4 10 6 11 2 13 1 14
REMARK SMILES IDX 13 16 22 17 14 18 20 19 15 20 18 21 23 22 21 24 16 26 17 27
REMARK SMILES IDX 19 29
REMARK H PARENT 6 12 1 15 23 23 21 25 17 28 19 30
REMARK Flexibility Score: inf
ROOT
ATOM      1  O   UNL     1      23.763  -3.367 101.549  1.00  0.00    -0.310 OA
ENDROOT
BRANCH   1   2
ATOM      2  C   UNL     1      24.072  -1.992 101.656  1.00  0.00     0.316 C 
ATOM      3  C   UNL     1      24.458   0.524 102.896  1.00  0.00     0.018 C 
ATOM      4  C   UNL     1      23.237  -0.006 102.822  1.00  0.00     0.186 C 
ATOM      5  C   UNL     1      25.715  -0.301 102.689  1.00  0.00     0.061 C 
ATOM      6  O   UNL     1      23.061  -1.325 102.407  1.00  0.00    -0.472 OA
ATOM      7  C   UNL     1      25.449  -1.791 102.327  1.00  0.00     0.096 C 
ATOM      8  C   UNL     1      26.501  -0.361 104.014  1.00  0.00     0.145 C 
ATOM      9  C   UNL     1      25.632  -2.505 103.637  1.00  0.00    -0.036 C 
ATOM     10  C   UNL     1      26.198  -1.719 104.545  1.00  0.00     0.007 C 
BRANCH   8  11
ATOM     11  O   UNL     1      27.876  -0.248 103.759  1.00  0.00    -0.388 OA
ATOM     12  H   UNL     1      28.012  -0.496 102.807  1.00  0.00     0.211 HD
ENDBRANCH   8  11
BRANCH   9  13
ATOM     13  C   UNL     1      25.469  -3.987 103.853  1.00  0.00     0.187 C 
BRANCH  13  14
ATOM     14  O   UNL     1      24.206  -4.261 104.395  1.00  0.00    -0.392 OA
ATOM     15  H   UNL     1      23.539  -3.898 103.754  1.00  0.00     0.211 HD
ENDBRANCH  13  14
ENDBRANCH   9  13
ENDBRANCH   1   2
BRANCH   1  16
ATOM     16  C   UNL     1      22.364  -3.587 101.434  1.00  0.00     0.286 C 
ATOM     17  C   UNL     1      21.964  -3.766  99.950  1.00  0.00     0.202 C 
ATOM     18  O   UNL     1      21.981  -4.717 102.208  1.00  0.00    -0.341 OA
ATOM     19  C   UNL     1      22.541  -5.082  99.394  1.00  0.00     0.179 C 
ATOM     20  C   UNL     1      22.626  -5.904 101.764  1.00  0.00     0.178 C 
ATOM     21  C   UNL     1      22.199  -6.261 100.323  1.00  0.00     0.177 C 
BRANCH  17  22
ATOM     22  O   UNL     1      20.564  -3.771  99.827  1.00  0.00    -0.385 OA
ATOM     23  H   UNL     1      20.209  -3.211 100.568  1.00  0.00     0.211 HD
ENDBRANCH  17  22
BRANCH  19  24
ATOM     24  O   UNL     1      22.050  -5.332  98.102  1.00  0.00    -0.387 OA
ATOM     25  H   UNL     1      22.599  -6.069  97.725  1.00  0.00     0.211 HD
ENDBRANCH  19  24
BRANCH  20  26
ATOM     26  C   UNL     1      22.330  -7.044 102.752  1.00  0.00     0.191 C 
BRANCH  26  27
ATOM     27  O   UNL     1      20.991  -7.028 103.173  1.00  0.00    -0.394 OA
ATOM     28  H   UNL     1      20.487  -7.610 102.548  1.00  0.00     0.210 HD
ENDBRANCH  26  27
ENDBRANCH  20  26
BRANCH  21  29
ATOM     29  O   UNL     1      20.821  -6.534 100.279  1.00  0.00    -0.387 OA
ATOM     30  H   UNL     1      20.375  -5.879 100.877  1.00  0.00     0.211 HD
ENDBRANCH  21  29
ENDBRANCH   1  16
TORSDOF 10
ENDMDL
MODEL 9
REMARK VINA RESULT:    -4.573      1.804      6.449
REMARK INTER + INTRA:          -7.375
REMARK INTER:                  -6.169
REMARK INTRA:                  -1.206
REMARK UNBOUND:                -0.931
REMARK SMILES OCC1=C[C@@H](O)[C@@H]2C=CO[C@H](O[C@@H]3O[C@@H](CO)[C@@H](O)[C@@H](O)[C@H]3O)[C@H]12
REMARK SMILES IDX 12 1 11 2 8 3 9 4 7 5 10 6 24 7 5 8 3 9 4 10 6 11 2 13 1 14
REMARK SMILES IDX 13 16 22 17 14 18 20 19 15 20 18 21 23 22 21 24 16 26 17 27
REMARK SMILES IDX 19 29
REMARK H PARENT 6 12 1 15 23 23 21 25 17 28 19 30
REMARK Flexibility Score: inf
ROOT
ATOM      1  O   UNL     1      30.323   2.567 103.588  1.00  0.00    -0.310 OA
ENDROOT
BRANCH   1   2
ATOM      2  C   UNL     1      30.198   1.299 102.976  1.00  0.00     0.316 C 
ATOM      3  C   UNL     1      29.147  -1.281 102.472  1.00  0.00     0.018 C 
ATOM      4  C   UNL     1      29.757  -1.021 103.628  1.00  0.00     0.186 C 
ATOM      5  C   UNL     1      28.647  -0.181 101.552  1.00  0.00     0.061 C 
ATOM      6  O   UNL     1      30.091   0.287 103.974  1.00  0.00    -0.472 OA
ATOM      7  C   UNL     1      28.965   1.259 102.047  1.00  0.00     0.096 C 
ATOM      8  C   UNL     1      27.108  -0.238 101.489  1.00  0.00     0.145 C 
ATOM      9  C   UNL     1      27.674   1.701 102.679  1.00  0.00    -0.036 C 
ATOM     10  C   UNL     1      26.677   0.880 102.375  1.00  0.00     0.007 C 
BRANCH   8  11
ATOM     11  O   UNL     1      26.674   0.003 100.177  1.00  0.00    -0.388 OA
ATOM     12  H   UNL     1      27.471  -0.085  99.591  1.00  0.00     0.211 HD
ENDBRANCH   8  11
BRANCH   9  13
ATOM     13  C   UNL     1      27.438   3.034 103.342  1.00  0.00     0.187 C 
BRANCH  13  14
ATOM     14  O   UNL     1      27.612   2.922 104.728  1.00  0.00    -0.392 OA
ATOM     15  H   UNL     1      28.274   2.196 104.872  1.00  0.00     0.211 HD
ENDBRANCH  13  14
ENDBRANCH   9  13
ENDBRANCH   1   2
BRANCH   1  16
ATOM     16  C   UNL     1      31.398   2.601 104.518  1.00  0.00     0.286 C 
ATOM     17  C   UNL     1      32.749   2.761 103.780  1.00  0.00     0.202 C 
ATOM     18  O   UNL     1      31.200   3.650 105.456  1.00  0.00    -0.341 OA
ATOM     19  C   UNL     1      32.843   4.156 103.131  1.00  0.00     0.179 C 
ATOM     20  C   UNL     1      31.157   4.923 104.824  1.00  0.00     0.178 C 
ATOM     21  C   UNL     1      32.509   5.255 104.154  1.00  0.00     0.177 C 
BRANCH  17  22
ATOM     22  O   UNL     1      33.812   2.582 104.681  1.00  0.00    -0.385 OA
ATOM     23  H   UNL     1      33.729   1.661 105.044  1.00  0.00     0.211 HD
ENDBRANCH  17  22
BRANCH  19  24
ATOM     24  O   UNL     1      34.125   4.369 102.599  1.00  0.00    -0.387 OA
ATOM     25  H   UNL     1      34.097   4.066 101.654  1.00  0.00     0.211 HD
ENDBRANCH  19  24
BRANCH  20  26
ATOM     26  C   UNL     1      30.746   5.990 105.853  1.00  0.00     0.191 C 
BRANCH  26  27
ATOM     27  O   UNL     1      31.402   5.804 107.079  1.00  0.00    -0.394 OA
ATOM     28  H   UNL     1      32.219   6.367 107.055  1.00  0.00     0.210 HD
ENDBRANCH  26  27
ENDBRANCH  20  26
BRANCH  21  29
ATOM     29  O   UNL     1      33.522   5.343 105.126  1.00  0.00    -0.387 OA
ATOM     30  H   UNL     1      33.132   5.028 105.982  1.00  0.00     0.211 HD
ENDBRANCH  21  29
ENDBRANCH   1  16
TORSDOF 10
ENDMDL
