MODEL 1
REMARK VINA RESULT:    -3.137      0.000      0.000
REMARK INTER + INTRA:          -5.967
REMARK INTER:                  -5.521
REMARK INTRA:                  -0.446
REMARK UNBOUND:                -0.446
REMARK SMILES CCCCCCCCCCCCCCC(=O)[O-]
REMARK SMILES IDX 9 1 10 2 11 3 12 4 13 5 14 6 15 7 16 8 17 9 8 10 7 11 6 12
REMARK SMILES IDX 5 13 4 14 3 15 2 16 1 17
REMARK H PARENT
REMARK Flexibility Score: inf
ROOT
ATOM      1  C   UNL     1      12.780   9.303  15.319  1.00  0.00     0.000 C 
ENDROOT
BRANCH   1   2
ATOM      2  C   UNL     1      13.221  10.738  14.978  1.00  0.00     0.000 C 
BRANCH   2   3
ATOM      3  C   UNL     1      12.047  11.647  14.586  1.00  0.00     0.000 C 
BRANCH   3   4
ATOM      4  C   UNL     1      12.107  12.978  15.346  1.00  0.00     0.000 C 
BRANCH   4   5
ATOM      5  C   UNL     1      13.266  13.847  14.843  1.00  0.00     0.006 C 
BRANCH   5   6
ATOM      6  C   UNL     1      13.182  14.050  13.327  1.00  0.00     0.053 C 
BRANCH   6   7
ATOM      7  C   UNL     1      13.269  15.505  12.988  1.00  0.00     0.041 C 
ATOM      8  O   UNL     1      13.303  16.368  13.904  1.00  0.00    -0.550 OA
ATOM      9  O   UNL     1      13.262  15.910  11.659  1.00  0.00    -0.550 OA
ENDBRANCH   6   7
ENDBRANCH   5   6
ENDBRANCH   4   5
ENDBRANCH   3   4
ENDBRANCH   2   3
ENDBRANCH   1   2
BRANCH   1  10
ATOM     10  C   UNL     1      13.889   8.237  15.208  1.00  0.00     0.000 C 
BRANCH  10  11
ATOM     11  C   UNL     1      13.490   6.829  15.691  1.00  0.00    -0.000 C 
BRANCH  11  12
ATOM     12  C   UNL     1      12.420   6.803  16.801  1.00  0.00    -0.000 C 
BRANCH  12  13
ATOM     13  C   UNL     1      12.910   6.286  18.168  1.00  0.00    -0.000 C 
BRANCH  13  14
ATOM     14  C   UNL     1      12.535   4.827  18.485  1.00  0.00    -0.000 C 
BRANCH  14  15
ATOM     15  C   UNL     1      11.829   4.674  19.840  1.00  0.00    -0.000 C 
BRANCH  15  16
ATOM     16  C   UNL     1      11.724   3.197  20.239  1.00  0.00    -0.003 C 
ATOM     17  C   UNL     1      11.889   3.020  21.746  1.00  0.00     0.004 C 
ENDBRANCH  15  16
ENDBRANCH  14  15
ENDBRANCH  13  14
ENDBRANCH  12  13
ENDBRANCH  11  12
ENDBRANCH  10  11
ENDBRANCH   1  10
TORSDOF 13
ENDMDL
MODEL 2
REMARK VINA RESULT:    -3.055      0.798      1.310
REMARK INTER + INTRA:          -5.823
REMARK INTER:                  -5.450
REMARK INTRA:                  -0.373
REMARK UNBOUND:                -0.446
REMARK SMILES CCCCCCCCCCCCCCC(=O)[O-]
REMARK SMILES IDX 9 1 10 2 11 3 12 4 13 5 14 6 15 7 16 8 17 9 8 10 7 11 6 12
REMARK SMILES IDX 5 13 4 14 3 15 2 16 1 17
REMARK H PARENT
REMARK Flexibility Score: inf
ROOT
ATOM      1  C   UNL     1      12.691   9.823  15.370  1.00  0.00     0.000 C 
ENDROOT
BRANCH   1   2
ATOM      2  C   UNL     1      13.085  11.308  15.279  1.00  0.00     0.000 C 
BRANCH   2   3
ATOM      3  C   UNL     1      12.018  12.168  14.586  1.00  0.00     0.000 C 
BRANCH   3   4
ATOM      4  C   UNL     1      12.070  11.987  13.065  1.00  0.00     0.000 C 
BRANCH   4   5
ATOM      5  C   UNL     1      12.514  13.282  12.371  1.00  0.00     0.006 C 
BRANCH   5   6
ATOM      6  C   UNL     1      13.217  14.219  13.357  1.00  0.00     0.053 C 
BRANCH   6   7
ATOM      7  C   UNL     1      13.331  15.595  12.781  1.00  0.00     0.041 C 
ATOM      8  O   UNL     1      12.968  15.818  11.596  1.00  0.00    -0.550 OA
ATOM      9  O   UNL     1      13.884  16.621  13.536  1.00  0.00    -0.550 OA
ENDBRANCH   6   7
ENDBRANCH   5   6
ENDBRANCH   4   5
ENDBRANCH   3   4
ENDBRANCH   2   3
ENDBRANCH   1   2
BRANCH   1  10
ATOM     10  C   UNL     1      13.866   8.829  15.266  1.00  0.00     0.000 C 
BRANCH  10  11
ATOM     11  C   UNL     1      13.471   7.342  15.351  1.00  0.00    -0.000 C 
BRANCH  11  12
ATOM     12  C   UNL     1      12.591   6.972  16.562  1.00  0.00    -0.000 C 
BRANCH  12  13
ATOM     13  C   UNL     1      12.902   5.605  17.201  1.00  0.00    -0.000 C 
BRANCH  13  14
ATOM     14  C   UNL     1      12.542   5.487  18.693  1.00  0.00    -0.000 C 
BRANCH  14  15
ATOM     15  C   UNL     1      12.312   4.035  19.139  1.00  0.00    -0.000 C 
BRANCH  15  16
ATOM     16  C   UNL     1      11.279   3.967  20.270  1.00  0.00    -0.003 C 
ATOM     17  C   UNL     1      11.830   3.210  21.475  1.00  0.00     0.004 C 
ENDBRANCH  15  16
ENDBRANCH  14  15
ENDBRANCH  13  14
ENDBRANCH  12  13
ENDBRANCH  11  12
ENDBRANCH  10  11
ENDBRANCH   1  10
TORSDOF 13
ENDMDL
MODEL 3
REMARK VINA RESULT:    -2.971      0.563      1.279
REMARK INTER + INTRA:          -5.675
REMARK INTER:                  -5.106
REMARK INTRA:                  -0.569
REMARK UNBOUND:                -0.446
REMARK SMILES CCCCCCCCCCCCCCC(=O)[O-]
REMARK SMILES IDX 9 1 10 2 11 3 12 4 13 5 14 6 15 7 16 8 17 9 8 10 7 11 6 12
REMARK SMILES IDX 5 13 4 14 3 15 2 16 1 17
REMARK H PARENT
REMARK Flexibility Score: inf
ROOT
ATOM      1  C   UNL     1      13.222  10.290  14.971  1.00  0.00     0.000 C 
ENDROOT
BRANCH   1   2
ATOM      2  C   UNL     1      11.983  11.002  14.400  1.00  0.00     0.000 C 
BRANCH   2   3
ATOM      3  C   UNL     1      11.723  12.366  15.055  1.00  0.00     0.000 C 
BRANCH   3   4
ATOM      4  C   UNL     1      13.029  12.992  15.556  1.00  0.00     0.000 C 
BRANCH   4   5
ATOM      5  C   UNL     1      13.269  14.360  14.905  1.00  0.00     0.006 C 
BRANCH   5   6
ATOM      6  C   UNL     1      13.285  14.246  13.379  1.00  0.00     0.053 C 
BRANCH   6   7
ATOM      7  C   UNL     1      13.331  15.604  12.752  1.00  0.00     0.041 C 
ATOM      8  O   UNL     1      12.910  15.775  11.578  1.00  0.00    -0.550 OA
ATOM      9  O   UNL     1      13.885  16.672  13.447  1.00  0.00    -0.550 OA
ENDBRANCH   6   7
ENDBRANCH   5   6
ENDBRANCH   4   5
ENDBRANCH   3   4
ENDBRANCH   2   3
ENDBRANCH   1   2
BRANCH   1  10
ATOM     10  C   UNL     1      12.931   8.973  15.719  1.00  0.00     0.000 C 
BRANCH  10  11
ATOM     11  C   UNL     1      13.601   7.721  15.121  1.00  0.00    -0.000 C 
BRANCH  11  12
ATOM     12  C   UNL     1      13.512   6.455  15.996  1.00  0.00    -0.000 C 
BRANCH  12  13
ATOM     13  C   UNL     1      12.375   6.460  17.037  1.00  0.00    -0.000 C 
BRANCH  13  14
ATOM     14  C   UNL     1      12.793   6.046  18.459  1.00  0.00    -0.000 C 
BRANCH  14  15
ATOM     15  C   UNL     1      12.490   4.572  18.765  1.00  0.00    -0.000 C 
BRANCH  15  16
ATOM     16  C   UNL     1      11.394   4.447  19.829  1.00  0.00    -0.003 C 
ATOM     17  C   UNL     1      11.725   3.348  20.836  1.00  0.00     0.004 C 
ENDBRANCH  15  16
ENDBRANCH  14  15
ENDBRANCH  13  14
ENDBRANCH  12  13
ENDBRANCH  11  12
ENDBRANCH  10  11
ENDBRANCH   1  10
TORSDOF 13
ENDMDL
MODEL 4
REMARK VINA RESULT:    -2.561      5.162     10.257
REMARK INTER + INTRA:          -4.953
REMARK INTER:                  -4.489
REMARK INTRA:                  -0.464
REMARK UNBOUND:                -0.446
REMARK SMILES CCCCCCCCCCCCCCC(=O)[O-]
REMARK SMILES IDX 9 1 10 2 11 3 12 4 13 5 14 6 15 7 16 8 17 9 8 10 7 11 6 12
REMARK SMILES IDX 5 13 4 14 3 15 2 16 1 17
REMARK H PARENT
REMARK Flexibility Score: inf
ROOT
ATOM      1  C   UNL     1      13.954   8.740  15.166  1.00  0.00     0.000 C 
ENDROOT
BRANCH   1   2
ATOM      2  C   UNL     1      13.642   7.240  15.318  1.00  0.00     0.000 C 
BRANCH   2   3
ATOM      3  C   UNL     1      12.685   6.944  16.482  1.00  0.00     0.000 C 
BRANCH   3   4
ATOM      4  C   UNL     1      12.918   5.534  17.038  1.00  0.00     0.000 C 
BRANCH   4   5
ATOM      5  C   UNL     1      13.021   5.556  18.568  1.00  0.00     0.006 C 
BRANCH   5   6
ATOM      6  C   UNL     1      11.722   5.065  19.213  1.00  0.00     0.053 C 
BRANCH   6   7
ATOM      7  C   UNL     1      11.913   3.703  19.804  1.00  0.00     0.041 C 
ATOM      8  O   UNL     1      12.318   2.752  19.086  1.00  0.00    -0.550 OA
ATOM      9  O   UNL     1      11.597   3.474  21.137  1.00  0.00    -0.550 OA
ENDBRANCH   6   7
ENDBRANCH   5   6
ENDBRANCH   4   5
ENDBRANCH   3   4
ENDBRANCH   2   3
ENDBRANCH   1   2
BRANCH   1  10
ATOM     10  C   UNL     1      12.753   9.681  15.390  1.00  0.00     0.000 C 
BRANCH  10  11
ATOM     11  C   UNL     1      12.777  10.977  14.557  1.00  0.00    -0.000 C 
BRANCH  11  12
ATOM     12  C   UNL     1      12.214  12.220  15.275  1.00  0.00    -0.000 C 
BRANCH  12  13
ATOM     13  C   UNL     1      13.245  13.330  15.563  1.00  0.00    -0.000 C 
BRANCH  13  14
ATOM     14  C   UNL     1      13.116  14.583  14.679  1.00  0.00    -0.000 C 
BRANCH  14  15
ATOM     15  C   UNL     1      13.173  14.263  13.177  1.00  0.00    -0.000 C 
BRANCH  15  16
ATOM     16  C   UNL     1      13.209  15.549  12.344  1.00  0.00    -0.003 C 
ATOM     17  C   UNL     1      13.856  16.693  13.121  1.00  0.00     0.004 C 
ENDBRANCH  15  16
ENDBRANCH  14  15
ENDBRANCH  13  14
ENDBRANCH  12  13
ENDBRANCH  11  12
ENDBRANCH  10  11
ENDBRANCH   1  10
TORSDOF 13
ENDMDL
MODEL 5
REMARK VINA RESULT:    -2.275      5.171     10.208
REMARK INTER + INTRA:          -4.450
REMARK INTER:                  -3.975
REMARK INTRA:                  -0.475
REMARK UNBOUND:                -0.446
REMARK SMILES CCCCCCCCCCCCCCC(=O)[O-]
REMARK SMILES IDX 9 1 10 2 11 3 12 4 13 5 14 6 15 7 16 8 17 9 8 10 7 11 6 12
REMARK SMILES IDX 5 13 4 14 3 15 2 16 1 17
REMARK H PARENT
REMARK Flexibility Score: inf
ROOT
ATOM      1  C   UNL     1      13.084   8.911  15.670  1.00  0.00     0.000 C 
ENDROOT
BRANCH   1   2
ATOM      2  C   UNL     1      13.956   7.746  15.168  1.00  0.00     0.000 C 
BRANCH   2   3
ATOM      3  C   UNL     1      13.429   6.372  15.609  1.00  0.00     0.000 C 
BRANCH   3   4
ATOM      4  C   UNL     1      12.760   6.457  16.986  1.00  0.00     0.000 C 
BRANCH   4   5
ATOM      5  C   UNL     1      12.839   5.113  17.720  1.00  0.00     0.006 C 
BRANCH   5   6
ATOM      6  C   UNL     1      12.177   5.201  19.098  1.00  0.00     0.053 C 
BRANCH   6   7
ATOM      7  C   UNL     1      11.963   3.832  19.664  1.00  0.00     0.041 C 
ATOM      8  O   UNL     1      11.439   3.692  20.800  1.00  0.00    -0.550 OA
ATOM      9  O   UNL     1      12.387   2.714  18.958  1.00  0.00    -0.550 OA
ENDBRANCH   6   7
ENDBRANCH   5   6
ENDBRANCH   4   5
ENDBRANCH   3   4
ENDBRANCH   2   3
ENDBRANCH   1   2
BRANCH   1  10
ATOM     10  C   UNL     1      12.835  10.030  14.638  1.00  0.00     0.000 C 
BRANCH  10  11
ATOM     11  C   UNL     1      12.799  11.456  15.220  1.00  0.00    -0.000 C 
BRANCH  11  12
ATOM     12  C   UNL     1      11.752  12.391  14.583  1.00  0.00    -0.000 C 
BRANCH  12  13
ATOM     13  C   UNL     1      11.851  12.536  13.051  1.00  0.00    -0.000 C 
BRANCH  13  14
ATOM     14  C   UNL     1      12.775  13.667  12.563  1.00  0.00    -0.000 C 
BRANCH  14  15
ATOM     15  C   UNL     1      13.381  14.482  13.715  1.00  0.00    -0.000 C 
BRANCH  15  16
ATOM     16  C   UNL     1      13.249  15.986  13.450  1.00  0.00    -0.003 C 
ATOM     17  C   UNL     1      13.342  16.294  11.958  1.00  0.00     0.004 C 
ENDBRANCH  15  16
ENDBRANCH  14  15
ENDBRANCH  13  14
ENDBRANCH  12  13
ENDBRANCH  11  12
ENDBRANCH  10  11
ENDBRANCH   1  10
TORSDOF 13
ENDMDL
MODEL 6
REMARK VINA RESULT:    -2.208      1.827      2.464
REMARK INTER + INTRA:          -4.332
REMARK INTER:                  -3.603
REMARK INTRA:                  -0.728
REMARK UNBOUND:                -0.446
REMARK SMILES CCCCCCCCCCCCCCC(=O)[O-]
REMARK SMILES IDX 9 1 10 2 11 3 12 4 13 5 14 6 15 7 16 8 17 9 8 10 7 11 6 12
REMARK SMILES IDX 5 13 4 14 3 15 2 16 1 17
REMARK H PARENT
REMARK Flexibility Score: inf
ROOT
ATOM      1  C   UNL     1      13.142  11.231  15.484  1.00  0.00     0.000 C 
ENDROOT
BRANCH   1   2
ATOM      2  C   UNL     1      12.358  12.375  14.816  1.00  0.00     0.000 C 
BRANCH   2   3
ATOM      3  C   UNL     1      11.324  11.875  13.796  1.00  0.00     0.000 C 
BRANCH   3   4
ATOM      4  C   UNL     1      11.653  12.385  12.387  1.00  0.00     0.000 C 
BRANCH   4   5
ATOM      5  C   UNL     1      12.902  13.274  12.402  1.00  0.00     0.006 C 
BRANCH   5   6
ATOM      6  C   UNL     1      12.569  14.696  11.942  1.00  0.00     0.053 C 
BRANCH   6   7
ATOM      7  C   UNL     1      13.259  15.702  12.808  1.00  0.00     0.041 C 
ATOM      8  O   UNL     1      13.930  16.632  12.288  1.00  0.00    -0.550 OA
ATOM      9  O   UNL     1      13.202  15.585  14.191  1.00  0.00    -0.550 OA
ENDBRANCH   6   7
ENDBRANCH   5   6
ENDBRANCH   4   5
ENDBRANCH   3   4
ENDBRANCH   2   3
ENDBRANCH   1   2
BRANCH   1  10
ATOM     10  C   UNL     1      12.688   9.811  15.088  1.00  0.00     0.000 C 
BRANCH  10  11
ATOM     11  C   UNL     1      13.819   8.771  14.981  1.00  0.00    -0.000 C 
BRANCH  11  12
ATOM     12  C   UNL     1      13.434   7.345  15.421  1.00  0.00    -0.000 C 
BRANCH  12  13
ATOM     13  C   UNL     1      12.615   7.262  16.724  1.00  0.00    -0.000 C 
BRANCH  13  14
ATOM     14  C   UNL     1      12.859   5.998  17.567  1.00  0.00    -0.000 C 
BRANCH  14  15
ATOM     15  C   UNL     1      12.591   4.701  16.789  1.00  0.00    -0.000 C 
BRANCH  15  16
ATOM     16  C   UNL     1      13.813   3.775  16.831  1.00  0.00    -0.003 C 
ATOM     17  C   UNL     1      13.412   2.350  17.204  1.00  0.00     0.004 C 
ENDBRANCH  15  16
ENDBRANCH  14  15
ENDBRANCH  13  14
ENDBRANCH  12  13
ENDBRANCH  11  12
ENDBRANCH  10  11
ENDBRANCH   1  10
TORSDOF 13
ENDMDL
MODEL 7
REMARK VINA RESULT:    -2.023      4.437      9.372
REMARK INTER + INTRA:          -4.007
REMARK INTER:                  -2.938
REMARK INTRA:                  -1.069
REMARK UNBOUND:                -0.446
REMARK SMILES CCCCCCCCCCCCCCC(=O)[O-]
REMARK SMILES IDX 9 1 10 2 11 3 12 4 13 5 14 6 15 7 16 8 17 9 8 10 7 11 6 12
REMARK SMILES IDX 5 13 4 14 3 15 2 16 1 17
REMARK H PARENT
REMARK Flexibility Score: inf
ROOT
ATOM      1  C   UNL     1      12.063  12.265  15.075  1.00  0.00     0.000 C 
ENDROOT
BRANCH   1   2
ATOM      2  C   UNL     1      12.077  10.802  14.596  1.00  0.00     0.000 C 
BRANCH   2   3
ATOM      3  C   UNL     1      12.961   9.897  15.466  1.00  0.00     0.000 C 
BRANCH   3   4
ATOM      4  C   UNL     1      13.246   8.566  14.760  1.00  0.00     0.000 C 
BRANCH   4   5
ATOM      5  C   UNL     1      13.660   7.486  15.767  1.00  0.00     0.006 C 
BRANCH   5   6
ATOM      6  C   UNL     1      12.436   6.897  16.474  1.00  0.00     0.053 C 
BRANCH   6   7
ATOM      7  C   UNL     1      12.856   5.873  17.482  1.00  0.00     0.041 C 
ATOM      8  O   UNL     1      13.046   4.680  17.130  1.00  0.00    -0.550 OA
ATOM      9  O   UNL     1      12.989   6.227  18.818  1.00  0.00    -0.550 OA
ENDBRANCH   6   7
ENDBRANCH   5   6
ENDBRANCH   4   5
ENDBRANCH   3   4
ENDBRANCH   2   3
ENDBRANCH   1   2
BRANCH   1  10
ATOM     10  C   UNL     1      13.344  12.725  15.802  1.00  0.00     0.000 C 
BRANCH  10  11
ATOM     11  C   UNL     1      13.830  14.140  15.434  1.00  0.00    -0.000 C 
BRANCH  11  12
ATOM     12  C   UNL     1      12.763  15.045  14.788  1.00  0.00    -0.000 C 
BRANCH  12  13
ATOM     13  C   UNL     1      13.307  16.087  13.791  1.00  0.00    -0.000 C 
BRANCH  13  14
ATOM     14  C   UNL     1      13.410  15.601  12.334  1.00  0.00    -0.000 C 
BRANCH  14  15
ATOM     15  C   UNL     1      12.255  14.672  11.931  1.00  0.00    -0.000 C 
BRANCH  15  16
ATOM     16  C   UNL     1      12.738  13.223  11.800  1.00  0.00    -0.003 C 
ATOM     17  C   UNL     1      11.627  12.317  11.276  1.00  0.00     0.004 C 
ENDBRANCH  15  16
ENDBRANCH  14  15
ENDBRANCH  13  14
ENDBRANCH  12  13
ENDBRANCH  11  12
ENDBRANCH  10  11
ENDBRANCH   1  10
TORSDOF 13
ENDMDL
MODEL 8
REMARK VINA RESULT:    -1.450      2.505      4.550
REMARK INTER + INTRA:          -2.998
REMARK INTER:                  -2.454
REMARK INTRA:                  -0.545
REMARK UNBOUND:                -0.446
REMARK SMILES CCCCCCCCCCCCCCC(=O)[O-]
REMARK SMILES IDX 9 1 10 2 11 3 12 4 13 5 14 6 15 7 16 8 17 9 8 10 7 11 6 12
REMARK SMILES IDX 5 13 4 14 3 15 2 16 1 17
REMARK H PARENT
REMARK Flexibility Score: inf
ROOT
ATOM      1  C   UNL     1      12.538   7.359  16.025  1.00  0.00     0.000 C 
ENDROOT
BRANCH   1   2
ATOM      2  C   UNL     1      13.403   8.511  15.485  1.00  0.00     0.000 C 
BRANCH   2   3
ATOM      3  C   UNL     1      12.569   9.687  14.955  1.00  0.00     0.000 C 
BRANCH   3   4
ATOM      4  C   UNL     1      13.245  11.026  15.274  1.00  0.00     0.000 C 
BRANCH   4   5
ATOM      5  C   UNL     1      12.352  12.204  14.864  1.00  0.00     0.006 C 
BRANCH   5   6
ATOM      6  C   UNL     1      13.091  13.535  15.029  1.00  0.00     0.053 C 
BRANCH   6   7
ATOM      7  C   UNL     1      13.111  14.286  13.735  1.00  0.00     0.041 C 
ATOM      8  O   UNL     1      12.920  13.681  12.648  1.00  0.00    -0.550 OA
ATOM      9  O   UNL     1      13.390  15.647  13.725  1.00  0.00    -0.550 OA
ENDBRANCH   6   7
ENDBRANCH   5   6
ENDBRANCH   4   5
ENDBRANCH   3   4
ENDBRANCH   2   3
ENDBRANCH   1   2
BRANCH   1  10
ATOM     10  C   UNL     1      13.182   6.538  17.162  1.00  0.00     0.000 C 
BRANCH  10  11
ATOM     11  C   UNL     1      12.939   5.019  17.087  1.00  0.00    -0.000 C 
BRANCH  11  12
ATOM     12  C   UNL     1      13.758   4.283  16.007  1.00  0.00    -0.000 C 
BRANCH  12  13
ATOM     13  C   UNL     1      14.866   5.124  15.342  1.00  0.00    -0.000 C 
BRANCH  13  14
ATOM     14  C   UNL     1      14.665   5.395  13.840  1.00  0.00    -0.000 C 
BRANCH  14  15
ATOM     15  C   UNL     1      15.793   4.816  12.974  1.00  0.00    -0.000 C 
BRANCH  15  16
ATOM     16  C   UNL     1      16.988   4.396  13.838  1.00  0.00    -0.003 C 
ATOM     17  C   UNL     1      18.142   3.891  12.976  1.00  0.00     0.004 C 
ENDBRANCH  15  16
ENDBRANCH  14  15
ENDBRANCH  13  14
ENDBRANCH  12  13
ENDBRANCH  11  12
ENDBRANCH  10  11
ENDBRANCH   1  10
TORSDOF 13
ENDMDL
MODEL 9
REMARK VINA RESULT:    -1.259      4.421      9.094
REMARK INTER + INTRA:          -2.662
REMARK INTER:                  -1.996
REMARK INTRA:                  -0.666
REMARK UNBOUND:                -0.446
REMARK SMILES CCCCCCCCCCCCCCC(=O)[O-]
REMARK SMILES IDX 9 1 10 2 11 3 12 4 13 5 14 6 15 7 16 8 17 9 8 10 7 11 6 12
REMARK SMILES IDX 5 13 4 14 3 15 2 16 1 17
REMARK H PARENT
REMARK Flexibility Score: inf
ROOT
ATOM      1  C   UNL     1      12.972   7.460  16.557  1.00  0.00     0.000 C 
ENDROOT
BRANCH   1   2
ATOM      2  C   UNL     1      12.374   6.054  16.373  1.00  0.00     0.000 C 
BRANCH   2   3
ATOM      3  C   UNL     1      13.233   4.951  17.010  1.00  0.00     0.000 C 
BRANCH   3   4
ATOM      4  C   UNL     1      14.366   4.527  16.068  1.00  0.00     0.000 C 
BRANCH   4   5
ATOM      5  C   UNL     1      13.992   4.787  14.604  1.00  0.00     0.006 C 
BRANCH   5   6
ATOM      6  C   UNL     1      15.141   5.470  13.857  1.00  0.00     0.053 C 
BRANCH   6   7
ATOM      7  C   UNL     1      15.381   4.800  12.540  1.00  0.00     0.041 C 
ATOM      8  O   UNL     1      16.503   4.291  12.284  1.00  0.00    -0.550 OA
ATOM      9  O   UNL     1      14.380   4.780  11.577  1.00  0.00    -0.550 OA
ENDBRANCH   6   7
ENDBRANCH   5   6
ENDBRANCH   4   5
ENDBRANCH   3   4
ENDBRANCH   2   3
ENDBRANCH   1   2
BRANCH   1  10
ATOM     10  C   UNL     1      13.181   8.254  15.251  1.00  0.00     0.000 C 
BRANCH  10  11
ATOM     11  C   UNL     1      13.236   9.785  15.421  1.00  0.00    -0.000 C 
BRANCH  11  12
ATOM     12  C   UNL     1      12.148  10.563  14.654  1.00  0.00    -0.000 C 
BRANCH  12  13
ATOM     13  C   UNL     1      12.498  12.029  14.333  1.00  0.00    -0.000 C 
BRANCH  13  14
ATOM     14  C   UNL     1      12.911  12.880  15.547  1.00  0.00    -0.000 C 
BRANCH  14  15
ATOM     15  C   UNL     1      13.080  14.368  15.203  1.00  0.00    -0.000 C 
BRANCH  15  16
ATOM     16  C   UNL     1      13.357  14.556  13.707  1.00  0.00    -0.003 C 
ATOM     17  C   UNL     1      13.379  16.036  13.332  1.00  0.00     0.004 C 
ENDBRANCH  15  16
ENDBRANCH  14  15
ENDBRANCH  13  14
ENDBRANCH  12  13
ENDBRANCH  11  12
ENDBRANCH  10  11
ENDBRANCH   1  10
TORSDOF 13
ENDMDL
