MODEL 1
REMARK VINA RESULT:    -5.776      0.000      0.000
REMARK INTER + INTRA:          -7.073
REMARK INTER:                  -6.789
REMARK INTRA:                  -0.284
REMARK UNBOUND:                -0.284
REMARK SMILES O=c1cc(-c2ccc(O)c(O)c2)oc2cc(O)cc(O)c12
REMARK SMILES IDX 4 1 3 2 2 3 1 4 21 5 19 6 18 7 16 8 15 9 14 10 13 11 5 12
REMARK SMILES IDX 6 13 7 14 8 15 12 16 10 17 9 18 11 20 20 22 17 24
REMARK H PARENT 9 19 11 21 20 23 17 25
REMARK Flexibility Score: inf
ROOT
ATOM      1  C   UNL     1      -6.533  -5.021   1.204  1.00  0.00     0.138 A 
ATOM      2  C   UNL     1      -6.893  -6.145   1.961  1.00  0.00     0.100 A 
ATOM      3  C   UNL     1      -8.191  -6.650   1.871  1.00  0.00     0.197 A 
ATOM      4  O   UNL     1      -8.503  -7.621   2.608  1.00  0.00    -0.289 OA
ATOM      5  C   UNL     1      -9.123  -6.044   0.994  1.00  0.00     0.107 A 
ATOM      6  C   UNL     1     -10.460  -6.499   0.790  1.00  0.00     0.134 A 
ATOM      7  C   UNL     1     -11.328  -5.749  -0.015  1.00  0.00     0.093 A 
ATOM      8  C   UNL     1     -10.888  -4.598  -0.671  1.00  0.00     0.123 A 
ATOM      9  C   UNL     1      -9.568  -4.176  -0.521  1.00  0.00     0.094 A 
ATOM     10  C   UNL     1      -8.688  -4.882   0.303  1.00  0.00     0.146 A 
ATOM     11  O   UNL     1      -7.442  -4.438   0.430  1.00  0.00    -0.456 OA
ENDROOT
BRANCH   1  12
ATOM     12  C   UNL     1      -5.166  -4.443   1.262  1.00  0.00     0.021 A 
ATOM     13  C   UNL     1      -4.023  -5.217   0.982  1.00  0.00     0.016 A 
ATOM     14  C   UNL     1      -2.751  -4.643   1.034  1.00  0.00     0.051 A 
ATOM     15  C   UNL     1      -2.595  -3.290   1.356  1.00  0.00     0.157 A 
ATOM     16  C   UNL     1      -5.003  -3.081   1.571  1.00  0.00     0.062 A 
ATOM     17  C   UNL     1      -3.729  -2.506   1.625  1.00  0.00     0.158 A 
BRANCH  15  18
ATOM     18  O   UNL     1      -1.323  -2.722   1.408  1.00  0.00    -0.504 OA
ATOM     19  H   UNL     1      -1.082  -2.025   2.101  1.00  0.00     0.293 HD
ENDBRANCH  15  18
BRANCH  17  20
ATOM     20  O   UNL     1      -3.609  -1.154   1.946  1.00  0.00    -0.504 OA
ATOM     21  H   UNL     1      -4.335  -0.481   1.728  1.00  0.00     0.293 HD
ENDBRANCH  17  20
ENDBRANCH   1  12
BRANCH   6  22
ATOM     22  O   UNL     1     -10.974  -7.681   1.330  1.00  0.00    -0.507 OA
ATOM     23  H   UNL     1     -11.905  -7.789   1.701  1.00  0.00     0.293 HD
ENDBRANCH   6  22
BRANCH   8  24
ATOM     24  O   UNL     1     -11.753  -3.867  -1.483  1.00  0.00    -0.508 OA
ATOM     25  H   UNL     1     -11.553  -3.709  -2.464  1.00  0.00     0.293 HD
ENDBRANCH   8  24
TORSDOF 5
ENDMDL
MODEL 2
REMARK VINA RESULT:    -5.422      0.967      1.652
REMARK INTER + INTRA:          -6.657
REMARK INTER:                  -6.389
REMARK INTRA:                  -0.268
REMARK UNBOUND:                -0.284
REMARK SMILES O=c1cc(-c2ccc(O)c(O)c2)oc2cc(O)cc(O)c12
REMARK SMILES IDX 4 1 3 2 2 3 1 4 21 5 19 6 18 7 16 8 15 9 14 10 13 11 5 12
REMARK SMILES IDX 6 13 7 14 8 15 12 16 10 17 9 18 11 20 20 22 17 24
REMARK H PARENT 9 19 11 21 20 23 17 25
REMARK Flexibility Score: inf
ROOT
ATOM      1  C   UNL     1      -5.925  -4.812   1.284  1.00  0.00     0.138 A 
ATOM      2  C   UNL     1      -6.236  -5.908   2.101  1.00  0.00     0.100 A 
ATOM      3  C   UNL     1      -7.524  -6.444   2.076  1.00  0.00     0.197 A 
ATOM      4  O   UNL     1      -7.791  -7.387   2.865  1.00  0.00    -0.289 OA
ATOM      5  C   UNL     1      -8.496  -5.897   1.204  1.00  0.00     0.107 A 
ATOM      6  C   UNL     1      -9.829  -6.389   1.064  1.00  0.00     0.134 A 
ATOM      7  C   UNL     1     -10.738  -5.694   0.255  1.00  0.00     0.093 A 
ATOM      8  C   UNL     1     -10.345  -4.564  -0.465  1.00  0.00     0.123 A 
ATOM      9  C   UNL     1      -9.031  -4.109  -0.377  1.00  0.00     0.094 A 
ATOM     10  C   UNL     1      -8.110  -4.758   0.448  1.00  0.00     0.146 A 
ATOM     11  O   UNL     1      -6.871  -4.283   0.515  1.00  0.00    -0.456 OA
ENDROOT
BRANCH   1  12
ATOM     12  C   UNL     1      -4.570  -4.204   1.271  1.00  0.00     0.021 A 
ATOM     13  C   UNL     1      -4.367  -2.844   1.579  1.00  0.00     0.016 A 
ATOM     14  C   UNL     1      -3.079  -2.302   1.570  1.00  0.00     0.051 A 
ATOM     15  C   UNL     1      -1.974  -3.104   1.262  1.00  0.00     0.157 A 
ATOM     16  C   UNL     1      -3.454  -5.006   0.976  1.00  0.00     0.062 A 
ATOM     17  C   UNL     1      -2.164  -4.464   0.965  1.00  0.00     0.158 A 
BRANCH  15  18
ATOM     18  O   UNL     1      -0.692  -2.559   1.252  1.00  0.00    -0.504 OA
ATOM     19  H   UNL     1      -0.539  -1.561   1.344  1.00  0.00     0.293 HD
ENDBRANCH  15  18
BRANCH  17  20
ATOM     20  O   UNL     1      -1.084  -5.291   0.658  1.00  0.00    -0.504 OA
ATOM     21  H   UNL     1      -0.229  -4.932   0.249  1.00  0.00     0.293 HD
ENDBRANCH  17  20
ENDBRANCH   1  12
BRANCH   6  22
ATOM     22  O   UNL     1     -10.299  -7.556   1.672  1.00  0.00    -0.507 OA
ATOM     23  H   UNL     1     -11.231  -7.928   1.565  1.00  0.00     0.293 HD
ENDBRANCH   6  22
BRANCH   8  24
ATOM     24  O   UNL     1     -11.252  -3.889  -1.279  1.00  0.00    -0.508 OA
ATOM     25  H   UNL     1     -12.253  -4.009  -1.172  1.00  0.00     0.293 HD
ENDBRANCH   8  24
TORSDOF 5
ENDMDL
MODEL 3
REMARK VINA RESULT:    -5.259      1.167      2.663
REMARK INTER + INTRA:          -6.465
REMARK INTER:                  -6.200
REMARK INTRA:                  -0.265
REMARK UNBOUND:                -0.284
REMARK SMILES O=c1cc(-c2ccc(O)c(O)c2)oc2cc(O)cc(O)c12
REMARK SMILES IDX 4 1 3 2 2 3 1 4 21 5 19 6 18 7 16 8 15 9 14 10 13 11 5 12
REMARK SMILES IDX 6 13 7 14 8 15 12 16 10 17 9 18 11 20 20 22 17 24
REMARK H PARENT 9 19 11 21 20 23 17 25
REMARK Flexibility Score: inf
ROOT
ATOM      1  C   UNL     1      -6.733  -4.733   0.926  1.00  0.00     0.138 A 
ATOM      2  C   UNL     1      -7.538  -4.169  -0.075  1.00  0.00     0.100 A 
ATOM      3  C   UNL     1      -8.856  -4.602  -0.224  1.00  0.00     0.197 A 
ATOM      4  O   UNL     1      -9.535  -4.122  -1.170  1.00  0.00    -0.289 OA
ATOM      5  C   UNL     1      -9.379  -5.581   0.653  1.00  0.00     0.107 A 
ATOM      6  C   UNL     1     -10.721  -6.068   0.620  1.00  0.00     0.134 A 
ATOM      7  C   UNL     1     -11.092  -7.123   1.463  1.00  0.00     0.093 A 
ATOM      8  C   UNL     1     -10.188  -7.666   2.379  1.00  0.00     0.123 A 
ATOM      9  C   UNL     1      -8.892  -7.161   2.456  1.00  0.00     0.094 A 
ATOM     10  C   UNL     1      -8.480  -6.133   1.605  1.00  0.00     0.146 A 
ATOM     11  O   UNL     1      -7.231  -5.690   1.701  1.00  0.00    -0.456 OA
ENDROOT
BRANCH   1  12
ATOM     12  C   UNL     1      -5.324  -4.309   1.129  1.00  0.00     0.021 A 
ATOM     13  C   UNL     1      -4.252  -5.210   0.981  1.00  0.00     0.016 A 
ATOM     14  C   UNL     1      -2.936  -4.780   1.168  1.00  0.00     0.051 A 
ATOM     15  C   UNL     1      -2.666  -3.446   1.496  1.00  0.00     0.157 A 
ATOM     16  C   UNL     1      -5.044  -2.968   1.446  1.00  0.00     0.062 A 
ATOM     17  C   UNL     1      -3.726  -2.537   1.634  1.00  0.00     0.158 A 
BRANCH  15  18
ATOM     18  O   UNL     1      -1.351  -3.023   1.684  1.00  0.00    -0.504 OA
ATOM     19  H   UNL     1      -1.027  -2.128   1.335  1.00  0.00     0.293 HD
ENDBRANCH  15  18
BRANCH  17  20
ATOM     20  O   UNL     1      -3.491  -1.200   1.958  1.00  0.00    -0.504 OA
ATOM     21  H   UNL     1      -2.555  -0.832   2.078  1.00  0.00     0.293 HD
ENDBRANCH  17  20
ENDBRANCH   1  12
BRANCH   6  22
ATOM     22  O   UNL     1     -11.724  -5.539  -0.196  1.00  0.00    -0.507 OA
ATOM     23  H   UNL     1     -12.192  -4.659  -0.039  1.00  0.00     0.293 HD
ENDBRANCH   6  22
BRANCH   8  24
ATOM     24  O   UNL     1     -10.570  -8.705   3.225  1.00  0.00    -0.508 OA
ATOM     25  H   UNL     1     -11.336  -8.600   3.882  1.00  0.00     0.293 HD
ENDBRANCH   8  24
TORSDOF 5
ENDMDL
MODEL 4
REMARK VINA RESULT:    -5.211      1.872      6.948
REMARK INTER + INTRA:          -6.409
REMARK INTER:                  -6.116
REMARK INTRA:                  -0.292
REMARK UNBOUND:                -0.284
REMARK SMILES O=c1cc(-c2ccc(O)c(O)c2)oc2cc(O)cc(O)c12
REMARK SMILES IDX 4 1 3 2 2 3 1 4 21 5 19 6 18 7 16 8 15 9 14 10 13 11 5 12
REMARK SMILES IDX 6 13 7 14 8 15 12 16 10 17 9 18 11 20 20 22 17 24
REMARK H PARENT 9 19 11 21 20 23 17 25
REMARK Flexibility Score: inf
ROOT
ATOM      1  C   UNL     1      -6.077  -5.134   1.211  1.00  0.00     0.138 A 
ATOM      2  C   UNL     1      -5.830  -6.304   1.943  1.00  0.00     0.100 A 
ATOM      3  C   UNL     1      -4.554  -6.539   2.457  1.00  0.00     0.197 A 
ATOM      4  O   UNL     1      -4.346  -7.626   3.056  1.00  0.00    -0.289 OA
ATOM      5  C   UNL     1      -3.530  -5.581   2.262  1.00  0.00     0.107 A 
ATOM      6  C   UNL     1      -2.203  -5.696   2.776  1.00  0.00     0.134 A 
ATOM      7  C   UNL     1      -1.242  -4.741   2.421  1.00  0.00     0.093 A 
ATOM      8  C   UNL     1      -1.575  -3.645   1.622  1.00  0.00     0.123 A 
ATOM      9  C   UNL     1      -2.882  -3.496   1.161  1.00  0.00     0.094 A 
ATOM     10  C   UNL     1      -3.855  -4.449   1.468  1.00  0.00     0.146 A 
ATOM     11  O   UNL     1      -5.085  -4.277   0.996  1.00  0.00    -0.456 OA
ENDROOT
BRANCH   1  12
ATOM     12  C   UNL     1      -7.416  -4.834   0.642  1.00  0.00     0.021 A 
ATOM     13  C   UNL     1      -7.596  -3.851  -0.350  1.00  0.00     0.016 A 
ATOM     14  C   UNL     1      -8.865  -3.598  -0.874  1.00  0.00     0.051 A 
ATOM     15  C   UNL     1      -9.975  -4.324  -0.425  1.00  0.00     0.157 A 
ATOM     16  C   UNL     1      -8.534  -5.568   1.078  1.00  0.00     0.062 A 
ATOM     17  C   UNL     1      -9.806  -5.315   0.555  1.00  0.00     0.158 A 
BRANCH  15  18
ATOM     18  O   UNL     1     -11.241  -4.067  -0.950  1.00  0.00    -0.504 OA
ATOM     19  H   UNL     1     -11.772  -4.784  -1.430  1.00  0.00     0.293 HD
ENDBRANCH  15  18
BRANCH  17  20
ATOM     20  O   UNL     1     -10.891  -6.059   1.021  1.00  0.00    -0.504 OA
ATOM     21  H   UNL     1     -10.842  -7.063   1.145  1.00  0.00     0.293 HD
ENDBRANCH  17  20
ENDBRANCH   1  12
BRANCH   6  22
ATOM     22  O   UNL     1      -1.788  -6.704   3.650  1.00  0.00    -0.507 OA
ATOM     23  H   UNL     1      -2.355  -7.486   3.939  1.00  0.00     0.293 HD
ENDBRANCH   6  22
BRANCH   8  24
ATOM     24  O   UNL     1      -0.617  -2.691   1.287  1.00  0.00    -0.508 OA
ATOM     25  H   UNL     1      -0.364  -2.510   0.322  1.00  0.00     0.293 HD
ENDBRANCH   8  24
TORSDOF 5
ENDMDL
MODEL 5
REMARK VINA RESULT:    -5.209     11.502     14.481
REMARK INTER + INTRA:          -6.406
REMARK INTER:                  -6.140
REMARK INTRA:                  -0.266
REMARK UNBOUND:                -0.284
REMARK SMILES O=c1cc(-c2ccc(O)c(O)c2)oc2cc(O)cc(O)c12
REMARK SMILES IDX 4 1 3 2 2 3 1 4 21 5 19 6 18 7 16 8 15 9 14 10 13 11 5 12
REMARK SMILES IDX 6 13 7 14 8 15 12 16 10 17 9 18 11 20 20 22 17 24
REMARK H PARENT 9 19 11 21 20 23 17 25
REMARK Flexibility Score: inf
ROOT
ATOM      1  C   UNL     1      -4.459   7.864   1.399  1.00  0.00     0.138 A 
ATOM      2  C   UNL     1      -3.519   8.549   2.183  1.00  0.00     0.100 A 
ATOM      3  C   UNL     1      -2.272   8.866   1.643  1.00  0.00     0.197 A 
ATOM      4  O   UNL     1      -1.427   9.427   2.389  1.00  0.00    -0.289 OA
ATOM      5  C   UNL     1      -1.977   8.522   0.303  1.00  0.00     0.107 A 
ATOM      6  C   UNL     1      -0.754   8.831  -0.365  1.00  0.00     0.134 A 
ATOM      7  C   UNL     1      -0.529   8.337  -1.656  1.00  0.00     0.093 A 
ATOM      8  C   UNL     1      -1.508   7.598  -2.326  1.00  0.00     0.123 A 
ATOM      9  C   UNL     1      -2.727   7.338  -1.702  1.00  0.00     0.094 A 
ATOM     10  C   UNL     1      -2.967   7.786  -0.402  1.00  0.00     0.146 A 
ATOM     11  O   UNL     1      -4.137   7.504   0.162  1.00  0.00    -0.456 OA
ENDROOT
BRANCH   1  12
ATOM     12  C   UNL     1      -5.801   7.503   1.923  1.00  0.00     0.021 A 
ATOM     13  C   UNL     1      -6.966   8.168   1.495  1.00  0.00     0.016 A 
ATOM     14  C   UNL     1      -8.216   7.799   1.998  1.00  0.00     0.051 A 
ATOM     15  C   UNL     1      -8.328   6.758   2.927  1.00  0.00     0.157 A 
ATOM     16  C   UNL     1      -5.923   6.449   2.846  1.00  0.00     0.062 A 
ATOM     17  C   UNL     1      -7.174   6.079   3.351  1.00  0.00     0.158 A 
BRANCH  15  18
ATOM     18  O   UNL     1      -9.577   6.394   3.426  1.00  0.00    -0.504 OA
ATOM     19  H   UNL     1     -10.339   7.059   3.485  1.00  0.00     0.293 HD
ENDBRANCH  15  18
BRANCH  17  20
ATOM     20  O   UNL     1      -7.252   5.035   4.273  1.00  0.00    -0.504 OA
ATOM     21  H   UNL     1      -8.111   4.809   4.759  1.00  0.00     0.293 HD
ENDBRANCH  17  20
ENDBRANCH   1  12
BRANCH   6  22
ATOM     22  O   UNL     1       0.253   9.632   0.180  1.00  0.00    -0.507 OA
ATOM     23  H   UNL     1       1.070   9.952  -0.318  1.00  0.00     0.293 HD
ENDBRANCH   6  22
BRANCH   8  24
ATOM     24  O   UNL     1      -1.282   7.124  -3.616  1.00  0.00    -0.508 OA
ATOM     25  H   UNL     1      -1.430   7.710  -4.430  1.00  0.00     0.293 HD
ENDBRANCH   8  24
TORSDOF 5
ENDMDL
MODEL 6
REMARK VINA RESULT:    -5.091     11.402     14.230
REMARK INTER + INTRA:          -6.267
REMARK INTER:                  -5.997
REMARK INTRA:                  -0.271
REMARK UNBOUND:                -0.284
REMARK SMILES O=c1cc(-c2ccc(O)c(O)c2)oc2cc(O)cc(O)c12
REMARK SMILES IDX 4 1 3 2 2 3 1 4 21 5 19 6 18 7 16 8 15 9 14 10 13 11 5 12
REMARK SMILES IDX 6 13 7 14 8 15 12 16 10 17 9 18 11 20 20 22 17 24
REMARK H PARENT 9 19 11 21 20 23 17 25
REMARK Flexibility Score: inf
ROOT
ATOM      1  C   UNL     1       2.913  -0.010   7.333  1.00  0.00     0.138 A 
ATOM      2  C   UNL     1       3.627   0.101   8.535  1.00  0.00     0.100 A 
ATOM      3  C   UNL     1       4.801  -0.633   8.709  1.00  0.00     0.197 A 
ATOM      4  O   UNL     1       5.387  -0.560   9.821  1.00  0.00    -0.289 OA
ATOM      5  C   UNL     1       5.278  -1.458   7.663  1.00  0.00     0.107 A 
ATOM      6  C   UNL     1       6.485  -2.219   7.714  1.00  0.00     0.134 A 
ATOM      7  C   UNL     1       6.795  -3.090   6.662  1.00  0.00     0.093 A 
ATOM      8  C   UNL     1       5.974  -3.181   5.535  1.00  0.00     0.123 A 
ATOM      9  C   UNL     1       4.822  -2.401   5.453  1.00  0.00     0.094 A 
ATOM     10  C   UNL     1       4.467  -1.549   6.500  1.00  0.00     0.146 A 
ATOM     11  O   UNL     1       3.353  -0.833   6.387  1.00  0.00    -0.456 OA
ENDROOT
BRANCH   1  12
ATOM     12  C   UNL     1       1.659   0.748   7.094  1.00  0.00     0.021 A 
ATOM     13  C   UNL     1       0.436   0.358   7.675  1.00  0.00     0.016 A 
ATOM     14  C   UNL     1      -0.726   1.097   7.441  1.00  0.00     0.051 A 
ATOM     15  C   UNL     1      -0.689   2.240   6.634  1.00  0.00     0.157 A 
ATOM     16  C   UNL     1       1.691   1.905   6.296  1.00  0.00     0.062 A 
ATOM     17  C   UNL     1       0.527   2.645   6.060  1.00  0.00     0.158 A 
BRANCH  15  18
ATOM     18  O   UNL     1      -1.851   2.973   6.402  1.00  0.00    -0.504 OA
ATOM     19  H   UNL     1      -2.340   2.926   5.516  1.00  0.00     0.293 HD
ENDBRANCH  15  18
BRANCH  17  20
ATOM     20  O   UNL     1       0.599   3.781   5.254  1.00  0.00    -0.504 OA
ATOM     21  H   UNL     1       1.089   3.783   4.367  1.00  0.00     0.293 HD
ENDBRANCH  17  20
ENDBRANCH   1  12
BRANCH   6  22
ATOM     22  O   UNL     1       7.416  -2.138   8.753  1.00  0.00    -0.507 OA
ATOM     23  H   UNL     1       8.114  -1.417   8.847  1.00  0.00     0.293 HD
ENDBRANCH   6  22
BRANCH   8  24
ATOM     24  O   UNL     1       6.299  -4.039   4.486  1.00  0.00    -0.508 OA
ATOM     25  H   UNL     1       5.694  -4.810   4.226  1.00  0.00     0.293 HD
ENDBRANCH   8  24
TORSDOF 5
ENDMDL
MODEL 7
REMARK VINA RESULT:    -5.021      1.655      7.398
REMARK INTER + INTRA:          -6.186
REMARK INTER:                  -5.915
REMARK INTRA:                  -0.271
REMARK UNBOUND:                -0.284
REMARK SMILES O=c1cc(-c2ccc(O)c(O)c2)oc2cc(O)cc(O)c12
REMARK SMILES IDX 4 1 3 2 2 3 1 4 21 5 19 6 18 7 16 8 15 9 14 10 13 11 5 12
REMARK SMILES IDX 6 13 7 14 8 15 12 16 10 17 9 18 11 20 20 22 17 24
REMARK H PARENT 9 19 11 21 20 23 17 25
REMARK Flexibility Score: inf
ROOT
ATOM      1  C   UNL     1      -5.649  -4.614   1.025  1.00  0.00     0.138 A 
ATOM      2  C   UNL     1      -5.256  -3.308   1.350  1.00  0.00     0.100 A 
ATOM      3  C   UNL     1      -3.899  -3.003   1.456  1.00  0.00     0.197 A 
ATOM      4  O   UNL     1      -3.578  -1.838   1.809  1.00  0.00    -0.289 OA
ATOM      5  C   UNL     1      -2.930  -4.004   1.206  1.00  0.00     0.107 A 
ATOM      6  C   UNL     1      -1.518  -3.796   1.244  1.00  0.00     0.134 A 
ATOM      7  C   UNL     1      -0.657  -4.890   1.094  1.00  0.00     0.093 A 
ATOM      8  C   UNL     1      -1.155  -6.171   0.845  1.00  0.00     0.123 A 
ATOM      9  C   UNL     1      -2.530  -6.374   0.751  1.00  0.00     0.094 A 
ATOM     10  C   UNL     1      -3.417  -5.310   0.932  1.00  0.00     0.146 A 
ATOM     11  O   UNL     1      -4.721  -5.549   0.848  1.00  0.00    -0.456 OA
ENDROOT
BRANCH   1  12
ATOM     12  C   UNL     1      -7.079  -4.993   0.898  1.00  0.00     0.021 A 
ATOM     13  C   UNL     1      -7.623  -6.078   1.613  1.00  0.00     0.016 A 
ATOM     14  C   UNL     1      -8.975  -6.404   1.482  1.00  0.00     0.051 A 
ATOM     15  C   UNL     1      -9.808  -5.653   0.645  1.00  0.00     0.157 A 
ATOM     16  C   UNL     1      -7.925  -4.235   0.070  1.00  0.00     0.062 A 
ATOM     17  C   UNL     1      -9.279  -4.562  -0.064  1.00  0.00     0.158 A 
BRANCH  15  18
ATOM     18  O   UNL     1     -11.156  -5.984   0.516  1.00  0.00    -0.504 OA
ATOM     19  H   UNL     1     -11.750  -5.533  -0.170  1.00  0.00     0.293 HD
ENDBRANCH  15  18
BRANCH  17  20
ATOM     20  O   UNL     1     -10.083  -3.791  -0.904  1.00  0.00    -0.504 OA
ATOM     21  H   UNL     1     -10.119  -3.945  -1.904  1.00  0.00     0.293 HD
ENDBRANCH  17  20
ENDBRANCH   1  12
BRANCH   6  22
ATOM     22  O   UNL     1      -0.917  -2.545   1.402  1.00  0.00    -0.507 OA
ATOM     23  H   UNL     1      -0.500  -2.208   2.256  1.00  0.00     0.293 HD
ENDBRANCH   6  22
BRANCH   8  24
ATOM     24  O   UNL     1      -0.290  -7.251   0.680  1.00  0.00    -0.508 OA
ATOM     25  H   UNL     1      -0.638  -8.187   0.505  1.00  0.00     0.293 HD
ENDBRANCH   8  24
TORSDOF 5
ENDMDL
MODEL 8
REMARK VINA RESULT:    -4.996      4.729      8.045
REMARK INTER + INTRA:          -6.156
REMARK INTER:                  -5.876
REMARK INTRA:                  -0.280
REMARK UNBOUND:                -0.284
REMARK SMILES O=c1cc(-c2ccc(O)c(O)c2)oc2cc(O)cc(O)c12
REMARK SMILES IDX 4 1 3 2 2 3 1 4 21 5 19 6 18 7 16 8 15 9 14 10 13 11 5 12
REMARK SMILES IDX 6 13 7 14 8 15 12 16 10 17 9 18 11 20 20 22 17 24
REMARK H PARENT 9 19 11 21 20 23 17 25
REMARK Flexibility Score: inf
ROOT
ATOM      1  C   UNL     1       0.597  -4.088   1.523  1.00  0.00     0.138 A 
ATOM      2  C   UNL     1       0.064  -2.968   0.870  1.00  0.00     0.100 A 
ATOM      3  C   UNL     1      -1.300  -2.693   0.975  1.00  0.00     0.197 A 
ATOM      4  O   UNL     1      -1.761  -1.716   0.327  1.00  0.00    -0.289 OA
ATOM      5  C   UNL     1      -2.128  -3.527   1.763  1.00  0.00     0.107 A 
ATOM      6  C   UNL     1      -3.524  -3.319   1.975  1.00  0.00     0.134 A 
ATOM      7  C   UNL     1      -4.264  -4.277   2.680  1.00  0.00     0.093 A 
ATOM      8  C   UNL     1      -3.647  -5.401   3.233  1.00  0.00     0.123 A 
ATOM      9  C   UNL     1      -2.274  -5.585   3.077  1.00  0.00     0.094 A 
ATOM     10  C   UNL     1      -1.515  -4.666   2.349  1.00  0.00     0.146 A 
ATOM     11  O   UNL     1      -0.212  -4.886   2.213  1.00  0.00    -0.456 OA
ENDROOT
BRANCH   1  12
ATOM     12  C   UNL     1       2.041  -4.427   1.446  1.00  0.00     0.021 A 
ATOM     13  C   UNL     1       3.034  -3.539   1.904  1.00  0.00     0.016 A 
ATOM     14  C   UNL     1       4.384  -3.890   1.828  1.00  0.00     0.051 A 
ATOM     15  C   UNL     1       4.767  -5.130   1.304  1.00  0.00     0.157 A 
ATOM     16  C   UNL     1       2.432  -5.676   0.934  1.00  0.00     0.062 A 
ATOM     17  C   UNL     1       3.784  -6.028   0.856  1.00  0.00     0.158 A 
BRANCH  15  18
ATOM     18  O   UNL     1       6.116  -5.474   1.229  1.00  0.00    -0.504 OA
ATOM     19  H   UNL     1       6.841  -4.769   1.180  1.00  0.00     0.293 HD
ENDBRANCH  15  18
BRANCH  17  20
ATOM     20  O   UNL     1       4.132  -7.273   0.332  1.00  0.00    -0.504 OA
ATOM     21  H   UNL     1       3.436  -7.943   0.029  1.00  0.00     0.293 HD
ENDBRANCH  17  20
ENDBRANCH   1  12
BRANCH   6  22
ATOM     22  O   UNL     1      -4.221  -2.188   1.540  1.00  0.00    -0.507 OA
ATOM     23  H   UNL     1      -4.954  -1.728   2.056  1.00  0.00     0.293 HD
ENDBRANCH   6  22
BRANCH   8  24
ATOM     24  O   UNL     1      -4.388  -6.341   3.946  1.00  0.00    -0.508 OA
ATOM     25  H   UNL     1      -4.929  -6.080   4.763  1.00  0.00     0.293 HD
ENDBRANCH   8  24
TORSDOF 5
ENDMDL
MODEL 9
REMARK VINA RESULT:    -4.929     14.185     14.839
REMARK INTER + INTRA:          -6.077
REMARK INTER:                  -5.785
REMARK INTRA:                  -0.292
REMARK UNBOUND:                -0.284
REMARK SMILES O=c1cc(-c2ccc(O)c(O)c2)oc2cc(O)cc(O)c12
REMARK SMILES IDX 4 1 3 2 2 3 1 4 21 5 19 6 18 7 16 8 15 9 14 10 13 11 5 12
REMARK SMILES IDX 6 13 7 14 8 15 12 16 10 17 9 18 11 20 20 22 17 24
REMARK H PARENT 9 19 11 21 20 23 17 25
REMARK Flexibility Score: inf
ROOT
ATOM      1  C   UNL     1       4.247   1.142  -5.444  1.00  0.00     0.138 A 
ATOM      2  C   UNL     1       4.076   1.057  -6.833  1.00  0.00     0.100 A 
ATOM      3  C   UNL     1       3.252   1.978  -7.483  1.00  0.00     0.197 A 
ATOM      4  O   UNL     1       3.068   1.840  -8.721  1.00  0.00    -0.289 OA
ATOM      5  C   UNL     1       2.623   3.006  -6.741  1.00  0.00     0.107 A 
ATOM      6  C   UNL     1       1.796   4.024  -7.304  1.00  0.00     0.134 A 
ATOM      7  C   UNL     1       1.132   4.920  -6.456  1.00  0.00     0.093 A 
ATOM      8  C   UNL     1       1.316   4.873  -5.073  1.00  0.00     0.123 A 
ATOM      9  C   UNL     1       2.165   3.917  -4.518  1.00  0.00     0.094 A 
ATOM     10  C   UNL     1       2.813   2.987  -5.334  1.00  0.00     0.146 A 
ATOM     11  O   UNL     1       3.602   2.083  -4.763  1.00  0.00    -0.456 OA
ENDROOT
BRANCH   1  12
ATOM     12  C   UNL     1       5.112   0.189  -4.703  1.00  0.00     0.021 A 
ATOM     13  C   UNL     1       5.069  -1.197  -4.951  1.00  0.00     0.016 A 
ATOM     14  C   UNL     1       5.903  -2.068  -4.246  1.00  0.00     0.051 A 
ATOM     15  C   UNL     1       6.797  -1.575  -3.288  1.00  0.00     0.157 A 
ATOM     16  C   UNL     1       6.022   0.678  -3.749  1.00  0.00     0.062 A 
ATOM     17  C   UNL     1       6.856  -0.194  -3.041  1.00  0.00     0.158 A 
BRANCH  15  18
ATOM     18  O   UNL     1       7.625  -2.448  -2.586  1.00  0.00    -0.504 OA
ATOM     19  H   UNL     1       8.007  -2.204  -1.680  1.00  0.00     0.293 HD
ENDBRANCH  15  18
BRANCH  17  20
ATOM     20  O   UNL     1       7.738   0.331  -2.096  1.00  0.00    -0.504 OA
ATOM     21  H   UNL     1       8.680   0.616  -2.337  1.00  0.00     0.293 HD
ENDBRANCH  17  20
ENDBRANCH   1  12
BRANCH   6  22
ATOM     22  O   UNL     1       1.613   4.212  -8.677  1.00  0.00    -0.507 OA
ATOM     23  H   UNL     1       1.030   4.923  -9.090  1.00  0.00     0.293 HD
ENDBRANCH   6  22
BRANCH   8  24
ATOM     24  O   UNL     1       0.664   5.778  -4.238  1.00  0.00    -0.508 OA
ATOM     25  H   UNL     1       0.942   6.752  -4.192  1.00  0.00     0.293 HD
ENDBRANCH   8  24
TORSDOF 5
ENDMDL
