MODEL 1
REMARK VINA RESULT:    -4.284      0.000      0.000
REMARK INTER + INTRA:          -4.878
REMARK INTER:                  -4.659
REMARK INTRA:                  -0.218
REMARK UNBOUND:                -0.218
REMARK SMILES C[C@@H]1[C@H]2C3=CC[C@H]4[C@]5(C)CC[C@@H](O)C(C)(C)[C@H]5CC[C@@]4(C)[C@]3(C)CC[C@@]2(C(=O)[O-])CC[C@@H]1C
REMARK SMILES IDX 26 1 30 2 25 3 3 4 31 5 24 6 4 7 2 8 32 9 22 10 5 11 1 12
REMARK SMILES IDX 33 13 23 14 20 15 6 16 7 17 19 18 21 19 8 20 18 21 17 22
REMARK SMILES IDX 10 23 9 24 14 25 11 26 12 27 15 28 16 29 27 30 28 31 29 32
REMARK SMILES IDX 13 33
REMARK H PARENT 13 34
REMARK Flexibility Score: inf
ROOT
ATOM      1  C   UNL     1      13.701  56.137  23.004  1.00  0.00     0.017 C 
ATOM      2  C   UNL     1      14.013  54.621  23.230  1.00  0.00     0.014 C 
ATOM      3  C   UNL     1      12.771  56.282  21.770  1.00  0.00     0.014 C 
ATOM      4  C   UNL     1      14.989  57.033  22.794  1.00  0.00     0.030 C 
ATOM      5  C   UNL     1      15.178  54.355  24.178  1.00  0.00     0.004 C 
ATOM      6  C   UNL     1      13.434  55.914  20.441  1.00  0.00     0.013 C 
ATOM      7  C   UNL     1      15.342  57.395  21.332  1.00  0.00    -0.063 C 
ATOM      8  C   UNL     1      16.287  56.559  23.571  1.00  0.00    -0.003 C 
ATOM      9  C   UNL     1      16.443  55.018  23.636  1.00  0.00    -0.011 C 
ATOM     10  C   UNL     1      14.709  56.758  20.072  1.00  0.00    -0.006 C 
ATOM     11  C   UNL     1      16.226  58.402  21.163  1.00  0.00    -0.027 C 
ATOM     12  C   UNL     1      16.452  57.251  24.944  1.00  0.00     0.008 C 
ATOM     13  C   UNL     1      17.677  54.569  24.433  1.00  0.00     0.008 C 
ATOM     14  C   UNL     1      15.744  55.738  19.506  1.00  0.00     0.017 C 
ATOM     15  C   UNL     1      14.371  57.922  18.991  1.00  0.00    -0.020 C 
ATOM     16  C   UNL     1      16.742  58.788  19.818  1.00  0.00     0.032 C 
ATOM     17  C   UNL     1      15.585  58.963  18.806  1.00  0.00     0.006 C 
ATOM     18  C   UNL     1      13.945  57.302  17.618  1.00  0.00     0.008 C 
ATOM     19  C   UNL     1      13.142  58.746  19.500  1.00  0.00     0.012 C 
ATOM     20  C   UNL     1      16.071  59.261  17.319  1.00  0.00    -0.025 C 
ATOM     21  C   UNL     1      13.780  58.301  16.463  1.00  0.00     0.005 C 
ATOM     22  C   UNL     1      14.785  59.487  16.444  1.00  0.00     0.003 C 
ATOM     23  C   UNL     1      16.894  60.594  17.327  1.00  0.00     0.010 C 
ATOM     24  C   UNL     1      17.000  58.134  16.772  1.00  0.00     0.012 C 
ATOM     25  C   UNL     1      15.003  60.120  15.008  1.00  0.00    -0.006 C 
ATOM     26  C   UNL     1      17.164  61.176  15.935  1.00  0.00     0.033 C 
ATOM     27  C   UNL     1      15.865  61.415  15.154  1.00  0.00     0.120 C 
ATOM     28  C   UNL     1      13.619  60.546  14.441  1.00  0.00     0.014 C 
ATOM     29  C   UNL     1      15.655  59.146  13.975  1.00  0.00     0.014 C 
ENDROOT
BRANCH   1  30
ATOM     30  C   UNL     1      12.912  56.634  24.228  1.00  0.00     0.048 C 
ATOM     31  O   UNL     1      13.005  57.829  24.624  1.00  0.00    -0.550 OA
ATOM     32  O   UNL     1      12.049  55.793  24.911  1.00  0.00    -0.550 OA
ENDBRANCH   1  30
BRANCH  27  33
ATOM     33  O   UNL     1      16.196  61.942  13.891  1.00  0.00    -0.393 OA
ATOM     34  H   UNL     1      15.348  62.196  13.441  1.00  0.00     0.210 HD
ENDBRANCH  27  33
TORSDOF 2
ENDMDL
MODEL 2
REMARK VINA RESULT:    -4.214      2.700      7.853
REMARK INTER + INTRA:          -4.802
REMARK INTER:                  -4.584
REMARK INTRA:                  -0.218
REMARK UNBOUND:                -0.218
REMARK SMILES C[C@@H]1[C@H]2C3=CC[C@H]4[C@]5(C)CC[C@@H](O)C(C)(C)[C@H]5CC[C@@]4(C)[C@]3(C)CC[C@@]2(C(=O)[O-])CC[C@@H]1C
REMARK SMILES IDX 26 1 30 2 25 3 3 4 31 5 24 6 4 7 2 8 32 9 22 10 5 11 1 12
REMARK SMILES IDX 33 13 23 14 20 15 6 16 7 17 19 18 21 19 8 20 18 21 17 22
REMARK SMILES IDX 10 23 9 24 14 25 11 26 12 27 15 28 16 29 27 30 28 31 29 32
REMARK SMILES IDX 13 33
REMARK H PARENT 13 34
REMARK Flexibility Score: inf
ROOT
ATOM      1  C   UNL     1      12.486  59.541  17.520  1.00  0.00     0.017 C 
ATOM      2  C   UNL     1      12.665  61.043  17.125  1.00  0.00     0.014 C 
ATOM      3  C   UNL     1      12.297  59.443  19.058  1.00  0.00     0.014 C 
ATOM      4  C   UNL     1      13.693  58.614  17.084  1.00  0.00     0.030 C 
ATOM      5  C   UNL     1      13.202  61.261  15.715  1.00  0.00     0.004 C 
ATOM      6  C   UNL     1      13.541  59.816  19.866  1.00  0.00     0.013 C 
ATOM      7  C   UNL     1      14.725  58.268  18.184  1.00  0.00    -0.063 C 
ATOM      8  C   UNL     1      14.434  59.039  15.749  1.00  0.00    -0.003 C 
ATOM      9  C   UNL     1      14.559  60.573  15.570  1.00  0.00    -0.011 C 
ATOM     10  C   UNL     1      14.817  58.944  19.572  1.00  0.00    -0.006 C 
ATOM     11  C   UNL     1      15.560  57.241  17.917  1.00  0.00    -0.027 C 
ATOM     12  C   UNL     1      13.880  58.318  14.499  1.00  0.00     0.008 C 
ATOM     13  C   UNL     1      15.235  60.974  14.250  1.00  0.00     0.008 C 
ATOM     14  C   UNL     1      16.011  59.946  19.515  1.00  0.00     0.017 C 
ATOM     15  C   UNL     1      15.049  57.810  20.710  1.00  0.00    -0.020 C 
ATOM     16  C   UNL     1      16.675  56.865  18.834  1.00  0.00     0.032 C 
ATOM     17  C   UNL     1      16.177  56.739  20.293  1.00  0.00     0.006 C 
ATOM     18  C   UNL     1      15.376  58.465  22.094  1.00  0.00     0.008 C 
ATOM     19  C   UNL     1      13.718  57.011  20.908  1.00  0.00     0.012 C 
ATOM     20  C   UNL     1      17.338  56.456  21.347  1.00  0.00    -0.025 C 
ATOM     21  C   UNL     1      15.797  57.492  23.205  1.00  0.00     0.005 C 
ATOM     22  C   UNL     1      16.659  56.280  22.754  1.00  0.00     0.003 C 
ATOM     23  C   UNL     1      18.027  55.100  20.967  1.00  0.00     0.010 C 
ATOM     24  C   UNL     1      18.432  57.567  21.323  1.00  0.00     0.012 C 
ATOM     25  C   UNL     1      17.558  55.666  23.905  1.00  0.00    -0.006 C 
ATOM     26  C   UNL     1      18.948  54.536  22.053  1.00  0.00     0.033 C 
ATOM     27  C   UNL     1      18.212  54.346  23.386  1.00  0.00     0.120 C 
ATOM     28  C   UNL     1      16.637  55.289  25.101  1.00  0.00     0.014 C 
ATOM     29  C   UNL     1      18.653  56.641  24.445  1.00  0.00     0.014 C 
ENDROOT
BRANCH   1  30
ATOM     30  C   UNL     1      11.183  59.043  16.870  1.00  0.00     0.048 C 
ATOM     31  O   UNL     1      11.045  57.837  16.524  1.00  0.00    -0.550 OA
ATOM     32  O   UNL     1      10.110  59.898  16.676  1.00  0.00    -0.550 OA
ENDBRANCH   1  30
BRANCH  27  33
ATOM     33  O   UNL     1      19.123  53.833  24.329  1.00  0.00    -0.393 OA
ATOM     34  H   UNL     1      18.655  53.790  25.204  1.00  0.00     0.210 HD
ENDBRANCH  27  33
TORSDOF 2
ENDMDL
MODEL 3
REMARK VINA RESULT:    -4.199      3.030      4.534
REMARK INTER + INTRA:          -4.785
REMARK INTER:                  -4.571
REMARK INTRA:                  -0.214
REMARK UNBOUND:                -0.218
REMARK SMILES C[C@@H]1[C@H]2C3=CC[C@H]4[C@]5(C)CC[C@@H](O)C(C)(C)[C@H]5CC[C@@]4(C)[C@]3(C)CC[C@@]2(C(=O)[O-])CC[C@@H]1C
REMARK SMILES IDX 26 1 30 2 25 3 3 4 31 5 24 6 4 7 2 8 32 9 22 10 5 11 1 12
REMARK SMILES IDX 33 13 23 14 20 15 6 16 7 17 19 18 21 19 8 20 18 21 17 22
REMARK SMILES IDX 10 23 9 24 14 25 11 26 12 27 15 28 16 29 27 30 28 31 29 32
REMARK SMILES IDX 13 33
REMARK H PARENT 13 34
REMARK Flexibility Score: inf
ROOT
ATOM      1  C   UNL     1      17.018  54.092  21.331  1.00  0.00     0.017 C 
ATOM      2  C   UNL     1      18.566  54.278  21.456  1.00  0.00     0.014 C 
ATOM      3  C   UNL     1      16.576  54.498  19.899  1.00  0.00     0.014 C 
ATOM      4  C   UNL     1      16.184  54.922  22.389  1.00  0.00     0.030 C 
ATOM      5  C   UNL     1      19.086  54.254  22.890  1.00  0.00     0.004 C 
ATOM      6  C   UNL     1      16.721  55.991  19.600  1.00  0.00     0.013 C 
ATOM      7  C   UNL     1      15.568  56.250  21.887  1.00  0.00    -0.063 C 
ATOM      8  C   UNL     1      16.883  55.138  23.795  1.00  0.00    -0.003 C 
ATOM      9  C   UNL     1      18.413  55.362  23.699  1.00  0.00    -0.011 C 
ATOM     10  C   UNL     1      15.905  56.946  20.547  1.00  0.00    -0.006 C 
ATOM     11  C   UNL     1      14.606  56.794  22.664  1.00  0.00    -0.027 C 
ATOM     12  C   UNL     1      16.482  54.067  24.835  1.00  0.00     0.008 C 
ATOM     13  C   UNL     1      19.087  55.520  25.071  1.00  0.00     0.008 C 
ATOM     14  C   UNL     1      16.861  58.134  20.877  1.00  0.00     0.017 C 
ATOM     15  C   UNL     1      14.534  57.464  19.848  1.00  0.00    -0.020 C 
ATOM     16  C   UNL     1      14.001  58.123  22.365  1.00  0.00     0.032 C 
ATOM     17  C   UNL     1      13.557  58.213  20.886  1.00  0.00     0.006 C 
ATOM     18  C   UNL     1      14.846  58.371  18.611  1.00  0.00     0.008 C 
ATOM     19  C   UNL     1      13.747  56.228  19.298  1.00  0.00     0.012 C 
ATOM     20  C   UNL     1      13.009  59.648  20.465  1.00  0.00    -0.025 C 
ATOM     21  C   UNL     1      13.634  59.070  17.979  1.00  0.00     0.005 C 
ATOM     22  C   UNL     1      12.534  59.547  18.970  1.00  0.00     0.003 C 
ATOM     23  C   UNL     1      11.758  59.976  21.350  1.00  0.00     0.010 C 
ATOM     24  C   UNL     1      14.065  60.770  20.702  1.00  0.00     0.012 C 
ATOM     25  C   UNL     1      11.649  60.741  18.421  1.00  0.00    -0.006 C 
ATOM     26  C   UNL     1      10.936  61.172  20.860  1.00  0.00     0.033 C 
ATOM     27  C   UNL     1      10.465  60.987  19.411  1.00  0.00     0.120 C 
ATOM     28  C   UNL     1      11.033  60.312  17.059  1.00  0.00     0.014 C 
ATOM     29  C   UNL     1      12.444  62.064  18.182  1.00  0.00     0.014 C 
ENDROOT
BRANCH   1  30
ATOM     30  C   UNL     1      16.718  52.591  21.490  1.00  0.00     0.048 C 
ATOM     31  O   UNL     1      15.657  52.192  22.044  1.00  0.00    -0.550 OA
ATOM     32  O   UNL     1      17.590  51.633  20.999  1.00  0.00    -0.550 OA
ENDBRANCH   1  30
BRANCH  27  33
ATOM     33  O   UNL     1       9.725  62.124  19.034  1.00  0.00    -0.393 OA
ATOM     34  H   UNL     1       9.298  61.928  18.159  1.00  0.00     0.210 HD
ENDBRANCH  27  33
TORSDOF 2
ENDMDL
MODEL 4
REMARK VINA RESULT:    -4.153      1.941      3.461
REMARK INTER + INTRA:          -4.735
REMARK INTER:                  -4.519
REMARK INTRA:                  -0.216
REMARK UNBOUND:                -0.218
REMARK SMILES C[C@@H]1[C@H]2C3=CC[C@H]4[C@]5(C)CC[C@@H](O)C(C)(C)[C@H]5CC[C@@]4(C)[C@]3(C)CC[C@@]2(C(=O)[O-])CC[C@@H]1C
REMARK SMILES IDX 26 1 30 2 25 3 3 4 31 5 24 6 4 7 2 8 32 9 22 10 5 11 1 12
REMARK SMILES IDX 33 13 23 14 20 15 6 16 7 17 19 18 21 19 8 20 18 21 17 22
REMARK SMILES IDX 10 23 9 24 14 25 11 26 12 27 15 28 16 29 27 30 28 31 29 32
REMARK SMILES IDX 13 33
REMARK H PARENT 13 34
REMARK Flexibility Score: inf
ROOT
ATOM      1  C   UNL     1      16.270  57.640  23.242  1.00  0.00     0.017 C 
ATOM      2  C   UNL     1      15.269  57.964  24.399  1.00  0.00     0.014 C 
ATOM      3  C   UNL     1      16.675  58.965  22.541  1.00  0.00     0.014 C 
ATOM      4  C   UNL     1      15.699  56.633  22.162  1.00  0.00     0.030 C 
ATOM      5  C   UNL     1      14.525  56.749  24.943  1.00  0.00     0.004 C 
ATOM      6  C   UNL     1      15.537  59.638  21.770  1.00  0.00     0.013 C 
ATOM      7  C   UNL     1      15.160  57.262  20.856  1.00  0.00    -0.063 C 
ATOM      8  C   UNL     1      14.683  55.546  22.710  1.00  0.00    -0.003 C 
ATOM      9  C   UNL     1      13.739  56.082  23.815  1.00  0.00    -0.011 C 
ATOM     10  C   UNL     1      14.898  58.769  20.626  1.00  0.00    -0.006 C 
ATOM     11  C   UNL     1      14.974  56.416  19.818  1.00  0.00    -0.027 C 
ATOM     12  C   UNL     1      15.373  54.214  23.083  1.00  0.00     0.008 C 
ATOM     13  C   UNL     1      12.792  55.007  24.373  1.00  0.00     0.008 C 
ATOM     14  C   UNL     1      13.357  58.988  20.738  1.00  0.00     0.017 C 
ATOM     15  C   UNL     1      15.453  59.196  19.161  1.00  0.00    -0.020 C 
ATOM     16  C   UNL     1      14.359  56.858  18.534  1.00  0.00     0.032 C 
ATOM     17  C   UNL     1      15.027  58.152  18.011  1.00  0.00     0.006 C 
ATOM     18  C   UNL     1      15.005  60.651  18.796  1.00  0.00     0.008 C 
ATOM     19  C   UNL     1      17.017  59.215  19.197  1.00  0.00     0.012 C 
ATOM     20  C   UNL     1      14.340  58.747  16.703  1.00  0.00    -0.025 C 
ATOM     21  C   UNL     1      15.312  61.098  17.360  1.00  0.00     0.005 C 
ATOM     22  C   UNL     1      15.180  60.002  16.265  1.00  0.00     0.003 C 
ATOM     23  C   UNL     1      14.439  57.676  15.565  1.00  0.00     0.010 C 
ATOM     24  C   UNL     1      12.830  59.063  16.929  1.00  0.00     0.012 C 
ATOM     25  C   UNL     1      14.901  60.573  14.814  1.00  0.00    -0.006 C 
ATOM     26  C   UNL     1      14.106  58.209  14.167  1.00  0.00     0.033 C 
ATOM     27  C   UNL     1      14.992  59.402  13.785  1.00  0.00     0.120 C 
ATOM     28  C   UNL     1      16.024  61.590  14.461  1.00  0.00     0.014 C 
ATOM     29  C   UNL     1      13.534  61.316  14.675  1.00  0.00     0.014 C 
ENDROOT
BRANCH   1  30
ATOM     30  C   UNL     1      17.543  57.057  23.880  1.00  0.00     0.048 C 
ATOM     31  O   UNL     1      18.234  56.188  23.281  1.00  0.00    -0.550 OA
ATOM     32  O   UNL     1      17.986  57.494  25.118  1.00  0.00    -0.550 OA
ENDBRANCH   1  30
BRANCH  27  33
ATOM     33  O   UNL     1      14.623  59.836  12.497  1.00  0.00    -0.393 OA
ATOM     34  H   UNL     1      15.011  60.740  12.363  1.00  0.00     0.210 HD
ENDBRANCH  27  33
TORSDOF 2
ENDMDL
MODEL 5
REMARK VINA RESULT:    -4.069      3.055      4.550
REMARK INTER + INTRA:          -4.644
REMARK INTER:                  -4.728
REMARK INTRA:                   0.084
REMARK UNBOUND:                -0.218
REMARK SMILES C[C@@H]1[C@H]2C3=CC[C@H]4[C@]5(C)CC[C@@H](O)C(C)(C)[C@H]5CC[C@@]4(C)[C@]3(C)CC[C@@]2(C(=O)[O-])CC[C@@H]1C
REMARK SMILES IDX 26 1 30 2 25 3 3 4 31 5 24 6 4 7 2 8 32 9 22 10 5 11 1 12
REMARK SMILES IDX 33 13 23 14 20 15 6 16 7 17 19 18 21 19 8 20 18 21 17 22
REMARK SMILES IDX 10 23 9 24 14 25 11 26 12 27 15 28 16 29 27 30 28 31 29 32
REMARK SMILES IDX 13 33
REMARK H PARENT 13 34
REMARK Flexibility Score: inf
ROOT
ATOM      1  C   UNL     1      17.807  54.465  20.948  1.00  0.00     0.017 C 
ATOM      2  C   UNL     1      18.439  54.691  22.360  1.00  0.00     0.014 C 
ATOM      3  C   UNL     1      18.233  55.628  20.012  1.00  0.00     0.014 C 
ATOM      4  C   UNL     1      16.228  54.359  20.962  1.00  0.00     0.030 C 
ATOM      5  C   UNL     1      17.834  53.831  23.464  1.00  0.00     0.004 C 
ATOM      6  C   UNL     1      17.637  56.985  20.391  1.00  0.00     0.013 C 
ATOM      7  C   UNL     1      15.451  55.636  20.560  1.00  0.00    -0.063 C 
ATOM      8  C   UNL     1      15.595  53.720  22.267  1.00  0.00    -0.003 C 
ATOM      9  C   UNL     1      16.336  54.112  23.570  1.00  0.00    -0.011 C 
ATOM     10  C   UNL     1      16.065  57.047  20.401  1.00  0.00    -0.006 C 
ATOM     11  C   UNL     1      14.145  55.471  20.259  1.00  0.00    -0.027 C 
ATOM     12  C   UNL     1      15.351  52.199  22.132  1.00  0.00     0.008 C 
ATOM     13  C   UNL     1      15.745  53.447  24.824  1.00  0.00     0.008 C 
ATOM     14  C   UNL     1      15.681  57.859  21.676  1.00  0.00     0.017 C 
ATOM     15  C   UNL     1      15.479  57.742  19.056  1.00  0.00    -0.020 C 
ATOM     16  C   UNL     1      13.247  56.623  19.962  1.00  0.00     0.032 C 
ATOM     17  C   UNL     1      13.883  57.572  18.919  1.00  0.00     0.006 C 
ATOM     18  C   UNL     1      15.894  59.250  18.980  1.00  0.00     0.008 C 
ATOM     19  C   UNL     1      16.117  57.049  17.807  1.00  0.00     0.012 C 
ATOM     20  C   UNL     1      13.031  58.888  18.640  1.00  0.00    -0.025 C 
ATOM     21  C   UNL     1      15.244  60.060  17.848  1.00  0.00     0.005 C 
ATOM     22  C   UNL     1      13.771  59.695  17.513  1.00  0.00     0.003 C 
ATOM     23  C   UNL     1      11.628  58.458  18.089  1.00  0.00     0.010 C 
ATOM     24  C   UNL     1      12.796  59.717  19.940  1.00  0.00     0.012 C 
ATOM     25  C   UNL     1      12.958  60.869  16.827  1.00  0.00    -0.006 C 
ATOM     26  C   UNL     1      10.811  59.605  17.484  1.00  0.00     0.033 C 
ATOM     27  C   UNL     1      11.573  60.318  16.360  1.00  0.00     0.120 C 
ATOM     28  C   UNL     1      13.730  61.325  15.556  1.00  0.00     0.014 C 
ATOM     29  C   UNL     1      12.767  62.125  17.737  1.00  0.00     0.014 C 
ENDROOT
BRANCH   1  30
ATOM     30  C   UNL     1      18.412  53.173  20.372  1.00  0.00     0.048 C 
ATOM     31  O   UNL     1      18.374  52.930  19.134  1.00  0.00    -0.550 OA
ATOM     32  O   UNL     1      19.048  52.255  21.191  1.00  0.00    -0.550 OA
ENDBRANCH   1  30
BRANCH  27  33
ATOM     33  O   UNL     1      10.763  61.356  15.862  1.00  0.00    -0.393 OA
ATOM     34  H   UNL     1      11.198  62.217  16.101  1.00  0.00     0.210 HD
ENDBRANCH  27  33
TORSDOF 2
ENDMDL
MODEL 6
REMARK VINA RESULT:    -3.905      2.363      8.100
REMARK INTER + INTRA:          -4.466
REMARK INTER:                  -4.495
REMARK INTRA:                   0.030
REMARK UNBOUND:                -0.218
REMARK SMILES C[C@@H]1[C@H]2C3=CC[C@H]4[C@]5(C)CC[C@@H](O)C(C)(C)[C@H]5CC[C@@]4(C)[C@]3(C)CC[C@@]2(C(=O)[O-])CC[C@@H]1C
REMARK SMILES IDX 26 1 30 2 25 3 3 4 31 5 24 6 4 7 2 8 32 9 22 10 5 11 1 12
REMARK SMILES IDX 33 13 23 14 20 15 6 16 7 17 19 18 21 19 8 20 18 21 17 22
REMARK SMILES IDX 10 23 9 24 14 25 11 26 12 27 15 28 16 29 27 30 28 31 29 32
REMARK SMILES IDX 13 33
REMARK H PARENT 13 34
REMARK Flexibility Score: inf
ROOT
ATOM      1  C   UNL     1      12.608  60.638  17.534  1.00  0.00     0.017 C 
ATOM      2  C   UNL     1      13.322  62.006  17.282  1.00  0.00     0.014 C 
ATOM      3  C   UNL     1      12.211  60.545  19.033  1.00  0.00     0.014 C 
ATOM      4  C   UNL     1      13.482  59.377  17.148  1.00  0.00     0.030 C 
ATOM      5  C   UNL     1      14.069  62.088  15.955  1.00  0.00     0.004 C 
ATOM      6  C   UNL     1      13.401  60.440  19.989  1.00  0.00     0.013 C 
ATOM      7  C   UNL     1      14.199  58.656  18.314  1.00  0.00    -0.063 C 
ATOM      8  C   UNL     1      14.479  59.581  15.933  1.00  0.00    -0.003 C 
ATOM      9  C   UNL     1      15.127  60.988  15.893  1.00  0.00    -0.011 C 
ATOM     10  C   UNL     1      14.341  59.201  19.755  1.00  0.00    -0.006 C 
ATOM     11  C   UNL     1      14.672  57.418  18.051  1.00  0.00    -0.027 C 
ATOM     12  C   UNL     1      13.873  59.144  14.579  1.00  0.00     0.008 C 
ATOM     13  C   UNL     1      16.054  61.192  14.683  1.00  0.00     0.008 C 
ATOM     14  C   UNL     1      15.797  59.740  19.899  1.00  0.00     0.017 C 
ATOM     15  C   UNL     1      14.042  58.008  20.815  1.00  0.00    -0.020 C 
ATOM     16  C   UNL     1      15.478  56.648  19.042  1.00  0.00     0.032 C 
ATOM     17  C   UNL     1      14.793  56.637  20.429  1.00  0.00     0.006 C 
ATOM     18  C   UNL     1      14.397  58.454  22.273  1.00  0.00     0.008 C 
ATOM     19  C   UNL     1      12.508  57.700  20.814  1.00  0.00     0.012 C 
ATOM     20  C   UNL     1      15.656  55.932  21.567  1.00  0.00    -0.025 C 
ATOM     21  C   UNL     1      14.333  57.350  23.339  1.00  0.00     0.005 C 
ATOM     22  C   UNL     1      14.792  55.938  22.880  1.00  0.00     0.003 C 
ATOM     23  C   UNL     1      15.897  54.441  21.150  1.00  0.00     0.010 C 
ATOM     24  C   UNL     1      17.051  56.606  21.743  1.00  0.00     0.012 C 
ATOM     25  C   UNL     1      15.288  55.008  24.063  1.00  0.00    -0.006 C 
ATOM     26  C   UNL     1      16.439  53.553  22.274  1.00  0.00     0.033 C 
ATOM     27  C   UNL     1      15.525  53.567  23.507  1.00  0.00     0.120 C 
ATOM     28  C   UNL     1      14.156  54.915  25.125  1.00  0.00     0.014 C 
ATOM     29  C   UNL     1      16.571  55.530  24.787  1.00  0.00     0.014 C 
ENDROOT
BRANCH   1  30
ATOM     30  C   UNL     1      11.304  60.640  16.719  1.00  0.00     0.048 C 
ATOM     31  O   UNL     1      10.446  59.724  16.856  1.00  0.00    -0.550 OA
ATOM     32  O   UNL     1      11.016  61.667  15.834  1.00  0.00    -0.550 OA
ENDBRANCH   1  30
BRANCH  27  33
ATOM     33  O   UNL     1      16.092  52.736  24.492  1.00  0.00    -0.393 OA
ATOM     34  H   UNL     1      17.052  52.978  24.572  1.00  0.00     0.210 HD
ENDBRANCH  27  33
TORSDOF 2
ENDMDL
MODEL 7
REMARK VINA RESULT:    -3.255      2.292      3.105
REMARK INTER + INTRA:          -3.759
REMARK INTER:                  -3.541
REMARK INTRA:                  -0.218
REMARK UNBOUND:                -0.218
REMARK SMILES C[C@@H]1[C@H]2C3=CC[C@H]4[C@]5(C)CC[C@@H](O)C(C)(C)[C@H]5CC[C@@]4(C)[C@]3(C)CC[C@@]2(C(=O)[O-])CC[C@@H]1C
REMARK SMILES IDX 26 1 30 2 25 3 3 4 31 5 24 6 4 7 2 8 32 9 22 10 5 11 1 12
REMARK SMILES IDX 33 13 23 14 20 15 6 16 7 17 19 18 21 19 8 20 18 21 17 22
REMARK SMILES IDX 10 23 9 24 14 25 11 26 12 27 15 28 16 29 27 30 28 31 29 32
REMARK SMILES IDX 13 33
REMARK H PARENT 13 34
REMARK Flexibility Score: inf
ROOT
ATOM      1  C   UNL     1      12.558  58.690  22.900  1.00  0.00     0.017 C 
ATOM      2  C   UNL     1      13.498  58.065  23.982  1.00  0.00     0.014 C 
ATOM      3  C   UNL     1      12.312  57.643  21.780  1.00  0.00     0.014 C 
ATOM      4  C   UNL     1      13.119  60.022  22.253  1.00  0.00     0.030 C 
ATOM      5  C   UNL     1      14.100  59.079  24.949  1.00  0.00     0.004 C 
ATOM      6  C   UNL     1      13.553  57.318  20.945  1.00  0.00     0.013 C 
ATOM      7  C   UNL     1      13.799  59.879  20.871  1.00  0.00    -0.063 C 
ATOM      8  C   UNL     1      14.002  60.927  23.209  1.00  0.00    -0.003 C 
ATOM      9  C   UNL     1      14.907  60.116  24.169  1.00  0.00    -0.011 C 
ATOM     10  C   UNL     1      14.198  58.543  20.200  1.00  0.00    -0.006 C 
ATOM     11  C   UNL     1      13.987  61.023  20.177  1.00  0.00    -0.027 C 
ATOM     12  C   UNL     1      13.181  62.027  23.920  1.00  0.00     0.008 C 
ATOM     13  C   UNL     1      15.721  61.003  25.125  1.00  0.00     0.008 C 
ATOM     14  C   UNL     1      15.740  58.385  20.379  1.00  0.00     0.017 C 
ATOM     15  C   UNL     1      13.784  58.583  18.631  1.00  0.00    -0.020 C 
ATOM     16  C   UNL     1      14.725  61.054  18.882  1.00  0.00     0.032 C 
ATOM     17  C   UNL     1      14.203  59.964  17.916  1.00  0.00     0.006 C 
ATOM     18  C   UNL     1      14.374  57.351  17.866  1.00  0.00     0.008 C 
ATOM     19  C   UNL     1      12.228  58.467  18.513  1.00  0.00     0.012 C 
ATOM     20  C   UNL     1      15.026  59.861  16.556  1.00  0.00    -0.025 C 
ATOM     21  C   UNL     1      14.206  57.375  16.340  1.00  0.00     0.005 C 
ATOM     22  C   UNL     1      14.325  58.771  15.667  1.00  0.00     0.003 C 
ATOM     23  C   UNL     1      14.921  61.236  15.813  1.00  0.00     0.010 C 
ATOM     24  C   UNL     1      16.538  59.573  16.809  1.00  0.00     0.012 C 
ATOM     25  C   UNL     1      14.751  58.716  14.142  1.00  0.00    -0.006 C 
ATOM     26  C   UNL     1      15.394  61.202  14.355  1.00  0.00     0.033 C 
ATOM     27  C   UNL     1      14.637  60.150  13.533  1.00  0.00     0.120 C 
ATOM     28  C   UNL     1      13.742  57.808  13.382  1.00  0.00     0.014 C 
ATOM     29  C   UNL     1      16.181  58.133  13.902  1.00  0.00     0.014 C 
ENDROOT
BRANCH   1  30
ATOM     30  C   UNL     1      11.200  58.966  23.569  1.00  0.00     0.048 C 
ATOM     31  O   UNL     1      10.470  59.924  23.194  1.00  0.00    -0.550 OA
ATOM     32  O   UNL     1      10.723  58.147  24.580  1.00  0.00    -0.550 OA
ENDBRANCH   1  30
BRANCH  27  33
ATOM     33  O   UNL     1      15.130  60.176  12.215  1.00  0.00    -0.393 OA
ATOM     34  H   UNL     1      14.788  61.003  11.784  1.00  0.00     0.210 HD
ENDBRANCH  27  33
TORSDOF 2
ENDMDL
MODEL 8
REMARK VINA RESULT:    -3.195      3.970      6.998
REMARK INTER + INTRA:          -3.694
REMARK INTER:                  -3.554
REMARK INTRA:                  -0.140
REMARK UNBOUND:                -0.218
REMARK SMILES C[C@@H]1[C@H]2C3=CC[C@H]4[C@]5(C)CC[C@@H](O)C(C)(C)[C@H]5CC[C@@]4(C)[C@]3(C)CC[C@@]2(C(=O)[O-])CC[C@@H]1C
REMARK SMILES IDX 26 1 30 2 25 3 3 4 31 5 24 6 4 7 2 8 32 9 22 10 5 11 1 12
REMARK SMILES IDX 33 13 23 14 20 15 6 16 7 17 19 18 21 19 8 20 18 21 17 22
REMARK SMILES IDX 10 23 9 24 14 25 11 26 12 27 15 28 16 29 27 30 28 31 29 32
REMARK SMILES IDX 13 33
REMARK H PARENT 13 34
REMARK Flexibility Score: inf
ROOT
ATOM      1  C   UNL     1      16.407  56.100  21.161  1.00  0.00     0.017 C 
ATOM      2  C   UNL     1      17.800  56.478  21.763  1.00  0.00     0.014 C 
ATOM      3  C   UNL     1      15.804  57.350  20.465  1.00  0.00     0.014 C 
ATOM      4  C   UNL     1      15.375  55.549  22.226  1.00  0.00     0.030 C 
ATOM      5  C   UNL     1      18.345  55.464  22.764  1.00  0.00     0.004 C 
ATOM      6  C   UNL     1      15.417  58.475  21.427  1.00  0.00     0.013 C 
ATOM      7  C   UNL     1      14.324  56.557  22.749  1.00  0.00    -0.063 C 
ATOM      8  C   UNL     1      16.004  54.737  23.433  1.00  0.00    -0.003 C 
ATOM      9  C   UNL     1      17.361  55.305  23.921  1.00  0.00    -0.011 C 
ATOM     10  C   UNL     1      14.356  58.086  22.520  1.00  0.00    -0.006 C 
ATOM     11  C   UNL     1      13.261  56.030  23.396  1.00  0.00    -0.027 C 
ATOM     12  C   UNL     1      16.032  53.211  23.180  1.00  0.00     0.008 C 
ATOM     13  C   UNL     1      17.986  54.481  25.058  1.00  0.00     0.008 C 
ATOM     14  C   UNL     1      14.856  58.737  23.847  1.00  0.00     0.017 C 
ATOM     15  C   UNL     1      12.868  58.605  22.130  1.00  0.00    -0.020 C 
ATOM     16  C   UNL     1      12.226  56.883  24.048  1.00  0.00     0.032 C 
ATOM     17  C   UNL     1      11.728  57.989  23.088  1.00  0.00     0.006 C 
ATOM     18  C   UNL     1      12.807  60.170  22.116  1.00  0.00     0.008 C 
ATOM     19  C   UNL     1      12.534  58.141  20.674  1.00  0.00     0.012 C 
ATOM     20  C   UNL     1      10.707  59.011  23.757  1.00  0.00    -0.025 C 
ATOM     21  C   UNL     1      11.407  60.777  21.942  1.00  0.00     0.005 C 
ATOM     22  C   UNL     1      10.245  60.012  22.636  1.00  0.00     0.003 C 
ATOM     23  C   UNL     1       9.451  58.207  24.238  1.00  0.00     0.010 C 
ATOM     24  C   UNL     1      11.322  59.720  25.002  1.00  0.00     0.012 C 
ATOM     25  C   UNL     1       8.986  60.916  22.964  1.00  0.00    -0.006 C 
ATOM     26  C   UNL     1       8.251  59.082  24.619  1.00  0.00     0.033 C 
ATOM     27  C   UNL     1       7.824  59.999  23.465  1.00  0.00     0.120 C 
ATOM     28  C   UNL     1       8.508  61.591  21.647  1.00  0.00     0.014 C 
ATOM     29  C   UNL     1       9.270  62.051  23.999  1.00  0.00     0.014 C 
ENDROOT
BRANCH   1  30
ATOM     30  C   UNL     1      16.646  55.044  20.068  1.00  0.00     0.048 C 
ATOM     31  O   UNL     1      15.928  54.009  19.992  1.00  0.00    -0.550 OA
ATOM     32  O   UNL     1      17.635  55.215  19.114  1.00  0.00    -0.550 OA
ENDBRANCH   1  30
BRANCH  27  33
ATOM     33  O   UNL     1       6.726  60.770  23.893  1.00  0.00    -0.393 OA
ATOM     34  H   UNL     1       6.077  60.808  23.143  1.00  0.00     0.210 HD
ENDBRANCH  27  33
TORSDOF 2
ENDMDL
MODEL 9
REMARK VINA RESULT:    -3.133      2.126      8.238
REMARK INTER + INTRA:          -3.627
REMARK INTER:                  -3.427
REMARK INTRA:                  -0.199
REMARK UNBOUND:                -0.218
REMARK SMILES C[C@@H]1[C@H]2C3=CC[C@H]4[C@]5(C)CC[C@@H](O)C(C)(C)[C@H]5CC[C@@]4(C)[C@]3(C)CC[C@@]2(C(=O)[O-])CC[C@@H]1C
REMARK SMILES IDX 26 1 30 2 25 3 3 4 31 5 24 6 4 7 2 8 32 9 22 10 5 11 1 12
REMARK SMILES IDX 33 13 23 14 20 15 6 16 7 17 19 18 21 19 8 20 18 21 17 22
REMARK SMILES IDX 10 23 9 24 14 25 11 26 12 27 15 28 16 29 27 30 28 31 29 32
REMARK SMILES IDX 13 33
REMARK H PARENT 13 34
REMARK Flexibility Score: inf
ROOT
ATOM      1  C   UNL     1      15.154  60.833  16.218  1.00  0.00     0.017 C 
ATOM      2  C   UNL     1      16.537  61.562  16.227  1.00  0.00     0.014 C 
ATOM      3  C   UNL     1      14.160  61.626  17.109  1.00  0.00     0.014 C 
ATOM      4  C   UNL     1      15.216  59.332  16.717  1.00  0.00     0.030 C 
ATOM      5  C   UNL     1      17.691  60.724  15.689  1.00  0.00     0.004 C 
ATOM      6  C   UNL     1      14.500  61.601  18.600  1.00  0.00     0.013 C 
ATOM      7  C   UNL     1      14.785  59.077  18.181  1.00  0.00    -0.063 C 
ATOM      8  C   UNL     1      16.564  58.560  16.399  1.00  0.00    -0.003 C 
ATOM      9  C   UNL     1      17.829  59.447  16.517  1.00  0.00    -0.011 C 
ATOM     10  C   UNL     1      14.552  60.170  19.251  1.00  0.00    -0.006 C 
ATOM     11  C   UNL     1      14.529  57.793  18.513  1.00  0.00    -0.027 C 
ATOM     12  C   UNL     1      16.498  57.756  15.080  1.00  0.00     0.008 C 
ATOM     13  C   UNL     1      19.124  58.703  16.158  1.00  0.00     0.008 C 
ATOM     14  C   UNL     1      15.804  60.173  20.182  1.00  0.00     0.017 C 
ATOM     15  C   UNL     1      13.197  59.833  20.080  1.00  0.00    -0.020 C 
ATOM     16  C   UNL     1      14.210  57.384  19.911  1.00  0.00     0.032 C 
ATOM     17  C   UNL     1      13.112  58.286  20.521  1.00  0.00     0.006 C 
ATOM     18  C   UNL     1      13.048  60.781  21.317  1.00  0.00     0.008 C 
ATOM     19  C   UNL     1      11.960  60.111  19.163  1.00  0.00     0.012 C 
ATOM     20  C   UNL     1      12.805  57.981  22.053  1.00  0.00    -0.025 C 
ATOM     21  C   UNL     1      11.904  60.438  22.281  1.00  0.00     0.005 C 
ATOM     22  C   UNL     1      11.625  58.923  22.490  1.00  0.00     0.003 C 
ATOM     23  C   UNL     1      12.312  56.498  22.170  1.00  0.00     0.010 C 
ATOM     24  C   UNL     1      14.076  58.129  22.944  1.00  0.00     0.012 C 
ATOM     25  C   UNL     1      10.916  58.584  23.866  1.00  0.00    -0.006 C 
ATOM     26  C   UNL     1      11.684  56.148  23.524  1.00  0.00     0.033 C 
ATOM     27  C   UNL     1      10.510  57.075  23.866  1.00  0.00     0.120 C 
ATOM     28  C   UNL     1       9.606  59.417  23.963  1.00  0.00     0.014 C 
ATOM     29  C   UNL     1      11.779  58.917  25.125  1.00  0.00     0.014 C 
ENDROOT
BRANCH   1  30
ATOM     30  C   UNL     1      14.613  60.883  14.779  1.00  0.00     0.048 C 
ATOM     31  O   UNL     1      13.987  59.906  14.281  1.00  0.00    -0.550 OA
ATOM     32  O   UNL     1      14.767  62.017  13.997  1.00  0.00    -0.550 OA
ENDBRANCH   1  30
BRANCH  27  33
ATOM     33  O   UNL     1       9.994  56.695  25.120  1.00  0.00    -0.393 OA
ATOM     34  H   UNL     1       9.096  56.300  24.967  1.00  0.00     0.210 HD
ENDBRANCH  27  33
TORSDOF 2
ENDMDL
