MODEL 1
REMARK VINA RESULT:    -3.484      0.000      0.000
REMARK INTER + INTRA:          -4.879
REMARK INTER:                  -4.503
REMARK INTRA:                  -0.376
REMARK UNBOUND:                -0.376
REMARK SMILES CCCCCCC(=O)[O-]
REMARK SMILES IDX 5 1 6 2 7 3 8 4 9 5 4 6 3 7 2 8 1 9
REMARK H PARENT
REMARK Flexibility Score: inf
ROOT
ATOM      1  C   UNL     1      -8.361 -12.577  16.702  1.00  0.00     0.006 C 
ENDROOT
BRANCH   1   2
ATOM      2  C   UNL     1      -9.877 -12.810  16.685  1.00  0.00     0.053 C 
BRANCH   2   3
ATOM      3  C   UNL     1     -10.547 -12.034  15.593  1.00  0.00     0.041 C 
ATOM      4  O   UNL     1     -10.178 -12.173  14.397  1.00  0.00    -0.550 OA
ATOM      5  O   UNL     1     -11.599 -11.178  15.893  1.00  0.00    -0.550 OA
ENDBRANCH   2   3
ENDBRANCH   1   2
BRANCH   1   6
ATOM      6  C   UNL     1      -7.575 -13.882  16.912  1.00  0.00     0.000 C 
BRANCH   6   7
ATOM      7  C   UNL     1      -7.968 -14.976  15.907  1.00  0.00    -0.000 C 
BRANCH   7   8
ATOM      8  C   UNL     1      -7.463 -14.684  14.485  1.00  0.00    -0.003 C 
ATOM      9  C   UNL     1      -8.477 -15.135  13.438  1.00  0.00     0.004 C 
ENDBRANCH   7   8
ENDBRANCH   6   7
ENDBRANCH   1   6
TORSDOF 5
ENDMDL
MODEL 2
REMARK VINA RESULT:    -3.351      1.410      2.423
REMARK INTER + INTRA:          -4.707
REMARK INTER:                  -4.415
REMARK INTRA:                  -0.292
REMARK UNBOUND:                -0.376
REMARK SMILES CCCCCCC(=O)[O-]
REMARK SMILES IDX 5 1 6 2 7 3 8 4 9 5 4 6 3 7 2 8 1 9
REMARK H PARENT
REMARK Flexibility Score: inf
ROOT
ATOM      1  C   UNL     1      -8.734 -12.653  14.876  1.00  0.00     0.006 C 
ENDROOT
BRANCH   1   2
ATOM      2  C   UNL     1     -10.146 -12.165  14.529  1.00  0.00     0.053 C 
BRANCH   2   3
ATOM      3  C   UNL     1     -10.893 -11.713  15.746  1.00  0.00     0.041 C 
ATOM      4  O   UNL     1     -12.060 -11.250  15.640  1.00  0.00    -0.550 OA
ATOM      5  O   UNL     1     -10.312 -11.828  17.002  1.00  0.00    -0.550 OA
ENDBRANCH   2   3
ENDBRANCH   1   2
BRANCH   1   6
ATOM      6  C   UNL     1      -8.463 -14.070  14.344  1.00  0.00     0.000 C 
BRANCH   6   7
ATOM      7  C   UNL     1      -7.808 -14.981  15.394  1.00  0.00    -0.000 C 
BRANCH   7   8
ATOM      8  C   UNL     1      -8.607 -15.044  16.705  1.00  0.00    -0.003 C 
ATOM      9  C   UNL     1      -7.745 -14.633  17.895  1.00  0.00     0.004 C 
ENDBRANCH   7   8
ENDBRANCH   6   7
ENDBRANCH   1   6
TORSDOF 5
ENDMDL
MODEL 3
REMARK VINA RESULT:    -3.328      2.956      3.294
REMARK INTER + INTRA:          -4.677
REMARK INTER:                  -4.309
REMARK INTRA:                  -0.368
REMARK UNBOUND:                -0.376
REMARK SMILES CCCCCCC(=O)[O-]
REMARK SMILES IDX 5 1 6 2 7 3 8 4 9 5 4 6 3 7 2 8 1 9
REMARK H PARENT
REMARK Flexibility Score: inf
ROOT
ATOM      1  C   UNL     1      -8.360 -12.701  16.156  1.00  0.00     0.006 C 
ENDROOT
BRANCH   1   2
ATOM      2  C   UNL     1      -8.924 -13.680  17.194  1.00  0.00     0.053 C 
BRANCH   2   3
ATOM      3  C   UNL     1      -7.866 -14.597  17.726  1.00  0.00     0.041 C 
ATOM      4  O   UNL     1      -7.777 -15.779  17.299  1.00  0.00    -0.550 OA
ATOM      5  O   UNL     1      -6.961 -14.139  18.675  1.00  0.00    -0.550 OA
ENDBRANCH   2   3
ENDBRANCH   1   2
BRANCH   1   6
ATOM      6  C   UNL     1      -8.430 -13.268  14.727  1.00  0.00     0.000 C 
BRANCH   6   7
ATOM      7  C   UNL     1      -7.099 -13.886  14.271  1.00  0.00    -0.000 C 
BRANCH   7   8
ATOM      8  C   UNL     1      -7.268 -15.303  13.701  1.00  0.00    -0.003 C 
ATOM      9  C   UNL     1      -8.744 -15.662  13.550  1.00  0.00     0.004 C 
ENDBRANCH   7   8
ENDBRANCH   6   7
ENDBRANCH   1   6
TORSDOF 5
ENDMDL
MODEL 4
REMARK VINA RESULT:    -3.278     12.710     14.103
REMARK INTER + INTRA:          -4.613
REMARK INTER:                  -4.442
REMARK INTRA:                  -0.171
REMARK UNBOUND:                -0.376
REMARK SMILES CCCCCCC(=O)[O-]
REMARK SMILES IDX 5 1 6 2 7 3 8 4 9 5 4 6 3 7 2 8 1 9
REMARK H PARENT
REMARK Flexibility Score: inf
ROOT
ATOM      1  C   UNL     1     -11.837  -8.262  28.017  1.00  0.00     0.006 C 
ENDROOT
BRANCH   1   2
ATOM      2  C   UNL     1     -11.584  -8.968  29.356  1.00  0.00     0.053 C 
BRANCH   2   3
ATOM      3  C   UNL     1     -11.369  -7.989  30.469  1.00  0.00     0.041 C 
ATOM      4  O   UNL     1     -11.215  -8.395  31.651  1.00  0.00    -0.550 OA
ATOM      5  O   UNL     1     -11.310  -6.628  30.197  1.00  0.00    -0.550 OA
ENDBRANCH   2   3
ENDBRANCH   1   2
BRANCH   1   6
ATOM      6  C   UNL     1     -11.172  -8.997  26.840  1.00  0.00     0.000 C 
BRANCH   6   7
ATOM      7  C   UNL     1     -12.112  -9.153  25.634  1.00  0.00    -0.000 C 
BRANCH   7   8
ATOM      8  C   UNL     1     -13.018  -7.930  25.426  1.00  0.00    -0.003 C 
ATOM      9  C   UNL     1     -12.509  -7.056  24.284  1.00  0.00     0.004 C 
ENDBRANCH   7   8
ENDBRANCH   6   7
ENDBRANCH   1   6
TORSDOF 5
ENDMDL
MODEL 5
REMARK VINA RESULT:    -3.229     16.658     17.865
REMARK INTER + INTRA:          -4.550
REMARK INTER:                  -4.365
REMARK INTRA:                  -0.184
REMARK UNBOUND:                -0.376
REMARK SMILES CCCCCCC(=O)[O-]
REMARK SMILES IDX 5 1 6 2 7 3 8 4 9 5 4 6 3 7 2 8 1 9
REMARK H PARENT
REMARK Flexibility Score: inf
ROOT
ATOM      1  C   UNL     1       0.354 -18.502  29.501  1.00  0.00     0.006 C 
ENDROOT
BRANCH   1   2
ATOM      2  C   UNL     1       0.461 -17.097  28.894  1.00  0.00     0.053 C 
BRANCH   2   3
ATOM      3  C   UNL     1      -0.571 -16.168  29.455  1.00  0.00     0.041 C 
ATOM      4  O   UNL     1      -0.362 -15.567  30.542  1.00  0.00    -0.550 OA
ATOM      5  O   UNL     1      -1.754 -15.943  28.762  1.00  0.00    -0.550 OA
ENDBRANCH   2   3
ENDBRANCH   1   2
BRANCH   1   6
ATOM      6  C   UNL     1       1.700 -19.245  29.486  1.00  0.00     0.000 C 
BRANCH   6   7
ATOM      7  C   UNL     1       2.809 -18.444  28.784  1.00  0.00    -0.000 C 
BRANCH   7   8
ATOM      8  C   UNL     1       4.123 -19.231  28.665  1.00  0.00    -0.003 C 
ATOM      9  C   UNL     1       4.003 -20.605  29.318  1.00  0.00     0.004 C 
ENDBRANCH   7   8
ENDBRANCH   6   7
ENDBRANCH   1   6
TORSDOF 5
ENDMDL
MODEL 6
REMARK VINA RESULT:    -3.201      2.490      4.133
REMARK INTER + INTRA:          -4.513
REMARK INTER:                  -4.255
REMARK INTRA:                  -0.258
REMARK UNBOUND:                -0.376
REMARK SMILES CCCCCCC(=O)[O-]
REMARK SMILES IDX 5 1 6 2 7 3 8 4 9 5 4 6 3 7 2 8 1 9
REMARK H PARENT
REMARK Flexibility Score: inf
ROOT
ATOM      1  C   UNL     1      -8.895 -14.267  15.031  1.00  0.00     0.006 C 
ENDROOT
BRANCH   1   2
ATOM      2  C   UNL     1      -7.810 -14.779  15.987  1.00  0.00     0.053 C 
BRANCH   2   3
ATOM      3  C   UNL     1      -8.047 -14.321  17.394  1.00  0.00     0.041 C 
ATOM      4  O   UNL     1      -7.089 -13.899  18.094  1.00  0.00    -0.550 OA
ATOM      5  O   UNL     1      -9.331 -14.333  17.923  1.00  0.00    -0.550 OA
ENDBRANCH   2   3
ENDBRANCH   1   2
BRANCH   1   6
ATOM      6  C   UNL     1      -8.789 -12.751  14.793  1.00  0.00     0.000 C 
BRANCH   6   7
ATOM      7  C   UNL     1     -10.161 -12.087  14.592  1.00  0.00    -0.000 C 
BRANCH   7   8
ATOM      8  C   UNL     1     -10.866 -11.770  15.919  1.00  0.00    -0.003 C 
ATOM      9  C   UNL     1     -12.261 -11.201  15.678  1.00  0.00     0.004 C 
ENDBRANCH   7   8
ENDBRANCH   6   7
ENDBRANCH   1   6
TORSDOF 5
ENDMDL
MODEL 7
REMARK VINA RESULT:    -3.148     12.135     13.238
REMARK INTER + INTRA:          -4.444
REMARK INTER:                  -4.271
REMARK INTRA:                  -0.173
REMARK UNBOUND:                -0.376
REMARK SMILES CCCCCCC(=O)[O-]
REMARK SMILES IDX 5 1 6 2 7 3 8 4 9 5 4 6 3 7 2 8 1 9
REMARK H PARENT
REMARK Flexibility Score: inf
ROOT
ATOM      1  C   UNL     1     -11.689  -8.250  26.145  1.00  0.00     0.006 C 
ENDROOT
BRANCH   1   2
ATOM      2  C   UNL     1     -12.517  -8.439  27.423  1.00  0.00     0.053 C 
BRANCH   2   3
ATOM      3  C   UNL     1     -11.649  -8.518  28.642  1.00  0.00     0.041 C 
ATOM      4  O   UNL     1     -11.323  -7.469  29.258  1.00  0.00    -0.550 OA
ATOM      5  O   UNL     1     -11.222  -9.753  29.113  1.00  0.00    -0.550 OA
ENDBRANCH   2   3
ENDBRANCH   1   2
BRANCH   1   6
ATOM      6  C   UNL     1     -12.544  -8.395  24.875  1.00  0.00     0.000 C 
BRANCH   6   7
ATOM      7  C   UNL     1     -12.616  -7.094  24.059  1.00  0.00    -0.000 C 
BRANCH   7   8
ATOM      8  C   UNL     1     -14.054  -6.721  23.665  1.00  0.00    -0.003 C 
ATOM      9  C   UNL     1     -14.620  -5.655  24.599  1.00  0.00     0.004 C 
ENDBRANCH   7   8
ENDBRANCH   6   7
ENDBRANCH   1   6
TORSDOF 5
ENDMDL
MODEL 8
REMARK VINA RESULT:    -3.069     12.886     14.161
REMARK INTER + INTRA:          -4.342
REMARK INTER:                  -4.226
REMARK INTRA:                  -0.116
REMARK UNBOUND:                -0.376
REMARK SMILES CCCCCCC(=O)[O-]
REMARK SMILES IDX 5 1 6 2 7 3 8 4 9 5 4 6 3 7 2 8 1 9
REMARK H PARENT
REMARK Flexibility Score: inf
ROOT
ATOM      1  C   UNL     1      -1.936 -16.891  26.492  1.00  0.00     0.006 C 
ENDROOT
BRANCH   1   2
ATOM      2  C   UNL     1      -2.460 -15.453  26.387  1.00  0.00     0.053 C 
BRANCH   2   3
ATOM      3  C   UNL     1      -3.713 -15.375  25.570  1.00  0.00     0.041 C 
ATOM      4  O   UNL     1      -3.658 -15.059  24.352  1.00  0.00    -0.550 OA
ATOM      5  O   UNL     1      -4.939 -15.680  26.146  1.00  0.00    -0.550 OA
ENDBRANCH   2   3
ENDBRANCH   1   2
BRANCH   1   6
ATOM      6  C   UNL     1      -0.562 -16.959  27.180  1.00  0.00     0.000 C 
BRANCH   6   7
ATOM      7  C   UNL     1      -0.658 -17.391  28.652  1.00  0.00    -0.000 C 
BRANCH   7   8
ATOM      8  C   UNL     1       0.649 -18.007  29.175  1.00  0.00    -0.003 C 
ATOM      9  C   UNL     1       1.859 -17.422  28.453  1.00  0.00     0.004 C 
ENDBRANCH   7   8
ENDBRANCH   6   7
ENDBRANCH   1   6
TORSDOF 5
ENDMDL
MODEL 9
REMARK VINA RESULT:    -3.046     13.291     14.578
REMARK INTER + INTRA:          -4.313
REMARK INTER:                  -4.143
REMARK INTRA:                  -0.170
REMARK UNBOUND:                -0.376
REMARK SMILES CCCCCCC(=O)[O-]
REMARK SMILES IDX 5 1 6 2 7 3 8 4 9 5 4 6 3 7 2 8 1 9
REMARK H PARENT
REMARK Flexibility Score: inf
ROOT
ATOM      1  C   UNL     1      -1.266 -16.835  26.579  1.00  0.00     0.006 C 
ENDROOT
BRANCH   1   2
ATOM      2  C   UNL     1      -2.765 -16.506  26.597  1.00  0.00     0.053 C 
BRANCH   2   3
ATOM      3  C   UNL     1      -3.080 -15.299  25.769  1.00  0.00     0.041 C 
ATOM      4  O   UNL     1      -2.680 -14.160  26.128  1.00  0.00    -0.550 OA
ATOM      5  O   UNL     1      -3.792 -15.435  24.584  1.00  0.00    -0.550 OA
ENDBRANCH   2   3
ENDBRANCH   1   2
BRANCH   1   6
ATOM      6  C   UNL     1      -0.664 -16.877  27.993  1.00  0.00     0.000 C 
BRANCH   6   7
ATOM      7  C   UNL     1       0.842 -17.183  27.986  1.00  0.00    -0.000 C 
BRANCH   7   8
ATOM      8  C   UNL     1       1.251 -18.172  29.088  1.00  0.00    -0.003 C 
ATOM      9  C   UNL     1       0.026 -18.762  29.780  1.00  0.00     0.004 C 
ENDBRANCH   7   8
ENDBRANCH   6   7
ENDBRANCH   1   6
TORSDOF 5
ENDMDL
