MODEL 1
REMARK VINA RESULT:    -3.425      0.000      0.000
REMARK INTER + INTRA:          -4.148
REMARK INTER:                  -4.026
REMARK INTRA:                  -0.122
REMARK UNBOUND:                -0.122
REMARK SMILES O=C([O-])CCC(=O)[O-]
REMARK SMILES IDX 4 1 2 2 1 3 3 4 5 5 6 6 7 7 8 8
REMARK H PARENT
REMARK Flexibility Score: inf
ROOT
ATOM      1  C   UNL     1      -9.558   5.226 -10.567  1.00  0.00     0.059 C 
ENDROOT
BRANCH   1   2
ATOM      2  C   UNL     1      -8.604   4.996 -11.698  1.00  0.00     0.042 C 
ATOM      3  O   UNL     1      -7.416   5.405 -11.618  1.00  0.00    -0.550 OA
ATOM      4  O   UNL     1      -9.038   4.365 -12.857  1.00  0.00    -0.550 OA
ENDBRANCH   1   2
BRANCH   1   5
ATOM      5  C   UNL     1      -9.166   4.416  -9.326  1.00  0.00     0.059 C 
BRANCH   5   6
ATOM      6  C   UNL     1      -8.636   5.299  -8.238  1.00  0.00     0.042 C 
ATOM      7  O   UNL     1      -7.424   5.643  -8.235  1.00  0.00    -0.550 OA
ATOM      8  O   UNL     1      -9.470   5.707  -7.206  1.00  0.00    -0.550 OA
ENDBRANCH   5   6
ENDBRANCH   1   5
TORSDOF 3
ENDMDL
MODEL 2
REMARK VINA RESULT:    -3.409      0.110      3.870
REMARK INTER + INTRA:          -4.129
REMARK INTER:                  -4.006
REMARK INTRA:                  -0.123
REMARK UNBOUND:                -0.122
REMARK SMILES O=C([O-])CCC(=O)[O-]
REMARK SMILES IDX 4 1 2 2 1 3 3 4 5 5 6 6 7 7 8 8
REMARK H PARENT
REMARK Flexibility Score: inf
ROOT
ATOM      1  C   UNL     1      -9.175   4.412  -9.421  1.00  0.00     0.059 C 
ENDROOT
BRANCH   1   2
ATOM      2  C   UNL     1      -8.656   5.283  -8.319  1.00  0.00     0.042 C 
ATOM      3  O   UNL     1      -7.455   5.662  -8.323  1.00  0.00    -0.550 OA
ATOM      4  O   UNL     1      -9.488   5.644  -7.267  1.00  0.00    -0.550 OA
ENDBRANCH   1   2
BRANCH   1   5
ATOM      5  C   UNL     1      -9.531   5.231 -10.666  1.00  0.00     0.059 C 
BRANCH   5   6
ATOM      6  C   UNL     1      -8.555   4.994 -11.779  1.00  0.00     0.042 C 
ATOM      7  O   UNL     1      -7.400   5.494 -11.725  1.00  0.00    -0.550 OA
ATOM      8  O   UNL     1      -8.935   4.256 -12.891  1.00  0.00    -0.550 OA
ENDBRANCH   5   6
ENDBRANCH   1   5
TORSDOF 3
ENDMDL
MODEL 3
REMARK VINA RESULT:    -3.192      1.778      4.335
REMARK INTER + INTRA:          -3.874
REMARK INTER:                  -3.836
REMARK INTRA:                  -0.037
REMARK UNBOUND:                -0.122
REMARK SMILES O=C([O-])CCC(=O)[O-]
REMARK SMILES IDX 4 1 2 2 1 3 3 4 5 5 6 6 7 7 8 8
REMARK H PARENT
REMARK Flexibility Score: inf
ROOT
ATOM      1  C   UNL     1      -9.122   5.630  -7.737  1.00  0.00     0.059 C 
ENDROOT
BRANCH   1   2
ATOM      2  C   UNL     1      -8.068   5.953  -6.723  1.00  0.00     0.042 C 
ATOM      3  O   UNL     1      -7.332   6.962  -6.874  1.00  0.00    -0.550 OA
ATOM      4  O   UNL     1      -7.873   5.115  -5.632  1.00  0.00    -0.550 OA
ENDBRANCH   1   2
BRANCH   1   5
ATOM      5  C   UNL     1      -8.540   4.868  -8.932  1.00  0.00     0.059 C 
BRANCH   5   6
ATOM      6  C   UNL     1      -9.321   5.128 -10.185  1.00  0.00     0.042 C 
ATOM      7  O   UNL     1     -10.471   5.637 -10.120  1.00  0.00    -0.550 OA
ATOM      8  O   UNL     1      -8.793   4.770 -11.419  1.00  0.00    -0.550 OA
ENDBRANCH   5   6
ENDBRANCH   1   5
TORSDOF 3
ENDMDL
MODEL 4
REMARK VINA RESULT:    -3.178      1.778      2.274
REMARK INTER + INTRA:          -3.857
REMARK INTER:                  -3.823
REMARK INTRA:                  -0.034
REMARK UNBOUND:                -0.122
REMARK SMILES O=C([O-])CCC(=O)[O-]
REMARK SMILES IDX 4 1 2 2 1 3 3 4 5 5 6 6 7 7 8 8
REMARK H PARENT
REMARK Flexibility Score: inf
ROOT
ATOM      1  C   UNL     1      -8.550   4.843  -8.920  1.00  0.00     0.059 C 
ENDROOT
BRANCH   1   2
ATOM      2  C   UNL     1      -9.315   5.123 -10.177  1.00  0.00     0.042 C 
ATOM      3  O   UNL     1     -10.456   5.652 -10.120  1.00  0.00    -0.550 OA
ATOM      4  O   UNL     1      -8.785   4.762 -11.409  1.00  0.00    -0.550 OA
ENDBRANCH   1   2
BRANCH   1   5
ATOM      5  C   UNL     1      -9.108   5.635  -7.733  1.00  0.00     0.059 C 
BRANCH   5   6
ATOM      6  C   UNL     1      -8.058   5.882  -6.693  1.00  0.00     0.042 C 
ATOM      7  O   UNL     1      -7.932   5.092  -5.720  1.00  0.00    -0.550 OA
ATOM      8  O   UNL     1      -7.247   7.006  -6.778  1.00  0.00    -0.550 OA
ENDBRANCH   5   6
ENDBRANCH   1   5
TORSDOF 3
ENDMDL
MODEL 5
REMARK VINA RESULT:    -3.174      1.956      2.620
REMARK INTER + INTRA:          -3.853
REMARK INTER:                  -3.827
REMARK INTRA:                  -0.026
REMARK UNBOUND:                -0.122
REMARK SMILES O=C([O-])CCC(=O)[O-]
REMARK SMILES IDX 4 1 2 2 1 3 3 4 5 5 6 6 7 7 8 8
REMARK H PARENT
REMARK Flexibility Score: inf
ROOT
ATOM      1  C   UNL     1      -7.719   5.338 -12.220  1.00  0.00     0.059 C 
ENDROOT
BRANCH   1   2
ATOM      2  C   UNL     1      -7.565   5.052 -13.682  1.00  0.00     0.042 C 
ATOM      3  O   UNL     1      -8.166   5.760 -14.532  1.00  0.00    -0.550 OA
ATOM      4  O   UNL     1      -6.790   3.979 -14.103  1.00  0.00    -0.550 OA
ENDBRANCH   1   2
BRANCH   1   5
ATOM      5  C   UNL     1      -8.885   4.551 -11.612  1.00  0.00     0.059 C 
BRANCH   5   6
ATOM      6  C   UNL     1      -9.279   5.096 -10.273  1.00  0.00     0.042 C 
ATOM      7  O   UNL     1     -10.380   5.690 -10.130  1.00  0.00    -0.550 OA
ATOM      8  O   UNL     1      -8.412   4.983  -9.194  1.00  0.00    -0.550 OA
ENDBRANCH   5   6
ENDBRANCH   1   5
TORSDOF 3
ENDMDL
MODEL 6
REMARK VINA RESULT:    -3.151      1.983      4.527
REMARK INTER + INTRA:          -3.825
REMARK INTER:                  -3.799
REMARK INTRA:                  -0.026
REMARK UNBOUND:                -0.122
REMARK SMILES O=C([O-])CCC(=O)[O-]
REMARK SMILES IDX 4 1 2 2 1 3 3 4 5 5 6 6 7 7 8 8
REMARK H PARENT
REMARK Flexibility Score: inf
ROOT
ATOM      1  C   UNL     1      -8.843   4.576 -11.612  1.00  0.00     0.059 C 
ENDROOT
BRANCH   1   2
ATOM      2  C   UNL     1      -9.268   5.104 -10.276  1.00  0.00     0.042 C 
ATOM      3  O   UNL     1     -10.381   5.678 -10.147  1.00  0.00    -0.550 OA
ATOM      4  O   UNL     1      -8.417   4.998  -9.183  1.00  0.00    -0.550 OA
ENDBRANCH   1   2
BRANCH   1   5
ATOM      5  C   UNL     1      -7.666   5.373 -12.184  1.00  0.00     0.059 C 
BRANCH   5   6
ATOM      6  C   UNL     1      -7.503   5.136 -13.655  1.00  0.00     0.042 C 
ATOM      7  O   UNL     1      -6.678   4.281 -14.071  1.00  0.00    -0.550 OA
ATOM      8  O   UNL     1      -8.234   5.888 -14.565  1.00  0.00    -0.550 OA
ENDBRANCH   5   6
ENDBRANCH   1   5
TORSDOF 3
ENDMDL
MODEL 7
REMARK VINA RESULT:    -3.064      2.561      5.334
REMARK INTER + INTRA:          -3.723
REMARK INTER:                  -3.603
REMARK INTRA:                  -0.120
REMARK UNBOUND:                -0.122
REMARK SMILES O=C([O-])CCC(=O)[O-]
REMARK SMILES IDX 4 1 2 2 1 3 3 4 5 5 6 6 7 7 8 8
REMARK H PARENT
REMARK Flexibility Score: inf
ROOT
ATOM      1  C   UNL     1      -8.558   6.436  -5.792  1.00  0.00     0.059 C 
ENDROOT
BRANCH   1   2
ATOM      2  C   UNL     1      -8.247   5.516  -4.653  1.00  0.00     0.042 C 
ATOM      3  O   UNL     1      -8.748   5.722  -3.517  1.00  0.00    -0.550 OA
ATOM      4  O   UNL     1      -7.371   4.453  -4.837  1.00  0.00    -0.550 OA
ENDBRANCH   1   2
BRANCH   1   5
ATOM      5  C   UNL     1      -9.343   5.721  -6.896  1.00  0.00     0.059 C 
BRANCH   5   6
ATOM      6  C   UNL     1      -8.476   5.411  -8.078  1.00  0.00     0.042 C 
ATOM      7  O   UNL     1      -8.964   4.844  -9.091  1.00  0.00    -0.550 OA
ATOM      8  O   UNL     1      -7.121   5.713  -8.043  1.00  0.00    -0.550 OA
ENDBRANCH   5   6
ENDBRANCH   1   5
TORSDOF 3
ENDMDL
MODEL 8
REMARK VINA RESULT:    -3.062      2.586      3.880
REMARK INTER + INTRA:          -3.721
REMARK INTER:                  -3.600
REMARK INTRA:                  -0.121
REMARK UNBOUND:                -0.122
REMARK SMILES O=C([O-])CCC(=O)[O-]
REMARK SMILES IDX 4 1 2 2 1 3 3 4 5 5 6 6 7 7 8 8
REMARK H PARENT
REMARK Flexibility Score: inf
ROOT
ATOM      1  C   UNL     1      -9.313   5.718  -6.879  1.00  0.00     0.059 C 
ENDROOT
BRANCH   1   2
ATOM      2  C   UNL     1      -8.449   5.382  -8.055  1.00  0.00     0.042 C 
ATOM      3  O   UNL     1      -7.223   5.670  -8.044  1.00  0.00    -0.550 OA
ATOM      4  O   UNL     1      -9.006   4.786  -9.180  1.00  0.00    -0.550 OA
ENDBRANCH   1   2
BRANCH   1   5
ATOM      5  C   UNL     1      -8.518   6.435  -5.782  1.00  0.00     0.059 C 
BRANCH   5   6
ATOM      6  C   UNL     1      -8.227   5.525  -4.628  1.00  0.00     0.042 C 
ATOM      7  O   UNL     1      -8.776   5.722  -3.512  1.00  0.00    -0.550 OA
ATOM      8  O   UNL     1      -7.319   4.484  -4.775  1.00  0.00    -0.550 OA
ENDBRANCH   5   6
ENDBRANCH   1   5
TORSDOF 3
ENDMDL
MODEL 9
REMARK VINA RESULT:    -3.033      2.614      3.752
REMARK INTER + INTRA:          -3.688
REMARK INTER:                  -3.567
REMARK INTRA:                  -0.121
REMARK UNBOUND:                -0.122
REMARK SMILES O=C([O-])CCC(=O)[O-]
REMARK SMILES IDX 4 1 2 2 1 3 3 4 5 5 6 6 7 7 8 8
REMARK H PARENT
REMARK Flexibility Score: inf
ROOT
ATOM      1  C   UNL     1      -9.270   5.651  -6.841  1.00  0.00     0.059 C 
ENDROOT
BRANCH   1   2
ATOM      2  C   UNL     1      -8.454   5.380  -8.067  1.00  0.00     0.042 C 
ATOM      3  O   UNL     1      -7.228   5.666  -8.089  1.00  0.00    -0.550 OA
ATOM      4  O   UNL     1      -9.057   4.848  -9.200  1.00  0.00    -0.550 OA
ENDBRANCH   1   2
BRANCH   1   5
ATOM      5  C   UNL     1      -8.452   6.381  -5.770  1.00  0.00     0.059 C 
BRANCH   5   6
ATOM      6  C   UNL     1      -8.149   5.489  -4.605  1.00  0.00     0.042 C 
ATOM      7  O   UNL     1      -7.310   4.557  -4.721  1.00  0.00    -0.550 OA
ATOM      8  O   UNL     1      -8.822   5.663  -3.403  1.00  0.00    -0.550 OA
ENDBRANCH   5   6
ENDBRANCH   1   5
TORSDOF 3
ENDMDL
