MODEL 1
REMARK VINA RESULT:     5.729      0.000      0.000
REMARK INTER + INTRA:           9.493
REMARK INTER:                  10.417
REMARK INTRA:                  -0.925
REMARK UNBOUND:                -0.925
REMARK SMILES CCCCCCCCCCCCCCCC(=O)[O-]
REMARK SMILES IDX 9 1 10 2 11 3 12 4 13 5 14 6 15 7 16 8 17 9 18 10 8 11 7 12
REMARK SMILES IDX 6 13 5 14 4 15 3 16 2 17 1 18
REMARK H PARENT
REMARK Flexibility Score: inf
ROOT
ATOM      1  C   UNL     1     -31.437   7.284   0.738  1.00  0.00     0.000 C 
ENDROOT
BRANCH   1   2
ATOM      2  C   UNL     1     -30.265   6.909  -0.176  1.00  0.00     0.000 C 
BRANCH   2   3
ATOM      3  C   UNL     1     -28.975   7.615   0.269  1.00  0.00     0.000 C 
BRANCH   3   4
ATOM      4  C   UNL     1     -27.919   7.674  -0.846  1.00  0.00     0.000 C 
BRANCH   4   5
ATOM      5  C   UNL     1     -28.524   8.025  -2.216  1.00  0.00     0.000 C 
BRANCH   5   6
ATOM      6  C   UNL     1     -27.484   7.995  -3.347  1.00  0.00     0.006 C 
BRANCH   6   7
ATOM      7  C   UNL     1     -28.062   8.451  -4.693  1.00  0.00     0.053 C 
BRANCH   7   8
ATOM      8  C   UNL     1     -27.002   8.435  -5.747  1.00  0.00     0.041 C 
ATOM      9  O   UNL     1     -26.334   7.389  -5.958  1.00  0.00    -0.550 OA
ATOM     10  O   UNL     1     -26.788   9.559  -6.535  1.00  0.00    -0.550 OA
ENDBRANCH   7   8
ENDBRANCH   6   7
ENDBRANCH   5   6
ENDBRANCH   4   5
ENDBRANCH   3   4
ENDBRANCH   2   3
ENDBRANCH   1   2
BRANCH   1  11
ATOM     11  C   UNL     1     -32.464   8.147  -0.010  1.00  0.00     0.000 C 
BRANCH  11  12
ATOM     12  C   UNL     1     -32.558   7.805  -1.507  1.00  0.00    -0.000 C 
BRANCH  12  13
ATOM     13  C   UNL     1     -33.639   8.580  -2.290  1.00  0.00    -0.000 C 
BRANCH  13  14
ATOM     14  C   UNL     1     -33.878   8.092  -3.731  1.00  0.00    -0.000 C 
BRANCH  14  15
ATOM     15  C   UNL     1     -32.601   7.909  -4.572  1.00  0.00    -0.000 C 
BRANCH  15  16
ATOM     16  C   UNL     1     -32.870   7.780  -6.088  1.00  0.00    -0.000 C 
BRANCH  16  17
ATOM     17  C   UNL     1     -33.857   6.649  -6.415  1.00  0.00    -0.003 C 
ATOM     18  C   UNL     1     -33.156   5.494  -7.125  1.00  0.00     0.004 C 
ENDBRANCH  16  17
ENDBRANCH  15  16
ENDBRANCH  14  15
ENDBRANCH  13  14
ENDBRANCH  12  13
ENDBRANCH  11  12
ENDBRANCH   1  11
TORSDOF 14
ENDMDL
MODEL 2
REMARK VINA RESULT:     6.248      4.391      6.677
REMARK INTER + INTRA:          10.436
REMARK INTER:                  10.064
REMARK INTRA:                   0.373
REMARK UNBOUND:                -0.925
REMARK SMILES CCCCCCCCCCCCCCCC(=O)[O-]
REMARK SMILES IDX 9 1 10 2 11 3 12 4 13 5 14 6 15 7 16 8 17 9 18 10 8 11 7 12
REMARK SMILES IDX 6 13 5 14 4 15 3 16 2 17 1 18
REMARK H PARENT
REMARK Flexibility Score: inf
ROOT
ATOM      1  C   UNL     1     -27.089   8.258  -0.688  1.00  0.00     0.000 C 
ENDROOT
BRANCH   1   2
ATOM      2  C   UNL     1     -28.588   8.017  -0.474  1.00  0.00     0.000 C 
BRANCH   2   3
ATOM      3  C   UNL     1     -28.824   6.956   0.610  1.00  0.00     0.000 C 
BRANCH   3   4
ATOM      4  C   UNL     1     -29.781   7.439   1.712  1.00  0.00     0.000 C 
BRANCH   4   5
ATOM      5  C   UNL     1     -31.247   7.073   1.424  1.00  0.00     0.000 C 
BRANCH   5   6
ATOM      6  C   UNL     1     -31.620   7.243  -0.057  1.00  0.00     0.006 C 
BRANCH   6   7
ATOM      7  C   UNL     1     -32.898   8.069  -0.252  1.00  0.00     0.053 C 
BRANCH   7   8
ATOM      8  C   UNL     1     -33.090   9.011   0.894  1.00  0.00     0.041 C 
ATOM      9  O   UNL     1     -33.183   8.567   2.069  1.00  0.00    -0.550 OA
ATOM     10  O   UNL     1     -33.111  10.381   0.672  1.00  0.00    -0.550 OA
ENDBRANCH   7   8
ENDBRANCH   6   7
ENDBRANCH   5   6
ENDBRANCH   4   5
ENDBRANCH   3   4
ENDBRANCH   2   3
ENDBRANCH   1   2
BRANCH   1  11
ATOM     11  C   UNL     1     -26.721   8.149  -2.175  1.00  0.00     0.000 C 
BRANCH  11  12
ATOM     12  C   UNL     1     -27.929   7.818  -3.069  1.00  0.00    -0.000 C 
BRANCH  12  13
ATOM     13  C   UNL     1     -27.624   7.736  -4.579  1.00  0.00    -0.000 C 
BRANCH  13  14
ATOM     14  C   UNL     1     -27.925   9.018  -5.377  1.00  0.00    -0.000 C 
BRANCH  14  15
ATOM     15  C   UNL     1     -27.427   9.006  -6.834  1.00  0.00    -0.000 C 
BRANCH  15  16
ATOM     16  C   UNL     1     -26.127   9.811  -7.052  1.00  0.00    -0.000 C 
BRANCH  16  17
ATOM     17  C   UNL     1     -24.878   9.047  -6.587  1.00  0.00    -0.003 C 
ATOM     18  C   UNL     1     -24.876   7.618  -7.122  1.00  0.00     0.004 C 
ENDBRANCH  16  17
ENDBRANCH  15  16
ENDBRANCH  14  15
ENDBRANCH  13  14
ENDBRANCH  12  13
ENDBRANCH  11  12
ENDBRANCH   1  11
TORSDOF 14
ENDMDL
MODEL 3
REMARK VINA RESULT:     6.384      2.455      4.934
REMARK INTER + INTRA:          10.684
REMARK INTER:                   9.295
REMARK INTRA:                   1.389
REMARK UNBOUND:                -0.925
REMARK SMILES CCCCCCCCCCCCCCCC(=O)[O-]
REMARK SMILES IDX 9 1 10 2 11 3 12 4 13 5 14 6 15 7 16 8 17 9 18 10 8 11 7 12
REMARK SMILES IDX 6 13 5 14 4 15 3 16 2 17 1 18
REMARK H PARENT
REMARK Flexibility Score: inf
ROOT
ATOM      1  C   UNL     1     -30.529   6.670  -1.674  1.00  0.00     0.000 C 
ENDROOT
BRANCH   1   2
ATOM      2  C   UNL     1     -30.150   6.651  -3.159  1.00  0.00     0.000 C 
BRANCH   2   3
ATOM      3  C   UNL     1     -29.362   7.913  -3.541  1.00  0.00     0.000 C 
BRANCH   3   4
ATOM      4  C   UNL     1     -27.855   7.772  -3.274  1.00  0.00     0.000 C 
BRANCH   4   5
ATOM      5  C   UNL     1     -27.006   8.009  -4.534  1.00  0.00     0.000 C 
BRANCH   5   6
ATOM      6  C   UNL     1     -27.843   8.498  -5.727  1.00  0.00     0.006 C 
BRANCH   6   7
ATOM      7  C   UNL     1     -26.977   9.037  -6.873  1.00  0.00     0.053 C 
BRANCH   7   8
ATOM      8  C   UNL     1     -25.530   8.775  -6.600  1.00  0.00     0.041 C 
ATOM      9  O   UNL     1     -24.876   9.551  -5.855  1.00  0.00    -0.550 OA
ATOM     10  O   UNL     1     -24.917   7.645  -7.125  1.00  0.00    -0.550 OA
ENDBRANCH   7   8
ENDBRANCH   6   7
ENDBRANCH   5   6
ENDBRANCH   4   5
ENDBRANCH   3   4
ENDBRANCH   2   3
ENDBRANCH   1   2
BRANCH   1  11
ATOM     11  C   UNL     1     -31.739   7.582  -1.426  1.00  0.00     0.000 C 
BRANCH  11  12
ATOM     12  C   UNL     1     -32.125   7.676   0.061  1.00  0.00    -0.000 C 
BRANCH  12  13
ATOM     13  C   UNL     1     -31.381   6.699   0.994  1.00  0.00    -0.000 C 
BRANCH  13  14
ATOM     14  C   UNL     1     -30.393   7.356   1.975  1.00  0.00    -0.000 C 
BRANCH  14  15
ATOM     15  C   UNL     1     -28.933   7.404   1.488  1.00  0.00    -0.000 C 
BRANCH  15  16
ATOM     16  C   UNL     1     -28.791   7.711  -0.019  1.00  0.00    -0.000 C 
BRANCH  16  17
ATOM     17  C   UNL     1     -27.324   7.828  -0.458  1.00  0.00    -0.003 C 
ATOM     18  C   UNL     1     -26.377   7.442   0.675  1.00  0.00     0.004 C 
ENDBRANCH  16  17
ENDBRANCH  15  16
ENDBRANCH  14  15
ENDBRANCH  13  14
ENDBRANCH  12  13
ENDBRANCH  11  12
ENDBRANCH   1  11
TORSDOF 14
ENDMDL
MODEL 4
REMARK VINA RESULT:     6.507      2.923      4.302
REMARK INTER + INTRA:          10.908
REMARK INTER:                  11.239
REMARK INTRA:                  -0.332
REMARK UNBOUND:                -0.925
REMARK SMILES CCCCCCCCCCCCCCCC(=O)[O-]
REMARK SMILES IDX 9 1 10 2 11 3 12 4 13 5 14 6 15 7 16 8 17 9 18 10 8 11 7 12
REMARK SMILES IDX 6 13 5 14 4 15 3 16 2 17 1 18
REMARK H PARENT
REMARK Flexibility Score: inf
ROOT
ATOM      1  C   UNL     1     -29.247   7.072   0.020  1.00  0.00     0.000 C 
ENDROOT
BRANCH   1   2
ATOM      2  C   UNL     1     -30.083   6.778  -1.230  1.00  0.00     0.000 C 
BRANCH   2   3
ATOM      3  C   UNL     1     -29.471   7.447  -2.470  1.00  0.00     0.000 C 
BRANCH   3   4
ATOM      4  C   UNL     1     -28.032   7.932  -2.230  1.00  0.00     0.000 C 
BRANCH   4   5
ATOM      5  C   UNL     1     -27.423   8.613  -3.467  1.00  0.00     0.000 C 
BRANCH   5   6
ATOM      6  C   UNL     1     -27.878   7.964  -4.783  1.00  0.00     0.006 C 
BRANCH   6   7
ATOM      7  C   UNL     1     -26.702   7.449  -5.624  1.00  0.00     0.053 C 
BRANCH   7   8
ATOM      8  C   UNL     1     -26.065   8.576  -6.373  1.00  0.00     0.041 C 
ATOM      9  O   UNL     1     -24.883   8.469  -6.792  1.00  0.00    -0.550 OA
ATOM     10  O   UNL     1     -26.795   9.723  -6.657  1.00  0.00    -0.550 OA
ENDBRANCH   7   8
ENDBRANCH   6   7
ENDBRANCH   5   6
ENDBRANCH   4   5
ENDBRANCH   3   4
ENDBRANCH   2   3
ENDBRANCH   1   2
BRANCH   1  11
ATOM     11  C   UNL     1     -30.141   7.204   1.262  1.00  0.00     0.000 C 
BRANCH  11  12
ATOM     12  C   UNL     1     -31.628   6.947   0.960  1.00  0.00    -0.000 C 
BRANCH  12  13
ATOM     13  C   UNL     1     -32.373   8.120   0.290  1.00  0.00    -0.000 C 
BRANCH  13  14
ATOM     14  C   UNL     1     -32.859   9.220   1.251  1.00  0.00    -0.000 C 
BRANCH  14  15
ATOM     15  C   UNL     1     -33.773  10.282   0.612  1.00  0.00    -0.000 C 
BRANCH  15  16
ATOM     16  C   UNL     1     -33.056  11.615   0.305  1.00  0.00    -0.000 C 
BRANCH  16  17
ATOM     17  C   UNL     1     -34.027  12.711  -0.159  1.00  0.00    -0.003 C 
ATOM     18  C   UNL     1     -33.918  12.942  -1.663  1.00  0.00     0.004 C 
ENDBRANCH  16  17
ENDBRANCH  15  16
ENDBRANCH  14  15
ENDBRANCH  13  14
ENDBRANCH  12  13
ENDBRANCH  11  12
ENDBRANCH   1  11
TORSDOF 14
ENDMDL
MODEL 5
REMARK VINA RESULT:     6.669      3.812      6.444
REMARK INTER + INTRA:          11.203
REMARK INTER:                   7.600
REMARK INTRA:                   3.603
REMARK UNBOUND:                -0.925
REMARK SMILES CCCCCCCCCCCCCCCC(=O)[O-]
REMARK SMILES IDX 9 1 10 2 11 3 12 4 13 5 14 6 15 7 16 8 17 9 18 10 8 11 7 12
REMARK SMILES IDX 6 13 5 14 4 15 3 16 2 17 1 18
REMARK H PARENT
REMARK Flexibility Score: inf
ROOT
ATOM      1  C   UNL     1     -29.414   7.093  -2.215  1.00  0.00     0.000 C 
ENDROOT
BRANCH   1   2
ATOM      2  C   UNL     1     -28.269   8.087  -1.989  1.00  0.00     0.000 C 
BRANCH   2   3
ATOM      3  C   UNL     1     -27.635   7.887  -0.604  1.00  0.00     0.000 C 
BRANCH   3   4
ATOM      4  C   UNL     1     -28.667   7.510   0.470  1.00  0.00     0.000 C 
BRANCH   4   5
ATOM      5  C   UNL     1     -29.950   6.906  -0.128  1.00  0.00     0.000 C 
BRANCH   5   6
ATOM      6  C   UNL     1     -31.015   6.608   0.937  1.00  0.00     0.006 C 
BRANCH   6   7
ATOM      7  C   UNL     1     -31.520   7.876   1.638  1.00  0.00     0.053 C 
BRANCH   7   8
ATOM      8  C   UNL     1     -32.696   8.442   0.908  1.00  0.00     0.041 C 
ATOM      9  O   UNL     1     -33.558   9.120   1.525  1.00  0.00    -0.550 OA
ATOM     10  O   UNL     1     -32.812   8.266  -0.465  1.00  0.00    -0.550 OA
ENDBRANCH   7   8
ENDBRANCH   6   7
ENDBRANCH   5   6
ENDBRANCH   4   5
ENDBRANCH   3   4
ENDBRANCH   2   3
ENDBRANCH   1   2
BRANCH   1  11
ATOM     11  C   UNL     1     -29.826   7.057  -3.694  1.00  0.00     0.000 C 
BRANCH  11  12
ATOM     12  C   UNL     1     -29.268   8.243  -4.501  1.00  0.00    -0.000 C 
BRANCH  12  13
ATOM     13  C   UNL     1     -27.829   8.664  -4.138  1.00  0.00    -0.000 C 
BRANCH  13  14
ATOM     14  C   UNL     1     -26.719   7.780  -4.738  1.00  0.00    -0.000 C 
BRANCH  14  15
ATOM     15  C   UNL     1     -26.950   7.353  -6.199  1.00  0.00    -0.000 C 
BRANCH  15  16
ATOM     16  C   UNL     1     -25.743   7.626  -7.123  1.00  0.00    -0.000 C 
BRANCH  16  17
ATOM     17  C   UNL     1     -25.233   9.071  -7.010  1.00  0.00    -0.003 C 
ATOM     18  C   UNL     1     -26.380  10.071  -7.125  1.00  0.00     0.004 C 
ENDBRANCH  16  17
ENDBRANCH  15  16
ENDBRANCH  14  15
ENDBRANCH  13  14
ENDBRANCH  12  13
ENDBRANCH  11  12
ENDBRANCH   1  11
TORSDOF 14
ENDMDL
MODEL 6
REMARK VINA RESULT:     6.773      3.382      5.853
REMARK INTER + INTRA:          11.392
REMARK INTER:                   9.874
REMARK INTRA:                   1.518
REMARK UNBOUND:                -0.925
REMARK SMILES CCCCCCCCCCCCCCCC(=O)[O-]
REMARK SMILES IDX 9 1 10 2 11 3 12 4 13 5 14 6 15 7 16 8 17 9 18 10 8 11 7 12
REMARK SMILES IDX 6 13 5 14 4 15 3 16 2 17 1 18
REMARK H PARENT
REMARK Flexibility Score: inf
ROOT
ATOM      1  C   UNL     1     -26.854   8.195  -1.048  1.00  0.00     0.000 C 
ENDROOT
BRANCH   1   2
ATOM      2  C   UNL     1     -28.296   8.290  -0.536  1.00  0.00     0.000 C 
BRANCH   2   3
ATOM      3  C   UNL     1     -28.532   7.311   0.624  1.00  0.00     0.000 C 
BRANCH   3   4
ATOM      4  C   UNL     1     -29.615   7.800   1.599  1.00  0.00     0.000 C 
BRANCH   4   5
ATOM      5  C   UNL     1     -30.785   6.811   1.729  1.00  0.00     0.000 C 
BRANCH   5   6
ATOM      6  C   UNL     1     -31.720   6.838   0.509  1.00  0.00     0.006 C 
BRANCH   6   7
ATOM      7  C   UNL     1     -31.086   7.531  -0.704  1.00  0.00     0.053 C 
BRANCH   7   8
ATOM      8  C   UNL     1     -30.727   6.525  -1.750  1.00  0.00     0.041 C 
ATOM      9  O   UNL     1     -30.365   5.366  -1.415  1.00  0.00    -0.550 OA
ATOM     10  O   UNL     1     -30.843   6.848  -3.095  1.00  0.00    -0.550 OA
ENDBRANCH   7   8
ENDBRANCH   6   7
ENDBRANCH   5   6
ENDBRANCH   4   5
ENDBRANCH   3   4
ENDBRANCH   2   3
ENDBRANCH   1   2
BRANCH   1  11
ATOM     11  C   UNL     1     -26.817   8.146  -2.582  1.00  0.00     0.000 C 
BRANCH  11  12
ATOM     12  C   UNL     1     -28.217   8.220  -3.218  1.00  0.00    -0.000 C 
BRANCH  12  13
ATOM     13  C   UNL     1     -28.268   7.912  -4.729  1.00  0.00    -0.000 C 
BRANCH  13  14
ATOM     14  C   UNL     1     -27.900   9.090  -5.649  1.00  0.00    -0.000 C 
BRANCH  14  15
ATOM     15  C   UNL     1     -27.400   8.687  -7.049  1.00  0.00    -0.000 C 
BRANCH  15  16
ATOM     16  C   UNL     1     -26.276   7.628  -7.025  1.00  0.00    -0.000 C 
BRANCH  16  17
ATOM     17  C   UNL     1     -24.875   8.258  -7.023  1.00  0.00    -0.003 C 
ATOM     18  C   UNL     1     -24.875   9.597  -6.290  1.00  0.00     0.004 C 
ENDBRANCH  16  17
ENDBRANCH  15  16
ENDBRANCH  14  15
ENDBRANCH  13  14
ENDBRANCH  12  13
ENDBRANCH  11  12
ENDBRANCH   1  11
TORSDOF 14
ENDMDL
MODEL 7
REMARK VINA RESULT:     6.896      3.078      5.568
REMARK INTER + INTRA:          11.615
REMARK INTER:                  10.821
REMARK INTRA:                   0.793
REMARK UNBOUND:                -0.925
REMARK SMILES CCCCCCCCCCCCCCCC(=O)[O-]
REMARK SMILES IDX 9 1 10 2 11 3 12 4 13 5 14 6 15 7 16 8 17 9 18 10 8 11 7 12
REMARK SMILES IDX 6 13 5 14 4 15 3 16 2 17 1 18
REMARK H PARENT
REMARK Flexibility Score: inf
ROOT
ATOM      1  C   UNL     1     -29.073   7.531   0.342  1.00  0.00     0.000 C 
ENDROOT
BRANCH   1   2
ATOM      2  C   UNL     1     -29.395   7.282   1.820  1.00  0.00     0.000 C 
BRANCH   2   3
ATOM      3  C   UNL     1     -30.891   6.992   2.014  1.00  0.00     0.000 C 
BRANCH   3   4
ATOM      4  C   UNL     1     -31.760   8.252   1.871  1.00  0.00     0.000 C 
BRANCH   4   5
ATOM      5  C   UNL     1     -32.680   8.200   0.639  1.00  0.00     0.000 C 
BRANCH   5   6
ATOM      6  C   UNL     1     -32.266   7.110  -0.362  1.00  0.00     0.006 C 
BRANCH   6   7
ATOM      7  C   UNL     1     -31.470   7.670  -1.548  1.00  0.00     0.053 C 
BRANCH   7   8
ATOM      8  C   UNL     1     -30.629   6.597  -2.164  1.00  0.00     0.041 C 
ATOM      9  O   UNL     1     -30.051   6.800  -3.264  1.00  0.00    -0.550 OA
ATOM     10  O   UNL     1     -30.441   5.393  -1.499  1.00  0.00    -0.550 OA
ENDBRANCH   7   8
ENDBRANCH   6   7
ENDBRANCH   5   6
ENDBRANCH   4   5
ENDBRANCH   3   4
ENDBRANCH   2   3
ENDBRANCH   1   2
BRANCH   1  11
ATOM     11  C   UNL     1     -27.555   7.577   0.111  1.00  0.00     0.000 C 
BRANCH  11  12
ATOM     12  C   UNL     1     -27.157   8.469  -1.079  1.00  0.00    -0.000 C 
BRANCH  12  13
ATOM     13  C   UNL     1     -27.672   7.995  -2.454  1.00  0.00    -0.000 C 
BRANCH  13  14
ATOM     14  C   UNL     1     -26.605   7.926  -3.562  1.00  0.00    -0.000 C 
BRANCH  14  15
ATOM     15  C   UNL     1     -27.161   7.716  -4.983  1.00  0.00    -0.000 C 
BRANCH  15  16
ATOM     16  C   UNL     1     -27.398   9.031  -5.757  1.00  0.00    -0.000 C 
BRANCH  16  17
ATOM     17  C   UNL     1     -26.697   9.042  -7.124  1.00  0.00    -0.003 C 
ATOM     18  C   UNL     1     -25.356   8.316  -7.062  1.00  0.00     0.004 C 
ENDBRANCH  16  17
ENDBRANCH  15  16
ENDBRANCH  14  15
ENDBRANCH  13  14
ENDBRANCH  12  13
ENDBRANCH  11  12
ENDBRANCH   1  11
TORSDOF 14
ENDMDL
MODEL 8
REMARK VINA RESULT:     6.987      2.984      4.905
REMARK INTER + INTRA:          11.781
REMARK INTER:                  11.900
REMARK INTRA:                  -0.119
REMARK UNBOUND:                -0.925
REMARK SMILES CCCCCCCCCCCCCCCC(=O)[O-]
REMARK SMILES IDX 9 1 10 2 11 3 12 4 13 5 14 6 15 7 16 8 17 9 18 10 8 11 7 12
REMARK SMILES IDX 6 13 5 14 4 15 3 16 2 17 1 18
REMARK H PARENT
REMARK Flexibility Score: inf
ROOT
ATOM      1  C   UNL     1     -28.584   7.730  -0.528  1.00  0.00     0.000 C 
ENDROOT
BRANCH   1   2
ATOM      2  C   UNL     1     -27.261   8.284  -1.069  1.00  0.00     0.000 C 
BRANCH   2   3
ATOM      3  C   UNL     1     -27.047   7.862  -2.530  1.00  0.00     0.000 C 
BRANCH   3   4
ATOM      4  C   UNL     1     -27.734   8.810  -3.526  1.00  0.00     0.000 C 
BRANCH   4   5
ATOM      5  C   UNL     1     -27.945   8.166  -4.907  1.00  0.00     0.000 C 
BRANCH   5   6
ATOM      6  C   UNL     1     -28.151   9.206  -6.019  1.00  0.00     0.006 C 
BRANCH   6   7
ATOM      7  C   UNL     1     -27.044   9.161  -7.081  1.00  0.00     0.053 C 
BRANCH   7   8
ATOM      8  C   UNL     1     -25.784   8.606  -6.497  1.00  0.00     0.041 C 
ATOM      9  O   UNL     1     -25.520   7.380  -6.612  1.00  0.00    -0.550 OA
ATOM     10  O   UNL     1     -24.876   9.451  -5.874  1.00  0.00    -0.550 OA
ENDBRANCH   7   8
ENDBRANCH   6   7
ENDBRANCH   5   6
ENDBRANCH   4   5
ENDBRANCH   3   4
ENDBRANCH   2   3
ENDBRANCH   1   2
BRANCH   1  11
ATOM     11  C   UNL     1     -29.418   7.100  -1.653  1.00  0.00     0.000 C 
BRANCH  11  12
ATOM     12  C   UNL     1     -30.790   6.594  -1.172  1.00  0.00    -0.000 C 
BRANCH  12  13
ATOM     13  C   UNL     1     -30.892   6.316   0.343  1.00  0.00    -0.000 C 
BRANCH  13  14
ATOM     14  C   UNL     1     -31.574   7.424   1.166  1.00  0.00    -0.000 C 
BRANCH  14  15
ATOM     15  C   UNL     1     -32.704   8.171   0.434  1.00  0.00    -0.000 C 
BRANCH  15  16
ATOM     16  C   UNL     1     -33.284   9.357   1.236  1.00  0.00    -0.000 C 
BRANCH  16  17
ATOM     17  C   UNL     1     -33.418   9.044   2.734  1.00  0.00    -0.003 C 
ATOM     18  C   UNL     1     -34.877   9.085   3.178  1.00  0.00     0.004 C 
ENDBRANCH  16  17
ENDBRANCH  15  16
ENDBRANCH  14  15
ENDBRANCH  13  14
ENDBRANCH  12  13
ENDBRANCH  11  12
ENDBRANCH   1  11
TORSDOF 14
ENDMDL
MODEL 9
REMARK VINA RESULT:     7.149      4.321      6.718
REMARK INTER + INTRA:          12.075
REMARK INTER:                  12.553
REMARK INTRA:                  -0.479
REMARK UNBOUND:                -0.925
REMARK SMILES CCCCCCCCCCCCCCCC(=O)[O-]
REMARK SMILES IDX 9 1 10 2 11 3 12 4 13 5 14 6 15 7 16 8 17 9 18 10 8 11 7 12
REMARK SMILES IDX 6 13 5 14 4 15 3 16 2 17 1 18
REMARK H PARENT
REMARK Flexibility Score: inf
ROOT
ATOM      1  C   UNL     1     -30.056   7.085  -1.260  1.00  0.00     0.000 C 
ENDROOT
BRANCH   1   2
ATOM      2  C   UNL     1     -31.258   6.749  -0.370  1.00  0.00     0.000 C 
BRANCH   2   3
ATOM      3  C   UNL     1     -32.087   8.007  -0.071  1.00  0.00     0.000 C 
BRANCH   3   4
ATOM      4  C   UNL     1     -32.296   8.233   1.435  1.00  0.00     0.000 C 
BRANCH   4   5
ATOM      5  C   UNL     1     -33.384   9.279   1.731  1.00  0.00     0.000 C 
BRANCH   5   6
ATOM      6  C   UNL     1     -33.712  10.152   0.511  1.00  0.00     0.006 C 
BRANCH   6   7
ATOM      7  C   UNL     1     -33.056  11.537   0.582  1.00  0.00     0.053 C 
BRANCH   7   8
ATOM      8  C   UNL     1     -33.759  12.494  -0.328  1.00  0.00     0.041 C 
ATOM      9  O   UNL     1     -34.973  12.768  -0.142  1.00  0.00    -0.550 OA
ATOM     10  O   UNL     1     -33.059  13.125  -1.348  1.00  0.00    -0.550 OA
ENDBRANCH   7   8
ENDBRANCH   6   7
ENDBRANCH   5   6
ENDBRANCH   4   5
ENDBRANCH   3   4
ENDBRANCH   2   3
ENDBRANCH   1   2
BRANCH   1  11
ATOM     11  C   UNL     1     -28.844   7.501  -0.414  1.00  0.00     0.000 C 
BRANCH  11  12
ATOM     12  C   UNL     1     -27.791   8.284  -1.219  1.00  0.00    -0.000 C 
BRANCH  12  13
ATOM     13  C   UNL     1     -27.626   7.840  -2.688  1.00  0.00    -0.000 C 
BRANCH  13  14
ATOM     14  C   UNL     1     -28.532   8.570  -3.697  1.00  0.00    -0.000 C 
BRANCH  14  15
ATOM     15  C   UNL     1     -27.878   8.863  -5.060  1.00  0.00    -0.000 C 
BRANCH  15  16
ATOM     16  C   UNL     1     -26.753   7.873  -5.434  1.00  0.00    -0.000 C 
BRANCH  16  17
ATOM     17  C   UNL     1     -26.284   8.038  -6.887  1.00  0.00    -0.003 C 
ATOM     18  C   UNL     1     -24.884   8.642  -6.949  1.00  0.00     0.004 C 
ENDBRANCH  16  17
ENDBRANCH  15  16
ENDBRANCH  14  15
ENDBRANCH  13  14
ENDBRANCH  12  13
ENDBRANCH  11  12
ENDBRANCH   1  11
TORSDOF 14
ENDMDL
