MODEL 1
REMARK VINA RESULT:    -0.812      0.000      0.000
REMARK INTER + INTRA:          -1.800
REMARK INTER:                  -1.287
REMARK INTRA:                  -0.513
REMARK UNBOUND:                -0.513
REMARK SMILES CCCCCCCCCCCC(=O)[O-]
REMARK SMILES IDX 7 1 8 2 9 3 10 4 11 5 12 6 13 7 14 8 6 9 5 10 4 11 3 12 2 13
REMARK SMILES IDX 1 14
REMARK H PARENT
REMARK Flexibility Score: inf
ROOT
ATOM      1  C   UNL     1      31.505  21.383  27.117  1.00  0.00     0.000 C 
ENDROOT
BRANCH   1   2
ATOM      2  C   UNL     1      32.928  21.933  26.910  1.00  0.00     0.000 C 
BRANCH   2   3
ATOM      3  C   UNL     1      33.054  23.420  27.280  1.00  0.00     0.000 C 
BRANCH   3   4
ATOM      4  C   UNL     1      34.145  23.674  28.334  1.00  0.00     0.006 C 
BRANCH   4   5
ATOM      5  C   UNL     1      35.515  23.968  27.710  1.00  0.00     0.053 C 
BRANCH   5   6
ATOM      6  C   UNL     1      36.539  23.005  28.221  1.00  0.00     0.041 C 
ATOM      7  O   UNL     1      36.947  22.065  27.488  1.00  0.00    -0.550 OA
ATOM      8  O   UNL     1      37.081  23.174  29.488  1.00  0.00    -0.550 OA
ENDBRANCH   5   6
ENDBRANCH   4   5
ENDBRANCH   3   4
ENDBRANCH   2   3
ENDBRANCH   1   2
BRANCH   1   9
ATOM      9  C   UNL     1      30.836  21.780  28.445  1.00  0.00     0.000 C 
BRANCH   9  10
ATOM     10  C   UNL     1      29.995  23.061  28.335  1.00  0.00    -0.000 C 
BRANCH  10  11
ATOM     11  C   UNL     1      30.485  24.125  29.330  1.00  0.00    -0.000 C 
BRANCH  11  12
ATOM     12  C   UNL     1      31.119  23.511  30.588  1.00  0.00    -0.000 C 
BRANCH  12  13
ATOM     13  C   UNL     1      30.417  23.954  31.880  1.00  0.00    -0.003 C 
ATOM     14  C   UNL     1      31.403  24.030  33.042  1.00  0.00     0.004 C 
ENDBRANCH  12  13
ENDBRANCH  11  12
ENDBRANCH  10  11
ENDBRANCH   9  10
ENDBRANCH   1   9
TORSDOF 10
ENDMDL
MODEL 2
REMARK VINA RESULT:     0.904     18.443     21.223
REMARK INTER + INTRA:           0.919
REMARK INTER:                   0.701
REMARK INTRA:                   0.219
REMARK UNBOUND:                -0.513
REMARK SMILES CCCCCCCCCCCC(=O)[O-]
REMARK SMILES IDX 7 1 8 2 9 3 10 4 11 5 12 6 13 7 14 8 6 9 5 10 4 11 3 12 2 13
REMARK SMILES IDX 1 14
REMARK H PARENT
REMARK Flexibility Score: inf
ROOT
ATOM      1  C   UNL     1      21.885  22.642  45.688  1.00  0.00     0.000 C 
ENDROOT
BRANCH   1   2
ATOM      2  C   UNL     1      21.019  21.494  46.237  1.00  0.00     0.000 C 
BRANCH   2   3
ATOM      3  C   UNL     1      19.857  21.989  47.115  1.00  0.00     0.000 C 
BRANCH   3   4
ATOM      4  C   UNL     1      19.521  23.468  46.867  1.00  0.00     0.006 C 
BRANCH   4   5
ATOM      5  C   UNL     1      19.190  23.763  45.399  1.00  0.00     0.053 C 
BRANCH   5   6
ATOM      6  C   UNL     1      17.712  23.904  45.215  1.00  0.00     0.041 C 
ATOM      7  O   UNL     1      17.217  23.928  44.057  1.00  0.00    -0.550 OA
ATOM      8  O   UNL     1      16.875  23.957  46.322  1.00  0.00    -0.550 OA
ENDBRANCH   5   6
ENDBRANCH   4   5
ENDBRANCH   3   4
ENDBRANCH   2   3
ENDBRANCH   1   2
BRANCH   1   9
ATOM      9  C   UNL     1      23.186  22.911  46.465  1.00  0.00     0.000 C 
BRANCH   9  10
ATOM     10  C   UNL     1      24.433  22.912  45.567  1.00  0.00    -0.000 C 
BRANCH  10  11
ATOM     11  C   UNL     1      25.697  23.216  46.385  1.00  0.00    -0.000 C 
BRANCH  11  12
ATOM     12  C   UNL     1      26.723  24.051  45.602  1.00  0.00    -0.000 C 
BRANCH  12  13
ATOM     13  C   UNL     1      28.141  23.937  46.177  1.00  0.00    -0.003 C 
ATOM     14  C   UNL     1      28.974  22.928  45.390  1.00  0.00     0.004 C 
ENDBRANCH  12  13
ENDBRANCH  11  12
ENDBRANCH  10  11
ENDBRANCH   9  10
ENDBRANCH   1   9
TORSDOF 10
ENDMDL
