MODEL 1
REMARK VINA RESULT:     2.592      0.000      0.000
REMARK INTER + INTRA:           3.323
REMARK INTER:                   3.501
REMARK INTRA:                  -0.177
REMARK UNBOUND:                -0.177
REMARK SMILES CCCCCCCC(=O)[O-]
REMARK SMILES IDX 5 1 6 2 7 3 8 4 9 5 10 6 4 7 3 8 2 9 1 10
REMARK H PARENT
REMARK Flexibility Score: inf
ROOT
ATOM      1  C   UNL     1     -34.136  13.407  17.084  1.00  0.00     0.000 C 
ENDROOT
BRANCH   1   2
ATOM      2  C   UNL     1     -34.612  14.591  17.933  1.00  0.00     0.006 C 
BRANCH   2   3
ATOM      3  C   UNL     1     -35.147  15.722  17.050  1.00  0.00     0.053 C 
BRANCH   3   4
ATOM      4  C   UNL     1     -35.734  16.811  17.890  1.00  0.00     0.041 C 
ATOM      5  O   UNL     1     -36.937  16.751  18.256  1.00  0.00    -0.550 OA
ATOM      6  O   UNL     1     -34.966  17.918  18.228  1.00  0.00    -0.550 OA
ENDBRANCH   3   4
ENDBRANCH   2   3
ENDBRANCH   1   2
BRANCH   1   7
ATOM      7  C   UNL     1     -32.903  12.741  17.713  1.00  0.00     0.000 C 
BRANCH   7   8
ATOM      8  C   UNL     1     -33.254  11.494  18.544  1.00  0.00    -0.000 C 
BRANCH   8   9
ATOM      9  C   UNL     1     -33.563  11.769  20.026  1.00  0.00    -0.003 C 
ATOM     10  C   UNL     1     -33.998  10.518  20.788  1.00  0.00     0.004 C 
ENDBRANCH   8   9
ENDBRANCH   7   8
ENDBRANCH   1   7
TORSDOF 6
ENDMDL
MODEL 2
REMARK VINA RESULT:     2.757      3.167      5.340
REMARK INTER + INTRA:           3.547
REMARK INTER:                   3.729
REMARK INTRA:                  -0.182
REMARK UNBOUND:                -0.177
REMARK SMILES CCCCCCCC(=O)[O-]
REMARK SMILES IDX 5 1 6 2 7 3 8 4 9 5 10 6 4 7 3 8 2 9 1 10
REMARK H PARENT
REMARK Flexibility Score: inf
ROOT
ATOM      1  C   UNL     1     -35.063  15.452  17.139  1.00  0.00     0.000 C 
ENDROOT
BRANCH   1   2
ATOM      2  C   UNL     1     -34.423  14.443  18.101  1.00  0.00     0.006 C 
BRANCH   2   3
ATOM      3  C   UNL     1     -34.064  13.143  17.376  1.00  0.00     0.053 C 
BRANCH   3   4
ATOM      4  C   UNL     1     -32.926  12.457  18.061  1.00  0.00     0.041 C 
ATOM      5  O   UNL     1     -31.785  12.434  17.528  1.00  0.00    -0.550 OA
ATOM      6  O   UNL     1     -33.135  11.800  19.268  1.00  0.00    -0.550 OA
ENDBRANCH   3   4
ENDBRANCH   2   3
ENDBRANCH   1   2
BRANCH   1   7
ATOM      7  C   UNL     1     -35.336  16.788  17.846  1.00  0.00     0.000 C 
BRANCH   7   8
ATOM      8  C   UNL     1     -36.812  16.964  18.243  1.00  0.00    -0.000 C 
BRANCH   8   9
ATOM      9  C   UNL     1     -37.700  15.732  17.999  1.00  0.00    -0.003 C 
ATOM     10  C   UNL     1     -38.974  15.736  18.845  1.00  0.00     0.004 C 
ENDBRANCH   8   9
ENDBRANCH   7   8
ENDBRANCH   1   7
TORSDOF 6
ENDMDL
MODEL 3
REMARK VINA RESULT:     3.060      3.081      5.330
REMARK INTER + INTRA:           3.956
REMARK INTER:                   4.182
REMARK INTRA:                  -0.225
REMARK UNBOUND:                -0.177
REMARK SMILES CCCCCCCC(=O)[O-]
REMARK SMILES IDX 5 1 6 2 7 3 8 4 9 5 10 6 4 7 3 8 2 9 1 10
REMARK H PARENT
REMARK Flexibility Score: inf
ROOT
ATOM      1  C   UNL     1     -34.443  14.300  17.860  1.00  0.00     0.000 C 
ENDROOT
BRANCH   1   2
ATOM      2  C   UNL     1     -33.762  13.294  16.924  1.00  0.00     0.006 C 
BRANCH   2   3
ATOM      3  C   UNL     1     -33.708  11.901  17.558  1.00  0.00     0.053 C 
BRANCH   3   4
ATOM      4  C   UNL     1     -32.959  11.943  18.852  1.00  0.00     0.041 C 
ATOM      5  O   UNL     1     -31.732  12.224  18.866  1.00  0.00    -0.550 OA
ATOM      6  O   UNL     1     -33.605  11.624  20.040  1.00  0.00    -0.550 OA
ENDBRANCH   3   4
ENDBRANCH   2   3
ENDBRANCH   1   2
BRANCH   1   7
ATOM      7  C   UNL     1     -35.167  15.393  17.059  1.00  0.00     0.000 C 
BRANCH   7   8
ATOM      8  C   UNL     1     -35.246  16.733  17.812  1.00  0.00    -0.000 C 
BRANCH   8   9
ATOM      9  C   UNL     1     -36.668  17.172  18.204  1.00  0.00    -0.003 C 
ATOM     10  C   UNL     1     -37.672  16.020  18.202  1.00  0.00     0.004 C 
ENDBRANCH   8   9
ENDBRANCH   7   8
ENDBRANCH   1   7
TORSDOF 6
ENDMDL
MODEL 4
REMARK VINA RESULT:     3.163      3.085      5.444
REMARK INTER + INTRA:           4.094
REMARK INTER:                   4.314
REMARK INTRA:                  -0.220
REMARK UNBOUND:                -0.177
REMARK SMILES CCCCCCCC(=O)[O-]
REMARK SMILES IDX 5 1 6 2 7 3 8 4 9 5 10 6 4 7 3 8 2 9 1 10
REMARK H PARENT
REMARK Flexibility Score: inf
ROOT
ATOM      1  C   UNL     1     -34.451  14.417  17.831  1.00  0.00     0.000 C 
ENDROOT
BRANCH   1   2
ATOM      2  C   UNL     1     -33.824  13.389  16.882  1.00  0.00     0.006 C 
BRANCH   2   3
ATOM      3  C   UNL     1     -33.801  11.996  17.518  1.00  0.00     0.053 C 
BRANCH   3   4
ATOM      4  C   UNL     1     -32.967  12.000  18.759  1.00  0.00     0.041 C 
ATOM      5  O   UNL     1     -31.743  12.294  18.700  1.00  0.00    -0.550 OA
ATOM      6  O   UNL     1     -33.528  11.631  19.975  1.00  0.00    -0.550 OA
ENDBRANCH   3   4
ENDBRANCH   2   3
ENDBRANCH   1   2
BRANCH   1   7
ATOM      7  C   UNL     1     -35.184  15.514  17.045  1.00  0.00     0.000 C 
BRANCH   7   8
ATOM      8  C   UNL     1     -36.300  16.191  17.861  1.00  0.00    -0.000 C 
BRANCH   8   9
ATOM      9  C   UNL     1     -36.017  17.650  18.261  1.00  0.00    -0.003 C 
ATOM     10  C   UNL     1     -34.537  18.019  18.163  1.00  0.00     0.004 C 
ENDBRANCH   8   9
ENDBRANCH   7   8
ENDBRANCH   1   7
TORSDOF 6
ENDMDL
MODEL 5
REMARK VINA RESULT:     3.674      2.162      3.323
REMARK INTER + INTRA:           4.785
REMARK INTER:                   4.874
REMARK INTRA:                  -0.089
REMARK UNBOUND:                -0.177
REMARK SMILES CCCCCCCC(=O)[O-]
REMARK SMILES IDX 5 1 6 2 7 3 8 4 9 5 10 6 4 7 3 8 2 9 1 10
REMARK H PARENT
REMARK Flexibility Score: inf
ROOT
ATOM      1  C   UNL     1     -35.128  16.720  17.984  1.00  0.00     0.000 C 
ENDROOT
BRANCH   1   2
ATOM      2  C   UNL     1     -36.625  16.977  18.194  1.00  0.00     0.006 C 
BRANCH   2   3
ATOM      3  C   UNL     1     -37.455  15.754  17.792  1.00  0.00     0.053 C 
BRANCH   3   4
ATOM      4  C   UNL     1     -38.781  15.770  18.483  1.00  0.00     0.041 C 
ATOM      5  O   UNL     1     -38.930  15.176  19.584  1.00  0.00    -0.550 OA
ATOM      6  O   UNL     1     -39.867  16.400  17.888  1.00  0.00    -0.550 OA
ENDBRANCH   3   4
ENDBRANCH   2   3
ENDBRANCH   1   2
BRANCH   1   7
ATOM      7  C   UNL     1     -34.894  15.372  17.285  1.00  0.00     0.000 C 
BRANCH   7   8
ATOM      8  C   UNL     1     -34.359  14.288  18.238  1.00  0.00    -0.000 C 
BRANCH   8   9
ATOM      9  C   UNL     1     -33.631  13.121  17.548  1.00  0.00    -0.003 C 
ATOM     10  C   UNL     1     -33.081  12.092  18.536  1.00  0.00     0.004 C 
ENDBRANCH   8   9
ENDBRANCH   7   8
ENDBRANCH   1   7
TORSDOF 6
ENDMDL
