MODEL 1
REMARK VINA RESULT:    -3.087      0.000      0.000
REMARK INTER + INTRA:         -12.859
REMARK INTER:                  -7.780
REMARK INTRA:                  -5.080
REMARK UNBOUND:                -5.080
REMARK SMILES CCCCCCCCCCCCCCCCCCCCCCCCCCCC(=O)[O-]
REMARK SMILES IDX 15 1 16 2 17 3 18 4 19 5 20 6 21 7 22 8 23 9 24 10 25 11
REMARK SMILES IDX 26 12 27 13 28 14 29 15 30 16 14 17 13 18 12 19 11 20 10 21
REMARK SMILES IDX 9 22 8 23 7 24 6 25 5 26 4 27 3 28 2 29 1 30
REMARK H PARENT
REMARK Flexibility Score: inf
ROOT
ATOM      1  C   UNL     1      58.506  28.939  52.615  1.00  0.00     0.000 C 
ENDROOT
BRANCH   1   2
ATOM      2  C   UNL     1      58.284  29.984  51.508  1.00  0.00     0.000 C 
BRANCH   2   3
ATOM      3  C   UNL     1      57.811  29.360  50.182  1.00  0.00     0.000 C 
BRANCH   3   4
ATOM      4  C   UNL     1      58.889  29.275  49.084  1.00  0.00     0.000 C 
BRANCH   4   5
ATOM      5  C   UNL     1      59.635  27.930  48.995  1.00  0.00     0.000 C 
BRANCH   5   6
ATOM      6  C   UNL     1      58.841  26.732  49.556  1.00  0.00     0.000 C 
BRANCH   6   7
ATOM      7  C   UNL     1      59.744  25.639  50.156  1.00  0.00     0.000 C 
BRANCH   7   8
ATOM      8  C   UNL     1      61.236  26.037  50.135  1.00  0.00     0.000 C 
BRANCH   8   9
ATOM      9  C   UNL     1      61.790  26.437  51.516  1.00  0.00     0.000 C 
BRANCH   9  10
ATOM     10  C   UNL     1      61.881  27.954  51.759  1.00  0.00     0.000 C 
BRANCH  10  11
ATOM     11  C   UNL     1      63.157  28.573  51.162  1.00  0.00     0.000 C 
BRANCH  11  12
ATOM     12  C   UNL     1      62.938  29.104  49.736  1.00  0.00     0.006 C 
BRANCH  12  13
ATOM     13  C   UNL     1      63.504  30.517  49.546  1.00  0.00     0.053 C 
BRANCH  13  14
ATOM     14  C   UNL     1      62.411  31.535  49.618  1.00  0.00     0.041 C 
ATOM     15  O   UNL     1      61.413  31.340  50.360  1.00  0.00    -0.550 OA
ATOM     16  O   UNL     1      62.511  32.715  48.893  1.00  0.00    -0.550 OA
ENDBRANCH  13  14
ENDBRANCH  12  13
ENDBRANCH  11  12
ENDBRANCH  10  11
ENDBRANCH   9  10
ENDBRANCH   8   9
ENDBRANCH   7   8
ENDBRANCH   6   7
ENDBRANCH   5   6
ENDBRANCH   4   5
ENDBRANCH   3   4
ENDBRANCH   2   3
ENDBRANCH   1   2
BRANCH   1  17
ATOM     17  C   UNL     1      57.290  28.015  52.808  1.00  0.00     0.000 C 
BRANCH  17  18
ATOM     18  C   UNL     1      57.634  26.541  53.108  1.00  0.00     0.000 C 
BRANCH  18  19
ATOM     19  C   UNL     1      56.745  25.505  52.397  1.00  0.00     0.000 C 
BRANCH  19  20
ATOM     20  C   UNL     1      55.289  25.533  52.887  1.00  0.00     0.000 C 
BRANCH  20  21
ATOM     21  C   UNL     1      54.331  25.899  51.746  1.00  0.00     0.000 C 
BRANCH  21  22
ATOM     22  C   UNL     1      55.085  26.010  50.412  1.00  0.00    -0.000 C 
BRANCH  22  23
ATOM     23  C   UNL     1      54.886  27.370  49.726  1.00  0.00    -0.000 C 
BRANCH  23  24
ATOM     24  C   UNL     1      53.413  27.814  49.709  1.00  0.00    -0.000 C 
BRANCH  24  25
ATOM     25  C   UNL     1      53.234  29.276  50.146  1.00  0.00    -0.000 C 
BRANCH  25  26
ATOM     26  C   UNL     1      54.316  29.735  51.139  1.00  0.00    -0.000 C 
BRANCH  26  27
ATOM     27  C   UNL     1      53.904  29.521  52.605  1.00  0.00    -0.000 C 
BRANCH  27  28
ATOM     28  C   UNL     1      54.127  30.776  53.468  1.00  0.00    -0.000 C 
BRANCH  28  29
ATOM     29  C   UNL     1      55.445  31.491  53.138  1.00  0.00    -0.003 C 
ATOM     30  C   UNL     1      55.666  32.747  53.982  1.00  0.00     0.004 C 
ENDBRANCH  28  29
ENDBRANCH  27  28
ENDBRANCH  26  27
ENDBRANCH  25  26
ENDBRANCH  24  25
ENDBRANCH  23  24
ENDBRANCH  22  23
ENDBRANCH  21  22
ENDBRANCH  20  21
ENDBRANCH  19  20
ENDBRANCH  18  19
ENDBRANCH  17  18
ENDBRANCH   1  17
TORSDOF 26
ENDMDL
MODEL 2
REMARK VINA RESULT:    -3.012      9.565     12.349
REMARK INTER + INTRA:         -12.671
REMARK INTER:                  -7.844
REMARK INTRA:                  -4.827
REMARK UNBOUND:                -5.080
REMARK SMILES CCCCCCCCCCCCCCCCCCCCCCCCCCCC(=O)[O-]
REMARK SMILES IDX 15 1 16 2 17 3 18 4 19 5 20 6 21 7 22 8 23 9 24 10 25 11
REMARK SMILES IDX 26 12 27 13 28 14 29 15 30 16 14 17 13 18 12 19 11 20 10 21
REMARK SMILES IDX 9 22 8 23 7 24 6 25 5 26 4 27 3 28 2 29 1 30
REMARK H PARENT
REMARK Flexibility Score: inf
ROOT
ATOM      1  C   UNL     1      61.234  30.476  57.845  1.00  0.00     0.000 C 
ENDROOT
BRANCH   1   2
ATOM      2  C   UNL     1      62.033  29.197  57.542  1.00  0.00     0.000 C 
BRANCH   2   3
ATOM      3  C   UNL     1      62.401  28.407  58.811  1.00  0.00     0.000 C 
BRANCH   3   4
ATOM      4  C   UNL     1      63.840  27.859  58.840  1.00  0.00     0.000 C 
BRANCH   4   5
ATOM      5  C   UNL     1      64.319  27.335  60.208  1.00  0.00     0.000 C 
BRANCH   5   6
ATOM      6  C   UNL     1      63.176  26.897  61.149  1.00  0.00     0.000 C 
BRANCH   6   7
ATOM      7  C   UNL     1      62.955  25.374  61.159  1.00  0.00     0.000 C 
BRANCH   7   8
ATOM      8  C   UNL     1      61.825  24.953  62.125  1.00  0.00     0.000 C 
BRANCH   8   9
ATOM      9  C   UNL     1      61.073  26.143  62.752  1.00  0.00     0.000 C 
BRANCH   9  10
ATOM     10  C   UNL     1      59.630  26.329  62.251  1.00  0.00     0.000 C 
BRANCH  10  11
ATOM     11  C   UNL     1      59.463  27.587  61.381  1.00  0.00     0.000 C 
BRANCH  11  12
ATOM     12  C   UNL     1      58.014  27.781  60.905  1.00  0.00     0.006 C 
BRANCH  12  13
ATOM     13  C   UNL     1      57.036  26.834  61.612  1.00  0.00     0.053 C 
BRANCH  13  14
ATOM     14  C   UNL     1      55.990  27.612  62.347  1.00  0.00     0.041 C 
ATOM     15  O   UNL     1      55.855  28.845  62.137  1.00  0.00    -0.550 OA
ATOM     16  O   UNL     1      55.142  26.967  63.237  1.00  0.00    -0.550 OA
ENDBRANCH  13  14
ENDBRANCH  12  13
ENDBRANCH  11  12
ENDBRANCH  10  11
ENDBRANCH   9  10
ENDBRANCH   8   9
ENDBRANCH   7   8
ENDBRANCH   6   7
ENDBRANCH   5   6
ENDBRANCH   4   5
ENDBRANCH   3   4
ENDBRANCH   2   3
ENDBRANCH   1   2
BRANCH   1  17
ATOM     17  C   UNL     1      60.484  30.401  59.187  1.00  0.00     0.000 C 
BRANCH  17  18
ATOM     18  C   UNL     1      60.368  31.740  59.944  1.00  0.00     0.000 C 
BRANCH  18  19
ATOM     19  C   UNL     1      61.423  31.963  61.043  1.00  0.00     0.000 C 
BRANCH  19  20
ATOM     20  C   UNL     1      61.845  30.659  61.736  1.00  0.00     0.000 C 
BRANCH  20  21
ATOM     21  C   UNL     1      63.366  30.474  61.684  1.00  0.00     0.000 C 
BRANCH  21  22
ATOM     22  C   UNL     1      64.045  31.699  61.053  1.00  0.00    -0.000 C 
BRANCH  22  23
ATOM     23  C   UNL     1      64.762  31.370  59.734  1.00  0.00    -0.000 C 
BRANCH  23  24
ATOM     24  C   UNL     1      64.857  32.583  58.794  1.00  0.00    -0.000 C 
BRANCH  24  25
ATOM     25  C   UNL     1      63.511  32.925  58.136  1.00  0.00    -0.000 C 
BRANCH  25  26
ATOM     26  C   UNL     1      63.256  34.442  58.059  1.00  0.00    -0.000 C 
BRANCH  26  27
ATOM     27  C   UNL     1      64.004  35.223  59.153  1.00  0.00    -0.000 C 
BRANCH  27  28
ATOM     28  C   UNL     1      63.199  35.319  60.462  1.00  0.00    -0.000 C 
BRANCH  28  29
ATOM     29  C   UNL     1      64.089  35.205  61.709  1.00  0.00    -0.003 C 
ATOM     30  C   UNL     1      64.762  36.527  62.079  1.00  0.00     0.004 C 
ENDBRANCH  28  29
ENDBRANCH  27  28
ENDBRANCH  26  27
ENDBRANCH  25  26
ENDBRANCH  24  25
ENDBRANCH  23  24
ENDBRANCH  22  23
ENDBRANCH  21  22
ENDBRANCH  20  21
ENDBRANCH  19  20
ENDBRANCH  18  19
ENDBRANCH  17  18
ENDBRANCH   1  17
TORSDOF 26
ENDMDL
MODEL 3
REMARK VINA RESULT:    -2.988      8.901     11.883
REMARK INTER + INTRA:         -12.609
REMARK INTER:                  -7.037
REMARK INTRA:                  -5.572
REMARK UNBOUND:                -5.080
REMARK SMILES CCCCCCCCCCCCCCCCCCCCCCCCCCCC(=O)[O-]
REMARK SMILES IDX 15 1 16 2 17 3 18 4 19 5 20 6 21 7 22 8 23 9 24 10 25 11
REMARK SMILES IDX 26 12 27 13 28 14 29 15 30 16 14 17 13 18 12 19 11 20 10 21
REMARK SMILES IDX 9 22 8 23 7 24 6 25 5 26 4 27 3 28 2 29 1 30
REMARK H PARENT
REMARK Flexibility Score: inf
ROOT
ATOM      1  C   UNL     1      63.587  27.193  59.803  1.00  0.00     0.000 C 
ENDROOT
BRANCH   1   2
ATOM      2  C   UNL     1      64.903  27.415  60.568  1.00  0.00     0.000 C 
BRANCH   2   3
ATOM      3  C   UNL     1      65.811  28.467  59.906  1.00  0.00     0.000 C 
BRANCH   3   4
ATOM      4  C   UNL     1      65.921  29.802  60.666  1.00  0.00     0.000 C 
BRANCH   4   5
ATOM      5  C   UNL     1      65.240  31.005  59.987  1.00  0.00     0.000 C 
BRANCH   5   6
ATOM      6  C   UNL     1      63.746  31.164  60.341  1.00  0.00     0.000 C 
BRANCH   6   7
ATOM      7  C   UNL     1      63.400  30.636  61.745  1.00  0.00     0.000 C 
BRANCH   7   8
ATOM      8  C   UNL     1      62.045  29.896  61.774  1.00  0.00     0.000 C 
BRANCH   8   9
ATOM      9  C   UNL     1      60.925  30.624  61.006  1.00  0.00     0.000 C 
BRANCH   9  10
ATOM     10  C   UNL     1      59.877  29.699  60.365  1.00  0.00     0.000 C 
BRANCH  10  11
ATOM     11  C   UNL     1      60.127  28.214  60.682  1.00  0.00     0.000 C 
BRANCH  11  12
ATOM     12  C   UNL     1      58.840  27.375  60.606  1.00  0.00     0.006 C 
BRANCH  12  13
ATOM     13  C   UNL     1      58.004  27.471  61.889  1.00  0.00     0.053 C 
BRANCH  13  14
ATOM     14  C   UNL     1      56.692  28.133  61.612  1.00  0.00     0.041 C 
ATOM     15  O   UNL     1      56.331  28.351  60.427  1.00  0.00    -0.550 OA
ATOM     16  O   UNL     1      55.852  28.478  62.663  1.00  0.00    -0.550 OA
ENDBRANCH  13  14
ENDBRANCH  12  13
ENDBRANCH  11  12
ENDBRANCH  10  11
ENDBRANCH   9  10
ENDBRANCH   8   9
ENDBRANCH   7   8
ENDBRANCH   6   7
ENDBRANCH   5   6
ENDBRANCH   4   5
ENDBRANCH   3   4
ENDBRANCH   2   3
ENDBRANCH   1   2
BRANCH   1  17
ATOM     17  C   UNL     1      63.661  27.684  58.346  1.00  0.00     0.000 C 
BRANCH  17  18
ATOM     18  C   UNL     1      62.631  28.771  57.973  1.00  0.00     0.000 C 
BRANCH  18  19
ATOM     19  C   UNL     1      63.041  29.684  56.802  1.00  0.00     0.000 C 
BRANCH  19  20
ATOM     20  C   UNL     1      64.558  29.707  56.568  1.00  0.00     0.000 C 
BRANCH  20  21
ATOM     21  C   UNL     1      65.065  31.142  56.379  1.00  0.00     0.000 C 
BRANCH  21  22
ATOM     22  C   UNL     1      63.892  32.121  56.226  1.00  0.00    -0.000 C 
BRANCH  22  23
ATOM     23  C   UNL     1      63.927  33.260  57.257  1.00  0.00    -0.000 C 
BRANCH  23  24
ATOM     24  C   UNL     1      62.574  33.980  57.390  1.00  0.00    -0.000 C 
BRANCH  24  25
ATOM     25  C   UNL     1      61.552  33.169  58.203  1.00  0.00    -0.000 C 
BRANCH  25  26
ATOM     26  C   UNL     1      60.811  34.026  59.246  1.00  0.00    -0.000 C 
BRANCH  26  27
ATOM     27  C   UNL     1      61.552  34.093  60.591  1.00  0.00    -0.000 C 
BRANCH  27  28
ATOM     28  C   UNL     1      62.335  35.406  60.767  1.00  0.00    -0.000 C 
BRANCH  28  29
ATOM     29  C   UNL     1      63.856  35.198  60.702  1.00  0.00    -0.003 C 
ATOM     30  C   UNL     1      64.572  35.654  61.973  1.00  0.00     0.004 C 
ENDBRANCH  28  29
ENDBRANCH  27  28
ENDBRANCH  26  27
ENDBRANCH  25  26
ENDBRANCH  24  25
ENDBRANCH  23  24
ENDBRANCH  22  23
ENDBRANCH  21  22
ENDBRANCH  20  21
ENDBRANCH  19  20
ENDBRANCH  18  19
ENDBRANCH  17  18
ENDBRANCH   1  17
TORSDOF 26
ENDMDL
MODEL 4
REMARK VINA RESULT:    -2.934      1.714      3.848
REMARK INTER + INTRA:         -12.472
REMARK INTER:                  -6.862
REMARK INTRA:                  -5.610
REMARK UNBOUND:                -5.080
REMARK SMILES CCCCCCCCCCCCCCCCCCCCCCCCCCCC(=O)[O-]
REMARK SMILES IDX 15 1 16 2 17 3 18 4 19 5 20 6 21 7 22 8 23 9 24 10 25 11
REMARK SMILES IDX 26 12 27 13 28 14 29 15 30 16 14 17 13 18 12 19 11 20 10 21
REMARK SMILES IDX 9 22 8 23 7 24 6 25 5 26 4 27 3 28 2 29 1 30
REMARK H PARENT
REMARK Flexibility Score: inf
ROOT
ATOM      1  C   UNL     1      58.063  25.543  51.370  1.00  0.00     0.000 C 
ENDROOT
BRANCH   1   2
ATOM      2  C   UNL     1      58.558  25.629  49.917  1.00  0.00     0.000 C 
BRANCH   2   3
ATOM      3  C   UNL     1      60.005  26.144  49.806  1.00  0.00     0.000 C 
BRANCH   3   4
ATOM      4  C   UNL     1      60.167  27.666  49.975  1.00  0.00     0.000 C 
BRANCH   4   5
ATOM      5  C   UNL     1      59.291  28.530  49.048  1.00  0.00     0.000 C 
BRANCH   5   6
ATOM      6  C   UNL     1      58.272  29.417  49.794  1.00  0.00     0.000 C 
BRANCH   6   7
ATOM      7  C   UNL     1      58.356  29.275  51.325  1.00  0.00     0.000 C 
BRANCH   7   8
ATOM      8  C   UNL     1      58.212  30.632  52.047  1.00  0.00     0.000 C 
BRANCH   8   9
ATOM      9  C   UNL     1      59.440  31.014  52.896  1.00  0.00     0.000 C 
BRANCH   9  10
ATOM     10  C   UNL     1      60.775  30.436  52.396  1.00  0.00     0.000 C 
BRANCH  10  11
ATOM     11  C   UNL     1      61.613  31.468  51.620  1.00  0.00     0.000 C 
BRANCH  11  12
ATOM     12  C   UNL     1      61.657  31.170  50.112  1.00  0.00     0.006 C 
BRANCH  12  13
ATOM     13  C   UNL     1      62.805  30.223  49.738  1.00  0.00     0.053 C 
BRANCH  13  14
ATOM     14  C   UNL     1      64.108  30.957  49.726  1.00  0.00     0.041 C 
ATOM     15  O   UNL     1      65.018  30.645  50.538  1.00  0.00    -0.550 OA
ATOM     16  O   UNL     1      64.332  31.961  48.794  1.00  0.00    -0.550 OA
ENDBRANCH  13  14
ENDBRANCH  12  13
ENDBRANCH  11  12
ENDBRANCH  10  11
ENDBRANCH   9  10
ENDBRANCH   8   9
ENDBRANCH   7   8
ENDBRANCH   6   7
ENDBRANCH   5   6
ENDBRANCH   4   5
ENDBRANCH   3   4
ENDBRANCH   2   3
ENDBRANCH   1   2
BRANCH   1  17
ATOM     17  C   UNL     1      56.604  26.009  51.527  1.00  0.00     0.000 C 
BRANCH  17  18
ATOM     18  C   UNL     1      55.843  26.223  50.201  1.00  0.00     0.000 C 
BRANCH  18  19
ATOM     19  C   UNL     1      55.218  27.619  50.025  1.00  0.00     0.000 C 
BRANCH  19  20
ATOM     20  C   UNL     1      53.683  27.590  50.048  1.00  0.00     0.000 C 
BRANCH  20  21
ATOM     21  C   UNL     1      53.104  29.007  49.943  1.00  0.00     0.000 C 
BRANCH  21  22
ATOM     22  C   UNL     1      53.954  30.006  50.742  1.00  0.00    -0.000 C 
BRANCH  22  23
ATOM     23  C   UNL     1      53.646  29.981  52.247  1.00  0.00    -0.000 C 
BRANCH  23  24
ATOM     24  C   UNL     1      54.884  29.652  53.099  1.00  0.00    -0.000 C 
BRANCH  24  25
ATOM     25  C   UNL     1      54.794  28.265  53.757  1.00  0.00    -0.000 C 
BRANCH  25  26
ATOM     26  C   UNL     1      55.763  28.108  54.943  1.00  0.00    -0.000 C 
BRANCH  26  27
ATOM     27  C   UNL     1      56.765  29.270  55.047  1.00  0.00    -0.000 C 
BRANCH  27  28
ATOM     28  C   UNL     1      58.037  28.883  55.821  1.00  0.00    -0.000 C 
BRANCH  28  29
ATOM     29  C   UNL     1      58.539  27.476  55.463  1.00  0.00    -0.003 C 
ATOM     30  C   UNL     1      59.408  27.459  54.206  1.00  0.00     0.004 C 
ENDBRANCH  28  29
ENDBRANCH  27  28
ENDBRANCH  26  27
ENDBRANCH  25  26
ENDBRANCH  24  25
ENDBRANCH  23  24
ENDBRANCH  22  23
ENDBRANCH  21  22
ENDBRANCH  20  21
ENDBRANCH  19  20
ENDBRANCH  18  19
ENDBRANCH  17  18
ENDBRANCH   1  17
TORSDOF 26
ENDMDL
MODEL 5
REMARK VINA RESULT:    -2.915      8.569     11.346
REMARK INTER + INTRA:         -12.426
REMARK INTER:                  -7.027
REMARK INTRA:                  -5.399
REMARK UNBOUND:                -5.080
REMARK SMILES CCCCCCCCCCCCCCCCCCCCCCCCCCCC(=O)[O-]
REMARK SMILES IDX 15 1 16 2 17 3 18 4 19 5 20 6 21 7 22 8 23 9 24 10 25 11
REMARK SMILES IDX 26 12 27 13 28 14 29 15 30 16 14 17 13 18 12 19 11 20 10 21
REMARK SMILES IDX 9 22 8 23 7 24 6 25 5 26 4 27 3 28 2 29 1 30
REMARK H PARENT
REMARK Flexibility Score: inf
ROOT
ATOM      1  C   UNL     1      65.062  28.414  58.178  1.00  0.00     0.000 C 
ENDROOT
BRANCH   1   2
ATOM      2  C   UNL     1      64.314  27.174  58.695  1.00  0.00     0.000 C 
BRANCH   2   3
ATOM      3  C   UNL     1      64.734  26.772  60.121  1.00  0.00     0.000 C 
BRANCH   3   4
ATOM      4  C   UNL     1      63.592  26.245  61.011  1.00  0.00     0.000 C 
BRANCH   4   5
ATOM      5  C   UNL     1      62.298  25.867  60.267  1.00  0.00     0.000 C 
BRANCH   5   6
ATOM      6  C   UNL     1      61.162  26.902  60.413  1.00  0.00     0.000 C 
BRANCH   6   7
ATOM      7  C   UNL     1      60.323  26.699  61.687  1.00  0.00     0.000 C 
BRANCH   7   8
ATOM      8  C   UNL     1      58.835  27.053  61.470  1.00  0.00     0.000 C 
BRANCH   8   9
ATOM      9  C   UNL     1      58.607  28.500  60.993  1.00  0.00     0.000 C 
BRANCH   9  10
ATOM     10  C   UNL     1      57.620  28.644  59.822  1.00  0.00     0.000 C 
BRANCH  10  11
ATOM     11  C   UNL     1      58.191  29.486  58.667  1.00  0.00     0.000 C 
BRANCH  11  12
ATOM     12  C   UNL     1      59.196  28.699  57.811  1.00  0.00     0.006 C 
BRANCH  12  13
ATOM     13  C   UNL     1      60.600  29.317  57.844  1.00  0.00     0.053 C 
BRANCH  13  14
ATOM     14  C   UNL     1      60.824  30.177  56.641  1.00  0.00     0.041 C 
ATOM     15  O   UNL     1      60.881  31.428  56.760  1.00  0.00    -0.550 OA
ATOM     16  O   UNL     1      61.007  29.594  55.394  1.00  0.00    -0.550 OA
ENDBRANCH  13  14
ENDBRANCH  12  13
ENDBRANCH  11  12
ENDBRANCH  10  11
ENDBRANCH   9  10
ENDBRANCH   8   9
ENDBRANCH   7   8
ENDBRANCH   6   7
ENDBRANCH   5   6
ENDBRANCH   4   5
ENDBRANCH   3   4
ENDBRANCH   2   3
ENDBRANCH   1   2
BRANCH   1  17
ATOM     17  C   UNL     1      64.404  29.731  58.628  1.00  0.00     0.000 C 
BRANCH  17  18
ATOM     18  C   UNL     1      65.018  30.366  59.894  1.00  0.00     0.000 C 
BRANCH  18  19
ATOM     19  C   UNL     1      64.110  30.354  61.137  1.00  0.00     0.000 C 
BRANCH  19  20
ATOM     20  C   UNL     1      62.642  30.057  60.798  1.00  0.00     0.000 C 
BRANCH  20  21
ATOM     21  C   UNL     1      61.736  30.302  62.012  1.00  0.00     0.000 C 
BRANCH  21  22
ATOM     22  C   UNL     1      60.767  31.463  61.746  1.00  0.00    -0.000 C 
BRANCH  22  23
ATOM     23  C   UNL     1      60.823  31.966  60.296  1.00  0.00    -0.000 C 
BRANCH  23  24
ATOM     24  C   UNL     1      61.380  33.396  60.187  1.00  0.00    -0.000 C 
BRANCH  24  25
ATOM     25  C   UNL     1      62.462  33.526  59.103  1.00  0.00    -0.000 C 
BRANCH  25  26
ATOM     26  C   UNL     1      63.839  33.896  59.682  1.00  0.00    -0.000 C 
BRANCH  26  27
ATOM     27  C   UNL     1      63.829  33.995  61.216  1.00  0.00    -0.000 C 
BRANCH  27  28
ATOM     28  C   UNL     1      64.314  35.366  61.721  1.00  0.00    -0.000 C 
BRANCH  28  29
ATOM     29  C   UNL     1      63.726  36.532  60.912  1.00  0.00    -0.003 C 
ATOM     30  C   UNL     1      62.301  36.888  61.335  1.00  0.00     0.004 C 
ENDBRANCH  28  29
ENDBRANCH  27  28
ENDBRANCH  26  27
ENDBRANCH  25  26
ENDBRANCH  24  25
ENDBRANCH  23  24
ENDBRANCH  22  23
ENDBRANCH  21  22
ENDBRANCH  20  21
ENDBRANCH  19  20
ENDBRANCH  18  19
ENDBRANCH  17  18
ENDBRANCH   1  17
TORSDOF 26
ENDMDL
MODEL 6
REMARK VINA RESULT:    -2.892      1.938      2.544
REMARK INTER + INTRA:         -12.367
REMARK INTER:                  -6.850
REMARK INTRA:                  -5.516
REMARK UNBOUND:                -5.080
REMARK SMILES CCCCCCCCCCCCCCCCCCCCCCCCCCCC(=O)[O-]
REMARK SMILES IDX 15 1 16 2 17 3 18 4 19 5 20 6 21 7 22 8 23 9 24 10 25 11
REMARK SMILES IDX 26 12 27 13 28 14 29 15 30 16 14 17 13 18 12 19 11 20 10 21
REMARK SMILES IDX 9 22 8 23 7 24 6 25 5 26 4 27 3 28 2 29 1 30
REMARK H PARENT
REMARK Flexibility Score: inf
ROOT
ATOM      1  C   UNL     1      58.583  27.966  52.956  1.00  0.00     0.000 C 
ENDROOT
BRANCH   1   2
ATOM      2  C   UNL     1      57.770  29.105  52.318  1.00  0.00     0.000 C 
BRANCH   2   3
ATOM      3  C   UNL     1      58.519  29.801  51.166  1.00  0.00     0.000 C 
BRANCH   3   4
ATOM      4  C   UNL     1      58.164  29.288  49.757  1.00  0.00     0.000 C 
BRANCH   4   5
ATOM      5  C   UNL     1      59.285  28.516  49.035  1.00  0.00     0.000 C 
BRANCH   5   6
ATOM      6  C   UNL     1      59.288  26.999  49.319  1.00  0.00     0.000 C 
BRANCH   6   7
ATOM      7  C   UNL     1      60.574  26.520  50.017  1.00  0.00     0.000 C 
BRANCH   7   8
ATOM      8  C   UNL     1      61.684  27.593  49.998  1.00  0.00     0.000 C 
BRANCH   8   9
ATOM      9  C   UNL     1      62.358  27.809  51.367  1.00  0.00     0.000 C 
BRANCH   9  10
ATOM     10  C   UNL     1      62.000  29.136  52.059  1.00  0.00     0.000 C 
BRANCH  10  11
ATOM     11  C   UNL     1      62.668  30.351  51.390  1.00  0.00     0.000 C 
BRANCH  11  12
ATOM     12  C   UNL     1      61.655  31.447  51.022  1.00  0.00     0.006 C 
BRANCH  12  13
ATOM     13  C   UNL     1      61.673  32.616  52.016  1.00  0.00     0.053 C 
BRANCH  13  14
ATOM     14  C   UNL     1      60.402  32.656  52.803  1.00  0.00     0.041 C 
ATOM     15  O   UNL     1      60.120  31.721  53.596  1.00  0.00    -0.550 OA
ATOM     16  O   UNL     1      59.546  33.743  52.687  1.00  0.00    -0.550 OA
ENDBRANCH  13  14
ENDBRANCH  12  13
ENDBRANCH  11  12
ENDBRANCH  10  11
ENDBRANCH   9  10
ENDBRANCH   8   9
ENDBRANCH   7   8
ENDBRANCH   6   7
ENDBRANCH   5   6
ENDBRANCH   4   5
ENDBRANCH   3   4
ENDBRANCH   2   3
ENDBRANCH   1   2
BRANCH   1  17
ATOM     17  C   UNL     1      57.730  26.713  53.229  1.00  0.00     0.000 C 
BRANCH  17  18
ATOM     18  C   UNL     1      57.319  25.919  51.971  1.00  0.00     0.000 C 
BRANCH  18  19
ATOM     19  C   UNL     1      55.847  26.081  51.549  1.00  0.00     0.000 C 
BRANCH  19  20
ATOM     20  C   UNL     1      55.683  26.341  50.045  1.00  0.00     0.000 C 
BRANCH  20  21
ATOM     21  C   UNL     1      54.415  27.156  49.762  1.00  0.00     0.000 C 
BRANCH  21  22
ATOM     22  C   UNL     1      54.607  28.625  50.166  1.00  0.00    -0.000 C 
BRANCH  22  23
ATOM     23  C   UNL     1      53.286  29.409  50.208  1.00  0.00    -0.000 C 
BRANCH  23  24
ATOM     24  C   UNL     1      53.323  30.576  51.211  1.00  0.00    -0.000 C 
BRANCH  24  25
ATOM     25  C   UNL     1      54.490  30.462  52.204  1.00  0.00    -0.000 C 
BRANCH  25  26
ATOM     26  C   UNL     1      54.042  29.965  53.590  1.00  0.00    -0.000 C 
BRANCH  26  27
ATOM     27  C   UNL     1      54.404  28.490  53.836  1.00  0.00    -0.000 C 
BRANCH  27  28
ATOM     28  C   UNL     1      54.966  28.249  55.248  1.00  0.00    -0.000 C 
BRANCH  28  29
ATOM     29  C   UNL     1      56.127  29.195  55.589  1.00  0.00    -0.003 C 
ATOM     30  C   UNL     1      56.165  29.577  57.069  1.00  0.00     0.004 C 
ENDBRANCH  28  29
ENDBRANCH  27  28
ENDBRANCH  26  27
ENDBRANCH  25  26
ENDBRANCH  24  25
ENDBRANCH  23  24
ENDBRANCH  22  23
ENDBRANCH  21  22
ENDBRANCH  20  21
ENDBRANCH  19  20
ENDBRANCH  18  19
ENDBRANCH  17  18
ENDBRANCH   1  17
TORSDOF 26
ENDMDL
MODEL 7
REMARK VINA RESULT:    -2.885      2.798      6.323
REMARK INTER + INTRA:         -12.349
REMARK INTER:                  -6.746
REMARK INTRA:                  -5.603
REMARK UNBOUND:                -5.080
REMARK SMILES CCCCCCCCCCCCCCCCCCCCCCCCCCCC(=O)[O-]
REMARK SMILES IDX 15 1 16 2 17 3 18 4 19 5 20 6 21 7 22 8 23 9 24 10 25 11
REMARK SMILES IDX 26 12 27 13 28 14 29 15 30 16 14 17 13 18 12 19 11 20 10 21
REMARK SMILES IDX 9 22 8 23 7 24 6 25 5 26 4 27 3 28 2 29 1 30
REMARK H PARENT
REMARK Flexibility Score: inf
ROOT
ATOM      1  C   UNL     1      61.748  29.773  51.382  1.00  0.00     0.000 C 
ENDROOT
BRANCH   1   2
ATOM      2  C   UNL     1      62.964  30.645  51.026  1.00  0.00     0.000 C 
BRANCH   2   3
ATOM      3  C   UNL     1      62.815  31.353  49.667  1.00  0.00     0.000 C 
BRANCH   3   4
ATOM      4  C   UNL     1      64.142  31.748  48.992  1.00  0.00     0.000 C 
BRANCH   4   5
ATOM      5  C   UNL     1      65.411  31.159  49.637  1.00  0.00     0.000 C 
BRANCH   5   6
ATOM      6  C   UNL     1      66.317  30.386  48.655  1.00  0.00     0.000 C 
BRANCH   6   7
ATOM      7  C   UNL     1      65.580  29.945  47.378  1.00  0.00     0.000 C 
BRANCH   7   8
ATOM      8  C   UNL     1      65.135  28.467  47.440  1.00  0.00     0.000 C 
BRANCH   8   9
ATOM      9  C   UNL     1      63.662  28.281  47.852  1.00  0.00     0.000 C 
BRANCH   9  10
ATOM     10  C   UNL     1      63.444  27.364  49.068  1.00  0.00     0.000 C 
BRANCH  10  11
ATOM     11  C   UNL     1      64.744  27.098  49.849  1.00  0.00     0.000 C 
BRANCH  11  12
ATOM     12  C   UNL     1      64.573  27.319  51.361  1.00  0.00     0.006 C 
BRANCH  12  13
ATOM     13  C   UNL     1      65.675  28.209  51.949  1.00  0.00     0.053 C 
BRANCH  13  14
ATOM     14  C   UNL     1      65.276  28.719  53.297  1.00  0.00     0.041 C 
ATOM     15  O   UNL     1      66.085  29.397  53.982  1.00  0.00    -0.550 OA
ATOM     16  O   UNL     1      63.997  28.477  53.781  1.00  0.00    -0.550 OA
ENDBRANCH  13  14
ENDBRANCH  12  13
ENDBRANCH  11  12
ENDBRANCH  10  11
ENDBRANCH   9  10
ENDBRANCH   8   9
ENDBRANCH   7   8
ENDBRANCH   6   7
ENDBRANCH   5   6
ENDBRANCH   4   5
ENDBRANCH   3   4
ENDBRANCH   2   3
ENDBRANCH   1   2
BRANCH   1  17
ATOM     17  C   UNL     1      60.645  29.830  50.310  1.00  0.00     0.000 C 
BRANCH  17  18
ATOM     18  C   UNL     1      59.208  29.651  50.844  1.00  0.00     0.000 C 
BRANCH  18  19
ATOM     19  C   UNL     1      58.153  29.305  49.777  1.00  0.00     0.000 C 
BRANCH  19  20
ATOM     20  C   UNL     1      56.777  28.989  50.381  1.00  0.00     0.000 C 
BRANCH  20  21
ATOM     21  C   UNL     1      56.432  27.503  50.218  1.00  0.00     0.000 C 
BRANCH  21  22
ATOM     22  C   UNL     1      56.961  26.685  51.405  1.00  0.00    -0.000 C 
BRANCH  22  23
ATOM     23  C   UNL     1      57.968  25.604  50.983  1.00  0.00    -0.000 C 
BRANCH  23  24
ATOM     24  C   UNL     1      58.649  25.922  49.641  1.00  0.00    -0.000 C 
BRANCH  24  25
ATOM     25  C   UNL     1      60.173  26.068  49.775  1.00  0.00    -0.000 C 
BRANCH  25  26
ATOM     26  C   UNL     1      60.637  26.123  51.241  1.00  0.00    -0.000 C 
BRANCH  26  27
ATOM     27  C   UNL     1      61.580  24.965  51.608  1.00  0.00    -0.000 C 
BRANCH  27  28
ATOM     28  C   UNL     1      62.105  24.218  50.368  1.00  0.00    -0.000 C 
BRANCH  28  29
ATOM     29  C   UNL     1      61.691  22.739  50.354  1.00  0.00    -0.003 C 
ATOM     30  C   UNL     1      60.568  22.448  49.358  1.00  0.00     0.004 C 
ENDBRANCH  28  29
ENDBRANCH  27  28
ENDBRANCH  26  27
ENDBRANCH  25  26
ENDBRANCH  24  25
ENDBRANCH  23  24
ENDBRANCH  22  23
ENDBRANCH  21  22
ENDBRANCH  20  21
ENDBRANCH  19  20
ENDBRANCH  18  19
ENDBRANCH  17  18
ENDBRANCH   1  17
TORSDOF 26
ENDMDL
MODEL 8
REMARK VINA RESULT:    -2.884      2.141      3.935
REMARK INTER + INTRA:         -12.348
REMARK INTER:                  -5.995
REMARK INTRA:                  -6.353
REMARK UNBOUND:                -5.080
REMARK SMILES CCCCCCCCCCCCCCCCCCCCCCCCCCCC(=O)[O-]
REMARK SMILES IDX 15 1 16 2 17 3 18 4 19 5 20 6 21 7 22 8 23 9 24 10 25 11
REMARK SMILES IDX 26 12 27 13 28 14 29 15 30 16 14 17 13 18 12 19 11 20 10 21
REMARK SMILES IDX 9 22 8 23 7 24 6 25 5 26 4 27 3 28 2 29 1 30
REMARK H PARENT
REMARK Flexibility Score: inf
ROOT
ATOM      1  C   UNL     1      58.099  27.361  53.949  1.00  0.00     0.000 C 
ENDROOT
BRANCH   1   2
ATOM      2  C   UNL     1      59.620  27.583  54.006  1.00  0.00     0.000 C 
BRANCH   2   3
ATOM      3  C   UNL     1      60.415  26.266  54.056  1.00  0.00     0.000 C 
BRANCH   3   4
ATOM      4  C   UNL     1      61.351  26.027  52.856  1.00  0.00     0.000 C 
BRANCH   4   5
ATOM      5  C   UNL     1      60.934  26.720  51.545  1.00  0.00     0.000 C 
BRANCH   5   6
ATOM      6  C   UNL     1      60.085  25.835  50.608  1.00  0.00     0.000 C 
BRANCH   6   7
ATOM      7  C   UNL     1      59.591  26.584  49.357  1.00  0.00     0.000 C 
BRANCH   7   8
ATOM      8  C   UNL     1      59.845  28.104  49.448  1.00  0.00     0.000 C 
BRANCH   8   9
ATOM      9  C   UNL     1      58.578  28.957  49.242  1.00  0.00     0.000 C 
BRANCH   9  10
ATOM     10  C   UNL     1      57.912  29.445  50.541  1.00  0.00     0.000 C 
BRANCH  10  11
ATOM     11  C   UNL     1      58.903  30.144  51.488  1.00  0.00     0.000 C 
BRANCH  11  12
ATOM     12  C   UNL     1      58.194  30.899  52.624  1.00  0.00     0.006 C 
BRANCH  12  13
ATOM     13  C   UNL     1      59.102  31.945  53.284  1.00  0.00     0.053 C 
BRANCH  13  14
ATOM     14  C   UNL     1      60.125  31.281  54.150  1.00  0.00     0.041 C 
ATOM     15  O   UNL     1      61.324  31.215  53.774  1.00  0.00    -0.550 OA
ATOM     16  O   UNL     1      59.761  30.767  55.387  1.00  0.00    -0.550 OA
ENDBRANCH  13  14
ENDBRANCH  12  13
ENDBRANCH  11  12
ENDBRANCH  10  11
ENDBRANCH   9  10
ENDBRANCH   8   9
ENDBRANCH   7   8
ENDBRANCH   6   7
ENDBRANCH   5   6
ENDBRANCH   4   5
ENDBRANCH   3   4
ENDBRANCH   2   3
ENDBRANCH   1   2
BRANCH   1  17
ATOM     17  C   UNL     1      57.715  25.873  54.031  1.00  0.00     0.000 C 
BRANCH  17  18
ATOM     18  C   UNL     1      57.006  25.314  52.779  1.00  0.00     0.000 C 
BRANCH  18  19
ATOM     19  C   UNL     1      56.703  26.351  51.682  1.00  0.00     0.000 C 
BRANCH  19  20
ATOM     20  C   UNL     1      55.527  25.940  50.784  1.00  0.00     0.000 C 
BRANCH  20  21
ATOM     21  C   UNL     1      55.158  27.067  49.811  1.00  0.00     0.000 C 
BRANCH  21  22
ATOM     22  C   UNL     1      53.634  27.178  49.654  1.00  0.00    -0.000 C 
BRANCH  22  23
ATOM     23  C   UNL     1      53.115  28.608  49.871  1.00  0.00    -0.000 C 
BRANCH  23  24
ATOM     24  C   UNL     1      54.199  29.555  50.412  1.00  0.00    -0.000 C 
BRANCH  24  25
ATOM     25  C   UNL     1      53.972  29.930  51.885  1.00  0.00    -0.000 C 
BRANCH  25  26
ATOM     26  C   UNL     1      54.960  29.229  52.835  1.00  0.00    -0.000 C 
BRANCH  26  27
ATOM     27  C   UNL     1      54.251  28.410  53.927  1.00  0.00    -0.000 C 
BRANCH  27  28
ATOM     28  C   UNL     1      53.263  27.384  53.345  1.00  0.00    -0.000 C 
BRANCH  28  29
ATOM     29  C   UNL     1      53.508  25.963  53.876  1.00  0.00    -0.003 C 
ATOM     30  C   UNL     1      54.226  25.951  55.226  1.00  0.00     0.004 C 
ENDBRANCH  28  29
ENDBRANCH  27  28
ENDBRANCH  26  27
ENDBRANCH  25  26
ENDBRANCH  24  25
ENDBRANCH  23  24
ENDBRANCH  22  23
ENDBRANCH  21  22
ENDBRANCH  20  21
ENDBRANCH  19  20
ENDBRANCH  18  19
ENDBRANCH  17  18
ENDBRANCH   1  17
TORSDOF 26
ENDMDL
MODEL 9
REMARK VINA RESULT:    -2.865      2.224      3.689
REMARK INTER + INTRA:         -12.299
REMARK INTER:                  -6.646
REMARK INTRA:                  -5.652
REMARK UNBOUND:                -5.080
REMARK SMILES CCCCCCCCCCCCCCCCCCCCCCCCCCCC(=O)[O-]
REMARK SMILES IDX 15 1 16 2 17 3 18 4 19 5 20 6 21 7 22 8 23 9 24 10 25 11
REMARK SMILES IDX 26 12 27 13 28 14 29 15 30 16 14 17 13 18 12 19 11 20 10 21
REMARK SMILES IDX 9 22 8 23 7 24 6 25 5 26 4 27 3 28 2 29 1 30
REMARK H PARENT
REMARK Flexibility Score: inf
ROOT
ATOM      1  C   UNL     1      57.985  26.745  53.740  1.00  0.00     0.000 C 
ENDROOT
BRANCH   1   2
ATOM      2  C   UNL     1      58.216  27.890  54.740  1.00  0.00     0.000 C 
BRANCH   2   3
ATOM      3  C   UNL     1      59.268  28.905  54.256  1.00  0.00     0.000 C 
BRANCH   3   4
ATOM      4  C   UNL     1      59.751  28.699  52.808  1.00  0.00     0.000 C 
BRANCH   4   5
ATOM      5  C   UNL     1      59.634  29.931  51.892  1.00  0.00     0.000 C 
BRANCH   5   6
ATOM      6  C   UNL     1      60.246  29.732  50.489  1.00  0.00     0.000 C 
BRANCH   6   7
ATOM      7  C   UNL     1      59.212  29.286  49.439  1.00  0.00     0.000 C 
BRANCH   7   8
ATOM      8  C   UNL     1      57.777  29.255  50.009  1.00  0.00     0.000 C 
BRANCH   8   9
ATOM      9  C   UNL     1      57.216  27.831  50.196  1.00  0.00     0.000 C 
BRANCH   9  10
ATOM     10  C   UNL     1      58.096  26.711  49.615  1.00  0.00     0.000 C 
BRANCH  10  11
ATOM     11  C   UNL     1      58.263  25.528  50.585  1.00  0.00     0.000 C 
BRANCH  11  12
ATOM     12  C   UNL     1      59.734  25.114  50.755  1.00  0.00     0.006 C 
BRANCH  12  13
ATOM     13  C   UNL     1      60.682  25.969  49.905  1.00  0.00     0.053 C 
BRANCH  13  14
ATOM     14  C   UNL     1      62.026  26.066  50.554  1.00  0.00     0.041 C 
ATOM     15  O   UNL     1      62.117  26.248  51.796  1.00  0.00    -0.550 OA
ATOM     16  O   UNL     1      63.178  25.920  49.793  1.00  0.00    -0.550 OA
ENDBRANCH  13  14
ENDBRANCH  12  13
ENDBRANCH  11  12
ENDBRANCH  10  11
ENDBRANCH   9  10
ENDBRANCH   8   9
ENDBRANCH   7   8
ENDBRANCH   6   7
ENDBRANCH   5   6
ENDBRANCH   4   5
ENDBRANCH   3   4
ENDBRANCH   2   3
ENDBRANCH   1   2
BRANCH   1  17
ATOM     17  C   UNL     1      56.598  26.095  53.895  1.00  0.00     0.000 C 
BRANCH  17  18
ATOM     18  C   UNL     1      55.417  27.086  53.946  1.00  0.00     0.000 C 
BRANCH  18  19
ATOM     19  C   UNL     1      54.265  26.780  52.972  1.00  0.00     0.000 C 
BRANCH  19  20
ATOM     20  C   UNL     1      54.676  25.819  51.847  1.00  0.00     0.000 C 
BRANCH  20  21
ATOM     21  C   UNL     1      53.634  25.810  50.722  1.00  0.00     0.000 C 
BRANCH  21  22
ATOM     22  C   UNL     1      53.996  26.831  49.633  1.00  0.00    -0.000 C 
BRANCH  22  23
ATOM     23  C   UNL     1      53.065  28.053  49.628  1.00  0.00    -0.000 C 
BRANCH  23  24
ATOM     24  C   UNL     1      53.768  29.335  50.107  1.00  0.00    -0.000 C 
BRANCH  24  25
ATOM     25  C   UNL     1      53.014  30.026  51.254  1.00  0.00    -0.000 C 
BRANCH  25  26
ATOM     26  C   UNL     1      53.950  30.814  52.189  1.00  0.00    -0.000 C 
BRANCH  26  27
ATOM     27  C   UNL     1      55.336  30.161  52.326  1.00  0.00    -0.000 C 
BRANCH  27  28
ATOM     28  C   UNL     1      56.314  31.024  53.142  1.00  0.00    -0.000 C 
BRANCH  28  29
ATOM     29  C   UNL     1      56.097  30.887  54.657  1.00  0.00    -0.003 C 
ATOM     30  C   UNL     1      56.988  31.826  55.470  1.00  0.00     0.004 C 
ENDBRANCH  28  29
ENDBRANCH  27  28
ENDBRANCH  26  27
ENDBRANCH  25  26
ENDBRANCH  24  25
ENDBRANCH  23  24
ENDBRANCH  22  23
ENDBRANCH  21  22
ENDBRANCH  20  21
ENDBRANCH  19  20
ENDBRANCH  18  19
ENDBRANCH  17  18
ENDBRANCH   1  17
TORSDOF 26
ENDMDL
