MODEL 1
REMARK VINA RESULT:    -5.559      0.000      0.000
REMARK INTER + INTRA:         -18.505
REMARK INTER:                 -14.659
REMARK INTRA:                  -3.846
REMARK UNBOUND:                -3.846
REMARK SMILES CCCCCCCCCCCCCCCCCCCCCCCCCCCCCC(=O)[O-]
REMARK SMILES IDX 16 1 17 2 18 3 19 4 20 5 21 6 22 7 23 8 24 9 25 10 26 11
REMARK SMILES IDX 27 12 28 13 29 14 30 15 31 16 32 17 15 18 14 19 13 20 12 21
REMARK SMILES IDX 11 22 10 23 9 24 8 25 7 26 6 27 5 28 4 29 3 30 2 31 1 32
REMARK H PARENT
REMARK Flexibility Score: inf
ROOT
ATOM      1  C   UNL     1     -20.668  42.110  89.341  1.00  0.00     0.000 C 
ENDROOT
BRANCH   1   2
ATOM      2  C   UNL     1     -21.207  41.366  90.574  1.00  0.00     0.000 C 
BRANCH   2   3
ATOM      3  C   UNL     1     -20.087  40.796  91.462  1.00  0.00     0.000 C 
BRANCH   3   4
ATOM      4  C   UNL     1     -18.661  41.188  91.034  1.00  0.00     0.000 C 
BRANCH   4   5
ATOM      5  C   UNL     1     -17.703  39.986  90.973  1.00  0.00     0.000 C 
BRANCH   5   6
ATOM      6  C   UNL     1     -18.396  38.664  91.365  1.00  0.00     0.000 C 
BRANCH   6   7
ATOM      7  C   UNL     1     -18.520  37.662  90.203  1.00  0.00     0.000 C 
BRANCH   7   8
ATOM      8  C   UNL     1     -19.864  37.767  89.464  1.00  0.00     0.000 C 
BRANCH   8   9
ATOM      9  C   UNL     1     -19.694  37.831  87.938  1.00  0.00     0.000 C 
BRANCH   9  10
ATOM     10  C   UNL     1     -20.955  38.345  87.226  1.00  0.00     0.000 C 
BRANCH  10  11
ATOM     11  C   UNL     1     -20.711  38.500  85.721  1.00  0.00     0.000 C 
BRANCH  11  12
ATOM     12  C   UNL     1     -19.402  37.813  85.301  1.00  0.00     0.000 C 
BRANCH  12  13
ATOM     13  C   UNL     1     -19.277  37.648  83.775  1.00  0.00     0.006 C 
BRANCH  13  14
ATOM     14  C   UNL     1     -18.427  36.446  83.335  1.00  0.00     0.053 C 
BRANCH  14  15
ATOM     15  C   UNL     1     -17.035  36.507  83.889  1.00  0.00     0.041 C 
ATOM     16  O   UNL     1     -16.196  37.313  83.407  1.00  0.00    -0.550 OA
ATOM     17  O   UNL     1     -16.660  35.659  84.924  1.00  0.00    -0.550 OA
ENDBRANCH  14  15
ENDBRANCH  13  14
ENDBRANCH  12  13
ENDBRANCH  11  12
ENDBRANCH  10  11
ENDBRANCH   9  10
ENDBRANCH   8   9
ENDBRANCH   7   8
ENDBRANCH   6   7
ENDBRANCH   5   6
ENDBRANCH   4   5
ENDBRANCH   3   4
ENDBRANCH   2   3
ENDBRANCH   1   2
BRANCH   1  18
ATOM     18  C   UNL     1     -21.123  41.478  88.013  1.00  0.00     0.000 C 
BRANCH  18  19
ATOM     19  C   UNL     1     -21.064  42.417  86.794  1.00  0.00     0.000 C 
BRANCH  19  20
ATOM     20  C   UNL     1     -19.696  42.398  86.088  1.00  0.00     0.000 C 
BRANCH  20  21
ATOM     21  C   UNL     1     -19.415  43.690  85.299  1.00  0.00     0.000 C 
BRANCH  21  22
ATOM     22  C   UNL     1     -18.083  44.381  85.650  1.00  0.00     0.000 C 
BRANCH  22  23
ATOM     23  C   UNL     1     -17.717  45.506  84.668  1.00  0.00     0.000 C 
BRANCH  23  24
ATOM     24  C   UNL     1     -18.551  45.403  83.381  1.00  0.00    -0.000 C 
BRANCH  24  25
ATOM     25  C   UNL     1     -19.187  46.745  82.979  1.00  0.00    -0.000 C 
BRANCH  25  26
ATOM     26  C   UNL     1     -20.592  46.574  82.374  1.00  0.00    -0.000 C 
BRANCH  26  27
ATOM     27  C   UNL     1     -21.583  45.942  83.363  1.00  0.00    -0.000 C 
BRANCH  27  28
ATOM     28  C   UNL     1     -21.791  46.797  84.627  1.00  0.00    -0.000 C 
BRANCH  28  29
ATOM     29  C   UNL     1     -22.277  45.957  85.827  1.00  0.00    -0.000 C 
BRANCH  29  30
ATOM     30  C   UNL     1     -21.441  46.162  87.105  1.00  0.00    -0.000 C 
BRANCH  30  31
ATOM     31  C   UNL     1     -22.027  45.513  88.369  1.00  0.00    -0.003 C 
ATOM     32  C   UNL     1     -23.439  46.004  88.687  1.00  0.00     0.004 C 
ENDBRANCH  30  31
ENDBRANCH  29  30
ENDBRANCH  28  29
ENDBRANCH  27  28
ENDBRANCH  26  27
ENDBRANCH  25  26
ENDBRANCH  24  25
ENDBRANCH  23  24
ENDBRANCH  22  23
ENDBRANCH  21  22
ENDBRANCH  20  21
ENDBRANCH  19  20
ENDBRANCH  18  19
ENDBRANCH   1  18
TORSDOF 28
ENDMDL
MODEL 2
REMARK VINA RESULT:    -5.425      3.722      9.522
REMARK INTER + INTRA:         -18.151
REMARK INTER:                 -14.368
REMARK INTRA:                  -3.783
REMARK UNBOUND:                -3.846
REMARK SMILES CCCCCCCCCCCCCCCCCCCCCCCCCCCCCC(=O)[O-]
REMARK SMILES IDX 16 1 17 2 18 3 19 4 20 5 21 6 22 7 23 8 24 9 25 10 26 11
REMARK SMILES IDX 27 12 28 13 29 14 30 15 31 16 32 17 15 18 14 19 13 20 12 21
REMARK SMILES IDX 11 22 10 23 9 24 8 25 7 26 6 27 5 28 4 29 3 30 2 31 1 32
REMARK H PARENT
REMARK Flexibility Score: inf
ROOT
ATOM      1  C   UNL     1     -19.856  43.138  85.523  1.00  0.00     0.000 C 
ENDROOT
BRANCH   1   2
ATOM      2  C   UNL     1     -19.077  44.295  86.171  1.00  0.00     0.000 C 
BRANCH   2   3
ATOM      3  C   UNL     1     -17.931  44.811  85.282  1.00  0.00     0.000 C 
BRANCH   3   4
ATOM      4  C   UNL     1     -18.293  44.982  83.795  1.00  0.00     0.000 C 
BRANCH   4   5
ATOM      5  C   UNL     1     -18.773  46.404  83.456  1.00  0.00     0.000 C 
BRANCH   5   6
ATOM      6  C   UNL     1     -20.108  46.402  82.681  1.00  0.00     0.000 C 
BRANCH   6   7
ATOM      7  C   UNL     1     -21.320  45.995  83.537  1.00  0.00     0.000 C 
BRANCH   7   8
ATOM      8  C   UNL     1     -21.408  46.774  84.859  1.00  0.00     0.000 C 
BRANCH   8   9
ATOM      9  C   UNL     1     -22.308  46.080  85.894  1.00  0.00     0.000 C 
BRANCH   9  10
ATOM     10  C   UNL     1     -21.998  46.519  87.333  1.00  0.00     0.000 C 
BRANCH  10  11
ATOM     11  C   UNL     1     -22.761  45.658  88.346  1.00  0.00     0.000 C 
BRANCH  11  12
ATOM     12  C   UNL     1     -23.892  44.874  87.662  1.00  0.00     0.000 C 
BRANCH  12  13
ATOM     13  C   UNL     1     -25.291  45.313  88.131  1.00  0.00     0.006 C 
BRANCH  13  14
ATOM     14  C   UNL     1     -25.480  45.301  89.657  1.00  0.00     0.053 C 
BRANCH  14  15
ATOM     15  C   UNL     1     -26.411  44.214  90.100  1.00  0.00     0.041 C 
ATOM     16  O   UNL     1     -27.230  43.709  89.287  1.00  0.00    -0.550 OA
ATOM     17  O   UNL     1     -26.389  43.772  91.418  1.00  0.00    -0.550 OA
ENDBRANCH  14  15
ENDBRANCH  13  14
ENDBRANCH  12  13
ENDBRANCH  11  12
ENDBRANCH  10  11
ENDBRANCH   9  10
ENDBRANCH   8   9
ENDBRANCH   7   8
ENDBRANCH   6   7
ENDBRANCH   5   6
ENDBRANCH   4   5
ENDBRANCH   3   4
ENDBRANCH   2   3
ENDBRANCH   1   2
BRANCH   1  18
ATOM     18  C   UNL     1     -20.850  42.470  86.489  1.00  0.00     0.000 C 
BRANCH  18  19
ATOM     19  C   UNL     1     -20.631  42.801  87.977  1.00  0.00     0.000 C 
BRANCH  19  20
ATOM     20  C   UNL     1     -20.978  41.626  88.910  1.00  0.00     0.000 C 
BRANCH  20  21
ATOM     21  C   UNL     1     -19.873  41.340  89.943  1.00  0.00     0.000 C 
BRANCH  21  22
ATOM     22  C   UNL     1     -20.287  40.386  91.080  1.00  0.00     0.000 C 
BRANCH  22  23
ATOM     23  C   UNL     1     -20.659  38.982  90.576  1.00  0.00     0.000 C 
BRANCH  23  24
ATOM     24  C   UNL     1     -19.459  38.313  89.886  1.00  0.00    -0.000 C 
BRANCH  24  25
ATOM     25  C   UNL     1     -19.876  37.435  88.693  1.00  0.00    -0.000 C 
BRANCH  25  26
ATOM     26  C   UNL     1     -20.770  38.188  87.692  1.00  0.00    -0.000 C 
BRANCH  26  27
ATOM     27  C   UNL     1     -19.987  38.687  86.467  1.00  0.00    -0.000 C 
BRANCH  27  28
ATOM     28  C   UNL     1     -20.110  37.742  85.257  1.00  0.00    -0.000 C 
BRANCH  28  29
ATOM     29  C   UNL     1     -19.125  38.112  84.126  1.00  0.00    -0.000 C 
BRANCH  29  30
ATOM     30  C   UNL     1     -18.508  36.889  83.420  1.00  0.00    -0.000 C 
BRANCH  30  31
ATOM     31  C   UNL     1     -17.121  36.477  83.940  1.00  0.00    -0.003 C 
ATOM     32  C   UNL     1     -17.195  35.515  85.126  1.00  0.00     0.004 C 
ENDBRANCH  30  31
ENDBRANCH  29  30
ENDBRANCH  28  29
ENDBRANCH  27  28
ENDBRANCH  26  27
ENDBRANCH  25  26
ENDBRANCH  24  25
ENDBRANCH  23  24
ENDBRANCH  22  23
ENDBRANCH  21  22
ENDBRANCH  20  21
ENDBRANCH  19  20
ENDBRANCH  18  19
ENDBRANCH   1  18
TORSDOF 28
ENDMDL
MODEL 3
REMARK VINA RESULT:    -5.350      1.941      4.241
REMARK INTER + INTRA:         -17.952
REMARK INTER:                 -14.681
REMARK INTRA:                  -3.270
REMARK UNBOUND:                -3.846
REMARK SMILES CCCCCCCCCCCCCCCCCCCCCCCCCCCCCC(=O)[O-]
REMARK SMILES IDX 16 1 17 2 18 3 19 4 20 5 21 6 22 7 23 8 24 9 25 10 26 11
REMARK SMILES IDX 27 12 28 13 29 14 30 15 31 16 32 17 15 18 14 19 13 20 12 21
REMARK SMILES IDX 11 22 10 23 9 24 8 25 7 26 6 27 5 28 4 29 3 30 2 31 1 32
REMARK H PARENT
REMARK Flexibility Score: inf
ROOT
ATOM      1  C   UNL     1     -19.224  43.604  85.345  1.00  0.00     0.000 C 
ENDROOT
BRANCH   1   2
ATOM      2  C   UNL     1     -20.216  43.375  86.497  1.00  0.00     0.000 C 
BRANCH   2   3
ATOM      3  C   UNL     1     -20.758  41.935  86.538  1.00  0.00     0.000 C 
BRANCH   3   4
ATOM      4  C   UNL     1     -21.700  41.632  87.718  1.00  0.00     0.000 C 
BRANCH   4   5
ATOM      5  C   UNL     1     -21.148  42.128  89.066  1.00  0.00     0.000 C 
BRANCH   5   6
ATOM      6  C   UNL     1     -20.040  41.207  89.620  1.00  0.00     0.000 C 
BRANCH   6   7
ATOM      7  C   UNL     1     -20.426  40.488  90.924  1.00  0.00     0.000 C 
BRANCH   7   8
ATOM      8  C   UNL     1     -20.696  38.988  90.723  1.00  0.00     0.000 C 
BRANCH   8   9
ATOM      9  C   UNL     1     -19.915  38.402  89.537  1.00  0.00     0.000 C 
BRANCH   9  10
ATOM     10  C   UNL     1     -20.768  38.300  88.263  1.00  0.00     0.000 C 
BRANCH  10  11
ATOM     11  C   UNL     1     -19.964  37.684  87.112  1.00  0.00     0.000 C 
BRANCH  11  12
ATOM     12  C   UNL     1     -20.269  38.394  85.784  1.00  0.00     0.000 C 
BRANCH  12  13
ATOM     13  C   UNL     1     -19.128  38.257  84.759  1.00  0.00     0.006 C 
BRANCH  13  14
ATOM     14  C   UNL     1     -19.147  36.944  83.961  1.00  0.00     0.053 C 
BRANCH  14  15
ATOM     15  C   UNL     1     -17.820  36.647  83.332  1.00  0.00     0.041 C 
ATOM     16  O   UNL     1     -17.571  35.493  82.893  1.00  0.00    -0.550 OA
ATOM     17  O   UNL     1     -16.850  37.639  83.249  1.00  0.00    -0.550 OA
ENDBRANCH  14  15
ENDBRANCH  13  14
ENDBRANCH  12  13
ENDBRANCH  11  12
ENDBRANCH  10  11
ENDBRANCH   9  10
ENDBRANCH   8   9
ENDBRANCH   7   8
ENDBRANCH   6   7
ENDBRANCH   5   6
ENDBRANCH   4   5
ENDBRANCH   3   4
ENDBRANCH   2   3
ENDBRANCH   1   2
BRANCH   1  18
ATOM     18  C   UNL     1     -18.307  44.819  85.576  1.00  0.00     0.000 C 
BRANCH  18  19
ATOM     19  C   UNL     1     -17.784  45.491  84.293  1.00  0.00     0.000 C 
BRANCH  19  20
ATOM     20  C   UNL     1     -18.765  45.373  83.112  1.00  0.00     0.000 C 
BRANCH  20  21
ATOM     21  C   UNL     1     -19.752  46.552  83.039  1.00  0.00     0.000 C 
BRANCH  21  22
ATOM     22  C   UNL     1     -21.178  46.228  83.525  1.00  0.00     0.000 C 
BRANCH  22  23
ATOM     23  C   UNL     1     -21.593  47.055  84.754  1.00  0.00     0.000 C 
BRANCH  23  24
ATOM     24  C   UNL     1     -22.315  46.174  85.787  1.00  0.00    -0.000 C 
BRANCH  24  25
ATOM     25  C   UNL     1     -22.054  46.626  87.234  1.00  0.00    -0.000 C 
BRANCH  25  26
ATOM     26  C   UNL     1     -22.386  45.531  88.262  1.00  0.00    -0.000 C 
BRANCH  26  27
ATOM     27  C   UNL     1     -23.648  44.737  87.888  1.00  0.00    -0.000 C 
BRANCH  27  28
ATOM     28  C   UNL     1     -24.322  44.082  89.107  1.00  0.00    -0.000 C 
BRANCH  28  29
ATOM     29  C   UNL     1     -25.642  44.785  89.492  1.00  0.00    -0.000 C 
BRANCH  29  30
ATOM     30  C   UNL     1     -26.489  43.996  90.509  1.00  0.00    -0.000 C 
BRANCH  30  31
ATOM     31  C   UNL     1     -27.688  43.248  89.904  1.00  0.00    -0.003 C 
ATOM     32  C   UNL     1     -28.730  42.854  90.951  1.00  0.00     0.004 C 
ENDBRANCH  30  31
ENDBRANCH  29  30
ENDBRANCH  28  29
ENDBRANCH  27  28
ENDBRANCH  26  27
ENDBRANCH  25  26
ENDBRANCH  24  25
ENDBRANCH  23  24
ENDBRANCH  22  23
ENDBRANCH  21  22
ENDBRANCH  20  21
ENDBRANCH  19  20
ENDBRANCH  18  19
ENDBRANCH   1  18
TORSDOF 28
ENDMDL
MODEL 4
REMARK VINA RESULT:    -5.287      2.580      4.917
REMARK INTER + INTRA:         -17.786
REMARK INTER:                 -14.108
REMARK INTRA:                  -3.678
REMARK UNBOUND:                -3.846
REMARK SMILES CCCCCCCCCCCCCCCCCCCCCCCCCCCCCC(=O)[O-]
REMARK SMILES IDX 16 1 17 2 18 3 19 4 20 5 21 6 22 7 23 8 24 9 25 10 26 11
REMARK SMILES IDX 27 12 28 13 29 14 30 15 31 16 32 17 15 18 14 19 13 20 12 21
REMARK SMILES IDX 11 22 10 23 9 24 8 25 7 26 6 27 5 28 4 29 3 30 2 31 1 32
REMARK H PARENT
REMARK Flexibility Score: inf
ROOT
ATOM      1  C   UNL     1     -21.046  38.955  86.290  1.00  0.00     0.000 C 
ENDROOT
BRANCH   1   2
ATOM      2  C   UNL     1     -19.639  38.656  85.745  1.00  0.00     0.000 C 
BRANCH   2   3
ATOM      3  C   UNL     1     -19.632  37.520  84.707  1.00  0.00     0.000 C 
BRANCH   3   4
ATOM      4  C   UNL     1     -18.743  37.775  83.476  1.00  0.00     0.000 C 
BRANCH   4   5
ATOM      5  C   UNL     1     -17.322  37.208  83.635  1.00  0.00     0.000 C 
BRANCH   5   6
ATOM      6  C   UNL     1     -17.328  35.704  83.983  1.00  0.00     0.000 C 
BRANCH   6   7
ATOM      7  C   UNL     1     -16.620  35.373  85.309  1.00  0.00     0.000 C 
BRANCH   7   8
ATOM      8  C   UNL     1     -17.601  35.121  86.465  1.00  0.00     0.000 C 
BRANCH   8   9
ATOM      9  C   UNL     1     -16.885  34.797  87.786  1.00  0.00     0.000 C 
BRANCH   9  10
ATOM     10  C   UNL     1     -17.750  35.109  89.017  1.00  0.00     0.000 C 
BRANCH  10  11
ATOM     11  C   UNL     1     -18.002  36.615  89.143  1.00  0.00     0.000 C 
BRANCH  11  12
ATOM     12  C   UNL     1     -19.505  36.929  89.091  1.00  0.00     0.000 C 
BRANCH  12  13
ATOM     13  C   UNL     1     -19.904  38.093  90.017  1.00  0.00     0.006 C 
BRANCH  13  14
ATOM     14  C   UNL     1     -18.991  39.326  89.913  1.00  0.00     0.053 C 
BRANCH  14  15
ATOM     15  C   UNL     1     -19.608  40.538  90.542  1.00  0.00     0.041 C 
ATOM     16  O   UNL     1     -18.912  41.302  91.262  1.00  0.00    -0.550 OA
ATOM     17  O   UNL     1     -20.957  40.814  90.349  1.00  0.00    -0.550 OA
ENDBRANCH  14  15
ENDBRANCH  13  14
ENDBRANCH  12  13
ENDBRANCH  11  12
ENDBRANCH  10  11
ENDBRANCH   9  10
ENDBRANCH   8   9
ENDBRANCH   7   8
ENDBRANCH   6   7
ENDBRANCH   5   6
ENDBRANCH   4   5
ENDBRANCH   3   4
ENDBRANCH   2   3
ENDBRANCH   1   2
BRANCH   1  18
ATOM     18  C   UNL     1     -21.182  40.383  86.848  1.00  0.00     0.000 C 
BRANCH  18  19
ATOM     19  C   UNL     1     -19.901  41.235  86.770  1.00  0.00     0.000 C 
BRANCH  19  20
ATOM     20  C   UNL     1     -20.191  42.744  86.665  1.00  0.00     0.000 C 
BRANCH  20  21
ATOM     21  C   UNL     1     -19.640  43.368  85.370  1.00  0.00     0.000 C 
BRANCH  21  22
ATOM     22  C   UNL     1     -18.802  44.645  85.577  1.00  0.00     0.000 C 
BRANCH  22  23
ATOM     23  C   UNL     1     -17.743  44.849  84.482  1.00  0.00     0.000 C 
BRANCH  23  24
ATOM     24  C   UNL     1     -17.509  46.346  84.219  1.00  0.00    -0.000 C 
BRANCH  24  25
ATOM     25  C   UNL     1     -18.821  47.121  84.007  1.00  0.00    -0.000 C 
BRANCH  25  26
ATOM     26  C   UNL     1     -19.575  46.668  82.745  1.00  0.00    -0.000 C 
BRANCH  26  27
ATOM     27  C   UNL     1     -21.085  46.516  82.987  1.00  0.00    -0.000 C 
BRANCH  27  28
ATOM     28  C   UNL     1     -21.514  46.994  84.386  1.00  0.00    -0.000 C 
BRANCH  28  29
ATOM     29  C   UNL     1     -22.165  45.865  85.214  1.00  0.00    -0.000 C 
BRANCH  29  30
ATOM     30  C   UNL     1     -22.848  46.360  86.504  1.00  0.00    -0.000 C 
BRANCH  30  31
ATOM     31  C   UNL     1     -21.963  46.313  87.760  1.00  0.00    -0.003 C 
ATOM     32  C   UNL     1     -22.378  45.212  88.737  1.00  0.00     0.004 C 
ENDBRANCH  30  31
ENDBRANCH  29  30
ENDBRANCH  28  29
ENDBRANCH  27  28
ENDBRANCH  26  27
ENDBRANCH  25  26
ENDBRANCH  24  25
ENDBRANCH  23  24
ENDBRANCH  22  23
ENDBRANCH  21  22
ENDBRANCH  20  21
ENDBRANCH  19  20
ENDBRANCH  18  19
ENDBRANCH   1  18
TORSDOF 28
ENDMDL
MODEL 5
REMARK VINA RESULT:    -5.283      4.361      9.480
REMARK INTER + INTRA:         -17.776
REMARK INTER:                 -14.306
REMARK INTRA:                  -3.470
REMARK UNBOUND:                -3.846
REMARK SMILES CCCCCCCCCCCCCCCCCCCCCCCCCCCCCC(=O)[O-]
REMARK SMILES IDX 16 1 17 2 18 3 19 4 20 5 21 6 22 7 23 8 24 9 25 10 26 11
REMARK SMILES IDX 27 12 28 13 29 14 30 15 31 16 32 17 15 18 14 19 13 20 12 21
REMARK SMILES IDX 11 22 10 23 9 24 8 25 7 26 6 27 5 28 4 29 3 30 2 31 1 32
REMARK H PARENT
REMARK Flexibility Score: inf
ROOT
ATOM      1  C   UNL     1     -20.490  38.139  86.056  1.00  0.00     0.000 C 
ENDROOT
BRANCH   1   2
ATOM      2  C   UNL     1     -20.853  39.358  86.921  1.00  0.00     0.000 C 
BRANCH   2   3
ATOM      3  C   UNL     1     -19.942  40.569  86.654  1.00  0.00     0.000 C 
BRANCH   3   4
ATOM      4  C   UNL     1     -20.484  41.912  87.175  1.00  0.00     0.000 C 
BRANCH   4   5
ATOM      5  C   UNL     1     -21.993  41.875  87.471  1.00  0.00     0.000 C 
BRANCH   5   6
ATOM      6  C   UNL     1     -22.461  43.099  88.286  1.00  0.00     0.000 C 
BRANCH   6   7
ATOM      7  C   UNL     1     -21.546  44.328  88.138  1.00  0.00     0.000 C 
BRANCH   7   8
ATOM      8  C   UNL     1     -22.329  45.637  87.941  1.00  0.00     0.000 C 
BRANCH   8   9
ATOM      9  C   UNL     1     -23.433  45.509  86.880  1.00  0.00     0.000 C 
BRANCH   9  10
ATOM     10  C   UNL     1     -24.843  45.633  87.480  1.00  0.00     0.000 C 
BRANCH  10  11
ATOM     11  C   UNL     1     -24.846  46.586  88.680  1.00  0.00     0.000 C 
BRANCH  11  12
ATOM     12  C   UNL     1     -25.645  45.995  89.852  1.00  0.00     0.000 C 
BRANCH  12  13
ATOM     13  C   UNL     1     -26.559  44.832  89.423  1.00  0.00     0.006 C 
BRANCH  13  14
ATOM     14  C   UNL     1     -26.940  43.872  90.562  1.00  0.00     0.053 C 
BRANCH  14  15
ATOM     15  C   UNL     1     -28.138  43.039  90.220  1.00  0.00     0.041 C 
ATOM     16  O   UNL     1     -28.369  42.722  89.024  1.00  0.00    -0.550 OA
ATOM     17  O   UNL     1     -29.011  42.630  91.222  1.00  0.00    -0.550 OA
ENDBRANCH  14  15
ENDBRANCH  13  14
ENDBRANCH  12  13
ENDBRANCH  11  12
ENDBRANCH  10  11
ENDBRANCH   9  10
ENDBRANCH   8   9
ENDBRANCH   7   8
ENDBRANCH   6   7
ENDBRANCH   5   6
ENDBRANCH   4   5
ENDBRANCH   3   4
ENDBRANCH   2   3
ENDBRANCH   1   2
BRANCH   1  18
ATOM     18  C   UNL     1     -19.439  38.460  84.979  1.00  0.00     0.000 C 
BRANCH  18  19
ATOM     19  C   UNL     1     -19.211  37.344  83.942  1.00  0.00     0.000 C 
BRANCH  19  20
ATOM     20  C   UNL     1     -17.721  37.113  83.629  1.00  0.00     0.000 C 
BRANCH  20  21
ATOM     21  C   UNL     1     -17.279  35.660  83.880  1.00  0.00     0.000 C 
BRANCH  21  22
ATOM     22  C   UNL     1     -16.636  35.413  85.259  1.00  0.00     0.000 C 
BRANCH  22  23
ATOM     23  C   UNL     1     -17.657  35.443  86.408  1.00  0.00     0.000 C 
BRANCH  23  24
ATOM     24  C   UNL     1     -17.029  34.923  87.711  1.00  0.00    -0.000 C 
BRANCH  24  25
ATOM     25  C   UNL     1     -17.711  35.496  88.966  1.00  0.00    -0.000 C 
BRANCH  25  26
ATOM     26  C   UNL     1     -18.857  36.464  88.624  1.00  0.00    -0.000 C 
BRANCH  26  27
ATOM     27  C   UNL     1     -19.306  37.295  89.837  1.00  0.00    -0.000 C 
BRANCH  27  28
ATOM     28  C   UNL     1     -18.155  38.105  90.461  1.00  0.00    -0.000 C 
BRANCH  28  29
ATOM     29  C   UNL     1     -18.663  39.349  91.222  1.00  0.00    -0.000 C 
BRANCH  29  30
ATOM     30  C   UNL     1     -19.331  40.399  90.314  1.00  0.00    -0.000 C 
BRANCH  30  31
ATOM     31  C   UNL     1     -20.610  41.028  90.890  1.00  0.00    -0.003 C 
ATOM     32  C   UNL     1     -21.451  40.034  91.691  1.00  0.00     0.004 C 
ENDBRANCH  30  31
ENDBRANCH  29  30
ENDBRANCH  28  29
ENDBRANCH  27  28
ENDBRANCH  26  27
ENDBRANCH  25  26
ENDBRANCH  24  25
ENDBRANCH  23  24
ENDBRANCH  22  23
ENDBRANCH  21  22
ENDBRANCH  20  21
ENDBRANCH  19  20
ENDBRANCH  18  19
ENDBRANCH   1  18
TORSDOF 28
ENDMDL
MODEL 6
REMARK VINA RESULT:    -5.273      2.399      4.622
REMARK INTER + INTRA:         -17.751
REMARK INTER:                 -14.268
REMARK INTRA:                  -3.483
REMARK UNBOUND:                -3.846
REMARK SMILES CCCCCCCCCCCCCCCCCCCCCCCCCCCCCC(=O)[O-]
REMARK SMILES IDX 16 1 17 2 18 3 19 4 20 5 21 6 22 7 23 8 24 9 25 10 26 11
REMARK SMILES IDX 27 12 28 13 29 14 30 15 31 16 32 17 15 18 14 19 13 20 12 21
REMARK SMILES IDX 11 22 10 23 9 24 8 25 7 26 6 27 5 28 4 29 3 30 2 31 1 32
REMARK H PARENT
REMARK Flexibility Score: inf
ROOT
ATOM      1  C   UNL     1     -20.588  38.894  90.380  1.00  0.00     0.000 C 
ENDROOT
BRANCH   1   2
ATOM      2  C   UNL     1     -19.820  37.700  89.789  1.00  0.00     0.000 C 
BRANCH   2   3
ATOM      3  C   UNL     1     -20.009  37.565  88.267  1.00  0.00     0.000 C 
BRANCH   3   4
ATOM      4  C   UNL     1     -20.916  38.635  87.632  1.00  0.00     0.000 C 
BRANCH   4   5
ATOM      5  C   UNL     1     -20.666  38.813  86.124  1.00  0.00     0.000 C 
BRANCH   5   6
ATOM      6  C   UNL     1     -19.522  37.913  85.610  1.00  0.00     0.000 C 
BRANCH   6   7
ATOM      7  C   UNL     1     -19.617  37.589  84.109  1.00  0.00     0.000 C 
BRANCH   7   8
ATOM      8  C   UNL     1     -18.240  37.468  83.435  1.00  0.00     0.000 C 
BRANCH   8   9
ATOM      9  C   UNL     1     -17.641  36.059  83.567  1.00  0.00     0.000 C 
BRANCH   9  10
ATOM     10  C   UNL     1     -16.501  35.998  84.595  1.00  0.00     0.000 C 
BRANCH  10  11
ATOM     11  C   UNL     1     -16.776  34.926  85.657  1.00  0.00     0.000 C 
BRANCH  11  12
ATOM     12  C   UNL     1     -17.266  35.562  86.967  1.00  0.00     0.000 C 
BRANCH  12  13
ATOM     13  C   UNL     1     -17.054  34.649  88.189  1.00  0.00     0.006 C 
BRANCH  13  14
ATOM     14  C   UNL     1     -16.284  33.353  87.885  1.00  0.00     0.053 C 
BRANCH  14  15
ATOM     15  C   UNL     1     -16.231  32.438  89.071  1.00  0.00     0.041 C 
ATOM     16  O   UNL     1     -17.252  32.273  89.790  1.00  0.00    -0.550 OA
ATOM     17  O   UNL     1     -15.049  31.783  89.393  1.00  0.00    -0.550 OA
ENDBRANCH  14  15
ENDBRANCH  13  14
ENDBRANCH  12  13
ENDBRANCH  11  12
ENDBRANCH  10  11
ENDBRANCH   9  10
ENDBRANCH   8   9
ENDBRANCH   7   8
ENDBRANCH   6   7
ENDBRANCH   5   6
ENDBRANCH   4   5
ENDBRANCH   3   4
ENDBRANCH   2   3
ENDBRANCH   1   2
BRANCH   1  18
ATOM     18  C   UNL     1     -19.659  40.025  90.859  1.00  0.00     0.000 C 
BRANCH  18  19
ATOM     19  C   UNL     1     -19.769  41.337  90.061  1.00  0.00     0.000 C 
BRANCH  19  20
ATOM     20  C   UNL     1     -21.208  41.642  89.605  1.00  0.00     0.000 C 
BRANCH  20  21
ATOM     21  C   UNL     1     -21.275  42.774  88.563  1.00  0.00     0.000 C 
BRANCH  21  22
ATOM     22  C   UNL     1     -21.221  42.302  87.097  1.00  0.00     0.000 C 
BRANCH  22  23
ATOM     23  C   UNL     1     -19.806  42.371  86.499  1.00  0.00     0.000 C 
BRANCH  23  24
ATOM     24  C   UNL     1     -19.759  43.352  85.316  1.00  0.00    -0.000 C 
BRANCH  24  25
ATOM     25  C   UNL     1     -18.759  44.500  85.539  1.00  0.00    -0.000 C 
BRANCH  25  26
ATOM     26  C   UNL     1     -18.124  44.992  84.227  1.00  0.00    -0.000 C 
BRANCH  26  27
ATOM     27  C   UNL     1     -18.945  46.106  83.559  1.00  0.00    -0.000 C 
BRANCH  27  28
ATOM     28  C   UNL     1     -19.930  46.782  84.531  1.00  0.00    -0.000 C 
BRANCH  28  29
ATOM     29  C   UNL     1     -21.400  46.577  84.108  1.00  0.00    -0.000 C 
BRANCH  29  30
ATOM     30  C   UNL     1     -22.406  46.754  85.261  1.00  0.00    -0.000 C 
BRANCH  30  31
ATOM     31  C   UNL     1     -22.283  45.717  86.389  1.00  0.00    -0.003 C 
ATOM     32  C   UNL     1     -21.932  46.346  87.737  1.00  0.00     0.004 C 
ENDBRANCH  30  31
ENDBRANCH  29  30
ENDBRANCH  28  29
ENDBRANCH  27  28
ENDBRANCH  26  27
ENDBRANCH  25  26
ENDBRANCH  24  25
ENDBRANCH  23  24
ENDBRANCH  22  23
ENDBRANCH  21  22
ENDBRANCH  20  21
ENDBRANCH  19  20
ENDBRANCH  18  19
ENDBRANCH   1  18
TORSDOF 28
ENDMDL
MODEL 7
REMARK VINA RESULT:    -5.245      3.285      8.857
REMARK INTER + INTRA:         -17.677
REMARK INTER:                 -14.081
REMARK INTRA:                  -3.596
REMARK UNBOUND:                -3.846
REMARK SMILES CCCCCCCCCCCCCCCCCCCCCCCCCCCCCC(=O)[O-]
REMARK SMILES IDX 16 1 17 2 18 3 19 4 20 5 21 6 22 7 23 8 24 9 25 10 26 11
REMARK SMILES IDX 27 12 28 13 29 14 30 15 31 16 32 17 15 18 14 19 13 20 12 21
REMARK SMILES IDX 11 22 10 23 9 24 8 25 7 26 6 27 5 28 4 29 3 30 2 31 1 32
REMARK H PARENT
REMARK Flexibility Score: inf
ROOT
ATOM      1  C   UNL     1     -19.566  38.475  85.382  1.00  0.00     0.000 C 
ENDROOT
BRANCH   1   2
ATOM      2  C   UNL     1     -20.674  38.370  86.444  1.00  0.00     0.000 C 
BRANCH   2   3
ATOM      3  C   UNL     1     -20.604  39.498  87.488  1.00  0.00     0.000 C 
BRANCH   3   4
ATOM      4  C   UNL     1     -19.912  40.786  87.004  1.00  0.00     0.000 C 
BRANCH   4   5
ATOM      5  C   UNL     1     -20.909  41.867  86.552  1.00  0.00     0.000 C 
BRANCH   5   6
ATOM      6  C   UNL     1     -20.259  43.264  86.466  1.00  0.00     0.000 C 
BRANCH   6   7
ATOM      7  C   UNL     1     -19.225  43.397  85.333  1.00  0.00     0.000 C 
BRANCH   7   8
ATOM      8  C   UNL     1     -18.303  44.615  85.504  1.00  0.00     0.000 C 
BRANCH   8   9
ATOM      9  C   UNL     1     -17.886  45.232  84.160  1.00  0.00     0.000 C 
BRANCH   9  10
ATOM     10  C   UNL     1     -19.092  45.623  83.292  1.00  0.00     0.000 C 
BRANCH  10  11
ATOM     11  C   UNL     1     -19.966  46.663  84.002  1.00  0.00     0.000 C 
BRANCH  11  12
ATOM     12  C   UNL     1     -21.404  46.151  84.172  1.00  0.00     0.000 C 
BRANCH  12  13
ATOM     13  C   UNL     1     -22.187  46.918  85.254  1.00  0.00     0.006 C 
BRANCH  13  14
ATOM     14  C   UNL     1     -22.165  46.256  86.641  1.00  0.00     0.053 C 
BRANCH  14  15
ATOM     15  C   UNL     1     -23.492  45.661  87.002  1.00  0.00     0.041 C 
ATOM     16  O   UNL     1     -24.556  46.292  86.765  1.00  0.00    -0.550 OA
ATOM     17  O   UNL     1     -23.553  44.416  87.617  1.00  0.00    -0.550 OA
ENDBRANCH  14  15
ENDBRANCH  13  14
ENDBRANCH  12  13
ENDBRANCH  11  12
ENDBRANCH  10  11
ENDBRANCH   9  10
ENDBRANCH   8   9
ENDBRANCH   7   8
ENDBRANCH   6   7
ENDBRANCH   5   6
ENDBRANCH   4   5
ENDBRANCH   3   4
ENDBRANCH   2   3
ENDBRANCH   1   2
BRANCH   1  18
ATOM     18  C   UNL     1     -19.706  37.426  84.264  1.00  0.00     0.000 C 
BRANCH  18  19
ATOM     19  C   UNL     1     -18.642  37.513  83.155  1.00  0.00     0.000 C 
BRANCH  19  20
ATOM     20  C   UNL     1     -17.243  37.080  83.631  1.00  0.00     0.000 C 
BRANCH  20  21
ATOM     21  C   UNL     1     -17.129  35.558  83.837  1.00  0.00     0.000 C 
BRANCH  21  22
ATOM     22  C   UNL     1     -16.501  35.136  85.179  1.00  0.00     0.000 C 
BRANCH  22  23
ATOM     23  C   UNL     1     -17.396  35.462  86.386  1.00  0.00     0.000 C 
BRANCH  23  24
ATOM     24  C   UNL     1     -16.890  34.750  87.651  1.00  0.00    -0.000 C 
BRANCH  24  25
ATOM     25  C   UNL     1     -17.738  35.076  88.893  1.00  0.00    -0.000 C 
BRANCH  25  26
ATOM     26  C   UNL     1     -17.802  36.585  89.183  1.00  0.00    -0.000 C 
BRANCH  26  27
ATOM     27  C   UNL     1     -19.219  37.051  89.555  1.00  0.00    -0.000 C 
BRANCH  27  28
ATOM     28  C   UNL     1     -19.221  38.135  90.649  1.00  0.00    -0.000 C 
BRANCH  28  29
ATOM     29  C   UNL     1     -18.240  39.284  90.333  1.00  0.00    -0.000 C 
BRANCH  29  30
ATOM     30  C   UNL     1     -18.753  40.672  90.764  1.00  0.00    -0.000 C 
BRANCH  30  31
ATOM     31  C   UNL     1     -20.199  40.690  91.284  1.00  0.00    -0.003 C 
ATOM     32  C   UNL     1     -21.103  41.634  90.491  1.00  0.00     0.004 C 
ENDBRANCH  30  31
ENDBRANCH  29  30
ENDBRANCH  28  29
ENDBRANCH  27  28
ENDBRANCH  26  27
ENDBRANCH  25  26
ENDBRANCH  24  25
ENDBRANCH  23  24
ENDBRANCH  22  23
ENDBRANCH  21  22
ENDBRANCH  20  21
ENDBRANCH  19  20
ENDBRANCH  18  19
ENDBRANCH   1  18
TORSDOF 28
ENDMDL
MODEL 8
REMARK VINA RESULT:    -5.188      3.015      7.086
REMARK INTER + INTRA:         -17.525
REMARK INTER:                 -13.693
REMARK INTRA:                  -3.832
REMARK UNBOUND:                -3.846
REMARK SMILES CCCCCCCCCCCCCCCCCCCCCCCCCCCCCC(=O)[O-]
REMARK SMILES IDX 16 1 17 2 18 3 19 4 20 5 21 6 22 7 23 8 24 9 25 10 26 11
REMARK SMILES IDX 27 12 28 13 29 14 30 15 31 16 32 17 15 18 14 19 13 20 12 21
REMARK SMILES IDX 11 22 10 23 9 24 8 25 7 26 6 27 5 28 4 29 3 30 2 31 1 32
REMARK H PARENT
REMARK Flexibility Score: inf
ROOT
ATOM      1  C   UNL     1     -16.882  34.734  87.597  1.00  0.00     0.000 C 
ENDROOT
BRANCH   1   2
ATOM      2  C   UNL     1     -17.432  35.505  86.385  1.00  0.00     0.000 C 
BRANCH   2   3
ATOM      3  C   UNL     1     -16.542  35.366  85.138  1.00  0.00     0.000 C 
BRANCH   3   4
ATOM      4  C   UNL     1     -16.832  36.385  84.020  1.00  0.00     0.000 C 
BRANCH   4   5
ATOM      5  C   UNL     1     -18.033  35.986  83.144  1.00  0.00     0.000 C 
BRANCH   5   6
ATOM      6  C   UNL     1     -19.159  37.041  83.178  1.00  0.00     0.000 C 
BRANCH   6   7
ATOM      7  C   UNL     1     -19.049  38.026  84.355  1.00  0.00     0.000 C 
BRANCH   7   8
ATOM      8  C   UNL     1     -20.351  38.138  85.165  1.00  0.00     0.000 C 
BRANCH   8   9
ATOM      9  C   UNL     1     -20.127  38.746  86.559  1.00  0.00     0.000 C 
BRANCH   9  10
ATOM     10  C   UNL     1     -21.355  39.517  87.069  1.00  0.00     0.000 C 
BRANCH  10  11
ATOM     11  C   UNL     1     -21.308  40.982  86.622  1.00  0.00     0.000 C 
BRANCH  11  12
ATOM     12  C   UNL     1     -19.892  41.559  86.771  1.00  0.00     0.000 C 
BRANCH  12  13
ATOM     13  C   UNL     1     -19.593  42.676  85.754  1.00  0.00     0.006 C 
BRANCH  13  14
ATOM     14  C   UNL     1     -19.852  44.097  86.278  1.00  0.00     0.053 C 
BRANCH  14  15
ATOM     15  C   UNL     1     -20.631  44.925  85.301  1.00  0.00     0.041 C 
ATOM     16  O   UNL     1     -20.105  45.284  84.215  1.00  0.00    -0.550 OA
ATOM     17  O   UNL     1     -21.930  45.317  85.600  1.00  0.00    -0.550 OA
ENDBRANCH  14  15
ENDBRANCH  13  14
ENDBRANCH  12  13
ENDBRANCH  11  12
ENDBRANCH  10  11
ENDBRANCH   9  10
ENDBRANCH   8   9
ENDBRANCH   7   8
ENDBRANCH   6   7
ENDBRANCH   5   6
ENDBRANCH   4   5
ENDBRANCH   3   4
ENDBRANCH   2   3
ENDBRANCH   1   2
BRANCH   1  18
ATOM     18  C   UNL     1     -17.614  35.075  88.907  1.00  0.00     0.000 C 
BRANCH  18  19
ATOM     19  C   UNL     1     -18.601  36.254  88.812  1.00  0.00     0.000 C 
BRANCH  19  20
ATOM     20  C   UNL     1     -18.361  37.324  89.893  1.00  0.00     0.000 C 
BRANCH  20  21
ATOM     21  C   UNL     1     -19.527  38.325  90.008  1.00  0.00     0.000 C 
BRANCH  21  22
ATOM     22  C   UNL     1     -19.098  39.802  90.098  1.00  0.00     0.000 C 
BRANCH  22  23
ATOM     23  C   UNL     1     -19.395  40.429  91.470  1.00  0.00     0.000 C 
BRANCH  23  24
ATOM     24  C   UNL     1     -20.796  41.060  91.492  1.00  0.00    -0.000 C 
BRANCH  24  25
ATOM     25  C   UNL     1     -21.226  41.595  90.115  1.00  0.00    -0.000 C 
BRANCH  25  26
ATOM     26  C   UNL     1     -22.212  42.772  90.220  1.00  0.00    -0.000 C 
BRANCH  26  27
ATOM     27  C   UNL     1     -22.179  43.677  88.979  1.00  0.00    -0.000 C 
BRANCH  27  28
ATOM     28  C   UNL     1     -23.517  43.690  88.217  1.00  0.00    -0.000 C 
BRANCH  28  29
ATOM     29  C   UNL     1     -24.222  45.061  88.299  1.00  0.00    -0.000 C 
BRANCH  29  30
ATOM     30  C   UNL     1     -25.241  45.165  89.450  1.00  0.00    -0.000 C 
BRANCH  30  31
ATOM     31  C   UNL     1     -25.909  43.836  89.841  1.00  0.00    -0.003 C 
ATOM     32  C   UNL     1     -26.435  43.836  91.276  1.00  0.00     0.004 C 
ENDBRANCH  30  31
ENDBRANCH  29  30
ENDBRANCH  28  29
ENDBRANCH  27  28
ENDBRANCH  26  27
ENDBRANCH  25  26
ENDBRANCH  24  25
ENDBRANCH  23  24
ENDBRANCH  22  23
ENDBRANCH  21  22
ENDBRANCH  20  21
ENDBRANCH  19  20
ENDBRANCH  18  19
ENDBRANCH   1  18
TORSDOF 28
ENDMDL
MODEL 9
REMARK VINA RESULT:    -5.071      4.196      9.611
REMARK INTER + INTRA:         -17.216
REMARK INTER:                 -14.195
REMARK INTRA:                  -3.021
REMARK UNBOUND:                -3.846
REMARK SMILES CCCCCCCCCCCCCCCCCCCCCCCCCCCCCC(=O)[O-]
REMARK SMILES IDX 16 1 17 2 18 3 19 4 20 5 21 6 22 7 23 8 24 9 25 10 26 11
REMARK SMILES IDX 27 12 28 13 29 14 30 15 31 16 32 17 15 18 14 19 13 20 12 21
REMARK SMILES IDX 11 22 10 23 9 24 8 25 7 26 6 27 5 28 4 29 3 30 2 31 1 32
REMARK H PARENT
REMARK Flexibility Score: inf
ROOT
ATOM      1  C   UNL     1     -21.199  42.495  86.153  1.00  0.00     0.000 C 
ENDROOT
BRANCH   1   2
ATOM      2  C   UNL     1     -19.738  42.941  86.329  1.00  0.00     0.000 C 
BRANCH   2   3
ATOM      3  C   UNL     1     -19.515  44.412  85.936  1.00  0.00     0.000 C 
BRANCH   3   4
ATOM      4  C   UNL     1     -20.085  44.808  84.562  1.00  0.00     0.000 C 
BRANCH   4   5
ATOM      5  C   UNL     1     -21.183  45.882  84.656  1.00  0.00     0.000 C 
BRANCH   5   6
ATOM      6  C   UNL     1     -21.505  46.264  86.116  1.00  0.00     0.000 C 
BRANCH   6   7
ATOM      7  C   UNL     1     -22.803  45.633  86.649  1.00  0.00     0.000 C 
BRANCH   7   8
ATOM      8  C   UNL     1     -23.788  46.672  87.208  1.00  0.00     0.000 C 
BRANCH   8   9
ATOM      9  C   UNL     1     -25.233  46.421  86.749  1.00  0.00     0.000 C 
BRANCH   9  10
ATOM     10  C   UNL     1     -26.186  46.151  87.924  1.00  0.00     0.000 C 
BRANCH  10  11
ATOM     11  C   UNL     1     -25.403  45.882  89.214  1.00  0.00     0.000 C 
BRANCH  11  12
ATOM     12  C   UNL     1     -25.178  44.375  89.418  1.00  0.00     0.000 C 
BRANCH  12  13
ATOM     13  C   UNL     1     -25.810  43.849  90.720  1.00  0.00     0.006 C 
BRANCH  13  14
ATOM     14  C   UNL     1     -27.288  44.226  90.904  1.00  0.00     0.053 C 
BRANCH  14  15
ATOM     15  C   UNL     1     -28.210  43.140  90.438  1.00  0.00     0.041 C 
ATOM     16  O   UNL     1     -28.091  42.663  89.279  1.00  0.00    -0.550 OA
ATOM     17  O   UNL     1     -29.212  42.669  91.277  1.00  0.00    -0.550 OA
ENDBRANCH  14  15
ENDBRANCH  13  14
ENDBRANCH  12  13
ENDBRANCH  11  12
ENDBRANCH  10  11
ENDBRANCH   9  10
ENDBRANCH   8   9
ENDBRANCH   7   8
ENDBRANCH   6   7
ENDBRANCH   5   6
ENDBRANCH   4   5
ENDBRANCH   3   4
ENDBRANCH   2   3
ENDBRANCH   1   2
BRANCH   1  18
ATOM     18  C   UNL     1     -21.768  41.800  87.404  1.00  0.00     0.000 C 
BRANCH  18  19
ATOM     19  C   UNL     1     -21.807  42.674  88.671  1.00  0.00     0.000 C 
BRANCH  19  20
ATOM     20  C   UNL     1     -21.291  41.938  89.921  1.00  0.00     0.000 C 
BRANCH  20  21
ATOM     21  C   UNL     1     -19.801  41.563  89.818  1.00  0.00     0.000 C 
BRANCH  21  22
ATOM     22  C   UNL     1     -19.286  40.655  90.953  1.00  0.00     0.000 C 
BRANCH  22  23
ATOM     23  C   UNL     1     -18.309  39.576  90.459  1.00  0.00     0.000 C 
BRANCH  23  24
ATOM     24  C   UNL     1     -19.005  38.209  90.367  1.00  0.00    -0.000 C 
BRANCH  24  25
ATOM     25  C   UNL     1     -20.355  38.280  89.635  1.00  0.00    -0.000 C 
BRANCH  25  26
ATOM     26  C   UNL     1     -20.260  37.805  88.174  1.00  0.00    -0.000 C 
BRANCH  26  27
ATOM     27  C   UNL     1     -20.029  38.965  87.193  1.00  0.00    -0.000 C 
BRANCH  27  28
ATOM     28  C   UNL     1     -20.259  38.558  85.726  1.00  0.00    -0.000 C 
BRANCH  28  29
ATOM     29  C   UNL     1     -19.308  37.427  85.279  1.00  0.00    -0.000 C 
BRANCH  29  30
ATOM     30  C   UNL     1     -18.978  37.455  83.774  1.00  0.00    -0.000 C 
BRANCH  30  31
ATOM     31  C   UNL     1     -17.632  36.815  83.398  1.00  0.00    -0.003 C 
ATOM     32  C   UNL     1     -17.042  35.969  84.526  1.00  0.00     0.004 C 
ENDBRANCH  30  31
ENDBRANCH  29  30
ENDBRANCH  28  29
ENDBRANCH  27  28
ENDBRANCH  26  27
ENDBRANCH  25  26
ENDBRANCH  24  25
ENDBRANCH  23  24
ENDBRANCH  22  23
ENDBRANCH  21  22
ENDBRANCH  20  21
ENDBRANCH  19  20
ENDBRANCH  18  19
ENDBRANCH   1  18
TORSDOF 28
ENDMDL
