MODEL 1
REMARK VINA RESULT:    -2.157      0.000      0.000
REMARK INTER + INTRA:          -2.457
REMARK INTER:                  -2.284
REMARK INTRA:                  -0.174
REMARK UNBOUND:                -0.174
REMARK SMILES C=C(C)[C@H]1CC[C@]2(C)CCCC(=C)[C@H]2C1
REMARK SMILES IDX 4 1 5 2 6 3 7 4 9 5 10 6 11 7 12 8 13 9 14 10 15 11 8 12
REMARK SMILES IDX 2 13 3 14 1 15
REMARK H PARENT
REMARK Flexibility Score: inf
ROOT
ATOM      1  C   UNL     1     150.946 136.681 160.428  1.00  0.00     0.015 C 
ATOM      2  C   UNL     1     151.626 135.302 160.309  1.00  0.00     0.008 C 
ATOM      3  C   UNL     1     152.396 134.935 161.590  1.00  0.00     0.008 C 
ATOM      4  C   UNL     1     153.414 136.027 162.027  1.00  0.00    -0.026 C 
ATOM      5  C   UNL     1     153.974 135.650 163.433  1.00  0.00     0.008 C 
ATOM      6  C   UNL     1     154.886 136.738 164.038  1.00  0.00     0.005 C 
ATOM      7  C   UNL     1     154.207 138.114 164.071  1.00  0.00     0.031 C 
ATOM      8  C   UNL     1     153.612 138.444 162.722  1.00  0.00    -0.074 C 
ATOM      9  C   UNL     1     153.934 139.593 162.099  1.00  0.00     0.008 C 
ATOM     10  C   UNL     1     152.673 137.394 162.142  1.00  0.00     0.021 C 
ATOM     11  C   UNL     1     151.953 137.778 160.830  1.00  0.00     0.016 C 
ATOM     12  C   UNL     1     154.589 136.081 161.009  1.00  0.00     0.012 C 
ENDROOT
BRANCH   1  13
ATOM     13  C   UNL     1     150.210 137.048 159.144  1.00  0.00    -0.077 C 
ATOM     14  C   UNL     1     150.724 136.564 157.813  1.00  0.00     0.039 C 
ATOM     15  C   UNL     1     149.098 137.801 159.169  1.00  0.00     0.008 C 
ENDBRANCH   1  13
TORSDOF 1
ENDMDL
MODEL 2
REMARK VINA RESULT:     0.291     19.502     21.993
REMARK INTER + INTRA:           0.134
REMARK INTER:                   0.313
REMARK INTRA:                  -0.178
REMARK UNBOUND:                -0.174
REMARK SMILES C=C(C)[C@H]1CC[C@]2(C)CCCC(=C)[C@H]2C1
REMARK SMILES IDX 4 1 5 2 6 3 7 4 9 5 10 6 11 7 12 8 13 9 14 10 15 11 8 12
REMARK SMILES IDX 2 13 3 14 1 15
REMARK H PARENT
REMARK Flexibility Score: inf
ROOT
ATOM      1  C   UNL     1     139.930 153.613 160.408  1.00  0.00     0.015 C 
ATOM      2  C   UNL     1     139.374 155.027 160.670  1.00  0.00     0.008 C 
ATOM      3  C   UNL     1     138.690 155.125 162.046  1.00  0.00     0.008 C 
ATOM      4  C   UNL     1     137.595 154.041 162.264  1.00  0.00    -0.026 C 
ATOM      5  C   UNL     1     137.127 154.102 163.751  1.00  0.00     0.008 C 
ATOM      6  C   UNL     1     136.144 152.972 164.126  1.00  0.00     0.005 C 
ATOM      7  C   UNL     1     136.695 151.582 163.781  1.00  0.00     0.031 C 
ATOM      8  C   UNL     1     137.205 151.551 162.360  1.00  0.00    -0.074 C 
ATOM      9  C   UNL     1     136.756 150.622 161.497  1.00  0.00     0.008 C 
ATOM     10  C   UNL     1     138.213 152.635 161.998  1.00  0.00     0.021 C 
ATOM     11  C   UNL     1     138.843 152.532 160.591  1.00  0.00     0.016 C 
ATOM     12  C   UNL     1     136.381 154.335 161.336  1.00  0.00     0.012 C 
ENDROOT
BRANCH   1  13
ATOM     13  C   UNL     1     140.578 153.519 159.032  1.00  0.00    -0.077 C 
ATOM     14  C   UNL     1     141.931 152.874 158.876  1.00  0.00     0.039 C 
ATOM     15  C   UNL     1     139.965 154.000 157.938  1.00  0.00     0.008 C 
ENDBRANCH   1  13
TORSDOF 1
ENDMDL
