MODEL 1
REMARK VINA RESULT:    -3.341      0.000      0.000
REMARK INTER + INTRA:         -12.995
REMARK INTER:                  -8.419
REMARK INTRA:                  -4.576
REMARK UNBOUND:                -4.576
REMARK SMILES CCCCCCCCCCCCCCCCCCCCCCCCCCCC(=O)[O-]
REMARK SMILES IDX 15 1 16 2 17 3 18 4 19 5 20 6 21 7 22 8 23 9 24 10 25 11
REMARK SMILES IDX 26 12 27 13 28 14 29 15 30 16 14 17 13 18 12 19 11 20 10 21
REMARK SMILES IDX 9 22 8 23 7 24 6 25 5 26 4 27 3 28 2 29 1 30
REMARK H PARENT
REMARK Flexibility Score: inf
ROOT
ATOM      1  C   UNL     1      64.304  30.614  59.109  1.00  0.00     0.000 C 
ENDROOT
BRANCH   1   2
ATOM      2  C   UNL     1      64.304  30.147  60.574  1.00  0.00     0.000 C 
BRANCH   2   3
ATOM      3  C   UNL     1      63.549  28.820  60.775  1.00  0.00     0.000 C 
BRANCH   3   4
ATOM      4  C   UNL     1      62.358  28.950  61.742  1.00  0.00     0.000 C 
BRANCH   4   5
ATOM      5  C   UNL     1      61.927  30.396  62.049  1.00  0.00     0.000 C 
BRANCH   5   6
ATOM      6  C   UNL     1      60.585  30.773  61.397  1.00  0.00     0.000 C 
BRANCH   6   7
ATOM      7  C   UNL     1      60.748  31.153  59.915  1.00  0.00     0.000 C 
BRANCH   7   8
ATOM      8  C   UNL     1      59.803  30.371  58.974  1.00  0.00     0.000 C 
BRANCH   8   9
ATOM      9  C   UNL     1      60.313  28.960  58.627  1.00  0.00     0.000 C 
BRANCH   9  10
ATOM     10  C   UNL     1      59.317  27.829  58.932  1.00  0.00     0.000 C 
BRANCH  10  11
ATOM     11  C   UNL     1      59.585  27.151  60.284  1.00  0.00     0.000 C 
BRANCH  11  12
ATOM     12  C   UNL     1      58.557  27.599  61.334  1.00  0.00     0.006 C 
BRANCH  12  13
ATOM     13  C   UNL     1      57.511  26.515  61.623  1.00  0.00     0.053 C 
BRANCH  13  14
ATOM     14  C   UNL     1      56.142  27.095  61.804  1.00  0.00     0.041 C 
ATOM     15  O   UNL     1      55.134  26.499  61.341  1.00  0.00    -0.550 OA
ATOM     16  O   UNL     1      55.976  28.280  62.513  1.00  0.00    -0.550 OA
ENDBRANCH  13  14
ENDBRANCH  12  13
ENDBRANCH  11  12
ENDBRANCH  10  11
ENDBRANCH   9  10
ENDBRANCH   8   9
ENDBRANCH   7   8
ENDBRANCH   6   7
ENDBRANCH   5   6
ENDBRANCH   4   5
ENDBRANCH   3   4
ENDBRANCH   2   3
ENDBRANCH   1   2
BRANCH   1  17
ATOM     17  C   UNL     1      64.270  32.146  58.981  1.00  0.00     0.000 C 
BRANCH  17  18
ATOM     18  C   UNL     1      64.139  32.854  60.340  1.00  0.00     0.000 C 
BRANCH  18  19
ATOM     19  C   UNL     1      64.523  34.349  60.297  1.00  0.00     0.000 C 
BRANCH  19  20
ATOM     20  C   UNL     1      64.548  34.980  61.701  1.00  0.00     0.000 C 
BRANCH  20  21
ATOM     21  C   UNL     1      64.290  36.495  61.670  1.00  0.00     0.000 C 
BRANCH  21  22
ATOM     22  C   UNL     1      63.325  36.905  60.544  1.00  0.00    -0.000 C 
BRANCH  22  23
ATOM     23  C   UNL     1      61.851  36.872  61.003  1.00  0.00    -0.000 C 
BRANCH  23  24
ATOM     24  C   UNL     1      61.098  35.599  60.577  1.00  0.00    -0.000 C 
BRANCH  24  25
ATOM     25  C   UNL     1      60.637  35.644  59.112  1.00  0.00    -0.000 C 
BRANCH  25  26
ATOM     26  C   UNL     1      61.431  34.691  58.198  1.00  0.00    -0.000 C 
BRANCH  26  27
ATOM     27  C   UNL     1      60.582  33.686  57.397  1.00  0.00    -0.000 C 
BRANCH  27  28
ATOM     28  C   UNL     1      59.109  34.102  57.274  1.00  0.00    -0.000 C 
BRANCH  28  29
ATOM     29  C   UNL     1      58.262  32.959  56.703  1.00  0.00    -0.003 C 
ATOM     30  C   UNL     1      57.128  32.585  57.653  1.00  0.00     0.004 C 
ENDBRANCH  28  29
ENDBRANCH  27  28
ENDBRANCH  26  27
ENDBRANCH  25  26
ENDBRANCH  24  25
ENDBRANCH  23  24
ENDBRANCH  22  23
ENDBRANCH  21  22
ENDBRANCH  20  21
ENDBRANCH  19  20
ENDBRANCH  18  19
ENDBRANCH  17  18
ENDBRANCH   1  17
TORSDOF 26
ENDMDL
MODEL 2
REMARK VINA RESULT:    -3.337      3.170      6.435
REMARK INTER + INTRA:         -12.985
REMARK INTER:                  -7.568
REMARK INTRA:                  -5.416
REMARK UNBOUND:                -4.576
REMARK SMILES CCCCCCCCCCCCCCCCCCCCCCCCCCCC(=O)[O-]
REMARK SMILES IDX 15 1 16 2 17 3 18 4 19 5 20 6 21 7 22 8 23 9 24 10 25 11
REMARK SMILES IDX 26 12 27 13 28 14 29 15 30 16 14 17 13 18 12 19 11 20 10 21
REMARK SMILES IDX 9 22 8 23 7 24 6 25 5 26 4 27 3 28 2 29 1 30
REMARK H PARENT
REMARK Flexibility Score: inf
ROOT
ATOM      1  C   UNL     1      62.604  36.480  60.230  1.00  0.00     0.000 C 
ENDROOT
BRANCH   1   2
ATOM      2  C   UNL     1      63.651  36.128  61.299  1.00  0.00     0.000 C 
BRANCH   2   3
ATOM      3  C   UNL     1      64.349  34.784  61.028  1.00  0.00     0.000 C 
BRANCH   3   4
ATOM      4  C   UNL     1      64.111  34.264  59.598  1.00  0.00     0.000 C 
BRANCH   4   5
ATOM      5  C   UNL     1      63.238  32.999  59.505  1.00  0.00     0.000 C 
BRANCH   5   6
ATOM      6  C   UNL     1      62.643  32.582  60.861  1.00  0.00     0.000 C 
BRANCH   6   7
ATOM      7  C   UNL     1      61.230  31.990  60.716  1.00  0.00     0.000 C 
BRANCH   7   8
ATOM      8  C   UNL     1      61.059  30.630  61.431  1.00  0.00     0.000 C 
BRANCH   8   9
ATOM      9  C   UNL     1      62.394  29.966  61.815  1.00  0.00     0.000 C 
BRANCH   9  10
ATOM     10  C   UNL     1      62.473  28.463  61.497  1.00  0.00     0.000 C 
BRANCH  10  11
ATOM     11  C   UNL     1      63.606  28.123  60.518  1.00  0.00     0.000 C 
BRANCH  11  12
ATOM     12  C   UNL     1      64.420  29.379  60.167  1.00  0.00     0.006 C 
BRANCH  12  13
ATOM     13  C   UNL     1      65.789  29.035  59.565  1.00  0.00     0.053 C 
BRANCH  13  14
ATOM     14  C   UNL     1      66.559  28.090  60.436  1.00  0.00     0.041 C 
ATOM     15  O   UNL     1      66.711  26.888  60.089  1.00  0.00    -0.550 OA
ATOM     16  O   UNL     1      67.137  28.544  61.615  1.00  0.00    -0.550 OA
ENDBRANCH  13  14
ENDBRANCH  12  13
ENDBRANCH  11  12
ENDBRANCH  10  11
ENDBRANCH   9  10
ENDBRANCH   8   9
ENDBRANCH   7   8
ENDBRANCH   6   7
ENDBRANCH   5   6
ENDBRANCH   4   5
ENDBRANCH   3   4
ENDBRANCH   2   3
ENDBRANCH   1   2
BRANCH   1  17
ATOM     17  C   UNL     1      61.167  36.193  60.697  1.00  0.00     0.000 C 
BRANCH  17  18
ATOM     18  C   UNL     1      60.232  35.805  59.538  1.00  0.00     0.000 C 
BRANCH  18  19
ATOM     19  C   UNL     1      60.877  35.965  58.145  1.00  0.00     0.000 C 
BRANCH  19  20
ATOM     20  C   UNL     1      60.721  34.697  57.286  1.00  0.00     0.000 C 
BRANCH  20  21
ATOM     21  C   UNL     1      59.679  33.722  57.860  1.00  0.00     0.000 C 
BRANCH  21  22
ATOM     22  C   UNL     1      59.719  32.346  57.172  1.00  0.00    -0.000 C 
BRANCH  22  23
ATOM     23  C   UNL     1      61.141  31.976  56.698  1.00  0.00    -0.000 C 
BRANCH  23  24
ATOM     24  C   UNL     1      61.362  30.464  56.520  1.00  0.00    -0.000 C 
BRANCH  24  25
ATOM     25  C   UNL     1      61.600  29.737  57.852  1.00  0.00    -0.000 C 
BRANCH  25  26
ATOM     26  C   UNL     1      60.517  28.688  58.172  1.00  0.00    -0.000 C 
BRANCH  26  27
ATOM     27  C   UNL     1      59.330  29.201  59.009  1.00  0.00    -0.000 C 
BRANCH  27  28
ATOM     28  C   UNL     1      58.409  28.077  59.505  1.00  0.00    -0.000 C 
BRANCH  28  29
ATOM     29  C   UNL     1      58.577  27.855  61.012  1.00  0.00    -0.003 C 
ATOM     30  C   UNL     1      59.277  26.529  61.300  1.00  0.00     0.004 C 
ENDBRANCH  28  29
ENDBRANCH  27  28
ENDBRANCH  26  27
ENDBRANCH  25  26
ENDBRANCH  24  25
ENDBRANCH  23  24
ENDBRANCH  22  23
ENDBRANCH  21  22
ENDBRANCH  20  21
ENDBRANCH  19  20
ENDBRANCH  18  19
ENDBRANCH  17  18
ENDBRANCH   1  17
TORSDOF 26
ENDMDL
MODEL 3
REMARK VINA RESULT:    -3.289      9.837     12.299
REMARK INTER + INTRA:         -12.865
REMARK INTER:                  -8.672
REMARK INTRA:                  -4.193
REMARK UNBOUND:                -4.576
REMARK SMILES CCCCCCCCCCCCCCCCCCCCCCCCCCCC(=O)[O-]
REMARK SMILES IDX 15 1 16 2 17 3 18 4 19 5 20 6 21 7 22 8 23 9 24 10 25 11
REMARK SMILES IDX 26 12 27 13 28 14 29 15 30 16 14 17 13 18 12 19 11 20 10 21
REMARK SMILES IDX 9 22 8 23 7 24 6 25 5 26 4 27 3 28 2 29 1 30
REMARK H PARENT
REMARK Flexibility Score: inf
ROOT
ATOM      1  C   UNL     1      59.183  25.645  51.789  1.00  0.00     0.000 C 
ENDROOT
BRANCH   1   2
ATOM      2  C   UNL     1      59.286  24.407  52.697  1.00  0.00     0.000 C 
BRANCH   2   3
ATOM      3  C   UNL     1      60.600  24.365  53.498  1.00  0.00     0.000 C 
BRANCH   3   4
ATOM      4  C   UNL     1      61.548  23.244  53.032  1.00  0.00     0.000 C 
BRANCH   4   5
ATOM      5  C   UNL     1      62.414  23.594  51.808  1.00  0.00     0.000 C 
BRANCH   5   6
ATOM      6  C   UNL     1      62.420  22.484  50.743  1.00  0.00     0.000 C 
BRANCH   6   7
ATOM      7  C   UNL     1      61.380  22.736  49.637  1.00  0.00     0.000 C 
BRANCH   7   8
ATOM      8  C   UNL     1      60.469  21.517  49.364  1.00  0.00     0.000 C 
BRANCH   8   9
ATOM      9  C   UNL     1      60.237  20.634  50.603  1.00  0.00     0.000 C 
BRANCH   9  10
ATOM     10  C   UNL     1      60.178  19.125  50.309  1.00  0.00     0.000 C 
BRANCH  10  11
ATOM     11  C   UNL     1      58.978  18.738  49.433  1.00  0.00     0.000 C 
BRANCH  11  12
ATOM     12  C   UNL     1      58.008  17.831  50.205  1.00  0.00     0.006 C 
BRANCH  12  13
ATOM     13  C   UNL     1      56.655  18.509  50.460  1.00  0.00     0.053 C 
BRANCH  13  14
ATOM     14  C   UNL     1      56.554  19.044  51.856  1.00  0.00     0.041 C 
ATOM     15  O   UNL     1      57.503  18.880  52.668  1.00  0.00    -0.550 OA
ATOM     16  O   UNL     1      55.425  19.752  52.250  1.00  0.00    -0.550 OA
ENDBRANCH  13  14
ENDBRANCH  12  13
ENDBRANCH  11  12
ENDBRANCH  10  11
ENDBRANCH   9  10
ENDBRANCH   8   9
ENDBRANCH   7   8
ENDBRANCH   6   7
ENDBRANCH   5   6
ENDBRANCH   4   5
ENDBRANCH   3   4
ENDBRANCH   2   3
ENDBRANCH   1   2
BRANCH   1  17
ATOM     17  C   UNL     1      59.042  25.274  50.304  1.00  0.00     0.000 C 
BRANCH  17  18
ATOM     18  C   UNL     1      59.751  26.273  49.373  1.00  0.00     0.000 C 
BRANCH  18  19
ATOM     19  C   UNL     1      60.025  27.642  50.031  1.00  0.00     0.000 C 
BRANCH  19  20
ATOM     20  C   UNL     1      59.278  28.785  49.319  1.00  0.00     0.000 C 
BRANCH  20  21
ATOM     21  C   UNL     1      58.030  29.243  50.091  1.00  0.00     0.000 C 
BRANCH  21  22
ATOM     22  C   UNL     1      58.270  29.318  51.609  1.00  0.00    -0.000 C 
BRANCH  22  23
ATOM     23  C   UNL     1      56.991  29.006  52.415  1.00  0.00    -0.000 C 
BRANCH  23  24
ATOM     24  C   UNL     1      55.982  30.167  52.449  1.00  0.00    -0.000 C 
BRANCH  24  25
ATOM     25  C   UNL     1      54.523  29.689  52.368  1.00  0.00    -0.000 C 
BRANCH  25  26
ATOM     26  C   UNL     1      54.070  29.369  50.931  1.00  0.00    -0.000 C 
BRANCH  26  27
ATOM     27  C   UNL     1      53.882  27.872  50.617  1.00  0.00    -0.000 C 
BRANCH  27  28
ATOM     28  C   UNL     1      55.025  27.282  49.778  1.00  0.00    -0.000 C 
BRANCH  28  29
ATOM     29  C   UNL     1      55.386  25.872  50.258  1.00  0.00    -0.003 C 
ATOM     30  C   UNL     1      55.388  25.791  51.781  1.00  0.00     0.004 C 
ENDBRANCH  28  29
ENDBRANCH  27  28
ENDBRANCH  26  27
ENDBRANCH  25  26
ENDBRANCH  24  25
ENDBRANCH  23  24
ENDBRANCH  22  23
ENDBRANCH  21  22
ENDBRANCH  20  21
ENDBRANCH  19  20
ENDBRANCH  18  19
ENDBRANCH  17  18
ENDBRANCH   1  17
TORSDOF 26
ENDMDL
MODEL 4
REMARK VINA RESULT:    -3.241      5.133      9.286
REMARK INTER + INTRA:         -12.743
REMARK INTER:                  -8.365
REMARK INTRA:                  -4.379
REMARK UNBOUND:                -4.576
REMARK SMILES CCCCCCCCCCCCCCCCCCCCCCCCCCCC(=O)[O-]
REMARK SMILES IDX 15 1 16 2 17 3 18 4 19 5 20 6 21 7 22 8 23 9 24 10 25 11
REMARK SMILES IDX 26 12 27 13 28 14 29 15 30 16 14 17 13 18 12 19 11 20 10 21
REMARK SMILES IDX 9 22 8 23 7 24 6 25 5 26 4 27 3 28 2 29 1 30
REMARK H PARENT
REMARK Flexibility Score: inf
ROOT
ATOM      1  C   UNL     1      61.137  35.671  60.607  1.00  0.00     0.000 C 
ENDROOT
BRANCH   1   2
ATOM      2  C   UNL     1      62.020  36.869  60.993  1.00  0.00     0.000 C 
BRANCH   2   3
ATOM      3  C   UNL     1      63.455  36.455  61.361  1.00  0.00     0.000 C 
BRANCH   3   4
ATOM      4  C   UNL     1      63.698  34.942  61.212  1.00  0.00     0.000 C 
BRANCH   4   5
ATOM      5  C   UNL     1      64.817  34.559  60.226  1.00  0.00     0.000 C 
BRANCH   5   6
ATOM      6  C   UNL     1      65.248  35.730  59.325  1.00  0.00     0.000 C 
BRANCH   6   7
ATOM      7  C   UNL     1      65.461  35.290  57.867  1.00  0.00     0.000 C 
BRANCH   7   8
ATOM      8  C   UNL     1      65.720  33.774  57.715  1.00  0.00     0.000 C 
BRANCH   8   9
ATOM      9  C   UNL     1      67.059  33.445  57.028  1.00  0.00     0.000 C 
BRANCH   9  10
ATOM     10  C   UNL     1      68.181  34.460  57.302  1.00  0.00     0.000 C 
BRANCH  10  11
ATOM     11  C   UNL     1      69.476  34.131  56.545  1.00  0.00     0.000 C 
BRANCH  11  12
ATOM     12  C   UNL     1      70.709  34.530  57.371  1.00  0.00     0.006 C 
BRANCH  12  13
ATOM     13  C   UNL     1      70.502  34.295  58.873  1.00  0.00     0.053 C 
BRANCH  13  14
ATOM     14  C   UNL     1      71.207  33.060  59.346  1.00  0.00     0.041 C 
ATOM     15  O   UNL     1      71.601  32.972  60.539  1.00  0.00    -0.550 OA
ATOM     16  O   UNL     1      71.401  31.993  58.476  1.00  0.00    -0.550 OA
ENDBRANCH  13  14
ENDBRANCH  12  13
ENDBRANCH  11  12
ENDBRANCH  10  11
ENDBRANCH   9  10
ENDBRANCH   8   9
ENDBRANCH   7   8
ENDBRANCH   6   7
ENDBRANCH   5   6
ENDBRANCH   4   5
ENDBRANCH   3   4
ENDBRANCH   2   3
ENDBRANCH   1   2
BRANCH   1  17
ATOM     17  C   UNL     1      60.369  35.905  59.295  1.00  0.00     0.000 C 
BRANCH  17  18
ATOM     18  C   UNL     1      60.398  34.682  58.363  1.00  0.00     0.000 C 
BRANCH  18  19
ATOM     19  C   UNL     1      61.823  34.173  58.057  1.00  0.00     0.000 C 
BRANCH  19  20
ATOM     20  C   UNL     1      62.035  32.725  58.534  1.00  0.00     0.000 C 
BRANCH  20  21
ATOM     21  C   UNL     1      60.792  31.847  58.321  1.00  0.00     0.000 C 
BRANCH  21  22
ATOM     22  C   UNL     1      60.426  31.029  59.573  1.00  0.00    -0.000 C 
BRANCH  22  23
ATOM     23  C   UNL     1      61.152  31.544  60.834  1.00  0.00    -0.000 C 
BRANCH  23  24
ATOM     24  C   UNL     1      61.595  30.427  61.794  1.00  0.00    -0.000 C 
BRANCH  24  25
ATOM     25  C   UNL     1      63.057  30.006  61.582  1.00  0.00    -0.000 C 
BRANCH  25  26
ATOM     26  C   UNL     1      63.952  31.157  61.084  1.00  0.00    -0.000 C 
BRANCH  26  27
ATOM     27  C   UNL     1      64.986  30.770  60.010  1.00  0.00    -0.000 C 
BRANCH  27  28
ATOM     28  C   UNL     1      64.616  29.490  59.247  1.00  0.00    -0.000 C 
BRANCH  28  29
ATOM     29  C   UNL     1      65.741  28.453  59.335  1.00  0.00    -0.003 C 
ATOM     30  C   UNL     1      65.387  27.338  60.315  1.00  0.00     0.004 C 
ENDBRANCH  28  29
ENDBRANCH  27  28
ENDBRANCH  26  27
ENDBRANCH  25  26
ENDBRANCH  24  25
ENDBRANCH  23  24
ENDBRANCH  22  23
ENDBRANCH  21  22
ENDBRANCH  20  21
ENDBRANCH  19  20
ENDBRANCH  18  19
ENDBRANCH  17  18
ENDBRANCH   1  17
TORSDOF 26
ENDMDL
MODEL 5
REMARK VINA RESULT:    -3.220      2.086      5.452
REMARK INTER + INTRA:         -12.692
REMARK INTER:                  -8.155
REMARK INTRA:                  -4.536
REMARK UNBOUND:                -4.576
REMARK SMILES CCCCCCCCCCCCCCCCCCCCCCCCCCCC(=O)[O-]
REMARK SMILES IDX 15 1 16 2 17 3 18 4 19 5 20 6 21 7 22 8 23 9 24 10 25 11
REMARK SMILES IDX 26 12 27 13 28 14 29 15 30 16 14 17 13 18 12 19 11 20 10 21
REMARK SMILES IDX 9 22 8 23 7 24 6 25 5 26 4 27 3 28 2 29 1 30
REMARK H PARENT
REMARK Flexibility Score: inf
ROOT
ATOM      1  C   UNL     1      61.132  35.337  60.295  1.00  0.00     0.000 C 
ENDROOT
BRANCH   1   2
ATOM      2  C   UNL     1      61.248  35.921  58.877  1.00  0.00     0.000 C 
BRANCH   2   3
ATOM      3  C   UNL     1      61.307  34.834  57.789  1.00  0.00     0.000 C 
BRANCH   3   4
ATOM      4  C   UNL     1      60.382  33.639  58.087  1.00  0.00     0.000 C 
BRANCH   4   5
ATOM      5  C   UNL     1      61.102  32.291  58.266  1.00  0.00     0.000 C 
BRANCH   5   6
ATOM      6  C   UNL     1      60.490  31.429  59.384  1.00  0.00     0.000 C 
BRANCH   6   7
ATOM      7  C   UNL     1      61.099  31.747  60.760  1.00  0.00     0.000 C 
BRANCH   7   8
ATOM      8  C   UNL     1      60.974  30.582  61.769  1.00  0.00     0.000 C 
BRANCH   8   9
ATOM      9  C   UNL     1      62.223  29.683  61.828  1.00  0.00     0.000 C 
BRANCH   9  10
ATOM     10  C   UNL     1      61.940  28.185  61.624  1.00  0.00     0.000 C 
BRANCH  10  11
ATOM     11  C   UNL     1      62.654  27.609  60.393  1.00  0.00     0.000 C 
BRANCH  11  12
ATOM     12  C   UNL     1      62.164  28.293  59.107  1.00  0.00     0.006 C 
BRANCH  12  13
ATOM     13  C   UNL     1      61.207  27.403  58.303  1.00  0.00     0.053 C 
BRANCH  13  14
ATOM     14  C   UNL     1      59.921  27.165  59.033  1.00  0.00     0.041 C 
ATOM     15  O   UNL     1      59.594  25.998  59.378  1.00  0.00    -0.550 OA
ATOM     16  O   UNL     1      59.099  28.236  59.363  1.00  0.00    -0.550 OA
ENDBRANCH  13  14
ENDBRANCH  12  13
ENDBRANCH  11  12
ENDBRANCH  10  11
ENDBRANCH   9  10
ENDBRANCH   8   9
ENDBRANCH   7   8
ENDBRANCH   6   7
ENDBRANCH   5   6
ENDBRANCH   4   5
ENDBRANCH   3   4
ENDBRANCH   2   3
ENDBRANCH   1   2
BRANCH   1  17
ATOM     17  C   UNL     1      62.491  35.258  61.011  1.00  0.00     0.000 C 
BRANCH  17  18
ATOM     18  C   UNL     1      63.081  36.644  61.321  1.00  0.00     0.000 C 
BRANCH  18  19
ATOM     19  C   UNL     1      64.554  36.599  61.780  1.00  0.00     0.000 C 
BRANCH  19  20
ATOM     20  C   UNL     1      65.416  35.705  60.870  1.00  0.00     0.000 C 
BRANCH  20  21
ATOM     21  C   UNL     1      65.573  36.284  59.454  1.00  0.00     0.000 C 
BRANCH  21  22
ATOM     22  C   UNL     1      65.828  35.194  58.397  1.00  0.00    -0.000 C 
BRANCH  22  23
ATOM     23  C   UNL     1      64.635  34.222  58.268  1.00  0.00    -0.000 C 
BRANCH  23  24
ATOM     24  C   UNL     1      64.995  32.756  58.569  1.00  0.00    -0.000 C 
BRANCH  24  25
ATOM     25  C   UNL     1      64.529  32.305  59.962  1.00  0.00    -0.000 C 
BRANCH  25  26
ATOM     26  C   UNL     1      64.781  30.808  60.229  1.00  0.00    -0.000 C 
BRANCH  26  27
ATOM     27  C   UNL     1      66.050  30.228  59.576  1.00  0.00    -0.000 C 
BRANCH  27  28
ATOM     28  C   UNL     1      65.978  28.709  59.361  1.00  0.00    -0.000 C 
BRANCH  28  29
ATOM     29  C   UNL     1      66.360  27.954  60.638  1.00  0.00    -0.003 C 
ATOM     30  C   UNL     1      67.562  28.600  61.322  1.00  0.00     0.004 C 
ENDBRANCH  28  29
ENDBRANCH  27  28
ENDBRANCH  26  27
ENDBRANCH  25  26
ENDBRANCH  24  25
ENDBRANCH  23  24
ENDBRANCH  22  23
ENDBRANCH  21  22
ENDBRANCH  20  21
ENDBRANCH  19  20
ENDBRANCH  18  19
ENDBRANCH  17  18
ENDBRANCH   1  17
TORSDOF 26
ENDMDL
MODEL 6
REMARK VINA RESULT:    -3.207      2.473      4.797
REMARK INTER + INTRA:         -12.659
REMARK INTER:                  -6.916
REMARK INTRA:                  -5.743
REMARK UNBOUND:                -4.576
REMARK SMILES CCCCCCCCCCCCCCCCCCCCCCCCCCCC(=O)[O-]
REMARK SMILES IDX 15 1 16 2 17 3 18 4 19 5 20 6 21 7 22 8 23 9 24 10 25 11
REMARK SMILES IDX 26 12 27 13 28 14 29 15 30 16 14 17 13 18 12 19 11 20 10 21
REMARK SMILES IDX 9 22 8 23 7 24 6 25 5 26 4 27 3 28 2 29 1 30
REMARK H PARENT
REMARK Flexibility Score: inf
ROOT
ATOM      1  C   UNL     1      64.310  29.545  60.538  1.00  0.00     0.000 C 
ENDROOT
BRANCH   1   2
ATOM      2  C   UNL     1      63.323  29.957  61.643  1.00  0.00     0.000 C 
BRANCH   2   3
ATOM      3  C   UNL     1      62.029  29.124  61.626  1.00  0.00     0.000 C 
BRANCH   3   4
ATOM      4  C   UNL     1      60.771  29.978  61.380  1.00  0.00     0.000 C 
BRANCH   4   5
ATOM      5  C   UNL     1      61.041  31.475  61.141  1.00  0.00     0.000 C 
BRANCH   5   6
ATOM      6  C   UNL     1      60.823  31.896  59.677  1.00  0.00     0.000 C 
BRANCH   6   7
ATOM      7  C   UNL     1      60.616  30.685  58.751  1.00  0.00     0.000 C 
BRANCH   7   8
ATOM      8  C   UNL     1      61.716  30.544  57.673  1.00  0.00     0.000 C 
BRANCH   8   9
ATOM      9  C   UNL     1      61.159  30.394  56.245  1.00  0.00     0.000 C 
BRANCH   9  10
ATOM     10  C   UNL     1      61.616  31.488  55.265  1.00  0.00     0.000 C 
BRANCH  10  11
ATOM     11  C   UNL     1      60.579  32.610  55.103  1.00  0.00     0.000 C 
BRANCH  11  12
ATOM     12  C   UNL     1      59.179  32.122  55.509  1.00  0.00     0.006 C 
BRANCH  12  13
ATOM     13  C   UNL     1      58.497  33.074  56.500  1.00  0.00     0.053 C 
BRANCH  13  14
ATOM     14  C   UNL     1      57.466  32.371  57.329  1.00  0.00     0.041 C 
ATOM     15  O   UNL     1      56.589  33.032  57.945  1.00  0.00    -0.550 OA
ATOM     16  O   UNL     1      57.456  30.983  57.396  1.00  0.00    -0.550 OA
ENDBRANCH  13  14
ENDBRANCH  12  13
ENDBRANCH  11  12
ENDBRANCH  10  11
ENDBRANCH   9  10
ENDBRANCH   8   9
ENDBRANCH   7   8
ENDBRANCH   6   7
ENDBRANCH   5   6
ENDBRANCH   4   5
ENDBRANCH   3   4
ENDBRANCH   2   3
ENDBRANCH   1   2
BRANCH   1  17
ATOM     17  C   UNL     1      64.830  30.748  59.735  1.00  0.00     0.000 C 
BRANCH  17  18
ATOM     18  C   UNL     1      64.528  32.093  60.417  1.00  0.00     0.000 C 
BRANCH  18  19
ATOM     19  C   UNL     1      64.147  33.216  59.428  1.00  0.00     0.000 C 
BRANCH  19  20
ATOM     20  C   UNL     1      64.380  32.799  57.964  1.00  0.00     0.000 C 
BRANCH  20  21
ATOM     21  C   UNL     1      64.145  33.955  56.978  1.00  0.00     0.000 C 
BRANCH  21  22
ATOM     22  C   UNL     1      63.939  35.304  57.690  1.00  0.00    -0.000 C 
BRANCH  22  23
ATOM     23  C   UNL     1      62.566  35.929  57.362  1.00  0.00    -0.000 C 
BRANCH  23  24
ATOM     24  C   UNL     1      61.379  34.980  57.603  1.00  0.00    -0.000 C 
BRANCH  24  25
ATOM     25  C   UNL     1      60.503  35.414  58.789  1.00  0.00    -0.000 C 
BRANCH  25  26
ATOM     26  C   UNL     1      60.866  36.809  59.331  1.00  0.00    -0.000 C 
BRANCH  26  27
ATOM     27  C   UNL     1      61.300  36.848  60.809  1.00  0.00    -0.000 C 
BRANCH  27  28
ATOM     28  C   UNL     1      62.458  35.890  61.125  1.00  0.00    -0.000 C 
BRANCH  28  29
ATOM     29  C   UNL     1      63.744  36.665  61.434  1.00  0.00    -0.003 C 
ATOM     30  C   UNL     1      64.862  35.724  61.874  1.00  0.00     0.004 C 
ENDBRANCH  28  29
ENDBRANCH  27  28
ENDBRANCH  26  27
ENDBRANCH  25  26
ENDBRANCH  24  25
ENDBRANCH  23  24
ENDBRANCH  22  23
ENDBRANCH  21  22
ENDBRANCH  20  21
ENDBRANCH  19  20
ENDBRANCH  18  19
ENDBRANCH  17  18
ENDBRANCH   1  17
TORSDOF 26
ENDMDL
MODEL 7
REMARK VINA RESULT:    -3.207      9.669     13.241
REMARK INTER + INTRA:         -12.659
REMARK INTER:                  -7.984
REMARK INTRA:                  -4.675
REMARK UNBOUND:                -4.576
REMARK SMILES CCCCCCCCCCCCCCCCCCCCCCCCCCCC(=O)[O-]
REMARK SMILES IDX 15 1 16 2 17 3 18 4 19 5 20 6 21 7 22 8 23 9 24 10 25 11
REMARK SMILES IDX 26 12 27 13 28 14 29 15 30 16 14 17 13 18 12 19 11 20 10 21
REMARK SMILES IDX 9 22 8 23 7 24 6 25 5 26 4 27 3 28 2 29 1 30
REMARK H PARENT
REMARK Flexibility Score: inf
ROOT
ATOM      1  C   UNL     1      54.236  25.531  49.841  1.00  0.00     0.000 C 
ENDROOT
BRANCH   1   2
ATOM      2  C   UNL     1      53.526  26.809  49.364  1.00  0.00     0.000 C 
BRANCH   2   3
ATOM      3  C   UNL     1      53.417  27.876  50.467  1.00  0.00     0.000 C 
BRANCH   3   4
ATOM      4  C   UNL     1      54.497  28.968  50.351  1.00  0.00     0.000 C 
BRANCH   4   5
ATOM      5  C   UNL     1      55.941  28.478  50.562  1.00  0.00     0.000 C 
BRANCH   5   6
ATOM      6  C   UNL     1      56.691  29.271  51.646  1.00  0.00     0.000 C 
BRANCH   6   7
ATOM      7  C   UNL     1      58.141  29.584  51.236  1.00  0.00     0.000 C 
BRANCH   7   8
ATOM      8  C   UNL     1      58.469  29.172  49.782  1.00  0.00     0.000 C 
BRANCH   8   9
ATOM      9  C   UNL     1      59.974  29.198  49.461  1.00  0.00     0.000 C 
BRANCH   9  10
ATOM     10  C   UNL     1      60.876  28.676  50.592  1.00  0.00     0.000 C 
BRANCH  10  11
ATOM     11  C   UNL     1      61.891  29.723  51.073  1.00  0.00     0.000 C 
BRANCH  11  12
ATOM     12  C   UNL     1      61.681  31.061  50.347  1.00  0.00     0.006 C 
BRANCH  12  13
ATOM     13  C   UNL     1      62.917  31.488  49.545  1.00  0.00     0.053 C 
BRANCH  13  14
ATOM     14  C   UNL     1      62.907  32.956  49.245  1.00  0.00     0.041 C 
ATOM     15  O   UNL     1      63.798  33.707  49.724  1.00  0.00    -0.550 OA
ATOM     16  O   UNL     1      61.933  33.489  48.410  1.00  0.00    -0.550 OA
ENDBRANCH  13  14
ENDBRANCH  12  13
ENDBRANCH  11  12
ENDBRANCH  10  11
ENDBRANCH   9  10
ENDBRANCH   8   9
ENDBRANCH   7   8
ENDBRANCH   6   7
ENDBRANCH   5   6
ENDBRANCH   4   5
ENDBRANCH   3   4
ENDBRANCH   2   3
ENDBRANCH   1   2
BRANCH   1  17
ATOM     17  C   UNL     1      53.597  24.941  51.109  1.00  0.00     0.000 C 
BRANCH  17  18
ATOM     18  C   UNL     1      54.575  24.878  52.294  1.00  0.00     0.000 C 
BRANCH  18  19
ATOM     19  C   UNL     1      54.214  25.843  53.443  1.00  0.00     0.000 C 
BRANCH  19  20
ATOM     20  C   UNL     1      55.405  26.729  53.850  1.00  0.00     0.000 C 
BRANCH  20  21
ATOM     21  C   UNL     1      56.701  25.923  54.041  1.00  0.00     0.000 C 
BRANCH  21  22
ATOM     22  C   UNL     1      57.962  26.790  53.885  1.00  0.00    -0.000 C 
BRANCH  22  23
ATOM     23  C   UNL     1      58.914  26.240  52.802  1.00  0.00    -0.000 C 
BRANCH  23  24
ATOM     24  C   UNL     1      58.261  25.202  51.872  1.00  0.00    -0.000 C 
BRANCH  24  25
ATOM     25  C   UNL     1      58.357  25.589  50.389  1.00  0.00    -0.000 C 
BRANCH  25  26
ATOM     26  C   UNL     1      59.746  25.318  49.781  1.00  0.00    -0.000 C 
BRANCH  26  27
ATOM     27  C   UNL     1      60.350  23.939  50.107  1.00  0.00    -0.000 C 
BRANCH  27  28
ATOM     28  C   UNL     1      61.831  24.007  50.508  1.00  0.00    -0.000 C 
BRANCH  28  29
ATOM     29  C   UNL     1      62.320  25.459  50.559  1.00  0.00    -0.003 C 
ATOM     30  C   UNL     1      63.770  25.569  50.096  1.00  0.00     0.004 C 
ENDBRANCH  28  29
ENDBRANCH  27  28
ENDBRANCH  26  27
ENDBRANCH  25  26
ENDBRANCH  24  25
ENDBRANCH  23  24
ENDBRANCH  22  23
ENDBRANCH  21  22
ENDBRANCH  20  21
ENDBRANCH  19  20
ENDBRANCH  18  19
ENDBRANCH  17  18
ENDBRANCH   1  17
TORSDOF 26
ENDMDL
MODEL 8
REMARK VINA RESULT:    -3.202      5.557      8.505
REMARK INTER + INTRA:         -12.646
REMARK INTER:                  -8.658
REMARK INTRA:                  -3.988
REMARK UNBOUND:                -4.576
REMARK SMILES CCCCCCCCCCCCCCCCCCCCCCCCCCCC(=O)[O-]
REMARK SMILES IDX 15 1 16 2 17 3 18 4 19 5 20 6 21 7 22 8 23 9 24 10 25 11
REMARK SMILES IDX 26 12 27 13 28 14 29 15 30 16 14 17 13 18 12 19 11 20 10 21
REMARK SMILES IDX 9 22 8 23 7 24 6 25 5 26 4 27 3 28 2 29 1 30
REMARK H PARENT
REMARK Flexibility Score: inf
ROOT
ATOM      1  C   UNL     1      61.927  28.643  60.941  1.00  0.00     0.000 C 
ENDROOT
BRANCH   1   2
ATOM      2  C   UNL     1      63.364  28.282  60.529  1.00  0.00     0.000 C 
BRANCH   2   3
ATOM      3  C   UNL     1      64.112  29.463  59.885  1.00  0.00     0.000 C 
BRANCH   3   4
ATOM      4  C   UNL     1      65.446  29.780  60.587  1.00  0.00     0.000 C 
BRANCH   4   5
ATOM      5  C   UNL     1      66.461  28.622  60.601  1.00  0.00     0.000 C 
BRANCH   5   6
ATOM      6  C   UNL     1      66.987  28.269  59.199  1.00  0.00     0.000 C 
BRANCH   6   7
ATOM      7  C   UNL     1      67.584  29.491  58.480  1.00  0.00     0.000 C 
BRANCH   7   8
ATOM      8  C   UNL     1      69.012  29.843  58.954  1.00  0.00     0.000 C 
BRANCH   8   9
ATOM      9  C   UNL     1      69.946  28.623  59.053  1.00  0.00     0.000 C 
BRANCH   9  10
ATOM     10  C   UNL     1      70.729  28.524  60.373  1.00  0.00     0.000 C 
BRANCH  10  11
ATOM     11  C   UNL     1      70.529  29.752  61.274  1.00  0.00     0.000 C 
BRANCH  11  12
ATOM     12  C   UNL     1      71.847  30.523  61.447  1.00  0.00     0.006 C 
BRANCH  12  13
ATOM     13  C   UNL     1      72.358  31.104  60.122  1.00  0.00     0.053 C 
BRANCH  13  14
ATOM     14  C   UNL     1      71.669  32.387  59.773  1.00  0.00     0.041 C 
ATOM     15  O   UNL     1      71.344  33.200  60.679  1.00  0.00    -0.550 OA
ATOM     16  O   UNL     1      71.413  32.700  58.443  1.00  0.00    -0.550 OA
ENDBRANCH  13  14
ENDBRANCH  12  13
ENDBRANCH  11  12
ENDBRANCH  10  11
ENDBRANCH   9  10
ENDBRANCH   8   9
ENDBRANCH   7   8
ENDBRANCH   6   7
ENDBRANCH   5   6
ENDBRANCH   4   5
ENDBRANCH   3   4
ENDBRANCH   2   3
ENDBRANCH   1   2
BRANCH   1  17
ATOM     17  C   UNL     1      61.882  29.723  62.034  1.00  0.00     0.000 C 
BRANCH  17  18
ATOM     18  C   UNL     1      60.850  30.826  61.738  1.00  0.00     0.000 C 
BRANCH  18  19
ATOM     19  C   UNL     1      61.018  31.469  60.345  1.00  0.00     0.000 C 
BRANCH  19  20
ATOM     20  C   UNL     1      62.070  32.593  60.350  1.00  0.00     0.000 C 
BRANCH  20  21
ATOM     21  C   UNL     1      61.570  33.870  59.655  1.00  0.00     0.000 C 
BRANCH  21  22
ATOM     22  C   UNL     1      61.422  35.052  60.630  1.00  0.00    -0.000 C 
BRANCH  22  23
ATOM     23  C   UNL     1      62.599  36.045  60.521  1.00  0.00    -0.000 C 
BRANCH  23  24
ATOM     24  C   UNL     1      63.815  35.661  61.382  1.00  0.00    -0.000 C 
BRANCH  24  25
ATOM     25  C   UNL     1      64.992  35.134  60.545  1.00  0.00    -0.000 C 
BRANCH  25  26
ATOM     26  C   UNL     1      64.868  35.472  59.047  1.00  0.00    -0.000 C 
BRANCH  26  27
ATOM     27  C   UNL     1      65.432  34.410  58.084  1.00  0.00    -0.000 C 
BRANCH  27  28
ATOM     28  C   UNL     1      65.131  32.971  58.527  1.00  0.00    -0.000 C 
BRANCH  28  29
ATOM     29  C   UNL     1      64.317  32.227  57.463  1.00  0.00    -0.003 C 
ATOM     30  C   UNL     1      63.671  33.201  56.482  1.00  0.00     0.004 C 
ENDBRANCH  28  29
ENDBRANCH  27  28
ENDBRANCH  26  27
ENDBRANCH  25  26
ENDBRANCH  24  25
ENDBRANCH  23  24
ENDBRANCH  22  23
ENDBRANCH  21  22
ENDBRANCH  20  21
ENDBRANCH  19  20
ENDBRANCH  18  19
ENDBRANCH  17  18
ENDBRANCH   1  17
TORSDOF 26
ENDMDL
MODEL 9
REMARK VINA RESULT:    -3.180      4.114      6.170
REMARK INTER + INTRA:         -12.590
REMARK INTER:                  -7.046
REMARK INTRA:                  -5.544
REMARK UNBOUND:                -4.576
REMARK SMILES CCCCCCCCCCCCCCCCCCCCCCCCCCCC(=O)[O-]
REMARK SMILES IDX 15 1 16 2 17 3 18 4 19 5 20 6 21 7 22 8 23 9 24 10 25 11
REMARK SMILES IDX 26 12 27 13 28 14 29 15 30 16 14 17 13 18 12 19 11 20 10 21
REMARK SMILES IDX 9 22 8 23 7 24 6 25 5 26 4 27 3 28 2 29 1 30
REMARK H PARENT
REMARK Flexibility Score: inf
ROOT
ATOM      1  C   UNL     1      64.120  33.546  61.000  1.00  0.00     0.000 C 
ENDROOT
BRANCH   1   2
ATOM      2  C   UNL     1      64.631  32.964  59.671  1.00  0.00     0.000 C 
BRANCH   2   3
ATOM      3  C   UNL     1      64.654  31.425  59.666  1.00  0.00     0.000 C 
BRANCH   3   4
ATOM      4  C   UNL     1      64.313  30.817  61.039  1.00  0.00     0.000 C 
BRANCH   4   5
ATOM      5  C   UNL     1      63.164  29.793  61.028  1.00  0.00     0.000 C 
BRANCH   5   6
ATOM      6  C   UNL     1      61.933  30.265  61.822  1.00  0.00     0.000 C 
BRANCH   6   7
ATOM      7  C   UNL     1      60.766  30.661  60.901  1.00  0.00     0.000 C 
BRANCH   7   8
ATOM      8  C   UNL     1      60.937  32.059  60.263  1.00  0.00     0.000 C 
BRANCH   8   9
ATOM      9  C   UNL     1      61.150  32.016  58.739  1.00  0.00     0.000 C 
BRANCH   9  10
ATOM     10  C   UNL     1      61.332  33.395  58.082  1.00  0.00     0.000 C 
BRANCH  10  11
ATOM     11  C   UNL     1      62.116  33.325  56.763  1.00  0.00     0.000 C 
BRANCH  11  12
ATOM     12  C   UNL     1      62.617  34.719  56.351  1.00  0.00     0.006 C 
BRANCH  12  13
ATOM     13  C   UNL     1      63.140  35.526  57.546  1.00  0.00     0.053 C 
BRANCH  13  14
ATOM     14  C   UNL     1      64.586  35.885  57.386  1.00  0.00     0.041 C 
ATOM     15  O   UNL     1      65.122  36.719  58.162  1.00  0.00    -0.550 OA
ATOM     16  O   UNL     1      65.350  35.273  56.398  1.00  0.00    -0.550 OA
ENDBRANCH  13  14
ENDBRANCH  12  13
ENDBRANCH  11  12
ENDBRANCH  10  11
ENDBRANCH   9  10
ENDBRANCH   8   9
ENDBRANCH   7   8
ENDBRANCH   6   7
ENDBRANCH   5   6
ENDBRANCH   4   5
ENDBRANCH   3   4
ENDBRANCH   2   3
ENDBRANCH   1   2
BRANCH   1  17
ATOM     17  C   UNL     1      64.698  34.940  61.293  1.00  0.00     0.000 C 
BRANCH  17  18
ATOM     18  C   UNL     1      63.622  36.039  61.304  1.00  0.00     0.000 C 
BRANCH  18  19
ATOM     19  C   UNL     1      62.205  35.518  60.982  1.00  0.00     0.000 C 
BRANCH  19  20
ATOM     20  C   UNL     1      61.241  36.659  60.606  1.00  0.00     0.000 C 
BRANCH  20  21
ATOM     21  C   UNL     1      60.007  36.158  59.839  1.00  0.00     0.000 C 
BRANCH  21  22
ATOM     22  C   UNL     1      59.878  36.801  58.446  1.00  0.00    -0.000 C 
BRANCH  22  23
ATOM     23  C   UNL     1      58.554  36.417  57.751  1.00  0.00    -0.000 C 
BRANCH  23  24
ATOM     24  C   UNL     1      58.728  35.407  56.603  1.00  0.00    -0.000 C 
BRANCH  24  25
ATOM     25  C   UNL     1      57.574  34.394  56.524  1.00  0.00    -0.000 C 
BRANCH  25  26
ATOM     26  C   UNL     1      57.673  33.281  57.585  1.00  0.00    -0.000 C 
BRANCH  26  27
ATOM     27  C   UNL     1      57.269  31.875  57.103  1.00  0.00    -0.000 C 
BRANCH  27  28
ATOM     28  C   UNL     1      57.908  30.746  57.925  1.00  0.00    -0.000 C 
BRANCH  28  29
ATOM     29  C   UNL     1      58.899  29.942  57.077  1.00  0.00    -0.003 C 
ATOM     30  C   UNL     1      59.001  30.508  55.664  1.00  0.00     0.004 C 
ENDBRANCH  28  29
ENDBRANCH  27  28
ENDBRANCH  26  27
ENDBRANCH  25  26
ENDBRANCH  24  25
ENDBRANCH  23  24
ENDBRANCH  22  23
ENDBRANCH  21  22
ENDBRANCH  20  21
ENDBRANCH  19  20
ENDBRANCH  18  19
ENDBRANCH  17  18
ENDBRANCH   1  17
TORSDOF 26
ENDMDL
