MODEL 1
REMARK VINA RESULT:    -3.362      0.000      0.000
REMARK INTER + INTRA:          -4.321
REMARK INTER:                  -4.050
REMARK INTRA:                  -0.271
REMARK UNBOUND:                -0.271
REMARK SMILES NC(=O)C[C@@H]([NH3+])C(=O)[O-]
REMARK SMILES IDX 4 1 5 2 6 3 7 7 8 8 9 9 2 10 3 11 1 12
REMARK H PARENT 6 4 6 5 6 6 1 13 1 14
REMARK Flexibility Score: inf
ROOT
ATOM      1  C   UNL     1      21.420  25.561  16.110  1.00  0.00     0.171 C 
ENDROOT
BRANCH   1   2
ATOM      2  C   UNL     1      20.180  26.355  16.567  1.00  0.00     0.237 C 
BRANCH   2   3
ATOM      3  N   UNL     1      19.033  26.119  15.679  1.00  0.00    -0.350 N 
ATOM      4  H   UNL     1      18.138  26.122  16.220  1.00  0.00     0.345 HD
ATOM      5  H   UNL     1      18.993  26.863  14.945  1.00  0.00     0.345 HD
ATOM      6  H   UNL     1      19.138  25.198  15.195  1.00  0.00     0.345 HD
ENDBRANCH   2   3
BRANCH   2   7
ATOM      7  C   UNL     1      19.828  25.985  17.982  1.00  0.00     0.100 C 
ATOM      8  O   UNL     1      20.728  25.882  18.858  1.00  0.00    -0.544 OA
ATOM      9  O   UNL     1      18.502  25.771  18.334  1.00  0.00    -0.544 OA
ENDBRANCH   2   7
ENDBRANCH   1   2
BRANCH   1  10
ATOM     10  C   UNL     1      21.705  25.767  14.651  1.00  0.00     0.223 C 
ATOM     11  O   UNL     1      21.691  26.930  14.167  1.00  0.00    -0.275 OA
ATOM     12  N   UNL     1      22.023  24.656  13.813  1.00  0.00    -0.369 N 
ATOM     13  H   UNL     1      22.049  23.687  14.201  1.00  0.00     0.159 HD
ATOM     14  H   UNL     1      22.232  24.802  12.801  1.00  0.00     0.159 HD
ENDBRANCH   1  10
TORSDOF 4
ENDMDL
MODEL 2
REMARK VINA RESULT:    -3.233     10.890     11.643
REMARK INTER + INTRA:          -4.166
REMARK INTER:                  -3.913
REMARK INTRA:                  -0.253
REMARK UNBOUND:                -0.271
REMARK SMILES NC(=O)C[C@@H]([NH3+])C(=O)[O-]
REMARK SMILES IDX 4 1 5 2 6 3 7 7 8 8 9 9 2 10 3 11 1 12
REMARK H PARENT 6 4 6 5 6 6 1 13 1 14
REMARK Flexibility Score: inf
ROOT
ATOM      1  C   UNL     1      19.865  21.626   6.672  1.00  0.00     0.171 C 
ENDROOT
BRANCH   1   2
ATOM      2  C   UNL     1      20.699  21.946   5.415  1.00  0.00     0.237 C 
BRANCH   2   3
ATOM      3  N   UNL     1      19.926  22.732   4.443  1.00  0.00    -0.350 N 
ATOM      4  H   UNL     1      20.120  22.410   3.466  1.00  0.00     0.345 HD
ATOM      5  H   UNL     1      18.903  22.633   4.639  1.00  0.00     0.345 HD
ATOM      6  H   UNL     1      20.171  23.745   4.525  1.00  0.00     0.345 HD
ENDBRANCH   2   3
BRANCH   2   7
ATOM      7  C   UNL     1      21.949  22.687   5.806  1.00  0.00     0.100 C 
ATOM      8  O   UNL     1      22.837  22.120   6.498  1.00  0.00    -0.544 OA
ATOM      9  O   UNL     1      22.139  23.997   5.388  1.00  0.00    -0.544 OA
ENDBRANCH   2   7
ENDBRANCH   1   2
BRANCH   1  10
ATOM     10  C   UNL     1      19.101  20.342   6.519  1.00  0.00     0.223 C 
ATOM     11  O   UNL     1      18.759  19.948   5.372  1.00  0.00    -0.275 OA
ATOM     12  N   UNL     1      18.786  19.549   7.663  1.00  0.00    -0.369 N 
ATOM     13  H   UNL     1      19.072  19.856   8.619  1.00  0.00     0.159 HD
ATOM     14  H   UNL     1      18.265  18.651   7.554  1.00  0.00     0.159 HD
ENDBRANCH   1  10
TORSDOF 4
ENDMDL
MODEL 3
REMARK VINA RESULT:    -3.173      9.664     10.918
REMARK INTER + INTRA:          -4.094
REMARK INTER:                  -3.725
REMARK INTRA:                  -0.369
REMARK UNBOUND:                -0.271
REMARK SMILES NC(=O)C[C@@H]([NH3+])C(=O)[O-]
REMARK SMILES IDX 4 1 5 2 6 3 7 7 8 8 9 9 2 10 3 11 1 12
REMARK H PARENT 6 4 6 5 6 6 1 13 1 14
REMARK Flexibility Score: inf
ROOT
ATOM      1  C   UNL     1      20.271  24.455   5.558  1.00  0.00     0.171 C 
ENDROOT
BRANCH   1   2
ATOM      2  C   UNL     1      21.270  23.462   4.932  1.00  0.00     0.237 C 
BRANCH   2   3
ATOM      3  N   UNL     1      22.534  24.122   4.578  1.00  0.00    -0.350 N 
ATOM      4  H   UNL     1      23.005  23.624   3.786  1.00  0.00     0.345 HD
ATOM      5  H   UNL     1      22.352  25.114   4.299  1.00  0.00     0.345 HD
ATOM      6  H   UNL     1      23.176  24.135   5.404  1.00  0.00     0.345 HD
ENDBRANCH   2   3
BRANCH   2   7
ATOM      7  C   UNL     1      21.526  22.324   5.884  1.00  0.00     0.100 C 
ATOM      8  O   UNL     1      20.635  21.460   6.101  1.00  0.00    -0.544 OA
ATOM      9  O   UNL     1      22.758  22.212   6.516  1.00  0.00    -0.544 OA
ENDBRANCH   2   7
ENDBRANCH   1   2
BRANCH   1  10
ATOM     10  C   UNL     1      20.875  25.192   6.719  1.00  0.00     0.223 C 
ATOM     11  O   UNL     1      21.759  26.066   6.515  1.00  0.00    -0.275 OA
ATOM     12  N   UNL     1      20.432  24.930   8.050  1.00  0.00    -0.369 N 
ATOM     13  H   UNL     1      19.692  24.216   8.234  1.00  0.00     0.159 HD
ATOM     14  H   UNL     1      20.844  25.452   8.855  1.00  0.00     0.159 HD
ENDBRANCH   1  10
TORSDOF 4
ENDMDL
MODEL 4
REMARK VINA RESULT:    -3.159     10.048     10.703
REMARK INTER + INTRA:          -4.077
REMARK INTER:                  -3.754
REMARK INTRA:                  -0.323
REMARK UNBOUND:                -0.271
REMARK SMILES NC(=O)C[C@@H]([NH3+])C(=O)[O-]
REMARK SMILES IDX 4 1 5 2 6 3 7 7 8 8 9 9 2 10 3 11 1 12
REMARK H PARENT 6 4 6 5 6 6 1 13 1 14
REMARK Flexibility Score: inf
ROOT
ATOM      1  C   UNL     1      20.236  23.169   5.874  1.00  0.00     0.171 C 
ENDROOT
BRANCH   1   2
ATOM      2  C   UNL     1      19.298  21.966   6.099  1.00  0.00     0.237 C 
BRANCH   2   3
ATOM      3  N   UNL     1      19.810  20.756   5.442  1.00  0.00    -0.350 N 
ATOM      4  H   UNL     1      20.311  20.144   6.128  1.00  0.00     0.345 HD
ATOM      5  H   UNL     1      19.018  20.219   5.018  1.00  0.00     0.345 HD
ATOM      6  H   UNL     1      20.467  21.016   4.671  1.00  0.00     0.345 HD
ENDBRANCH   2   3
BRANCH   2   7
ATOM      7  C   UNL     1      19.123  21.724   7.574  1.00  0.00     0.100 C 
ATOM      8  O   UNL     1      19.326  22.651   8.402  1.00  0.00    -0.544 OA
ATOM      9  O   UNL     1      18.716  20.476   8.028  1.00  0.00    -0.544 OA
ENDBRANCH   2   7
ENDBRANCH   1   2
BRANCH   1  10
ATOM     10  C   UNL     1      21.625  22.730   5.512  1.00  0.00     0.223 C 
ATOM     11  O   UNL     1      22.346  22.160   6.373  1.00  0.00    -0.275 OA
ATOM     12  N   UNL     1      22.123  22.927   4.190  1.00  0.00    -0.369 N 
ATOM     13  H   UNL     1      21.533  23.389   3.462  1.00  0.00     0.159 HD
ATOM     14  H   UNL     1      23.086  22.611   3.936  1.00  0.00     0.159 HD
ENDBRANCH   1  10
TORSDOF 4
ENDMDL
MODEL 5
REMARK VINA RESULT:    -3.137      4.041      5.790
REMARK INTER + INTRA:          -4.051
REMARK INTER:                  -3.544
REMARK INTRA:                  -0.507
REMARK UNBOUND:                -0.271
REMARK SMILES NC(=O)C[C@@H]([NH3+])C(=O)[O-]
REMARK SMILES IDX 4 1 5 2 6 3 7 7 8 8 9 9 2 10 3 11 1 12
REMARK H PARENT 6 4 6 5 6 6 1 13 1 14
REMARK Flexibility Score: inf
ROOT
ATOM      1  C   UNL     1      22.500  25.172  13.100  1.00  0.00     0.171 C 
ENDROOT
BRANCH   1   2
ATOM      2  C   UNL     1      21.597  25.628  11.937  1.00  0.00     0.237 C 
BRANCH   2   3
ATOM      3  N   UNL     1      21.140  27.013  12.122  1.00  0.00    -0.350 N 
ATOM      4  H   UNL     1      21.007  27.486  11.198  1.00  0.00     0.345 HD
ATOM      5  H   UNL     1      20.234  27.021  12.645  1.00  0.00     0.345 HD
ATOM      6  H   UNL     1      21.839  27.549  12.684  1.00  0.00     0.345 HD
ENDBRANCH   2   3
BRANCH   2   7
ATOM      7  C   UNL     1      22.337  25.494  10.633  1.00  0.00     0.100 C 
ATOM      8  O   UNL     1      22.121  24.511   9.874  1.00  0.00    -0.544 OA
ATOM      9  O   UNL     1      23.250  26.468  10.250  1.00  0.00    -0.544 OA
ENDBRANCH   2   7
ENDBRANCH   1   2
BRANCH   1  10
ATOM     10  C   UNL     1      23.276  26.318  13.683  1.00  0.00     0.223 C 
ATOM     11  O   UNL     1      22.796  26.976  14.644  1.00  0.00    -0.275 OA
ATOM     12  N   UNL     1      24.568  26.647  13.175  1.00  0.00    -0.369 N 
ATOM     13  H   UNL     1      24.985  26.103  12.387  1.00  0.00     0.159 HD
ATOM     14  H   UNL     1      25.112  27.436  13.589  1.00  0.00     0.159 HD
ENDBRANCH   1  10
TORSDOF 4
ENDMDL
MODEL 6
REMARK VINA RESULT:    -3.127      5.391      7.546
REMARK INTER + INTRA:          -4.039
REMARK INTER:                  -3.564
REMARK INTRA:                  -0.474
REMARK UNBOUND:                -0.271
REMARK SMILES NC(=O)C[C@@H]([NH3+])C(=O)[O-]
REMARK SMILES IDX 4 1 5 2 6 3 7 7 8 8 9 9 2 10 3 11 1 12
REMARK H PARENT 6 4 6 5 6 6 1 13 1 14
REMARK Flexibility Score: inf
ROOT
ATOM      1  C   UNL     1      19.802  25.586   9.861  1.00  0.00     0.171 C 
ENDROOT
BRANCH   1   2
ATOM      2  C   UNL     1      21.067  24.877   9.338  1.00  0.00     0.237 C 
BRANCH   2   3
ATOM      3  N   UNL     1      21.919  24.413  10.442  1.00  0.00    -0.350 N 
ATOM      4  H   UNL     1      22.716  25.073  10.598  1.00  0.00     0.345 HD
ATOM      5  H   UNL     1      21.355  24.343  11.320  1.00  0.00     0.345 HD
ATOM      6  H   UNL     1      22.298  23.462  10.228  1.00  0.00     0.345 HD
ENDBRANCH   2   3
BRANCH   2   7
ATOM      7  C   UNL     1      20.678  23.719   8.459  1.00  0.00     0.100 C 
ATOM      8  O   UNL     1      21.418  23.366   7.502  1.00  0.00    -0.544 OA
ATOM      9  O   UNL     1      19.505  23.019   8.712  1.00  0.00    -0.544 OA
ENDBRANCH   2   7
ENDBRANCH   1   2
BRANCH   1  10
ATOM     10  C   UNL     1      19.455  25.147  11.253  1.00  0.00     0.223 C 
ATOM     11  O   UNL     1      20.014  25.693  12.241  1.00  0.00    -0.275 OA
ATOM     12  N   UNL     1      18.472  24.134  11.467  1.00  0.00    -0.369 N 
ATOM     13  H   UNL     1      17.991  23.680  10.659  1.00  0.00     0.159 HD
ATOM     14  H   UNL     1      18.223  23.838  12.437  1.00  0.00     0.159 HD
ENDBRANCH   1  10
TORSDOF 4
ENDMDL
MODEL 7
REMARK VINA RESULT:    -3.106     10.921     11.624
REMARK INTER + INTRA:          -4.013
REMARK INTER:                  -3.746
REMARK INTRA:                  -0.267
REMARK UNBOUND:                -0.271
REMARK SMILES NC(=O)C[C@@H]([NH3+])C(=O)[O-]
REMARK SMILES IDX 4 1 5 2 6 3 7 7 8 8 9 9 2 10 3 11 1 12
REMARK H PARENT 6 4 6 5 6 6 1 13 1 14
REMARK Flexibility Score: inf
ROOT
ATOM      1  C   UNL     1      20.572  21.914   5.061  1.00  0.00     0.171 C 
ENDROOT
BRANCH   1   2
ATOM      2  C   UNL     1      19.949  21.142   6.241  1.00  0.00     0.237 C 
BRANCH   2   3
ATOM      3  N   UNL     1      19.491  22.053   7.299  1.00  0.00    -0.350 N 
ATOM      4  H   UNL     1      18.532  22.414   7.089  1.00  0.00     0.345 HD
ATOM      5  H   UNL     1      19.477  21.553   8.218  1.00  0.00     0.345 HD
ATOM      6  H   UNL     1      20.150  22.862   7.385  1.00  0.00     0.345 HD
ENDBRANCH   2   3
BRANCH   2   7
ATOM      7  C   UNL     1      18.804  20.296   5.752  1.00  0.00     0.100 C 
ATOM      8  O   UNL     1      18.794  19.856   4.571  1.00  0.00    -0.544 OA
ATOM      9  O   UNL     1      17.759  19.980   6.609  1.00  0.00    -0.544 OA
ENDBRANCH   2   7
ENDBRANCH   1   2
BRANCH   1  10
ATOM     10  C   UNL     1      21.834  22.620   5.464  1.00  0.00     0.223 C 
ATOM     11  O   UNL     1      22.491  22.212   6.458  1.00  0.00    -0.275 OA
ATOM     12  N   UNL     1      22.312  23.732   4.708  1.00  0.00    -0.369 N 
ATOM     13  H   UNL     1      21.785  24.075   3.874  1.00  0.00     0.159 HD
ATOM     14  H   UNL     1      23.196  24.215   4.982  1.00  0.00     0.159 HD
ENDBRANCH   1  10
TORSDOF 4
ENDMDL
MODEL 8
REMARK VINA RESULT:    -3.075      5.373      6.011
REMARK INTER + INTRA:          -3.975
REMARK INTER:                  -3.677
REMARK INTRA:                  -0.298
REMARK UNBOUND:                -0.271
REMARK SMILES NC(=O)C[C@@H]([NH3+])C(=O)[O-]
REMARK SMILES IDX 4 1 5 2 6 3 7 7 8 8 9 9 2 10 3 11 1 12
REMARK H PARENT 6 4 6 5 6 6 1 13 1 14
REMARK Flexibility Score: inf
ROOT
ATOM      1  C   UNL     1      20.680  25.955  11.073  1.00  0.00     0.171 C 
ENDROOT
BRANCH   1   2
ATOM      2  C   UNL     1      19.773  25.142  10.129  1.00  0.00     0.237 C 
BRANCH   2   3
ATOM      3  N   UNL     1      20.531  24.107   9.413  1.00  0.00    -0.350 N 
ATOM      4  H   UNL     1      20.147  23.964   8.450  1.00  0.00     0.345 HD
ATOM      5  H   UNL     1      21.537  24.388   9.342  1.00  0.00     0.345 HD
ATOM      6  H   UNL     1      20.488  23.203   9.937  1.00  0.00     0.345 HD
ENDBRANCH   2   3
BRANCH   2   7
ATOM      7  C   UNL     1      18.650  24.516  10.912  1.00  0.00     0.100 C 
ATOM      8  O   UNL     1      18.314  24.985  12.033  1.00  0.00    -0.544 OA
ATOM      9  O   UNL     1      17.964  23.427  10.392  1.00  0.00    -0.544 OA
ENDBRANCH   2   7
ENDBRANCH   1   2
BRANCH   1  10
ATOM     10  C   UNL     1      22.083  25.420  11.092  1.00  0.00     0.223 C 
ATOM     11  O   UNL     1      22.875  25.705  10.156  1.00  0.00    -0.275 OA
ATOM     12  N   UNL     1      22.534  24.616  12.181  1.00  0.00    -0.369 N 
ATOM     13  H   UNL     1      21.892  24.380  12.971  1.00  0.00     0.159 HD
ATOM     14  H   UNL     1      23.513  24.254  12.199  1.00  0.00     0.159 HD
ENDBRANCH   1  10
TORSDOF 4
ENDMDL
MODEL 9
REMARK VINA RESULT:    -3.045      9.688     10.885
REMARK INTER + INTRA:          -3.940
REMARK INTER:                  -3.575
REMARK INTRA:                  -0.364
REMARK UNBOUND:                -0.271
REMARK SMILES NC(=O)C[C@@H]([NH3+])C(=O)[O-]
REMARK SMILES IDX 4 1 5 2 6 3 7 7 8 8 9 9 2 10 3 11 1 12
REMARK H PARENT 6 4 6 5 6 6 1 13 1 14
REMARK Flexibility Score: inf
ROOT
ATOM      1  C   UNL     1      19.092  22.462   6.296  1.00  0.00     0.171 C 
ENDROOT
BRANCH   1   2
ATOM      2  C   UNL     1      20.406  23.231   6.535  1.00  0.00     0.237 C 
BRANCH   2   3
ATOM      3  N   UNL     1      20.697  23.366   7.970  1.00  0.00    -0.350 N 
ATOM      4  H   UNL     1      19.812  23.401   8.526  1.00  0.00     0.345 HD
ATOM      5  H   UNL     1      21.274  22.556   8.293  1.00  0.00     0.345 HD
ATOM      6  H   UNL     1      21.246  24.239   8.144  1.00  0.00     0.345 HD
ENDBRANCH   2   3
BRANCH   2   7
ATOM      7  C   UNL     1      21.542  22.533   5.837  1.00  0.00     0.100 C 
ATOM      8  O   UNL     1      22.557  22.160   6.485  1.00  0.00    -0.544 OA
ATOM      9  O   UNL     1      21.467  22.278   4.474  1.00  0.00    -0.544 OA
ENDBRANCH   2   7
ENDBRANCH   1   2
BRANCH   1  10
ATOM     10  C   UNL     1      18.900  21.365   7.302  1.00  0.00     0.223 C 
ATOM     11  O   UNL     1      18.427  21.632   8.439  1.00  0.00    -0.275 OA
ATOM     12  N   UNL     1      19.221  20.015   6.969  1.00  0.00    -0.369 N 
ATOM     13  H   UNL     1      19.603  19.776   6.027  1.00  0.00     0.159 HD
ATOM     14  H   UNL     1      19.075  19.251   7.666  1.00  0.00     0.159 HD
ENDBRANCH   1  10
TORSDOF 4
ENDMDL
