MODEL 1
REMARK VINA RESULT:    -6.569      0.000      0.000
REMARK INTER + INTRA:         -11.021
REMARK INTER:                 -10.026
REMARK INTRA:                  -0.996
REMARK UNBOUND:                -0.996
REMARK SMILES OC[C@@H]1O[C@@H](O[C@@]2(CO)O[C@H](CO)[C@@H](O)[C@H]2O)[C@H](O)[C@@H](O)[C@H]1O
REMARK SMILES IDX 6 1 5 2 3 3 22 4 4 5 20 6 18 7 2 8 1 9 23 11 21 13 19 15
REMARK SMILES IDX 7 17 16 18 10 19 14 20 11 21 8 22 9 23 17 25 15 27 12 29
REMARK SMILES IDX 13 30
REMARK H PARENT 1 10 23 12 21 14 19 16 9 24 17 26 15 28 13 31
REMARK Flexibility Score: inf
ROOT
ATOM      1  O   UNL     1      33.873   4.484  43.829  1.00  0.00    -0.313 OA
ENDROOT
BRANCH   1   2
ATOM      2  C   UNL     1      34.893   4.247  44.796  1.00  0.00     0.285 C 
ATOM      3  C   UNL     1      35.265   6.553  45.102  1.00  0.00     0.178 C 
ATOM      4  C   UNL     1      36.676   6.504  44.453  1.00  0.00     0.177 C 
ATOM      5  O   UNL     1      34.970   5.314  45.730  1.00  0.00    -0.341 OA
ATOM      6  C   UNL     1      36.774   5.334  43.452  1.00  0.00     0.179 C 
ATOM      7  C   UNL     1      36.251   4.030  44.085  1.00  0.00     0.202 C 
BRANCH   3   8
ATOM      8  C   UNL     1      35.179   7.651  46.171  1.00  0.00     0.191 C 
BRANCH   8   9
ATOM      9  O   UNL     1      34.918   7.092  47.429  1.00  0.00    -0.394 OA
ATOM     10  H   UNL     1      33.932   7.077  47.525  1.00  0.00     0.210 HD
ENDBRANCH   8   9
ENDBRANCH   3   8
BRANCH   4  11
ATOM     11  O   UNL     1      37.016   7.720  43.831  1.00  0.00    -0.387 OA
ATOM     12  H   UNL     1      37.087   7.555  42.855  1.00  0.00     0.211 HD
ENDBRANCH   4  11
BRANCH   6  13
ATOM     13  O   UNL     1      36.024   5.612  42.293  1.00  0.00    -0.387 OA
ATOM     14  H   UNL     1      36.368   5.021  41.573  1.00  0.00     0.211 HD
ENDBRANCH   6  13
BRANCH   7  15
ATOM     15  O   UNL     1      37.204   3.480  44.963  1.00  0.00    -0.385 OA
ATOM     16  H   UNL     1      37.653   2.727  44.500  1.00  0.00     0.211 HD
ENDBRANCH   7  15
ENDBRANCH   1   2
BRANCH   1  17
ATOM     17  C   UNL     1      33.218   3.307  43.355  1.00  0.00     0.224 C 
ATOM     18  C   UNL     1      33.495   3.055  41.856  1.00  0.00     0.208 C 
ATOM     19  O   UNL     1      31.825   3.520  43.498  1.00  0.00    -0.337 OA
ATOM     20  C   UNL     1      32.184   2.490  41.373  1.00  0.00     0.180 C 
ATOM     21  C   UNL     1      31.182   3.183  42.287  1.00  0.00     0.179 C 
BRANCH  17  22
ATOM     22  C   UNL     1      33.570   2.064  44.212  1.00  0.00     0.225 C 
BRANCH  22  23
ATOM     23  O   UNL     1      32.423   1.592  44.863  1.00  0.00    -0.391 OA
ATOM     24  H   UNL     1      32.742   0.992  45.586  1.00  0.00     0.210 HD
ENDBRANCH  22  23
ENDBRANCH  17  22
BRANCH  18  25
ATOM     25  O   UNL     1      33.774   4.271  41.204  1.00  0.00    -0.385 OA
ATOM     26  H   UNL     1      33.720   4.987  41.890  1.00  0.00     0.211 HD
ENDBRANCH  18  25
BRANCH  20  27
ATOM     27  O   UNL     1      31.933   2.793  40.025  1.00  0.00    -0.387 OA
ATOM     28  H   UNL     1      31.596   1.957  39.609  1.00  0.00     0.211 HD
ENDBRANCH  20  27
BRANCH  21  29
ATOM     29  C   UNL     1      29.959   2.309  42.580  1.00  0.00     0.191 C 
BRANCH  29  30
ATOM     30  O   UNL     1      29.597   1.589  41.435  1.00  0.00    -0.394 OA
ATOM     31  H   UNL     1      30.370   1.003  41.224  1.00  0.00     0.210 HD
ENDBRANCH  29  30
ENDBRANCH  21  29
ENDBRANCH   1  17
TORSDOF 13
ENDMDL
MODEL 2
REMARK VINA RESULT:    -6.410      2.874      5.154
REMARK INTER + INTRA:         -10.779
REMARK INTER:                  -9.749
REMARK INTRA:                  -1.030
REMARK UNBOUND:                -0.996
REMARK SMILES OC[C@@H]1O[C@@H](O[C@@]2(CO)O[C@H](CO)[C@@H](O)[C@H]2O)[C@H](O)[C@@H](O)[C@H]1O
REMARK SMILES IDX 6 1 5 2 3 3 22 4 4 5 20 6 18 7 2 8 1 9 23 11 21 13 19 15
REMARK SMILES IDX 7 17 16 18 10 19 14 20 11 21 8 22 9 23 17 25 15 27 12 29
REMARK SMILES IDX 13 30
REMARK H PARENT 1 10 23 12 21 14 19 16 9 24 17 26 15 28 13 31
REMARK Flexibility Score: inf
ROOT
ATOM      1  O   UNL     1      36.662   3.550  44.920  1.00  0.00    -0.313 OA
ENDROOT
BRANCH   1   2
ATOM      2  C   UNL     1      36.855   4.194  43.664  1.00  0.00     0.285 C 
ATOM      3  C   UNL     1      38.389   5.727  44.584  1.00  0.00     0.178 C 
ATOM      4  C   UNL     1      37.431   6.936  44.402  1.00  0.00     0.177 C 
ATOM      5  O   UNL     1      38.156   4.758  43.574  1.00  0.00    -0.341 OA
ATOM      6  C   UNL     1      35.959   6.469  44.405  1.00  0.00     0.179 C 
ATOM      7  C   UNL     1      35.766   5.273  43.453  1.00  0.00     0.202 C 
BRANCH   3   8
ATOM      8  C   UNL     1      39.859   6.159  44.487  1.00  0.00     0.191 C 
BRANCH   8   9
ATOM      9  O   UNL     1      39.959   7.437  43.922  1.00  0.00    -0.394 OA
ATOM     10  H   UNL     1      40.922   7.579  43.732  1.00  0.00     0.210 HD
ENDBRANCH   8   9
ENDBRANCH   3   8
BRANCH   4  11
ATOM     11  O   UNL     1      37.638   7.930  45.376  1.00  0.00    -0.387 OA
ATOM     12  H   UNL     1      38.304   7.586  46.027  1.00  0.00     0.211 HD
ENDBRANCH   4  11
BRANCH   6  13
ATOM     13  O   UNL     1      35.566   6.088  45.702  1.00  0.00    -0.387 OA
ATOM     14  H   UNL     1      35.272   6.912  46.173  1.00  0.00     0.211 HD
ENDBRANCH   6  13
BRANCH   7  15
ATOM     15  O   UNL     1      35.723   5.699  42.112  1.00  0.00    -0.385 OA
ATOM     16  H   UNL     1      35.429   4.935  41.553  1.00  0.00     0.211 HD
ENDBRANCH   7  15
ENDBRANCH   1   2
BRANCH   1  17
ATOM     17  C   UNL     1      36.396   2.149  44.835  1.00  0.00     0.224 C 
ATOM     18  C   UNL     1      36.741   1.415  46.149  1.00  0.00     0.208 C 
ATOM     19  O   UNL     1      37.238   1.626  43.824  1.00  0.00    -0.337 OA
ATOM     20  C   UNL     1      37.269   0.093  45.654  1.00  0.00     0.180 C 
ATOM     21  C   UNL     1      37.893   0.478  44.319  1.00  0.00     0.179 C 
BRANCH  17  22
ATOM     22  C   UNL     1      34.937   1.863  44.394  1.00  0.00     0.225 C 
BRANCH  22  23
ATOM     23  O   UNL     1      34.048   2.642  45.147  1.00  0.00    -0.391 OA
ATOM     24  H   UNL     1      33.952   3.501  44.659  1.00  0.00     0.210 HD
ENDBRANCH  22  23
ENDBRANCH  17  22
BRANCH  18  25
ATOM     25  O   UNL     1      37.747   2.113  46.845  1.00  0.00    -0.385 OA
ATOM     26  H   UNL     1      38.402   2.427  46.169  1.00  0.00     0.211 HD
ENDBRANCH  18  25
BRANCH  20  27
ATOM     27  O   UNL     1      38.227  -0.461  46.520  1.00  0.00    -0.387 OA
ATOM     28  H   UNL     1      39.051  -0.587  45.981  1.00  0.00     0.211 HD
ENDBRANCH  20  27
BRANCH  21  29
ATOM     29  C   UNL     1      37.803  -0.651  43.287  1.00  0.00     0.191 C 
BRANCH  29  30
ATOM     30  O   UNL     1      36.670  -1.436  43.531  1.00  0.00    -0.394 OA
ATOM     31  H   UNL     1      36.542  -1.435  44.515  1.00  0.00     0.210 HD
ENDBRANCH  29  30
ENDBRANCH  21  29
ENDBRANCH   1  17
TORSDOF 13
ENDMDL
MODEL 3
REMARK VINA RESULT:    -6.404      1.422      6.071
REMARK INTER + INTRA:         -10.770
REMARK INTER:                 -10.124
REMARK INTRA:                  -0.645
REMARK UNBOUND:                -0.996
REMARK SMILES OC[C@@H]1O[C@@H](O[C@@]2(CO)O[C@H](CO)[C@@H](O)[C@H]2O)[C@H](O)[C@@H](O)[C@H]1O
REMARK SMILES IDX 6 1 5 2 3 3 22 4 4 5 20 6 18 7 2 8 1 9 23 11 21 13 19 15
REMARK SMILES IDX 7 17 16 18 10 19 14 20 11 21 8 22 9 23 17 25 15 27 12 29
REMARK SMILES IDX 13 30
REMARK H PARENT 1 10 23 12 21 14 19 16 9 24 17 26 15 28 13 31
REMARK Flexibility Score: inf
ROOT
ATOM      1  O   UNL     1      33.634   3.934  43.961  1.00  0.00    -0.313 OA
ENDROOT
BRANCH   1   2
ATOM      2  C   UNL     1      33.809   2.598  43.498  1.00  0.00     0.285 C 
ATOM      3  C   UNL     1      32.480   2.989  41.592  1.00  0.00     0.178 C 
ATOM      4  C   UNL     1      31.341   2.053  42.082  1.00  0.00     0.177 C 
ATOM      5  O   UNL     1      33.734   2.535  42.080  1.00  0.00    -0.341 OA
ATOM      6  C   UNL     1      31.338   1.960  43.622  1.00  0.00     0.179 C 
ATOM      7  C   UNL     1      32.756   1.672  44.153  1.00  0.00     0.202 C 
BRANCH   3   8
ATOM      8  C   UNL     1      32.560   3.018  40.059  1.00  0.00     0.191 C 
BRANCH   8   9
ATOM      9  O   UNL     1      32.983   1.777  39.565  1.00  0.00    -0.394 OA
ATOM     10  H   UNL     1      33.708   1.971  38.917  1.00  0.00     0.210 HD
ENDBRANCH   8   9
ENDBRANCH   3   8
BRANCH   4  11
ATOM     11  O   UNL     1      30.080   2.459  41.607  1.00  0.00    -0.387 OA
ATOM     12  H   UNL     1      29.530   1.645  41.465  1.00  0.00     0.211 HD
ENDBRANCH   4  11
BRANCH   6  13
ATOM     13  O   UNL     1      30.875   3.163  44.188  1.00  0.00    -0.387 OA
ATOM     14  H   UNL     1      31.634   3.803  44.180  1.00  0.00     0.211 HD
ENDBRANCH   6  13
BRANCH   7  15
ATOM     15  O   UNL     1      33.092   0.316  43.980  1.00  0.00    -0.385 OA
ATOM     16  H   UNL     1      32.824  -0.176  44.798  1.00  0.00     0.211 HD
ENDBRANCH   7  15
ENDBRANCH   1   2
BRANCH   1  17
ATOM     17  C   UNL     1      34.848   4.627  44.252  1.00  0.00     0.224 C 
ATOM     18  C   UNL     1      35.144   5.736  43.219  1.00  0.00     0.208 C 
ATOM     19  O   UNL     1      35.898   3.679  44.169  1.00  0.00    -0.337 OA
ATOM     20  C   UNL     1      36.645   5.683  43.104  1.00  0.00     0.180 C 
ATOM     21  C   UNL     1      36.933   4.211  43.369  1.00  0.00     0.179 C 
BRANCH  17  22
ATOM     22  C   UNL     1      34.864   5.183  45.700  1.00  0.00     0.225 C 
BRANCH  22  23
ATOM     23  O   UNL     1      35.671   6.326  45.764  1.00  0.00    -0.391 OA
ATOM     24  H   UNL     1      35.418   6.798  46.599  1.00  0.00     0.210 HD
ENDBRANCH  22  23
ENDBRANCH  17  22
BRANCH  18  25
ATOM     25  O   UNL     1      34.547   5.420  41.984  1.00  0.00    -0.385 OA
ATOM     26  H   UNL     1      34.095   4.542  42.097  1.00  0.00     0.211 HD
ENDBRANCH  18  25
BRANCH  20  27
ATOM     27  O   UNL     1      37.101   6.066  41.832  1.00  0.00    -0.387 OA
ATOM     28  H   UNL     1      38.020   5.701  41.742  1.00  0.00     0.211 HD
ENDBRANCH  20  27
BRANCH  21  29
ATOM     29  C   UNL     1      38.281   3.997  44.065  1.00  0.00     0.191 C 
BRANCH  29  30
ATOM     30  O   UNL     1      38.413   4.884  45.141  1.00  0.00    -0.394 OA
ATOM     31  H   UNL     1      38.561   4.321  45.944  1.00  0.00     0.210 HD
ENDBRANCH  29  30
ENDBRANCH  21  29
ENDBRANCH   1  17
TORSDOF 13
ENDMDL
MODEL 4
REMARK VINA RESULT:    -6.329      3.603      5.785
REMARK INTER + INTRA:         -10.655
REMARK INTER:                  -9.704
REMARK INTRA:                  -0.951
REMARK UNBOUND:                -0.996
REMARK SMILES OC[C@@H]1O[C@@H](O[C@@]2(CO)O[C@H](CO)[C@@H](O)[C@H]2O)[C@H](O)[C@@H](O)[C@H]1O
REMARK SMILES IDX 6 1 5 2 3 3 22 4 4 5 20 6 18 7 2 8 1 9 23 11 21 13 19 15
REMARK SMILES IDX 7 17 16 18 10 19 14 20 11 21 8 22 9 23 17 25 15 27 12 29
REMARK SMILES IDX 13 30
REMARK H PARENT 1 10 23 12 21 14 19 16 9 24 17 26 15 28 13 31
REMARK Flexibility Score: inf
ROOT
ATOM      1  O   UNL     1      37.481   3.714  44.724  1.00  0.00    -0.313 OA
ENDROOT
BRANCH   1   2
ATOM      2  C   UNL     1      37.468   4.439  43.497  1.00  0.00     0.285 C 
ATOM      3  C   UNL     1      38.601   6.266  44.461  1.00  0.00     0.178 C 
ATOM      4  C   UNL     1      37.367   7.204  44.357  1.00  0.00     0.177 C 
ATOM      5  O   UNL     1      38.585   5.313  43.409  1.00  0.00    -0.341 OA
ATOM      6  C   UNL     1      36.059   6.384  44.367  1.00  0.00     0.179 C 
ATOM      7  C   UNL     1      36.139   5.219  43.362  1.00  0.00     0.202 C 
BRANCH   3   8
ATOM      8  C   UNL     1      39.914   7.055  44.355  1.00  0.00     0.191 C 
BRANCH   8   9
ATOM      9  O   UNL     1      40.125   7.816  45.512  1.00  0.00    -0.394 OA
ATOM     10  H   UNL     1      40.651   7.242  46.127  1.00  0.00     0.210 HD
ENDBRANCH   8   9
ENDBRANCH   3   8
BRANCH   4  11
ATOM     11  O   UNL     1      37.352   8.176  45.375  1.00  0.00    -0.387 OA
ATOM     12  H   UNL     1      36.408   8.319  45.648  1.00  0.00     0.211 HD
ENDBRANCH   4  11
BRANCH   6  13
ATOM     13  O   UNL     1      35.814   5.862  45.652  1.00  0.00    -0.387 OA
ATOM     14  H   UNL     1      35.228   6.510  46.124  1.00  0.00     0.211 HD
ENDBRANCH   6  13
BRANCH   7  15
ATOM     15  O   UNL     1      35.949   5.679  42.044  1.00  0.00    -0.385 OA
ATOM     16  H   UNL     1      35.904   4.890  41.445  1.00  0.00     0.211 HD
ENDBRANCH   7  15
ENDBRANCH   1   2
BRANCH   1  17
ATOM     17  C   UNL     1      37.835   2.337  44.596  1.00  0.00     0.224 C 
ATOM     18  C   UNL     1      36.632   1.404  44.856  1.00  0.00     0.208 C 
ATOM     19  O   UNL     1      38.806   2.063  45.591  1.00  0.00    -0.337 OA
ATOM     20  C   UNL     1      37.273   0.232  45.553  1.00  0.00     0.180 C 
ATOM     21  C   UNL     1      38.434   0.892  46.286  1.00  0.00     0.179 C 
BRANCH  17  22
ATOM     22  C   UNL     1      38.500   2.034  43.228  1.00  0.00     0.225 C 
BRANCH  22  23
ATOM     23  O   UNL     1      37.606   1.334  42.407  1.00  0.00    -0.391 OA
ATOM     24  H   UNL     1      38.145   0.649  41.933  1.00  0.00     0.210 HD
ENDBRANCH  22  23
ENDBRANCH  17  22
BRANCH  18  25
ATOM     25  O   UNL     1      35.706   2.034  45.710  1.00  0.00    -0.385 OA
ATOM     26  H   UNL     1      36.159   2.831  46.090  1.00  0.00     0.211 HD
ENDBRANCH  18  25
BRANCH  20  27
ATOM     27  O   UNL     1      36.400  -0.401  46.454  1.00  0.00    -0.387 OA
ATOM     28  H   UNL     1      35.522   0.052  46.358  1.00  0.00     0.211 HD
ENDBRANCH  20  27
BRANCH  21  29
ATOM     29  C   UNL     1      39.645  -0.036  46.416  1.00  0.00     0.191 C 
BRANCH  29  30
ATOM     30  O   UNL     1      39.226  -1.329  46.756  1.00  0.00    -0.394 OA
ATOM     31  H   UNL     1      39.159  -1.830  45.902  1.00  0.00     0.210 HD
ENDBRANCH  29  30
ENDBRANCH  21  29
ENDBRANCH   1  17
TORSDOF 13
ENDMDL
MODEL 5
REMARK VINA RESULT:    -6.268      2.986      5.137
REMARK INTER + INTRA:         -10.561
REMARK INTER:                  -9.569
REMARK INTRA:                  -0.992
REMARK UNBOUND:                -0.996
REMARK SMILES OC[C@@H]1O[C@@H](O[C@@]2(CO)O[C@H](CO)[C@@H](O)[C@H]2O)[C@H](O)[C@@H](O)[C@H]1O
REMARK SMILES IDX 6 1 5 2 3 3 22 4 4 5 20 6 18 7 2 8 1 9 23 11 21 13 19 15
REMARK SMILES IDX 7 17 16 18 10 19 14 20 11 21 8 22 9 23 17 25 15 27 12 29
REMARK SMILES IDX 13 30
REMARK H PARENT 1 10 23 12 21 14 19 16 9 24 17 26 15 28 13 31
REMARK Flexibility Score: inf
ROOT
ATOM      1  O   UNL     1      36.696   2.694  44.221  1.00  0.00    -0.313 OA
ENDROOT
BRANCH   1   2
ATOM      2  C   UNL     1      35.689   3.371  44.967  1.00  0.00     0.285 C 
ATOM      3  C   UNL     1      34.305   3.589  43.074  1.00  0.00     0.178 C 
ATOM      4  C   UNL     1      34.478   5.132  43.011  1.00  0.00     0.177 C 
ATOM      5  O   UNL     1      34.401   3.137  44.416  1.00  0.00    -0.341 OA
ATOM      6  C   UNL     1      35.819   5.554  43.648  1.00  0.00     0.179 C 
ATOM      7  C   UNL     1      36.004   4.885  45.023  1.00  0.00     0.202 C 
BRANCH   3   8
ATOM      8  C   UNL     1      32.934   3.158  42.533  1.00  0.00     0.191 C 
BRANCH   8   9
ATOM      9  O   UNL     1      33.006   2.900  41.158  1.00  0.00    -0.394 OA
ATOM     10  H   UNL     1      33.882   3.255  40.857  1.00  0.00     0.210 HD
ENDBRANCH   8   9
ENDBRANCH   3   8
BRANCH   4  11
ATOM     11  O   UNL     1      34.374   5.625  41.698  1.00  0.00    -0.387 OA
ATOM     12  H   UNL     1      34.109   6.580  41.749  1.00  0.00     0.211 HD
ENDBRANCH   4  11
BRANCH   6  13
ATOM     13  O   UNL     1      36.896   5.192  42.815  1.00  0.00    -0.387 OA
ATOM     14  H   UNL     1      36.760   5.650  41.945  1.00  0.00     0.211 HD
ENDBRANCH   6  13
BRANCH   7  15
ATOM     15  O   UNL     1      35.229   5.531  46.005  1.00  0.00    -0.385 OA
ATOM     16  H   UNL     1      35.631   6.421  46.180  1.00  0.00     0.211 HD
ENDBRANCH   7  15
ENDBRANCH   1   2
BRANCH   1  17
ATOM     17  C   UNL     1      37.072   1.421  44.747  1.00  0.00     0.224 C 
ATOM     18  C   UNL     1      38.016   0.656  43.793  1.00  0.00     0.208 C 
ATOM     19  O   UNL     1      35.886   0.656  44.872  1.00  0.00    -0.337 OA
ATOM     20  C   UNL     1      37.577  -0.774  43.977  1.00  0.00     0.180 C 
ATOM     21  C   UNL     1      36.096  -0.615  44.294  1.00  0.00     0.179 C 
BRANCH  17  22
ATOM     22  C   UNL     1      37.680   1.538  46.168  1.00  0.00     0.225 C 
BRANCH  22  23
ATOM     23  O   UNL     1      36.738   1.139  47.126  1.00  0.00    -0.391 OA
ATOM     24  H   UNL     1      37.256   0.870  47.928  1.00  0.00     0.210 HD
ENDBRANCH  22  23
ENDBRANCH  17  22
BRANCH  18  25
ATOM     25  O   UNL     1      37.798   1.067  42.463  1.00  0.00    -0.385 OA
ATOM     26  H   UNL     1      38.674   1.019  41.999  1.00  0.00     0.211 HD
ENDBRANCH  18  25
BRANCH  20  27
ATOM     27  O   UNL     1      37.767  -1.547  42.820  1.00  0.00    -0.387 OA
ATOM     28  H   UNL     1      37.661  -0.930  42.050  1.00  0.00     0.211 HD
ENDBRANCH  20  27
BRANCH  21  29
ATOM     29  C   UNL     1      35.583  -1.703  45.243  1.00  0.00     0.191 C 
BRANCH  29  30
ATOM     30  O   UNL     1      36.418  -1.797  46.362  1.00  0.00    -0.394 OA
ATOM     31  H   UNL     1      36.595  -2.765  46.493  1.00  0.00     0.210 HD
ENDBRANCH  29  30
ENDBRANCH  21  29
ENDBRANCH   1  17
TORSDOF 13
ENDMDL
MODEL 6
REMARK VINA RESULT:    -6.235      3.528      5.181
REMARK INTER + INTRA:         -10.511
REMARK INTER:                  -9.031
REMARK INTRA:                  -1.479
REMARK UNBOUND:                -0.996
REMARK SMILES OC[C@@H]1O[C@@H](O[C@@]2(CO)O[C@H](CO)[C@@H](O)[C@H]2O)[C@H](O)[C@@H](O)[C@H]1O
REMARK SMILES IDX 6 1 5 2 3 3 22 4 4 5 20 6 18 7 2 8 1 9 23 11 21 13 19 15
REMARK SMILES IDX 7 17 16 18 10 19 14 20 11 21 8 22 9 23 17 25 15 27 12 29
REMARK SMILES IDX 13 30
REMARK H PARENT 1 10 23 12 21 14 19 16 9 24 17 26 15 28 13 31
REMARK Flexibility Score: inf
ROOT
ATOM      1  O   UNL     1      37.271   2.506  44.136  1.00  0.00    -0.313 OA
ENDROOT
BRANCH   1   2
ATOM      2  C   UNL     1      37.568   3.670  44.902  1.00  0.00     0.285 C 
ATOM      3  C   UNL     1      36.265   5.039  43.497  1.00  0.00     0.178 C 
ATOM      4  C   UNL     1      37.499   5.799  42.939  1.00  0.00     0.177 C 
ATOM      5  O   UNL     1      36.510   4.614  44.830  1.00  0.00    -0.341 OA
ATOM      6  C   UNL     1      38.763   4.916  43.019  1.00  0.00     0.179 C 
ATOM      7  C   UNL     1      38.902   4.290  44.421  1.00  0.00     0.202 C 
BRANCH   3   8
ATOM      8  C   UNL     1      35.018   5.935  43.515  1.00  0.00     0.191 C 
BRANCH   8   9
ATOM      9  O   UNL     1      34.442   6.001  42.240  1.00  0.00    -0.394 OA
ATOM     10  H   UNL     1      35.011   6.617  41.712  1.00  0.00     0.210 HD
ENDBRANCH   8   9
ENDBRANCH   3   8
BRANCH   4  11
ATOM     11  O   UNL     1      37.293   6.252  41.623  1.00  0.00    -0.387 OA
ATOM     12  H   UNL     1      36.408   6.701  41.589  1.00  0.00     0.211 HD
ENDBRANCH   4  11
BRANCH   6  13
ATOM     13  O   UNL     1      38.706   3.884  42.062  1.00  0.00    -0.387 OA
ATOM     14  H   UNL     1      38.002   3.249  42.358  1.00  0.00     0.211 HD
ENDBRANCH   6  13
BRANCH   7  15
ATOM     15  O   UNL     1      39.389   5.232  45.346  1.00  0.00    -0.385 OA
ATOM     16  H   UNL     1      38.676   5.902  45.510  1.00  0.00     0.211 HD
ENDBRANCH   7  15
ENDBRANCH   1   2
BRANCH   1  17
ATOM     17  C   UNL     1      37.491   1.272  44.819  1.00  0.00     0.224 C 
ATOM     18  C   UNL     1      38.702   0.502  44.247  1.00  0.00     0.208 C 
ATOM     19  O   UNL     1      36.343   0.470  44.609  1.00  0.00    -0.337 OA
ATOM     20  C   UNL     1      38.259  -0.934  44.361  1.00  0.00     0.180 C 
ATOM     21  C   UNL     1      36.750  -0.817  44.192  1.00  0.00     0.179 C 
BRANCH  17  22
ATOM     22  C   UNL     1      37.622   1.473  46.351  1.00  0.00     0.225 C 
BRANCH  22  23
ATOM     23  O   UNL     1      36.417   1.137  46.982  1.00  0.00    -0.391 OA
ATOM     24  H   UNL     1      35.963   0.488  46.385  1.00  0.00     0.210 HD
ENDBRANCH  22  23
ENDBRANCH  17  22
BRANCH  18  25
ATOM     25  O   UNL     1      38.902   0.847  42.896  1.00  0.00    -0.385 OA
ATOM     26  H   UNL     1      38.116   1.386  42.617  1.00  0.00     0.211 HD
ENDBRANCH  18  25
BRANCH  20  27
ATOM     27  O   UNL     1      38.818  -1.749  43.363  1.00  0.00    -0.387 OA
ATOM     28  H   UNL     1      38.059  -2.087  42.820  1.00  0.00     0.211 HD
ENDBRANCH  20  27
BRANCH  21  29
ATOM     29  C   UNL     1      35.990  -1.881  44.990  1.00  0.00     0.191 C 
BRANCH  29  30
ATOM     30  O   UNL     1      36.349  -1.815  46.343  1.00  0.00    -0.394 OA
ATOM     31  H   UNL     1      36.463  -2.754  46.642  1.00  0.00     0.210 HD
ENDBRANCH  29  30
ENDBRANCH  21  29
ENDBRANCH   1  17
TORSDOF 13
ENDMDL
MODEL 7
REMARK VINA RESULT:    -6.228      2.727      4.808
REMARK INTER + INTRA:         -10.500
REMARK INTER:                  -9.529
REMARK INTRA:                  -0.971
REMARK UNBOUND:                -0.996
REMARK SMILES OC[C@@H]1O[C@@H](O[C@@]2(CO)O[C@H](CO)[C@@H](O)[C@H]2O)[C@H](O)[C@@H](O)[C@H]1O
REMARK SMILES IDX 6 1 5 2 3 3 22 4 4 5 20 6 18 7 2 8 1 9 23 11 21 13 19 15
REMARK SMILES IDX 7 17 16 18 10 19 14 20 11 21 8 22 9 23 17 25 15 27 12 29
REMARK SMILES IDX 13 30
REMARK H PARENT 1 10 23 12 21 14 19 16 9 24 17 26 15 28 13 31
REMARK Flexibility Score: inf
ROOT
ATOM      1  O   UNL     1      34.823   1.620  44.209  1.00  0.00    -0.313 OA
ENDROOT
BRANCH   1   2
ATOM      2  C   UNL     1      35.920   2.193  44.915  1.00  0.00     0.285 C 
ATOM      3  C   UNL     1      37.483   1.286  43.405  1.00  0.00     0.178 C 
ATOM      4  C   UNL     1      38.068   0.305  44.458  1.00  0.00     0.177 C 
ATOM      5  O   UNL     1      37.006   2.463  44.041  1.00  0.00    -0.341 OA
ATOM      6  C   UNL     1      37.013  -0.031  45.533  1.00  0.00     0.179 C 
ATOM      7  C   UNL     1      36.352   1.254  46.067  1.00  0.00     0.202 C 
BRANCH   3   8
ATOM      8  C   UNL     1      38.547   1.707  42.381  1.00  0.00     0.191 C 
BRANCH   8   9
ATOM      9  O   UNL     1      38.378   1.008  41.180  1.00  0.00    -0.394 OA
ATOM     10  H   UNL     1      38.908   0.175  41.269  1.00  0.00     0.210 HD
ENDBRANCH   8   9
ENDBRANCH   3   8
BRANCH   4  11
ATOM     11  O   UNL     1      38.568  -0.871  43.868  1.00  0.00    -0.387 OA
ATOM     12  H   UNL     1      37.895  -1.195  43.213  1.00  0.00     0.211 HD
ENDBRANCH   4  11
BRANCH   6  13
ATOM     13  O   UNL     1      36.016  -0.871  45.001  1.00  0.00    -0.387 OA
ATOM     14  H   UNL     1      35.967  -0.686  44.027  1.00  0.00     0.211 HD
ENDBRANCH   6  13
BRANCH   7  15
ATOM     15  O   UNL     1      37.200   1.917  46.974  1.00  0.00    -0.385 OA
ATOM     16  H   UNL     1      37.101   1.486  47.862  1.00  0.00     0.211 HD
ENDBRANCH   7  15
ENDBRANCH   1   2
BRANCH   1  17
ATOM     17  C   UNL     1      33.843   2.561  43.768  1.00  0.00     0.224 C 
ATOM     18  C   UNL     1      32.428   2.203  44.273  1.00  0.00     0.208 C 
ATOM     19  O   UNL     1      33.816   2.500  42.353  1.00  0.00    -0.337 OA
ATOM     20  C   UNL     1      31.555   2.613  43.116  1.00  0.00     0.180 C 
ATOM     21  C   UNL     1      32.475   2.383  41.924  1.00  0.00     0.179 C 
BRANCH  17  22
ATOM     22  C   UNL     1      34.226   4.015  44.144  1.00  0.00     0.225 C 
BRANCH  22  23
ATOM     23  O   UNL     1      34.845   4.644  43.055  1.00  0.00    -0.391 OA
ATOM     24  H   UNL     1      34.819   5.617  43.246  1.00  0.00     0.210 HD
ENDBRANCH  22  23
ENDBRANCH  17  22
BRANCH  18  25
ATOM     25  O   UNL     1      32.329   0.815  44.493  1.00  0.00    -0.385 OA
ATOM     26  H   UNL     1      32.695   0.368  43.686  1.00  0.00     0.211 HD
ENDBRANCH  18  25
BRANCH  20  27
ATOM     27  O   UNL     1      30.393   1.832  43.016  1.00  0.00    -0.387 OA
ATOM     28  H   UNL     1      30.665   0.979  42.587  1.00  0.00     0.211 HD
ENDBRANCH  20  27
BRANCH  21  29
ATOM     29  C   UNL     1      32.212   3.372  40.784  1.00  0.00     0.191 C 
BRANCH  29  30
ATOM     30  O   UNL     1      31.218   4.284  41.160  1.00  0.00    -0.394 OA
ATOM     31  H   UNL     1      30.711   3.851  41.895  1.00  0.00     0.210 HD
ENDBRANCH  29  30
ENDBRANCH  21  29
ENDBRANCH   1  17
TORSDOF 13
ENDMDL
MODEL 8
REMARK VINA RESULT:    -6.175     10.480     13.084
REMARK INTER + INTRA:         -10.420
REMARK INTER:                  -9.292
REMARK INTRA:                  -1.128
REMARK UNBOUND:                -0.996
REMARK SMILES OC[C@@H]1O[C@@H](O[C@@]2(CO)O[C@H](CO)[C@@H](O)[C@H]2O)[C@H](O)[C@@H](O)[C@H]1O
REMARK SMILES IDX 6 1 5 2 3 3 22 4 4 5 20 6 18 7 2 8 1 9 23 11 21 13 19 15
REMARK SMILES IDX 7 17 16 18 10 19 14 20 11 21 8 22 9 23 17 25 15 27 12 29
REMARK SMILES IDX 13 30
REMARK H PARENT 1 10 23 12 21 14 19 16 9 24 17 26 15 28 13 31
REMARK Flexibility Score: inf
ROOT
ATOM      1  O   UNL     1      23.112   2.317  38.312  1.00  0.00    -0.313 OA
ENDROOT
BRANCH   1   2
ATOM      2  C   UNL     1      22.829   3.007  37.098  1.00  0.00     0.285 C 
ATOM      3  C   UNL     1      24.676   4.443  37.378  1.00  0.00     0.178 C 
ATOM      4  C   UNL     1      23.785   5.692  37.618  1.00  0.00     0.177 C 
ATOM      5  O   UNL     1      24.017   3.526  36.517  1.00  0.00    -0.341 OA
ATOM      6  C   UNL     1      22.412   5.279  38.189  1.00  0.00     0.179 C 
ATOM      7  C   UNL     1      21.800   4.132  37.361  1.00  0.00     0.202 C 
BRANCH   3   8
ATOM      8  C   UNL     1      26.009   4.825  36.720  1.00  0.00     0.191 C 
BRANCH   8   9
ATOM      9  O   UNL     1      27.025   4.911  37.680  1.00  0.00    -0.394 OA
ATOM     10  H   UNL     1      27.849   4.580  37.240  1.00  0.00     0.210 HD
ENDBRANCH   8   9
ENDBRANCH   3   8
BRANCH   4  11
ATOM     11  O   UNL     1      24.408   6.635  38.456  1.00  0.00    -0.387 OA
ATOM     12  H   UNL     1      24.524   6.221  39.351  1.00  0.00     0.211 HD
ENDBRANCH   4  11
BRANCH   6  13
ATOM     13  O   UNL     1      22.540   4.858  39.527  1.00  0.00    -0.387 OA
ATOM     14  H   UNL     1      23.390   5.236  39.873  1.00  0.00     0.211 HD
ENDBRANCH   6  13
BRANCH   7  15
ATOM     15  O   UNL     1      21.256   4.617  36.156  1.00  0.00    -0.385 OA
ATOM     16  H   UNL     1      20.268   4.541  36.210  1.00  0.00     0.211 HD
ENDBRANCH   7  15
ENDBRANCH   1   2
BRANCH   1  17
ATOM     17  C   UNL     1      22.213   1.249  38.613  1.00  0.00     0.224 C 
ATOM     18  C   UNL     1      21.331   1.565  39.841  1.00  0.00     0.208 C 
ATOM     19  O   UNL     1      23.003   0.119  38.938  1.00  0.00    -0.337 OA
ATOM     20  C   UNL     1      21.203   0.218  40.504  1.00  0.00     0.180 C 
ATOM     21  C   UNL     1      22.526  -0.444  40.142  1.00  0.00     0.179 C 
BRANCH  17  22
ATOM     22  C   UNL     1      21.353   0.854  37.385  1.00  0.00     0.225 C 
BRANCH  22  23
ATOM     23  O   UNL     1      21.851  -0.324  36.811  1.00  0.00    -0.391 OA
ATOM     24  H   UNL     1      21.604  -0.290  35.851  1.00  0.00     0.210 HD
ENDBRANCH  22  23
ENDBRANCH  17  22
BRANCH  18  25
ATOM     25  O   UNL     1      21.992   2.470  40.693  1.00  0.00    -0.385 OA
ATOM     26  H   UNL     1      21.296   3.064  41.079  1.00  0.00     0.211 HD
ENDBRANCH  18  25
BRANCH  20  27
ATOM     27  O   UNL     1      21.052   0.318  41.897  1.00  0.00    -0.387 OA
ATOM     28  H   UNL     1      21.898  -0.016  42.295  1.00  0.00     0.211 HD
ENDBRANCH  20  27
BRANCH  21  29
ATOM     29  C   UNL     1      22.394  -1.961  39.983  1.00  0.00     0.191 C 
BRANCH  29  30
ATOM     30  O   UNL     1      21.863  -2.523  41.151  1.00  0.00    -0.394 OA
ATOM     31  H   UNL     1      22.628  -2.938  41.628  1.00  0.00     0.210 HD
ENDBRANCH  29  30
ENDBRANCH  21  29
ENDBRANCH   1  17
TORSDOF 13
ENDMDL
MODEL 9
REMARK VINA RESULT:    -6.083      2.827      6.132
REMARK INTER + INTRA:         -10.280
REMARK INTER:                  -9.162
REMARK INTRA:                  -1.118
REMARK UNBOUND:                -0.996
REMARK SMILES OC[C@@H]1O[C@@H](O[C@@]2(CO)O[C@H](CO)[C@@H](O)[C@H]2O)[C@H](O)[C@@H](O)[C@H]1O
REMARK SMILES IDX 6 1 5 2 3 3 22 4 4 5 20 6 18 7 2 8 1 9 23 11 21 13 19 15
REMARK SMILES IDX 7 17 16 18 10 19 14 20 11 21 8 22 9 23 17 25 15 27 12 29
REMARK SMILES IDX 13 30
REMARK H PARENT 1 10 23 12 21 14 19 16 9 24 17 26 15 28 13 31
REMARK Flexibility Score: inf
ROOT
ATOM      1  O   UNL     1      37.556   3.506  43.760  1.00  0.00    -0.313 OA
ENDROOT
BRANCH   1   2
ATOM      2  C   UNL     1      36.702   4.061  44.756  1.00  0.00     0.285 C 
ATOM      3  C   UNL     1      34.771   3.578  43.497  1.00  0.00     0.178 C 
ATOM      4  C   UNL     1      34.462   5.075  43.225  1.00  0.00     0.177 C 
ATOM      5  O   UNL     1      35.429   3.430  44.747  1.00  0.00    -0.341 OA
ATOM      6  C   UNL     1      35.757   5.915  43.275  1.00  0.00     0.179 C 
ATOM      7  C   UNL     1      36.569   5.588  44.543  1.00  0.00     0.202 C 
BRANCH   3   8
ATOM      8  C   UNL     1      33.484   2.742  43.547  1.00  0.00     0.191 C 
BRANCH   8   9
ATOM      9  O   UNL     1      33.347   2.124  44.796  1.00  0.00    -0.394 OA
ATOM     10  H   UNL     1      34.103   1.488  44.874  1.00  0.00     0.210 HD
ENDBRANCH   8   9
ENDBRANCH   3   8
BRANCH   4  11
ATOM     11  O   UNL     1      33.794   5.265  42.001  1.00  0.00    -0.387 OA
ATOM     12  H   UNL     1      34.480   5.342  41.286  1.00  0.00     0.211 HD
ENDBRANCH   4  11
BRANCH   6  13
ATOM     13  O   UNL     1      36.555   5.659  42.143  1.00  0.00    -0.387 OA
ATOM     14  H   UNL     1      37.485   5.528  42.464  1.00  0.00     0.211 HD
ENDBRANCH   6  13
BRANCH   7  15
ATOM     15  O   UNL     1      36.010   6.213  45.674  1.00  0.00    -0.385 OA
ATOM     16  H   UNL     1      35.889   5.527  46.379  1.00  0.00     0.211 HD
ENDBRANCH   7  15
ENDBRANCH   1   2
BRANCH   1  17
ATOM     17  C   UNL     1      38.644   2.735  44.272  1.00  0.00     0.224 C 
ATOM     18  C   UNL     1      38.844   1.422  43.484  1.00  0.00     0.208 C 
ATOM     19  O   UNL     1      38.315   2.383  45.604  1.00  0.00    -0.337 OA
ATOM     20  C   UNL     1      39.264   0.456  44.561  1.00  0.00     0.180 C 
ATOM     21  C   UNL     1      38.531   0.999  45.781  1.00  0.00     0.179 C 
BRANCH  17  22
ATOM     22  C   UNL     1      39.956   3.559  44.339  1.00  0.00     0.225 C 
BRANCH  22  23
ATOM     23  O   UNL     1      40.100   4.126  45.612  1.00  0.00    -0.391 OA
ATOM     24  H   UNL     1      39.729   3.465  46.253  1.00  0.00     0.210 HD
ENDBRANCH  22  23
ENDBRANCH  17  22
BRANCH  18  25
ATOM     25  O   UNL     1      37.626   1.012  42.907  1.00  0.00    -0.385 OA
ATOM     26  H   UNL     1      37.842   0.635  42.015  1.00  0.00     0.211 HD
ENDBRANCH  18  25
BRANCH  20  27
ATOM     27  O   UNL     1      38.872  -0.864  44.282  1.00  0.00    -0.387 OA
ATOM     28  H   UNL     1      37.883  -0.851  44.200  1.00  0.00     0.211 HD
ENDBRANCH  20  27
BRANCH  21  29
ATOM     29  C   UNL     1      39.307   0.762  47.081  1.00  0.00     0.191 C 
BRANCH  29  30
ATOM     30  O   UNL     1      40.117   1.869  47.366  1.00  0.00    -0.394 OA
ATOM     31  H   UNL     1      40.847   1.532  47.947  1.00  0.00     0.210 HD
ENDBRANCH  29  30
ENDBRANCH  21  29
ENDBRANCH   1  17
TORSDOF 13
ENDMDL
