MODEL 1
REMARK VINA RESULT:    -1.280      0.000      0.000
REMARK INTER + INTRA:          -0.535
REMARK INTER:                  -1.430
REMARK INTRA:                   0.895
REMARK UNBOUND:                 0.895
REMARK SMILES O=C([O-])C=Cc1ccccc1
REMARK SMILES IDX 4 1 5 2 2 3 1 4 3 5 6 6 7 7 11 8 8 9 10 10 9 11
REMARK H PARENT
REMARK Flexibility Score: inf
ROOT
ATOM      1  C   UNL     1      17.849  39.883   9.805  1.00  0.00     0.025 C 
ATOM      2  C   UNL     1      19.051  40.038  10.383  1.00  0.00     0.010 C 
ENDROOT
BRANCH   1   3
ATOM      3  C   UNL     1      16.780  40.898   9.751  1.00  0.00     0.064 C 
ATOM      4  O   UNL     1      16.943  41.997   9.159  1.00  0.00    -0.545 OA
ATOM      5  O   UNL     1      15.542  40.607  10.309  1.00  0.00    -0.545 OA
ENDBRANCH   1   3
BRANCH   2   6
ATOM      6  C   UNL     1      19.454  41.183  11.226  1.00  0.00    -0.026 A 
ATOM      7  C   UNL     1      20.249  41.001  12.372  1.00  0.00     0.008 A 
ATOM      8  C   UNL     1      19.125  42.485  10.818  1.00  0.00     0.008 A 
ATOM      9  C   UNL     1      20.662  42.103  13.125  1.00  0.00     0.001 A 
ATOM     10  C   UNL     1      19.541  43.586  11.574  1.00  0.00     0.001 A 
ATOM     11  C   UNL     1      20.304  43.395  12.729  1.00  0.00     0.000 A 
ENDBRANCH   2   6
TORSDOF 2
ENDMDL
MODEL 2
REMARK VINA RESULT:    -1.102      2.708      4.348
REMARK INTER + INTRA:          -0.336
REMARK INTER:                  -1.127
REMARK INTRA:                   0.791
REMARK UNBOUND:                 0.895
REMARK SMILES O=C([O-])C=Cc1ccccc1
REMARK SMILES IDX 4 1 5 2 2 3 1 4 3 5 6 6 7 7 11 8 8 9 10 10 9 11
REMARK H PARENT
REMARK Flexibility Score: inf
ROOT
ATOM      1  C   UNL     1      21.072  43.212  13.125  1.00  0.00     0.025 C 
ATOM      2  C   UNL     1      20.628  41.962  12.924  1.00  0.00     0.010 C 
ENDROOT
BRANCH   1   3
ATOM      3  C   UNL     1      20.625  44.415  12.396  1.00  0.00     0.064 C 
ATOM      4  O   UNL     1      19.669  45.121  12.813  1.00  0.00    -0.545 OA
ATOM      5  O   UNL     1      21.317  44.815  11.261  1.00  0.00    -0.545 OA
ENDBRANCH   1   3
BRANCH   2   6
ATOM      6  C   UNL     1      19.746  41.534  11.817  1.00  0.00    -0.026 A 
ATOM      7  C   UNL     1      19.557  40.172  11.521  1.00  0.00     0.008 A 
ATOM      8  C   UNL     1      19.006  42.498  11.117  1.00  0.00     0.008 A 
ATOM      9  C   UNL     1      18.678  39.788  10.503  1.00  0.00     0.001 A 
ATOM     10  C   UNL     1      18.127  42.111  10.099  1.00  0.00     0.001 A 
ATOM     11  C   UNL     1      17.967  40.757   9.790  1.00  0.00     0.000 A 
ENDBRANCH   2   6
TORSDOF 2
ENDMDL
MODEL 3
REMARK VINA RESULT:    -1.043      2.736      4.543
REMARK INTER + INTRA:          -0.270
REMARK INTER:                  -1.012
REMARK INTRA:                   0.742
REMARK UNBOUND:                 0.895
REMARK SMILES O=C([O-])C=Cc1ccccc1
REMARK SMILES IDX 4 1 5 2 2 3 1 4 3 5 6 6 7 7 11 8 8 9 10 10 9 11
REMARK H PARENT
REMARK Flexibility Score: inf
ROOT
ATOM      1  C   UNL     1      21.131  43.154  13.125  1.00  0.00     0.025 C 
ATOM      2  C   UNL     1      20.663  41.913  12.920  1.00  0.00     0.010 C 
ENDROOT
BRANCH   1   3
ATOM      3  C   UNL     1      20.641  44.380  12.467  1.00  0.00     0.064 C 
ATOM      4  O   UNL     1      19.785  45.125  13.014  1.00  0.00    -0.545 OA
ATOM      5  O   UNL     1      21.186  44.758  11.247  1.00  0.00    -0.545 OA
ENDBRANCH   1   3
BRANCH   2   6
ATOM      6  C   UNL     1      19.699  41.523  11.870  1.00  0.00    -0.026 A 
ATOM      7  C   UNL     1      18.981  42.491  11.145  1.00  0.00     0.008 A 
ATOM      8  C   UNL     1      19.575  40.170  11.519  1.00  0.00     0.008 A 
ATOM      9  C   UNL     1      18.113  42.102  10.120  1.00  0.00     0.001 A 
ATOM     10  C   UNL     1      18.706  39.785  10.493  1.00  0.00     0.001 A 
ATOM     11  C   UNL     1      17.972  40.750   9.798  1.00  0.00     0.000 A 
ENDBRANCH   2   6
TORSDOF 2
ENDMDL
MODEL 4
REMARK VINA RESULT:    -0.279      1.412      1.948
REMARK INTER + INTRA:           0.583
REMARK INTER:                   0.361
REMARK INTRA:                   0.223
REMARK UNBOUND:                 0.895
REMARK SMILES O=C([O-])C=Cc1ccccc1
REMARK SMILES IDX 4 1 5 2 2 3 1 4 3 5 6 6 7 7 11 8 8 9 10 10 9 11
REMARK H PARENT
REMARK Flexibility Score: inf
ROOT
ATOM      1  C   UNL     1      19.237  40.261  11.063  1.00  0.00     0.025 C 
ATOM      2  C   UNL     1      20.171  40.898  11.786  1.00  0.00     0.010 C 
ENDROOT
BRANCH   1   3
ATOM      3  C   UNL     1      18.240  40.902  10.183  1.00  0.00     0.064 C 
ATOM      4  O   UNL     1      18.400  42.074   9.751  1.00  0.00    -0.545 OA
ATOM      5  O   UNL     1      17.134  40.173   9.769  1.00  0.00    -0.545 OA
ENDBRANCH   1   3
BRANCH   2   6
ATOM      6  C   UNL     1      20.257  42.361  11.976  1.00  0.00    -0.026 A 
ATOM      7  C   UNL     1      19.451  43.022  12.920  1.00  0.00     0.008 A 
ATOM      8  C   UNL     1      21.231  43.088  11.275  1.00  0.00     0.008 A 
ATOM      9  C   UNL     1      19.586  44.399  13.120  1.00  0.00     0.001 A 
ATOM     10  C   UNL     1      21.364  44.466  11.478  1.00  0.00     0.001 A 
ATOM     11  C   UNL     1      20.538  45.122  12.396  1.00  0.00     0.000 A 
ENDBRANCH   2   6
TORSDOF 2
ENDMDL
MODEL 5
REMARK VINA RESULT:     0.481      0.077      1.463
REMARK INTER + INTRA:           1.432
REMARK INTER:                   0.521
REMARK INTRA:                   0.911
REMARK UNBOUND:                 0.895
REMARK SMILES O=C([O-])C=Cc1ccccc1
REMARK SMILES IDX 4 1 5 2 2 3 1 4 3 5 6 6 7 7 11 8 8 9 10 10 9 11
REMARK H PARENT
REMARK Flexibility Score: inf
ROOT
ATOM      1  C   UNL     1      17.873  39.801   9.858  1.00  0.00     0.025 C 
ATOM      2  C   UNL     1      19.082  39.969  10.416  1.00  0.00     0.010 C 
ENDROOT
BRANCH   1   3
ATOM      3  C   UNL     1      16.825  40.833   9.743  1.00  0.00     0.064 C 
ATOM      4  O   UNL     1      17.004  41.883   9.070  1.00  0.00    -0.545 OA
ATOM      5  O   UNL     1      15.588  40.612  10.335  1.00  0.00    -0.545 OA
ENDBRANCH   1   3
BRANCH   2   6
ATOM      6  C   UNL     1      19.516  41.160  11.176  1.00  0.00    -0.026 A 
ATOM      7  C   UNL     1      19.127  42.454  10.788  1.00  0.00     0.008 A 
ATOM      8  C   UNL     1      20.244  40.989  12.363  1.00  0.00     0.008 A 
ATOM      9  C   UNL     1      19.506  43.563  11.551  1.00  0.00     0.001 A 
ATOM     10  C   UNL     1      20.622  42.100  13.125  1.00  0.00     0.001 A 
ATOM     11  C   UNL     1      20.257  43.387  12.716  1.00  0.00     0.000 A 
ENDBRANCH   2   6
TORSDOF 2
ENDMDL
MODEL 6
REMARK VINA RESULT:     0.513      2.390      4.380
REMARK INTER + INTRA:           1.468
REMARK INTER:                   0.758
REMARK INTRA:                   0.710
REMARK UNBOUND:                 0.895
REMARK SMILES O=C([O-])C=Cc1ccccc1
REMARK SMILES IDX 4 1 5 2 2 3 1 4 3 5 6 6 7 7 11 8 8 9 10 10 9 11
REMARK H PARENT
REMARK Flexibility Score: inf
ROOT
ATOM      1  C   UNL     1      20.981  41.912  12.235  1.00  0.00     0.025 C 
ATOM      2  C   UNL     1      20.327  40.869  11.701  1.00  0.00     0.010 C 
ENDROOT
BRANCH   1   3
ATOM      3  C   UNL     1      20.470  43.293  12.334  1.00  0.00     0.064 C 
ATOM      4  O   UNL     1      19.538  43.596  13.125  1.00  0.00    -0.545 OA
ATOM      5  O   UNL     1      21.076  44.295  11.587  1.00  0.00    -0.545 OA
ENDBRANCH   1   3
BRANCH   2   6
ATOM      6  C   UNL     1      19.055  40.949  10.953  1.00  0.00    -0.026 A 
ATOM      7  C   UNL     1      18.537  42.184  10.523  1.00  0.00     0.008 A 
ATOM      8  C   UNL     1      18.404  39.764  10.576  1.00  0.00     0.008 A 
ATOM      9  C   UNL     1      17.359  42.232   9.772  1.00  0.00     0.001 A 
ATOM     10  C   UNL     1      17.226  39.815   9.824  1.00  0.00     0.001 A 
ATOM     11  C   UNL     1      16.701  41.049   9.427  1.00  0.00     0.000 A 
ENDBRANCH   2   6
TORSDOF 2
ENDMDL
MODEL 7
REMARK VINA RESULT:     0.536      2.421      4.215
REMARK INTER + INTRA:           1.494
REMARK INTER:                   0.726
REMARK INTRA:                   0.768
REMARK UNBOUND:                 0.895
REMARK SMILES O=C([O-])C=Cc1ccccc1
REMARK SMILES IDX 4 1 5 2 2 3 1 4 3 5 6 6 7 7 11 8 8 9 10 10 9 11
REMARK H PARENT
REMARK Flexibility Score: inf
ROOT
ATOM      1  C   UNL     1      20.985  41.946  12.391  1.00  0.00     0.025 C 
ATOM      2  C   UNL     1      20.369  40.880  11.856  1.00  0.00     0.010 C 
ENDROOT
BRANCH   1   3
ATOM      3  C   UNL     1      20.497  43.338  12.345  1.00  0.00     0.064 C 
ATOM      4  O   UNL     1      19.596  43.747  13.125  1.00  0.00    -0.545 OA
ATOM      5  O   UNL     1      21.092  44.235  11.468  1.00  0.00    -0.545 OA
ENDBRANCH   1   3
BRANCH   2   6
ATOM      6  C   UNL     1      19.188  40.929  10.970  1.00  0.00    -0.026 A 
ATOM      7  C   UNL     1      18.413  39.782  10.722  1.00  0.00     0.008 A 
ATOM      8  C   UNL     1      18.771  42.164  10.449  1.00  0.00     0.008 A 
ATOM      9  C   UNL     1      17.269  39.862   9.923  1.00  0.00     0.001 A 
ATOM     10  C   UNL     1      17.626  42.242   9.649  1.00  0.00     0.001 A 
ATOM     11  C   UNL     1      16.879  41.090   9.382  1.00  0.00     0.000 A 
ENDBRANCH   2   6
TORSDOF 2
ENDMDL
