MODEL 1
REMARK VINA RESULT:    -3.961      0.000      0.000
REMARK INTER + INTRA:          -6.414
REMARK INTER:                  -6.045
REMARK INTRA:                  -0.369
REMARK UNBOUND:                -0.369
REMARK SMILES CC1=CCC[C@H](C)C(=O)C[C@H](C(C)C)C(=O)C1
REMARK SMILES IDX 8 1 9 2 6 3 7 4 5 5 4 6 3 7 2 8 1 9 10 11 11 12 15 13 16 14
REMARK SMILES IDX 17 15 12 17 13 18 14 19
REMARK H PARENT
REMARK Flexibility Score: 70.00
ROOT
ATOM      1  C   UNL     1      15.430  30.126  29.826  1.00  0.00     0.136 C 
ATOM      2  O   UNL     1      14.669  29.689  28.974  1.00  0.00    -0.299 OA
ENDROOT
BRANCH   1   3
ATOM      3  C   UNL     1      15.241  31.562  30.291  1.00  0.00     0.053 C 
ATOM      4  C   UNL     1      15.496  31.665  31.801  1.00  0.00     0.016 C 
BRANCH   3   5
ATOM      5  C   UNL     1      16.180  32.513  29.519  1.00  0.00     0.015 C 
BRANCH   5   6
ATOM      6  C   UNL     1      17.301  33.097  30.395  1.00  0.00     0.028 C 
BRANCH   6   7
ATOM      7  C   UNL     1      18.666  32.839  29.801  1.00  0.00    -0.028 C 
ATOM      8  C   UNL     1      19.515  31.839  30.141  1.00  0.00    -0.070 CG0
ATOM      9  C   UNL     1      20.831  31.761  29.406  1.00  0.00     0.039 C 
ATOM     10  G   UNL     1      19.207  30.773  31.179  1.00  0.00     0.000 G0
ENDBRANCH   6   7
ENDBRANCH   5   6
ENDBRANCH   3   5
ENDBRANCH   1   3
BRANCH   1  11
ATOM     11  C   UNL     1      16.433  29.160  30.432  1.00  0.00     0.087 C 
BRANCH  11  12
ATOM     12  C   UNL     1      17.796  29.033  29.699  1.00  0.00     0.066 C 
BRANCH  12  13
ATOM     13  C   UNL     1      19.018  29.410  30.534  1.00  0.00     0.140 C 
ATOM     14  O   UNL     1      19.858  28.545  30.738  1.00  0.00    -0.299 OA
BRANCH  13  15
ATOM     15  C   UNL     1      19.220  30.761  31.185  1.00  0.00     0.106 CG0
ATOM     16  G   UNL     1      19.472  31.837  30.141  1.00  0.00     0.000 G0
ENDBRANCH  13  15
ENDBRANCH  12  13
BRANCH  12  17
ATOM     17  C   UNL     1      17.961  27.627  29.040  1.00  0.00    -0.006 C 
ATOM     18  C   UNL     1      18.480  27.688  27.594  1.00  0.00     0.008 C 
ATOM     19  C   UNL     1      16.662  26.807  29.101  1.00  0.00     0.008 C 
ENDBRANCH  12  17
ENDBRANCH  11  12
ENDBRANCH   1  11
TORSDOF 1
ENDMDL
MODEL 2
REMARK VINA RESULT:    -3.807      2.075      5.248
REMARK INTER + INTRA:          -6.180
REMARK INTER:                  -6.254
REMARK INTRA:                   0.075
REMARK UNBOUND:                -0.369
REMARK SMILES CC1=CCC[C@H](C)C(=O)C[C@H](C(C)C)C(=O)C1
REMARK SMILES IDX 8 1 9 2 6 3 7 4 5 5 4 6 3 7 2 8 1 9 10 11 11 12 15 13 16 14
REMARK SMILES IDX 17 15 12 17 13 18 14 19
REMARK H PARENT
REMARK Flexibility Score: 70.00
ROOT
ATOM      1  C   UNL     1      19.189  30.849  29.504  1.00  0.00     0.136 C 
ATOM      2  O   UNL     1      19.650  31.981  29.549  1.00  0.00    -0.299 OA
ENDROOT
BRANCH   1   3
ATOM      3  C   UNL     1      19.980  29.777  28.770  1.00  0.00     0.053 C 
ATOM      4  C   UNL     1      20.982  29.115  29.724  1.00  0.00     0.016 C 
BRANCH   3   5
ATOM      5  C   UNL     1      19.034  28.720  28.163  1.00  0.00     0.015 C 
BRANCH   5   6
ATOM      6  C   UNL     1      19.016  27.401  28.952  1.00  0.00     0.028 C 
BRANCH   6   7
ATOM      7  C   UNL     1      17.729  26.638  28.736  1.00  0.00    -0.028 C 
ATOM      8  C   UNL     1      16.540  26.879  29.339  1.00  0.00    -0.070 CG0
ATOM      9  C   UNL     1      15.376  25.997  28.965  1.00  0.00     0.039 C 
ATOM     10  G   UNL     1      16.299  28.005  30.331  1.00  0.00     0.000 G0
ENDBRANCH   6   7
ENDBRANCH   5   6
ENDBRANCH   3   5
ENDBRANCH   1   3
BRANCH   1  11
ATOM     11  C   UNL     1      17.915  30.580  30.286  1.00  0.00     0.087 C 
BRANCH  11  12
ATOM     12  C   UNL     1      16.597  30.546  29.464  1.00  0.00     0.066 C 
BRANCH  12  13
ATOM     13  C   UNL     1      15.784  29.260  29.597  1.00  0.00     0.140 C 
ATOM     14  O   UNL     1      14.653  29.251  29.134  1.00  0.00    -0.299 OA
BRANCH  13  15
ATOM     15  C   UNL     1      16.261  28.023  30.328  1.00  0.00     0.106 CG0
ATOM     16  G   UNL     1      16.538  26.888  29.356  1.00  0.00     0.000 G0
ENDBRANCH  13  15
ENDBRANCH  12  13
BRANCH  12  17
ATOM     17  C   UNL     1      15.723  31.811  29.735  1.00  0.00    -0.006 C 
ATOM     18  C   UNL     1      16.268  33.084  29.068  1.00  0.00     0.008 C 
ATOM     19  C   UNL     1      15.509  32.051  31.238  1.00  0.00     0.008 C 
ENDBRANCH  12  17
ENDBRANCH  11  12
ENDBRANCH   1  11
TORSDOF 1
ENDMDL
MODEL 3
REMARK VINA RESULT:    -3.781      2.306      4.863
REMARK INTER + INTRA:          -6.139
REMARK INTER:                  -6.121
REMARK INTRA:                  -0.017
REMARK UNBOUND:                -0.369
REMARK SMILES CC1=CCC[C@H](C)C(=O)C[C@H](C(C)C)C(=O)C1
REMARK SMILES IDX 8 1 9 2 6 3 7 4 5 5 4 6 3 7 2 8 1 9 10 11 11 12 15 13 16 14
REMARK SMILES IDX 17 15 12 17 13 18 14 19
REMARK H PARENT
REMARK Flexibility Score: 70.00
ROOT
ATOM      1  C   UNL     1      18.823  25.872  28.057  1.00  0.00     0.136 C 
ATOM      2  O   UNL     1      19.135  24.818  27.520  1.00  0.00    -0.299 OA
ENDROOT
BRANCH   1   3
ATOM      3  C   UNL     1      19.890  26.626  28.837  1.00  0.00     0.053 C 
ATOM      4  C   UNL     1      21.283  26.100  28.469  1.00  0.00     0.016 C 
BRANCH   3   5
ATOM      5  C   UNL     1      19.795  28.142  28.564  1.00  0.00     0.015 C 
BRANCH   5   6
ATOM      6  C   UNL     1      19.614  28.975  29.843  1.00  0.00     0.028 C 
BRANCH   6   7
ATOM      7  C   UNL     1      18.493  29.979  29.702  1.00  0.00    -0.028 C 
ATOM      8  C   UNL     1      17.188  29.775  30.002  1.00  0.00    -0.070 CG0
ATOM      9  C   UNL     1      16.236  30.926  29.794  1.00  0.00     0.039 C 
ATOM     10  G   UNL     1      16.636  28.479  30.572  1.00  0.00     0.000 G0
ENDBRANCH   6   7
ENDBRANCH   5   6
ENDBRANCH   3   5
ENDBRANCH   1   3
BRANCH   1  11
ATOM     11  C   UNL     1      17.422  26.400  27.803  1.00  0.00     0.087 C 
BRANCH  11  12
ATOM     12  C   UNL     1      16.426  26.308  28.991  1.00  0.00     0.066 C 
BRANCH  12  13
ATOM     13  C   UNL     1      15.921  27.650  29.518  1.00  0.00     0.140 C 
ATOM     14  O   UNL     1      14.918  28.123  29.004  1.00  0.00    -0.299 OA
BRANCH  13  15
ATOM     15  C   UNL     1      16.624  28.465  30.583  1.00  0.00     0.106 CG0
ATOM     16  G   UNL     1      17.184  29.753  30.004  1.00  0.00     0.000 G0
ENDBRANCH  13  15
ENDBRANCH  12  13
BRANCH  12  17
ATOM     17  C   UNL     1      15.248  25.334  28.674  1.00  0.00    -0.006 C 
ATOM     18  C   UNL     1      14.971  24.324  29.799  1.00  0.00     0.008 C 
ATOM     19  C   UNL     1      15.453  24.597  27.341  1.00  0.00     0.008 C 
ENDBRANCH  12  17
ENDBRANCH  11  12
ENDBRANCH   1  11
TORSDOF 1
ENDMDL
MODEL 4
REMARK VINA RESULT:    -3.719      3.206      4.414
REMARK INTER + INTRA:          -6.044
REMARK INTER:                  -5.670
REMARK INTRA:                  -0.375
REMARK UNBOUND:                -0.369
REMARK SMILES CC1=CCC[C@H](C)C(=O)C[C@H](C(C)C)C(=O)C1
REMARK SMILES IDX 8 1 9 2 6 3 7 4 5 5 4 6 3 7 2 8 1 9 10 11 11 12 15 13 16 14
REMARK SMILES IDX 17 15 12 17 13 18 14 19
REMARK H PARENT
REMARK Flexibility Score: 70.00
ROOT
ATOM      1  C   UNL     1      20.013  28.171  28.817  1.00  0.00     0.136 C 
ATOM      2  O   UNL     1      19.696  27.547  27.813  1.00  0.00    -0.299 OA
ENDROOT
BRANCH   1   3
ATOM      3  C   UNL     1      19.058  29.237  29.333  1.00  0.00     0.053 C 
ATOM      4  C   UNL     1      18.853  29.075  30.844  1.00  0.00     0.016 C 
BRANCH   3   5
ATOM      5  C   UNL     1      19.591  30.649  29.008  1.00  0.00     0.015 C 
BRANCH   5   6
ATOM      6  C   UNL     1      19.778  31.525  30.258  1.00  0.00     0.028 C 
BRANCH   6   7
ATOM      7  C   UNL     1      21.135  32.190  30.276  1.00  0.00    -0.028 C 
ATOM      8  C   UNL     1      22.295  31.638  30.706  1.00  0.00    -0.070 CG0
ATOM      9  C   UNL     1      23.543  32.482  30.623  1.00  0.00     0.039 C 
ATOM     10  G   UNL     1      22.424  30.215  31.223  1.00  0.00     0.000 G0
ENDBRANCH   6   7
ENDBRANCH   5   6
ENDBRANCH   3   5
ENDBRANCH   1   3
BRANCH   1  11
ATOM     11  C   UNL     1      21.285  27.751  29.531  1.00  0.00     0.087 C 
BRANCH  11  12
ATOM     12  C   UNL     1      22.577  28.525  29.150  1.00  0.00     0.066 C 
BRANCH  12  13
ATOM     13  C   UNL     1      23.212  29.324  30.287  1.00  0.00     0.140 C 
ATOM     14  O   UNL     1      24.413  29.194  30.473  1.00  0.00    -0.299 OA
BRANCH  13  15
ATOM     15  C   UNL     1      22.438  30.208  31.242  1.00  0.00     0.106 CG0
ATOM     16  G   UNL     1      22.309  31.619  30.695  1.00  0.00     0.000 G0
ENDBRANCH  13  15
ENDBRANCH  12  13
BRANCH  12  17
ATOM     17  C   UNL     1      23.616  27.594  28.451  1.00  0.00    -0.006 C 
ATOM     18  C   UNL     1      24.102  28.131  27.095  1.00  0.00     0.008 C 
ATOM     19  C   UNL     1      23.087  26.159  28.291  1.00  0.00     0.008 C 
ENDBRANCH  12  17
ENDBRANCH  11  12
ENDBRANCH   1  11
TORSDOF 1
ENDMDL
MODEL 5
REMARK VINA RESULT:    -3.678      2.972      6.331
REMARK INTER + INTRA:          -5.982
REMARK INTER:                  -5.834
REMARK INTRA:                  -0.149
REMARK UNBOUND:                -0.369
REMARK SMILES CC1=CCC[C@H](C)C(=O)C[C@H](C(C)C)C(=O)C1
REMARK SMILES IDX 8 1 9 2 6 3 7 4 5 5 4 6 3 7 2 8 1 9 10 11 11 12 15 13 16 14
REMARK SMILES IDX 17 15 12 17 13 18 14 19
REMARK H PARENT
REMARK Flexibility Score: 70.00
ROOT
ATOM      1  C   UNL     1      22.805  28.543  29.547  1.00  0.00     0.136 C 
ATOM      2  O   UNL     1      23.932  28.548  30.023  1.00  0.00    -0.299 OA
ENDROOT
BRANCH   1   3
ATOM      3  C   UNL     1      22.578  27.796  28.241  1.00  0.00     0.053 C 
ATOM      4  C   UNL     1      23.770  28.006  27.299  1.00  0.00     0.016 C 
BRANCH   3   5
ATOM      5  C   UNL     1      22.356  26.292  28.505  1.00  0.00     0.015 C 
BRANCH   5   6
ATOM      6  C   UNL     1      21.038  25.996  29.240  1.00  0.00     0.028 C 
BRANCH   6   7
ATOM      7  C   UNL     1      19.837  26.255  28.360  1.00  0.00    -0.028 C 
ATOM      8  C   UNL     1      18.892  27.207  28.548  1.00  0.00    -0.070 CG0
ATOM      9  C   UNL     1      17.779  27.296  27.533  1.00  0.00     0.039 C 
ATOM     10  G   UNL     1      18.908  28.212  29.687  1.00  0.00     0.000 G0
ENDBRANCH   6   7
ENDBRANCH   5   6
ENDBRANCH   3   5
ENDBRANCH   1   3
BRANCH   1  11
ATOM     11  C   UNL     1      21.698  29.191  30.360  1.00  0.00     0.087 C 
BRANCH  11  12
ATOM     12  C   UNL     1      20.752  30.154  29.592  1.00  0.00     0.066 C 
BRANCH  12  13
ATOM     13  C   UNL     1      19.382  29.576  29.245  1.00  0.00     0.140 C 
ATOM     14  O   UNL     1      18.612  30.279  28.606  1.00  0.00    -0.299 OA
BRANCH  13  15
ATOM     15  C   UNL     1      18.890  28.219  29.701  1.00  0.00     0.106 CG0
ATOM     16  G   UNL     1      18.911  27.218  28.558  1.00  0.00     0.000 G0
ENDBRANCH  13  15
ENDBRANCH  12  13
BRANCH  12  17
ATOM     17  C   UNL     1      20.629  31.532  30.316  1.00  0.00    -0.006 C 
ATOM     18  C   UNL     1      21.965  32.283  30.431  1.00  0.00     0.008 C 
ATOM     19  C   UNL     1      19.978  31.396  31.702  1.00  0.00     0.008 C 
ENDBRANCH  12  17
ENDBRANCH  11  12
ENDBRANCH   1  11
TORSDOF 1
ENDMDL
MODEL 6
REMARK VINA RESULT:    -3.633      2.313      4.630
REMARK INTER + INTRA:          -5.913
REMARK INTER:                  -5.952
REMARK INTRA:                   0.038
REMARK UNBOUND:                -0.369
REMARK SMILES CC1=CCC[C@H](C)C(=O)C[C@H](C(C)C)C(=O)C1
REMARK SMILES IDX 8 1 9 2 6 3 7 4 5 5 4 6 3 7 2 8 1 9 10 11 11 12 15 13 16 14
REMARK SMILES IDX 17 15 12 17 13 18 14 19
REMARK H PARENT
REMARK Flexibility Score: 70.00
ROOT
ATOM      1  C   UNL     1      19.116  26.718  27.999  1.00  0.00     0.136 C 
ATOM      2  O   UNL     1      19.562  25.817  27.303  1.00  0.00    -0.299 OA
ENDROOT
BRANCH   1   3
ATOM      3  C   UNL     1      20.046  27.378  29.005  1.00  0.00     0.053 C 
ATOM      4  C   UNL     1      21.297  26.515  29.212  1.00  0.00     0.016 C 
BRANCH   3   5
ATOM      5  C   UNL     1      20.439  28.795  28.536  1.00  0.00     0.015 C 
BRANCH   5   6
ATOM      6  C   UNL     1      19.732  29.910  29.325  1.00  0.00     0.028 C 
BRANCH   6   7
ATOM      7  C   UNL     1      19.071  29.377  30.575  1.00  0.00    -0.028 C 
ATOM      8  C   UNL     1      17.740  29.253  30.790  1.00  0.00    -0.070 CG0
ATOM      9  C   UNL     1      17.297  28.682  32.114  1.00  0.00     0.039 C 
ATOM     10  G   UNL     1      16.673  29.609  29.768  1.00  0.00     0.000 G0
ENDBRANCH   6   7
ENDBRANCH   5   6
ENDBRANCH   3   5
ENDBRANCH   1   3
BRANCH   1  11
ATOM     11  C   UNL     1      17.697  27.182  27.720  1.00  0.00     0.087 C 
BRANCH  11  12
ATOM     12  C   UNL     1      16.688  27.055  28.894  1.00  0.00     0.066 C 
BRANCH  12  13
ATOM     13  C   UNL     1      15.971  28.350  29.274  1.00  0.00     0.140 C 
ATOM     14  O   UNL     1      14.761  28.401  29.105  1.00  0.00    -0.299 OA
BRANCH  13  15
ATOM     15  C   UNL     1      16.670  29.594  29.777  1.00  0.00     0.106 CG0
ATOM     16  G   UNL     1      17.736  29.244  30.802  1.00  0.00     0.000 G0
ENDBRANCH  13  15
ENDBRANCH  12  13
BRANCH  12  17
ATOM     17  C   UNL     1      15.680  25.887  28.657  1.00  0.00    -0.006 C 
ATOM     18  C   UNL     1      15.405  25.052  29.918  1.00  0.00     0.008 C 
ATOM     19  C   UNL     1      16.121  24.971  27.504  1.00  0.00     0.008 C 
ENDBRANCH  12  17
ENDBRANCH  11  12
ENDBRANCH   1  11
TORSDOF 1
ENDMDL
MODEL 7
REMARK VINA RESULT:    -3.590      1.802      4.113
REMARK INTER + INTRA:          -5.848
REMARK INTER:                  -5.435
REMARK INTRA:                  -0.413
REMARK UNBOUND:                -0.369
REMARK SMILES CC1=CCC[C@H](C)C(=O)C[C@H](C(C)C)C(=O)C1
REMARK SMILES IDX 8 1 9 2 6 3 7 4 5 5 4 6 3 7 2 8 1 9 10 11 11 12 15 13 16 14
REMARK SMILES IDX 17 15 12 17 13 18 14 19
REMARK H PARENT
REMARK Flexibility Score: 70.00
ROOT
ATOM      1  C   UNL     1      15.735  28.849  29.499  1.00  0.00     0.136 C 
ATOM      2  O   UNL     1      14.631  28.612  29.028  1.00  0.00    -0.299 OA
ENDROOT
BRANCH   1   3
ATOM      3  C   UNL     1      16.510  27.701  30.130  1.00  0.00     0.053 C 
ATOM      4  C   UNL     1      15.673  27.044  31.235  1.00  0.00     0.016 C 
BRANCH   3   5
ATOM      5  C   UNL     1      16.908  26.660  29.062  1.00  0.00     0.015 C 
BRANCH   5   6
ATOM      6  C   UNL     1      17.984  27.172  28.091  1.00  0.00     0.028 C 
BRANCH   6   7
ATOM      7  C   UNL     1      19.296  27.428  28.795  1.00  0.00    -0.028 C 
ATOM      8  C   UNL     1      19.879  28.634  28.998  1.00  0.00    -0.070 CG0
ATOM      9  C   UNL     1      21.192  28.660  29.740  1.00  0.00     0.039 C 
ATOM     10  G   UNL     1      19.273  29.958  28.563  1.00  0.00     0.000 G0
ENDBRANCH   6   7
ENDBRANCH   5   6
ENDBRANCH   3   5
ENDBRANCH   1   3
BRANCH   1  11
ATOM     11  C   UNL     1      16.291  30.249  29.313  1.00  0.00     0.087 C 
BRANCH  11  12
ATOM     12  C   UNL     1      17.389  30.694  30.317  1.00  0.00     0.066 C 
BRANCH  12  13
ATOM     13  C   UNL     1      18.800  30.781  29.737  1.00  0.00     0.140 C 
ATOM     14  O   UNL     1      19.562  31.607  30.217  1.00  0.00    -0.299 OA
BRANCH  13  15
ATOM     15  C   UNL     1      19.288  29.962  28.562  1.00  0.00     0.106 CG0
ATOM     16  G   UNL     1      19.892  28.647  29.027  1.00  0.00     0.000 G0
ENDBRANCH  13  15
ENDBRANCH  12  13
BRANCH  12  17
ATOM     17  C   UNL     1      16.988  32.010  31.056  1.00  0.00    -0.006 C 
ATOM     18  C   UNL     1      16.346  31.766  32.432  1.00  0.00     0.008 C 
ATOM     19  C   UNL     1      16.074  32.897  30.196  1.00  0.00     0.008 C 
ENDBRANCH  12  17
ENDBRANCH  11  12
ENDBRANCH   1  11
TORSDOF 1
ENDMDL
MODEL 8
REMARK VINA RESULT:    -3.567      3.710      7.025
REMARK INTER + INTRA:          -5.813
REMARK INTER:                  -5.869
REMARK INTRA:                   0.057
REMARK UNBOUND:                -0.369
REMARK SMILES CC1=CCC[C@H](C)C(=O)C[C@H](C(C)C)C(=O)C1
REMARK SMILES IDX 8 1 9 2 6 3 7 4 5 5 4 6 3 7 2 8 1 9 10 11 11 12 15 13 16 14
REMARK SMILES IDX 17 15 12 17 13 18 14 19
REMARK H PARENT
REMARK Flexibility Score: 70.00
ROOT
ATOM      1  C   UNL     1      24.317  30.205  30.850  1.00  0.00     0.136 C 
ATOM      2  O   UNL     1      24.780  29.619  31.819  1.00  0.00    -0.299 OA
ENDROOT
BRANCH   1   3
ATOM      3  C   UNL     1      25.011  30.037  29.507  1.00  0.00     0.053 C 
ATOM      4  C   UNL     1      26.462  30.527  29.598  1.00  0.00     0.016 C 
BRANCH   3   5
ATOM      5  C   UNL     1      24.966  28.563  29.051  1.00  0.00     0.015 C 
BRANCH   5   6
ATOM      6  C   UNL     1      23.907  28.297  27.969  1.00  0.00     0.028 C 
BRANCH   6   7
ATOM      7  C   UNL     1      23.013  27.135  28.334  1.00  0.00    -0.028 C 
ATOM      8  C   UNL     1      21.716  27.208  28.718  1.00  0.00    -0.070 CG0
ATOM      9  C   UNL     1      21.005  25.914  29.027  1.00  0.00     0.039 C 
ATOM     10  G   UNL     1      20.926  28.503  28.813  1.00  0.00     0.000 G0
ENDBRANCH   6   7
ENDBRANCH   5   6
ENDBRANCH   3   5
ENDBRANCH   1   3
BRANCH   1  11
ATOM     11  C   UNL     1      23.016  30.964  31.046  1.00  0.00     0.087 C 
BRANCH  11  12
ATOM     12  C   UNL     1      21.901  30.703  29.997  1.00  0.00     0.066 C 
BRANCH  12  13
ATOM     13  C   UNL     1      21.285  29.305  30.042  1.00  0.00     0.140 C 
ATOM     14  O   UNL     1      21.141  28.782  31.137  1.00  0.00    -0.299 OA
BRANCH  13  15
ATOM     15  C   UNL     1      20.909  28.501  28.817  1.00  0.00     0.106 CG0
ATOM     16  G   UNL     1      21.733  27.227  28.727  1.00  0.00     0.000 G0
ENDBRANCH  13  15
ENDBRANCH  12  13
BRANCH  12  17
ATOM     17  C   UNL     1      20.807  31.815  30.037  1.00  0.00    -0.006 C 
ATOM     18  C   UNL     1      21.370  33.233  29.845  1.00  0.00     0.008 C 
ATOM     19  C   UNL     1      19.967  31.751  31.322  1.00  0.00     0.008 C 
ENDBRANCH  12  17
ENDBRANCH  11  12
ENDBRANCH   1  11
TORSDOF 1
ENDMDL
MODEL 9
REMARK VINA RESULT:    -3.447      2.953      5.919
REMARK INTER + INTRA:          -5.629
REMARK INTER:                  -5.874
REMARK INTRA:                   0.245
REMARK UNBOUND:                -0.369
REMARK SMILES CC1=CCC[C@H](C)C(=O)C[C@H](C(C)C)C(=O)C1
REMARK SMILES IDX 8 1 9 2 6 3 7 4 5 5 4 6 3 7 2 8 1 9 10 11 11 12 15 13 16 14
REMARK SMILES IDX 17 15 12 17 13 18 14 19
REMARK H PARENT
REMARK Flexibility Score: 70.00
ROOT
ATOM      1  C   UNL     1      21.218  25.393  28.243  1.00  0.00     0.136 C 
ATOM      2  O   UNL     1      21.871  24.363  28.334  1.00  0.00    -0.299 OA
ENDROOT
BRANCH   1   3
ATOM      3  C   UNL     1      20.081  25.437  27.233  1.00  0.00     0.053 C 
ATOM      4  C   UNL     1      20.072  24.154  26.393  1.00  0.00     0.016 C 
BRANCH   3   5
ATOM      5  C   UNL     1      18.725  25.624  27.947  1.00  0.00     0.015 C 
BRANCH   5   6
ATOM      6  C   UNL     1      17.958  26.869  27.470  1.00  0.00     0.028 C 
BRANCH   6   7
ATOM      7  C   UNL     1      17.262  27.569  28.614  1.00  0.00    -0.028 C 
ATOM      8  C   UNL     1      17.706  28.663  29.277  1.00  0.00    -0.070 CG0
ATOM      9  C   UNL     1      16.839  29.206  30.386  1.00  0.00     0.039 C 
ATOM     10  G   UNL     1      18.994  29.397  28.947  1.00  0.00     0.000 G0
ENDBRANCH   6   7
ENDBRANCH   5   6
ENDBRANCH   3   5
ENDBRANCH   1   3
BRANCH   1  11
ATOM     11  C   UNL     1      21.524  26.507  29.228  1.00  0.00     0.087 C 
BRANCH  11  12
ATOM     12  C   UNL     1      21.242  27.955  28.740  1.00  0.00     0.066 C 
BRANCH  12  13
ATOM     13  C   UNL     1      20.200  28.721  29.553  1.00  0.00     0.140 C 
ATOM     14  O   UNL     1      20.319  28.726  30.770  1.00  0.00    -0.299 OA
BRANCH  13  15
ATOM     15  C   UNL     1      18.993  29.411  28.956  1.00  0.00     0.106 CG0
ATOM     16  G   UNL     1      17.714  28.662  29.293  1.00  0.00     0.000 G0
ENDBRANCH  13  15
ENDBRANCH  12  13
BRANCH  12  17
ATOM     17  C   UNL     1      22.563  28.772  28.582  1.00  0.00    -0.006 C 
ATOM     18  C   UNL     1      23.593  28.097  27.662  1.00  0.00     0.008 C 
ATOM     19  C   UNL     1      23.203  29.098  29.941  1.00  0.00     0.008 C 
ENDBRANCH  12  17
ENDBRANCH  11  12
ENDBRANCH   1  11
TORSDOF 1
ENDMDL
