MODEL 1
REMARK VINA RESULT:    -4.166      0.000      0.000
REMARK INTER + INTRA:          -4.428
REMARK INTER:                  -4.410
REMARK INTRA:                  -0.018
REMARK UNBOUND:                -0.018
REMARK SMILES O=C([O-])c1cccnc1
REMARK SMILES IDX 4 1 5 2 9 3 6 4 8 5 7 6 2 7 1 8 3 9
REMARK H PARENT
REMARK Flexibility Score: inf
ROOT
ATOM      1  C   UNL     1      38.514  18.180  11.258  1.00  0.00     0.016 A 
ATOM      2  C   UNL     1      39.791  18.124  11.840  1.00  0.00     0.013 A 
ATOM      3  C   UNL     1      38.415  18.495   9.891  1.00  0.00     0.120 A 
ATOM      4  C   UNL     1      40.925  18.378  11.067  1.00  0.00     0.021 A 
ATOM      5  N   UNL     1      39.537  18.739   9.161  1.00  0.00    -0.264 NA
ATOM      6  C   UNL     1      40.777  18.687   9.715  1.00  0.00     0.111 A 
ENDROOT
BRANCH   1   7
ATOM      7  C   UNL     1      37.305  17.912  12.066  1.00  0.00     0.073 C 
ATOM      8  O   UNL     1      36.539  16.954  11.776  1.00  0.00    -0.545 OA
ATOM      9  O   UNL     1      36.995  18.715  13.157  1.00  0.00    -0.545 OA
ENDBRANCH   1   7
TORSDOF 1
ENDMDL
MODEL 2
REMARK VINA RESULT:    -4.101      0.939      1.937
REMARK INTER + INTRA:          -4.358
REMARK INTER:                  -4.339
REMARK INTRA:                  -0.019
REMARK UNBOUND:                -0.018
REMARK SMILES O=C([O-])c1cccnc1
REMARK SMILES IDX 4 1 5 2 9 3 6 4 8 5 7 6 2 7 1 8 3 9
REMARK H PARENT
REMARK Flexibility Score: inf
ROOT
ATOM      1  C   UNL     1      38.343  18.170  11.326  1.00  0.00     0.016 A 
ATOM      2  C   UNL     1      38.302  18.410   9.943  1.00  0.00     0.013 A 
ATOM      3  C   UNL     1      39.595  18.164  11.967  1.00  0.00     0.120 A 
ATOM      4  C   UNL     1      39.484  18.638   9.236  1.00  0.00     0.021 A 
ATOM      5  N   UNL     1      40.731  18.388  11.254  1.00  0.00    -0.264 NA
ATOM      6  C   UNL     1      40.702  18.622   9.915  1.00  0.00     0.111 A 
ENDROOT
BRANCH   1   7
ATOM      7  C   UNL     1      37.098  17.928  12.086  1.00  0.00     0.073 C 
ATOM      8  O   UNL     1      36.869  18.554  13.156  1.00  0.00    -0.545 OA
ATOM      9  O   UNL     1      36.163  17.005  11.632  1.00  0.00    -0.545 OA
ENDBRANCH   1   7
TORSDOF 1
ENDMDL
MODEL 3
REMARK VINA RESULT:    -4.099      2.780      3.648
REMARK INTER + INTRA:          -4.356
REMARK INTER:                  -4.336
REMARK INTRA:                  -0.019
REMARK UNBOUND:                -0.018
REMARK SMILES O=C([O-])c1cccnc1
REMARK SMILES IDX 4 1 5 2 9 3 6 4 8 5 7 6 2 7 1 8 3 9
REMARK H PARENT
REMARK Flexibility Score: inf
ROOT
ATOM      1  C   UNL     1      38.034  18.113  10.630  1.00  0.00     0.016 A 
ATOM      2  C   UNL     1      38.265  18.281  12.005  1.00  0.00     0.013 A 
ATOM      3  C   UNL     1      36.705  18.129  10.169  1.00  0.00     0.120 A 
ATOM      4  C   UNL     1      37.193  18.461  12.879  1.00  0.00     0.021 A 
ATOM      5  N   UNL     1      35.678  18.305  11.043  1.00  0.00    -0.264 NA
ATOM      6  C   UNL     1      35.892  18.470  12.376  1.00  0.00     0.111 A 
ENDROOT
BRANCH   1   7
ATOM      7  C   UNL     1      39.162  17.923   9.693  1.00  0.00     0.073 C 
ATOM      8  O   UNL     1      39.120  17.021   8.814  1.00  0.00    -0.545 OA
ATOM      9  O   UNL     1      40.287  18.736   9.772  1.00  0.00    -0.545 OA
ENDBRANCH   1   7
TORSDOF 1
ENDMDL
MODEL 4
REMARK VINA RESULT:    -4.074      8.594      9.677
REMARK INTER + INTRA:          -4.329
REMARK INTER:                  -4.308
REMARK INTRA:                  -0.021
REMARK UNBOUND:                -0.018
REMARK SMILES O=C([O-])c1cccnc1
REMARK SMILES IDX 4 1 5 2 9 3 6 4 8 5 7 6 2 7 1 8 3 9
REMARK H PARENT
REMARK Flexibility Score: inf
ROOT
ATOM      1  C   UNL     1      31.963  13.204  15.726  1.00  0.00     0.016 A 
ATOM      2  C   UNL     1      33.177  13.219  15.021  1.00  0.00     0.013 A 
ATOM      3  C   UNL     1      31.746  14.187  16.707  1.00  0.00     0.120 A 
ATOM      4  C   UNL     1      34.136  14.195  15.299  1.00  0.00     0.021 A 
ATOM      5  N   UNL     1      32.698  15.126  16.959  1.00  0.00    -0.264 NA
ATOM      6  C   UNL     1      33.877  15.150  16.282  1.00  0.00     0.111 A 
ENDROOT
BRANCH   1   7
ATOM      7  C   UNL     1      30.938  12.176  15.439  1.00  0.00     0.073 C 
ATOM      8  O   UNL     1      30.164  11.773  16.348  1.00  0.00    -0.545 OA
ATOM      9  O   UNL     1      30.816  11.640  14.163  1.00  0.00    -0.545 OA
ENDBRANCH   1   7
TORSDOF 1
ENDMDL
MODEL 5
REMARK VINA RESULT:    -3.990      3.047      3.753
REMARK INTER + INTRA:          -4.241
REMARK INTER:                  -4.224
REMARK INTRA:                  -0.017
REMARK UNBOUND:                -0.018
REMARK SMILES O=C([O-])c1cccnc1
REMARK SMILES IDX 4 1 5 2 9 3 6 4 8 5 7 6 2 7 1 8 3 9
REMARK H PARENT
REMARK Flexibility Score: inf
ROOT
ATOM      1  C   UNL     1      40.418  18.360  10.719  1.00  0.00     0.016 A 
ATOM      2  C   UNL     1      39.774  18.156  11.950  1.00  0.00     0.013 A 
ATOM      3  C   UNL     1      39.627  18.489   9.563  1.00  0.00     0.120 A 
ATOM      4  C   UNL     1      38.381  18.088  12.008  1.00  0.00     0.021 A 
ATOM      5  N   UNL     1      38.272  18.418   9.648  1.00  0.00    -0.264 NA
ATOM      6  C   UNL     1      37.638  18.222  10.835  1.00  0.00     0.111 A 
ENDROOT
BRANCH   1   7
ATOM      7  C   UNL     1      41.893  18.435  10.644  1.00  0.00     0.073 C 
ATOM      8  O   UNL     1      42.600  17.415  10.865  1.00  0.00    -0.545 OA
ATOM      9  O   UNL     1      42.522  19.635  10.330  1.00  0.00    -0.545 OA
ENDBRANCH   1   7
TORSDOF 1
ENDMDL
MODEL 6
REMARK VINA RESULT:    -3.966      2.849      3.968
REMARK INTER + INTRA:          -4.215
REMARK INTER:                  -4.194
REMARK INTRA:                  -0.021
REMARK UNBOUND:                -0.018
REMARK SMILES O=C([O-])c1cccnc1
REMARK SMILES IDX 4 1 5 2 9 3 6 4 8 5 7 6 2 7 1 8 3 9
REMARK H PARENT
REMARK Flexibility Score: inf
ROOT
ATOM      1  C   UNL     1      38.020  17.964  10.468  1.00  0.00     0.016 A 
ATOM      2  C   UNL     1      36.652  17.992  10.155  1.00  0.00     0.013 A 
ATOM      3  C   UNL     1      38.405  18.173  11.804  1.00  0.00     0.120 A 
ATOM      4  C   UNL     1      35.708  18.222  11.157  1.00  0.00     0.021 A 
ATOM      5  N   UNL     1      37.465  18.397  12.761  1.00  0.00    -0.264 NA
ATOM      6  C   UNL     1      36.137  18.425  12.468  1.00  0.00     0.111 A 
ENDROOT
BRANCH   1   7
ATOM      7  C   UNL     1      39.030  17.719   9.415  1.00  0.00     0.073 C 
ATOM      8  O   UNL     1      38.782  16.938   8.458  1.00  0.00    -0.545 OA
ATOM      9  O   UNL     1      40.269  18.347   9.468  1.00  0.00    -0.545 OA
ENDBRANCH   1   7
TORSDOF 1
ENDMDL
MODEL 7
REMARK VINA RESULT:    -3.959      1.823      2.487
REMARK INTER + INTRA:          -4.208
REMARK INTER:                  -4.191
REMARK INTRA:                  -0.016
REMARK UNBOUND:                -0.018
REMARK SMILES O=C([O-])c1cccnc1
REMARK SMILES IDX 4 1 5 2 9 3 6 4 8 5 7 6 2 7 1 8 3 9
REMARK H PARENT
REMARK Flexibility Score: inf
ROOT
ATOM      1  C   UNL     1      36.301  18.162  11.509  1.00  0.00     0.016 A 
ATOM      2  C   UNL     1      37.341  18.144  12.452  1.00  0.00     0.013 A 
ATOM      3  C   UNL     1      36.636  18.220  10.144  1.00  0.00     0.120 A 
ATOM      4  C   UNL     1      38.671  18.182  12.029  1.00  0.00     0.021 A 
ATOM      5  N   UNL     1      37.940  18.258   9.759  1.00  0.00    -0.264 NA
ATOM      6  C   UNL     1      38.955  18.240  10.665  1.00  0.00     0.111 A 
ENDROOT
BRANCH   1   7
ATOM      7  C   UNL     1      34.888  18.120  11.944  1.00  0.00     0.073 C 
ATOM      8  O   UNL     1      34.189  19.168  11.952  1.00  0.00    -0.545 OA
ATOM      9  O   UNL     1      34.312  16.923  12.354  1.00  0.00    -0.545 OA
ENDBRANCH   1   7
TORSDOF 1
ENDMDL
MODEL 8
REMARK VINA RESULT:    -3.956      3.102      4.216
REMARK INTER + INTRA:          -4.205
REMARK INTER:                  -4.189
REMARK INTRA:                  -0.016
REMARK UNBOUND:                -0.018
REMARK SMILES O=C([O-])c1cccnc1
REMARK SMILES IDX 4 1 5 2 9 3 6 4 8 5 7 6 2 7 1 8 3 9
REMARK H PARENT
REMARK Flexibility Score: inf
ROOT
ATOM      1  C   UNL     1      35.945  18.190  11.044  1.00  0.00     0.016 A 
ATOM      2  C   UNL     1      35.013  18.847  11.864  1.00  0.00     0.013 A 
ATOM      3  C   UNL     1      36.058  18.596   9.703  1.00  0.00     0.120 A 
ATOM      4  C   UNL     1      34.227  19.876  11.346  1.00  0.00     0.021 A 
ATOM      5  N   UNL     1      35.279  19.601   9.222  1.00  0.00    -0.264 NA
ATOM      6  C   UNL     1      34.374  20.244  10.008  1.00  0.00     0.111 A 
ENDROOT
BRANCH   1   7
ATOM      7  C   UNL     1      36.785  17.098  11.583  1.00  0.00     0.073 C 
ATOM      8  O   UNL     1      37.940  17.337  12.025  1.00  0.00    -0.545 OA
ATOM      9  O   UNL     1      36.311  15.791  11.607  1.00  0.00    -0.545 OA
ENDBRANCH   1   7
TORSDOF 1
ENDMDL
MODEL 9
REMARK VINA RESULT:    -3.942      8.545      9.725
REMARK INTER + INTRA:          -4.190
REMARK INTER:                  -4.172
REMARK INTRA:                  -0.018
REMARK UNBOUND:                -0.018
REMARK SMILES O=C([O-])c1cccnc1
REMARK SMILES IDX 4 1 5 2 9 3 6 4 8 5 7 6 2 7 1 8 3 9
REMARK H PARENT
REMARK Flexibility Score: inf
ROOT
ATOM      1  C   UNL     1      32.150  13.670  15.141  1.00  0.00     0.016 A 
ATOM      2  C   UNL     1      32.042  12.273  15.042  1.00  0.00     0.013 A 
ATOM      3  C   UNL     1      31.094  14.459  14.651  1.00  0.00     0.120 A 
ATOM      4  C   UNL     1      30.907  11.697  14.470  1.00  0.00     0.021 A 
ATOM      5  N   UNL     1      30.000  13.872  14.097  1.00  0.00    -0.264 NA
ATOM      6  C   UNL     1      29.885  12.521  13.997  1.00  0.00     0.111 A 
ENDROOT
BRANCH   1   7
ATOM      7  C   UNL     1      33.347  14.292  15.747  1.00  0.00     0.073 C 
ATOM      8  O   UNL     1      34.498  14.035  15.302  1.00  0.00    -0.545 OA
ATOM      9  O   UNL     1      33.220  15.169  16.818  1.00  0.00    -0.545 OA
ENDBRANCH   1   7
TORSDOF 1
ENDMDL
