MODEL 1
REMARK VINA RESULT:    -6.166      0.000      0.000
REMARK INTER + INTRA:          -8.460
REMARK INTER:                  -7.788
REMARK INTRA:                  -0.672
REMARK UNBOUND:                -0.672
REMARK SMILES O=C(C=Cc1ccc(O)cc1)c1ccc(O)cc1O
REMARK SMILES IDX 4 1 3 2 5 3 6 4 7 5 8 6 11 7 10 8 9 9 2 11 1 12 12 13 18 14
REMARK SMILES IDX 13 15 17 16 14 17 15 18 19 19 16 21
REMARK H PARENT 9 10 19 20 16 22
REMARK Flexibility Score: inf
ROOT
ATOM      1  C   UNL     1      13.629 -25.391  17.107  1.00  0.00     0.012 C 
ATOM      2  C   UNL     1      14.781 -25.117  16.479  1.00  0.00     0.053 C 
ENDROOT
BRANCH   1   3
ATOM      3  C   UNL     1      12.392 -24.588  16.943  1.00  0.00    -0.025 A 
ATOM      4  C   UNL     1      11.827 -24.319  15.680  1.00  0.00     0.012 A 
ATOM      5  C   UNL     1      10.651 -23.568  15.576  1.00  0.00     0.047 A 
ATOM      6  C   UNL     1      10.020 -23.084  16.728  1.00  0.00     0.115 A 
ATOM      7  C   UNL     1      11.741 -24.110  18.092  1.00  0.00     0.012 A 
ATOM      8  C   UNL     1      10.567 -23.360  17.985  1.00  0.00     0.047 A 
BRANCH   6   9
ATOM      9  O   UNL     1       8.850 -22.334  16.636  1.00  0.00    -0.508 OA
ATOM     10  H   UNL     1       8.530 -21.756  17.405  1.00  0.00     0.293 HD
ENDBRANCH   6   9
ENDBRANCH   1   3
BRANCH   2  11
ATOM     11  C   UNL     1      16.009 -25.915  16.680  1.00  0.00     0.189 C 
ATOM     12  O   UNL     1      16.584 -26.387  15.662  1.00  0.00    -0.289 OA
BRANCH  11  13
ATOM     13  C   UNL     1      16.573 -26.203  18.021  1.00  0.00     0.064 A 
ATOM     14  C   UNL     1      16.300 -27.425  18.671  1.00  0.00     0.130 A 
ATOM     15  C   UNL     1      17.351 -25.235  18.681  1.00  0.00     0.020 A 
ATOM     16  C   UNL     1      16.820 -27.667  19.951  1.00  0.00     0.093 A 
ATOM     17  C   UNL     1      17.867 -25.487  19.955  1.00  0.00     0.047 A 
ATOM     18  C   UNL     1      17.603 -26.704  20.593  1.00  0.00     0.119 A 
BRANCH  14  19
ATOM     19  O   UNL     1      15.529 -28.400  18.040  1.00  0.00    -0.507 OA
ATOM     20  H   UNL     1      14.623 -28.185  17.639  1.00  0.00     0.293 HD
ENDBRANCH  14  19
BRANCH  18  21
ATOM     21  O   UNL     1      18.110 -26.965  21.864  1.00  0.00    -0.508 OA
ATOM     22  H   UNL     1      17.998 -26.305  22.624  1.00  0.00     0.293 HD
ENDBRANCH  18  21
ENDBRANCH  11  13
ENDBRANCH   2  11
TORSDOF 6
ENDMDL
MODEL 2
REMARK VINA RESULT:    -6.019      3.334      4.784
REMARK INTER + INTRA:          -8.274
REMARK INTER:                  -7.527
REMARK INTRA:                  -0.748
REMARK UNBOUND:                -0.672
REMARK SMILES O=C(C=Cc1ccc(O)cc1)c1ccc(O)cc1O
REMARK SMILES IDX 4 1 3 2 5 3 6 4 7 5 8 6 11 7 10 8 9 9 2 11 1 12 12 13 18 14
REMARK SMILES IDX 13 15 17 16 14 17 15 18 19 19 16 21
REMARK H PARENT 9 10 19 20 16 22
REMARK Flexibility Score: inf
ROOT
ATOM      1  C   UNL     1      11.168 -24.025  15.051  1.00  0.00     0.012 C 
ATOM      2  C   UNL     1      11.924 -23.052  15.582  1.00  0.00     0.053 C 
ENDROOT
BRANCH   1   3
ATOM      3  C   UNL     1      10.195 -23.802  13.954  1.00  0.00    -0.025 A 
ATOM      4  C   UNL     1       9.435 -24.849  13.392  1.00  0.00     0.012 A 
ATOM      5  C   UNL     1       8.519 -24.588  12.368  1.00  0.00     0.047 A 
ATOM      6  C   UNL     1       8.340 -23.281  11.899  1.00  0.00     0.115 A 
ATOM      7  C   UNL     1       9.994 -22.493  13.486  1.00  0.00     0.012 A 
ATOM      8  C   UNL     1       9.078 -22.236  12.462  1.00  0.00     0.047 A 
BRANCH   6   9
ATOM      9  O   UNL     1       7.431 -23.010  10.879  1.00  0.00    -0.508 OA
ATOM     10  H   UNL     1       6.475 -23.346  10.919  1.00  0.00     0.293 HD
ENDBRANCH   6   9
ENDBRANCH   1   3
BRANCH   2  11
ATOM     11  C   UNL     1      12.868 -23.291  16.695  1.00  0.00     0.189 C 
ATOM     12  O   UNL     1      13.929 -22.611  16.729  1.00  0.00    -0.289 OA
BRANCH  11  13
ATOM     13  C   UNL     1      12.631 -24.308  17.747  1.00  0.00     0.064 A 
ATOM     14  C   UNL     1      13.339 -25.528  17.744  1.00  0.00     0.130 A 
ATOM     15  C   UNL     1      11.659 -24.083  18.739  1.00  0.00     0.020 A 
ATOM     16  C   UNL     1      13.081 -26.489  18.733  1.00  0.00     0.093 A 
ATOM     17  C   UNL     1      11.411 -25.046  19.722  1.00  0.00     0.047 A 
ATOM     18  C   UNL     1      12.122 -26.251  19.721  1.00  0.00     0.119 A 
BRANCH  14  19
ATOM     19  O   UNL     1      14.306 -25.778  16.770  1.00  0.00    -0.507 OA
ATOM     20  H   UNL     1      15.108 -26.370  16.957  1.00  0.00     0.293 HD
ENDBRANCH  14  19
BRANCH  18  21
ATOM     21  O   UNL     1      11.882 -27.218  20.695  1.00  0.00    -0.508 OA
ATOM     22  H   UNL     1      12.074 -28.198  20.525  1.00  0.00     0.293 HD
ENDBRANCH  18  21
ENDBRANCH  11  13
ENDBRANCH   2  11
TORSDOF 6
ENDMDL
MODEL 3
REMARK VINA RESULT:    -5.883      0.892      1.597
REMARK INTER + INTRA:          -8.104
REMARK INTER:                  -7.632
REMARK INTRA:                  -0.471
REMARK UNBOUND:                -0.672
REMARK SMILES O=C(C=Cc1ccc(O)cc1)c1ccc(O)cc1O
REMARK SMILES IDX 4 1 3 2 5 3 6 4 7 5 8 6 11 7 10 8 9 9 2 11 1 12 12 13 18 14
REMARK SMILES IDX 13 15 17 16 14 17 15 18 19 19 16 21
REMARK H PARENT 9 10 19 20 16 22
REMARK Flexibility Score: inf
ROOT
ATOM      1  C   UNL     1      13.236 -25.463  17.208  1.00  0.00     0.012 C 
ATOM      2  C   UNL     1      14.110 -25.747  16.231  1.00  0.00     0.053 C 
ENDROOT
BRANCH   1   3
ATOM      3  C   UNL     1      12.060 -24.577  17.025  1.00  0.00    -0.025 A 
ATOM      4  C   UNL     1      11.422 -24.413  15.778  1.00  0.00     0.012 A 
ATOM      5  C   UNL     1      10.307 -23.577  15.658  1.00  0.00     0.047 A 
ATOM      6  C   UNL     1       9.807 -22.903  16.778  1.00  0.00     0.115 A 
ATOM      7  C   UNL     1      11.539 -23.908  18.145  1.00  0.00     0.012 A 
ATOM      8  C   UNL     1      10.425 -23.073  18.021  1.00  0.00     0.047 A 
BRANCH   6   9
ATOM      9  O   UNL     1       8.698 -22.067  16.669  1.00  0.00    -0.508 OA
ATOM     10  H   UNL     1       8.730 -21.214  16.122  1.00  0.00     0.293 HD
ENDBRANCH   6   9
ENDBRANCH   1   3
BRANCH   2  11
ATOM     11  C   UNL     1      15.292 -26.609  16.444  1.00  0.00     0.189 C 
ATOM     12  O   UNL     1      15.698 -27.308  15.476  1.00  0.00    -0.289 OA
BRANCH  11  13
ATOM     13  C   UNL     1      15.996 -26.705  17.746  1.00  0.00     0.064 A 
ATOM     14  C   UNL     1      16.728 -25.611  18.252  1.00  0.00     0.130 A 
ATOM     15  C   UNL     1      15.976 -27.910  18.470  1.00  0.00     0.020 A 
ATOM     16  C   UNL     1      17.409 -25.730  19.473  1.00  0.00     0.093 A 
ATOM     17  C   UNL     1      16.656 -28.018  19.687  1.00  0.00     0.047 A 
ATOM     18  C   UNL     1      17.374 -26.928  20.191  1.00  0.00     0.119 A 
BRANCH  14  19
ATOM     19  O   UNL     1      16.765 -24.405  17.552  1.00  0.00    -0.507 OA
ATOM     20  H   UNL     1      15.925 -23.986  17.168  1.00  0.00     0.293 HD
ENDBRANCH  14  19
BRANCH  18  21
ATOM     21  O   UNL     1      18.056 -27.025  21.401  1.00  0.00    -0.508 OA
ATOM     22  H   UNL     1      17.569 -27.214  22.270  1.00  0.00     0.293 HD
ENDBRANCH  18  21
ENDBRANCH  11  13
ENDBRANCH   2  11
TORSDOF 6
ENDMDL
MODEL 4
REMARK VINA RESULT:    -5.852     15.722     17.450
REMARK INTER + INTRA:          -8.064
REMARK INTER:                  -7.556
REMARK INTRA:                  -0.508
REMARK UNBOUND:                -0.672
REMARK SMILES O=C(C=Cc1ccc(O)cc1)c1ccc(O)cc1O
REMARK SMILES IDX 4 1 3 2 5 3 6 4 7 5 8 6 11 7 10 8 9 9 2 11 1 12 12 13 18 14
REMARK SMILES IDX 13 15 17 16 14 17 15 18 19 19 16 21
REMARK H PARENT 9 10 19 20 16 22
REMARK Flexibility Score: inf
ROOT
ATOM      1  C   UNL     1       2.226 -14.342  16.798  1.00  0.00     0.012 C 
ATOM      2  C   UNL     1       1.029 -14.562  16.234  1.00  0.00     0.053 C 
ENDROOT
BRANCH   1   3
ATOM      3  C   UNL     1       2.405 -13.942  18.215  1.00  0.00    -0.025 A 
ATOM      4  C   UNL     1       1.319 -13.601  19.048  1.00  0.00     0.012 A 
ATOM      5  C   UNL     1       1.537 -13.243  20.383  1.00  0.00     0.047 A 
ATOM      6  C   UNL     1       2.835 -13.231  20.907  1.00  0.00     0.115 A 
ATOM      7  C   UNL     1       3.701 -13.942  18.757  1.00  0.00     0.012 A 
ATOM      8  C   UNL     1       3.914 -13.584  20.091  1.00  0.00     0.047 A 
BRANCH   6   9
ATOM      9  O   UNL     1       3.063 -12.876  22.234  1.00  0.00    -0.508 OA
ATOM     10  H   UNL     1       3.013 -11.910  22.540  1.00  0.00     0.293 HD
ENDBRANCH   6   9
ENDBRANCH   1   3
BRANCH   2  11
ATOM     11  C   UNL     1       0.873 -14.932  14.811  1.00  0.00     0.189 C 
ATOM     12  O   UNL     1      -0.144 -15.601  14.481  1.00  0.00    -0.289 OA
BRANCH  11  13
ATOM     13  C   UNL     1       1.868 -14.574  13.772  1.00  0.00     0.064 A 
ATOM     14  C   UNL     1       3.013 -15.371  13.566  1.00  0.00     0.130 A 
ATOM     15  C   UNL     1       1.700 -13.405  13.008  1.00  0.00     0.020 A 
ATOM     16  C   UNL     1       3.958 -15.002  12.596  1.00  0.00     0.093 A 
ATOM     17  C   UNL     1       2.645 -13.047  12.042  1.00  0.00     0.047 A 
ATOM     18  C   UNL     1       3.776 -13.844  11.834  1.00  0.00     0.119 A 
BRANCH  14  19
ATOM     19  O   UNL     1       3.205 -16.535  14.311  1.00  0.00    -0.507 OA
ATOM     20  H   UNL     1       3.118 -17.454  13.893  1.00  0.00     0.293 HD
ENDBRANCH  14  19
BRANCH  18  21
ATOM     21  O   UNL     1       4.724 -13.496  10.875  1.00  0.00    -0.508 OA
ATOM     22  H   UNL     1       4.507 -13.513   9.885  1.00  0.00     0.293 HD
ENDBRANCH  18  21
ENDBRANCH  11  13
ENDBRANCH   2  11
TORSDOF 6
ENDMDL
MODEL 5
REMARK VINA RESULT:    -5.799      2.729      4.255
REMARK INTER + INTRA:          -7.997
REMARK INTER:                  -7.345
REMARK INTRA:                  -0.652
REMARK UNBOUND:                -0.672
REMARK SMILES O=C(C=Cc1ccc(O)cc1)c1ccc(O)cc1O
REMARK SMILES IDX 4 1 3 2 5 3 6 4 7 5 8 6 11 7 10 8 9 9 2 11 1 12 12 13 18 14
REMARK SMILES IDX 13 15 17 16 14 17 15 18 19 19 16 21
REMARK H PARENT 9 10 19 20 16 22
REMARK Flexibility Score: inf
ROOT
ATOM      1  C   UNL     1      11.145 -23.601  15.349  1.00  0.00     0.012 C 
ATOM      2  C   UNL     1      11.327 -24.640  16.177  1.00  0.00     0.053 C 
ENDROOT
BRANCH   1   3
ATOM      3  C   UNL     1      10.227 -23.630  14.184  1.00  0.00    -0.025 A 
ATOM      4  C   UNL     1       9.986 -22.495  13.382  1.00  0.00     0.012 A 
ATOM      5  C   UNL     1       9.122 -22.575  12.284  1.00  0.00     0.047 A 
ATOM      6  C   UNL     1       8.496 -23.787  11.967  1.00  0.00     0.115 A 
ATOM      7  C   UNL     1       9.606 -24.843  13.845  1.00  0.00     0.012 A 
ATOM      8  C   UNL     1       8.743 -24.919  12.748  1.00  0.00     0.047 A 
BRANCH   6   9
ATOM      9  O   UNL     1       7.633 -23.877  10.877  1.00  0.00    -0.508 OA
ATOM     10  H   UNL     1       7.364 -23.056  10.346  1.00  0.00     0.293 HD
ENDBRANCH   6   9
ENDBRANCH   1   3
BRANCH   2  11
ATOM     11  C   UNL     1      12.269 -24.598  17.315  1.00  0.00     0.189 C 
ATOM     12  O   UNL     1      12.148 -23.663  18.152  1.00  0.00    -0.289 OA
BRANCH  11  13
ATOM     13  C   UNL     1      13.358 -25.588  17.496  1.00  0.00     0.064 A 
ATOM     14  C   UNL     1      13.641 -26.124  18.770  1.00  0.00     0.130 A 
ATOM     15  C   UNL     1      14.153 -25.970  16.400  1.00  0.00     0.020 A 
ATOM     16  C   UNL     1      14.693 -27.040  18.926  1.00  0.00     0.093 A 
ATOM     17  C   UNL     1      15.197 -26.884  16.565  1.00  0.00     0.047 A 
ATOM     18  C   UNL     1      15.470 -27.422  17.828  1.00  0.00     0.119 A 
BRANCH  14  19
ATOM     19  O   UNL     1      12.870 -25.761  19.874  1.00  0.00    -0.507 OA
ATOM     20  H   UNL     1      11.858 -25.725  19.826  1.00  0.00     0.293 HD
ENDBRANCH  14  19
BRANCH  18  21
ATOM     21  O   UNL     1      16.508 -28.332  18.004  1.00  0.00    -0.508 OA
ATOM     22  H   UNL     1      16.853 -28.897  17.236  1.00  0.00     0.293 HD
ENDBRANCH  18  21
ENDBRANCH  11  13
ENDBRANCH   2  11
TORSDOF 6
ENDMDL
MODEL 6
REMARK VINA RESULT:    -5.767      2.044      7.225
REMARK INTER + INTRA:          -7.956
REMARK INTER:                  -7.279
REMARK INTRA:                  -0.677
REMARK UNBOUND:                -0.672
REMARK SMILES O=C(C=Cc1ccc(O)cc1)c1ccc(O)cc1O
REMARK SMILES IDX 4 1 3 2 5 3 6 4 7 5 8 6 11 7 10 8 9 9 2 11 1 12 12 13 18 14
REMARK SMILES IDX 13 15 17 16 14 17 15 18 19 19 16 21
REMARK H PARENT 9 10 19 20 16 22
REMARK Flexibility Score: inf
ROOT
ATOM      1  C   UNL     1      14.260 -25.040  16.494  1.00  0.00     0.012 C 
ATOM      2  C   UNL     1      14.550 -23.827  16.000  1.00  0.00     0.053 C 
ENDROOT
BRANCH   1   3
ATOM      3  C   UNL     1      15.286 -25.993  16.984  1.00  0.00    -0.025 A 
ATOM      4  C   UNL     1      16.502 -26.213  16.304  1.00  0.00     0.012 A 
ATOM      5  C   UNL     1      17.444 -27.112  16.813  1.00  0.00     0.047 A 
ATOM      6  C   UNL     1      17.193 -27.796  18.009  1.00  0.00     0.115 A 
ATOM      7  C   UNL     1      15.053 -26.673  18.191  1.00  0.00     0.012 A 
ATOM      8  C   UNL     1      15.997 -27.571  18.696  1.00  0.00     0.047 A 
BRANCH   6   9
ATOM      9  O   UNL     1      18.125 -28.694  18.523  1.00  0.00    -0.508 OA
ATOM     10  H   UNL     1      17.847 -29.606  18.867  1.00  0.00     0.293 HD
ENDBRANCH   6   9
ENDBRANCH   1   3
BRANCH   2  11
ATOM     11  C   UNL     1      13.513 -22.904  15.490  1.00  0.00     0.189 C 
ATOM     12  O   UNL     1      13.827 -22.116  14.558  1.00  0.00    -0.289 OA
BRANCH  11  13
ATOM     13  C   UNL     1      12.139 -22.851  16.045  1.00  0.00     0.064 A 
ATOM     14  C   UNL     1      11.016 -23.006  15.206  1.00  0.00     0.130 A 
ATOM     15  C   UNL     1      11.941 -22.598  17.414  1.00  0.00     0.020 A 
ATOM     16  C   UNL     1       9.723 -22.926  15.745  1.00  0.00     0.093 A 
ATOM     17  C   UNL     1      10.649 -22.522  17.943  1.00  0.00     0.047 A 
ATOM     18  C   UNL     1       9.537 -22.686  17.110  1.00  0.00     0.119 A 
BRANCH  14  19
ATOM     19  O   UNL     1      11.184 -23.256  13.844  1.00  0.00    -0.507 OA
ATOM     20  H   UNL     1      11.856 -22.739  13.287  1.00  0.00     0.293 HD
ENDBRANCH  14  19
BRANCH  18  21
ATOM     21  O   UNL     1       8.246 -22.611  17.625  1.00  0.00    -0.508 OA
ATOM     22  H   UNL     1       7.649 -23.429  17.679  1.00  0.00     0.293 HD
ENDBRANCH  18  21
ENDBRANCH  11  13
ENDBRANCH   2  11
TORSDOF 6
ENDMDL
MODEL 7
REMARK VINA RESULT:    -5.759      4.037      7.372
REMARK INTER + INTRA:          -7.946
REMARK INTER:                  -7.274
REMARK INTRA:                  -0.672
REMARK UNBOUND:                -0.672
REMARK SMILES O=C(C=Cc1ccc(O)cc1)c1ccc(O)cc1O
REMARK SMILES IDX 4 1 3 2 5 3 6 4 7 5 8 6 11 7 10 8 9 9 2 11 1 12 12 13 18 14
REMARK SMILES IDX 13 15 17 16 14 17 15 18 19 19 16 21
REMARK H PARENT 9 10 19 20 16 22
REMARK Flexibility Score: inf
ROOT
ATOM      1  C   UNL     1      14.066 -24.852  14.674  1.00  0.00     0.012 C 
ATOM      2  C   UNL     1      13.633 -24.664  15.929  1.00  0.00     0.053 C 
ENDROOT
BRANCH   1   3
ATOM      3  C   UNL     1      14.490 -26.169  14.139  1.00  0.00    -0.025 A 
ATOM      4  C   UNL     1      15.828 -26.452  13.797  1.00  0.00     0.012 A 
ATOM      5  C   UNL     1      16.182 -27.714  13.309  1.00  0.00     0.047 A 
ATOM      6  C   UNL     1      15.211 -28.712  13.166  1.00  0.00     0.115 A 
ATOM      7  C   UNL     1      13.528 -27.184  14.006  1.00  0.00     0.012 A 
ATOM      8  C   UNL     1      13.885 -28.444  13.518  1.00  0.00     0.047 A 
BRANCH   6   9
ATOM      9  O   UNL     1      15.553 -29.972  12.680  1.00  0.00    -0.508 OA
ATOM     10  H   UNL     1      15.023 -30.799  12.933  1.00  0.00     0.293 HD
ENDBRANCH   6   9
ENDBRANCH   1   3
BRANCH   2  11
ATOM     11  C   UNL     1      13.243 -23.336  16.449  1.00  0.00     0.189 C 
ATOM     12  O   UNL     1      14.159 -22.532  16.770  1.00  0.00    -0.289 OA
BRANCH  11  13
ATOM     13  C   UNL     1      11.830 -22.927  16.633  1.00  0.00     0.064 A 
ATOM     14  C   UNL     1      11.331 -22.614  17.915  1.00  0.00     0.130 A 
ATOM     15  C   UNL     1      10.957 -22.891  15.530  1.00  0.00     0.020 A 
ATOM     16  C   UNL     1       9.983 -22.255  18.072  1.00  0.00     0.093 A 
ATOM     17  C   UNL     1       9.617 -22.529  15.697  1.00  0.00     0.047 A 
ATOM     18  C   UNL     1       9.127 -22.210  16.968  1.00  0.00     0.119 A 
BRANCH  14  19
ATOM     19  O   UNL     1      12.174 -22.645  19.025  1.00  0.00    -0.507 OA
ATOM     20  H   UNL     1      13.137 -22.335  18.970  1.00  0.00     0.293 HD
ENDBRANCH  14  19
BRANCH  18  21
ATOM     21  O   UNL     1       7.794 -21.850  17.146  1.00  0.00    -0.508 OA
ATOM     22  H   UNL     1       7.208 -21.587  16.362  1.00  0.00     0.293 HD
ENDBRANCH  18  21
ENDBRANCH  11  13
ENDBRANCH   2  11
TORSDOF 6
ENDMDL
MODEL 8
REMARK VINA RESULT:    -5.622      2.685      3.874
REMARK INTER + INTRA:          -7.773
REMARK INTER:                  -7.046
REMARK INTRA:                  -0.726
REMARK UNBOUND:                -0.672
REMARK SMILES O=C(C=Cc1ccc(O)cc1)c1ccc(O)cc1O
REMARK SMILES IDX 4 1 3 2 5 3 6 4 7 5 8 6 11 7 10 8 9 9 2 11 1 12 12 13 18 14
REMARK SMILES IDX 13 15 17 16 14 17 15 18 19 19 16 21
REMARK H PARENT 9 10 19 20 16 22
REMARK Flexibility Score: inf
ROOT
ATOM      1  C   UNL     1      12.869 -23.412  16.454  1.00  0.00     0.012 C 
ATOM      2  C   UNL     1      13.902 -22.611  16.155  1.00  0.00     0.053 C 
ENDROOT
BRANCH   1   3
ATOM      3  C   UNL     1      11.477 -22.928  16.624  1.00  0.00    -0.025 A 
ATOM      4  C   UNL     1      10.473 -23.156  15.661  1.00  0.00     0.012 A 
ATOM      5  C   UNL     1       9.171 -22.691  15.873  1.00  0.00     0.047 A 
ATOM      6  C   UNL     1       8.850 -22.003  17.050  1.00  0.00     0.115 A 
ATOM      7  C   UNL     1      11.139 -22.250  17.808  1.00  0.00     0.012 A 
ATOM      8  C   UNL     1       9.837 -21.787  18.016  1.00  0.00     0.047 A 
BRANCH   6   9
ATOM      9  O   UNL     1       7.557 -21.535  17.270  1.00  0.00    -0.508 OA
ATOM     10  H   UNL     1       7.344 -20.910  18.039  1.00  0.00     0.293 HD
ENDBRANCH   6   9
ENDBRANCH   1   3
BRANCH   2  11
ATOM     11  C   UNL     1      15.287 -23.111  16.018  1.00  0.00     0.189 C 
ATOM     12  O   UNL     1      16.230 -22.343  16.347  1.00  0.00    -0.289 OA
BRANCH  11  13
ATOM     13  C   UNL     1      15.608 -24.459  15.488  1.00  0.00     0.064 A 
ATOM     14  C   UNL     1      16.145 -25.455  16.330  1.00  0.00     0.130 A 
ATOM     15  C   UNL     1      15.420 -24.743  14.124  1.00  0.00     0.020 A 
ATOM     16  C   UNL     1      16.468 -26.715  15.805  1.00  0.00     0.093 A 
ATOM     17  C   UNL     1      15.742 -26.003  13.610  1.00  0.00     0.047 A 
ATOM     18  C   UNL     1      16.266 -26.992  14.449  1.00  0.00     0.119 A 
BRANCH  14  19
ATOM     19  O   UNL     1      16.344 -25.198  17.687  1.00  0.00    -0.507 OA
ATOM     20  H   UNL     1      16.252 -25.927  18.385  1.00  0.00     0.293 HD
ENDBRANCH  14  19
BRANCH  18  21
ATOM     21  O   UNL     1      16.592 -28.250  13.948  1.00  0.00    -0.508 OA
ATOM     22  H   UNL     1      15.909 -28.817  13.459  1.00  0.00     0.293 HD
ENDBRANCH  18  21
ENDBRANCH  11  13
ENDBRANCH   2  11
TORSDOF 6
ENDMDL
MODEL 9
REMARK VINA RESULT:    -5.572      2.884      7.774
REMARK INTER + INTRA:          -7.710
REMARK INTER:                  -7.039
REMARK INTRA:                  -0.671
REMARK UNBOUND:                -0.672
REMARK SMILES O=C(C=Cc1ccc(O)cc1)c1ccc(O)cc1O
REMARK SMILES IDX 4 1 3 2 5 3 6 4 7 5 8 6 11 7 10 8 9 9 2 11 1 12 12 13 18 14
REMARK SMILES IDX 13 15 17 16 14 17 15 18 19 19 16 21
REMARK H PARENT 9 10 19 20 16 22
REMARK Flexibility Score: inf
ROOT
ATOM      1  C   UNL     1      14.377 -24.656  15.601  1.00  0.00     0.012 C 
ATOM      2  C   UNL     1      14.183 -23.335  15.733  1.00  0.00     0.053 C 
ENDROOT
BRANCH   1   3
ATOM      3  C   UNL     1      14.885 -25.524  16.690  1.00  0.00    -0.025 A 
ATOM      4  C   UNL     1      16.242 -25.895  16.792  1.00  0.00     0.012 A 
ATOM      5  C   UNL     1      16.677 -26.705  17.846  1.00  0.00     0.047 A 
ATOM      6  C   UNL     1      15.769 -27.148  18.817  1.00  0.00     0.115 A 
ATOM      7  C   UNL     1      13.988 -25.961  17.679  1.00  0.00     0.012 A 
ATOM      8  C   UNL     1      14.426 -26.771  18.731  1.00  0.00     0.047 A 
BRANCH   6   9
ATOM      9  O   UNL     1      16.192 -27.956  19.869  1.00  0.00    -0.508 OA
ATOM     10  H   UNL     1      16.371 -28.945  19.739  1.00  0.00     0.293 HD
ENDBRANCH   6   9
ENDBRANCH   1   3
BRANCH   2  11
ATOM     11  C   UNL     1      13.702 -22.484  14.624  1.00  0.00     0.189 C 
ATOM     12  O   UNL     1      14.469 -21.579  14.196  1.00  0.00    -0.289 OA
BRANCH  11  13
ATOM     13  C   UNL     1      12.356 -22.633  14.019  1.00  0.00     0.064 A 
ATOM     14  C   UNL     1      12.168 -22.471  12.631  1.00  0.00     0.130 A 
ATOM     15  C   UNL     1      11.241 -22.893  14.836  1.00  0.00     0.020 A 
ATOM     16  C   UNL     1      10.883 -22.589  12.081  1.00  0.00     0.093 A 
ATOM     17  C   UNL     1       9.965 -23.011  14.279  1.00  0.00     0.047 A 
ATOM     18  C   UNL     1       9.783 -22.860  12.900  1.00  0.00     0.119 A 
BRANCH  14  19
ATOM     19  O   UNL     1      13.257 -22.210  11.798  1.00  0.00    -0.507 OA
ATOM     20  H   UNL     1      14.178 -22.584  11.995  1.00  0.00     0.293 HD
ENDBRANCH  14  19
BRANCH  18  21
ATOM     21  O   UNL     1       8.516 -22.974  12.333  1.00  0.00    -0.508 OA
ATOM     22  H   UNL     1       8.245 -23.795  11.804  1.00  0.00     0.293 HD
ENDBRANCH  18  21
ENDBRANCH  11  13
ENDBRANCH   2  11
TORSDOF 6
ENDMDL
