MODEL 1
REMARK VINA RESULT:    -3.217      0.000      0.000
REMARK INTER + INTRA:          -4.349
REMARK INTER:                  -4.158
REMARK INTRA:                  -0.191
REMARK UNBOUND:                -0.191
REMARK SMILES CCCCCC(=O)OC
REMARK SMILES IDX 4 1 3 2 2 3 1 4 5 5 6 6 7 7 8 8 9 9
REMARK H PARENT
REMARK Flexibility Score: inf
ROOT
ATOM      1  C   UNL     1      24.356  63.860 107.040  1.00  0.00     0.012 C 
ENDROOT
BRANCH   1   2
ATOM      2  C   UNL     1      24.425  65.074 106.100  1.00  0.00     0.000 C 
BRANCH   2   3
ATOM      3  C   UNL     1      24.121  64.710 104.640  1.00  0.00    -0.003 C 
ATOM      4  C   UNL     1      24.657  63.323 104.296  1.00  0.00     0.004 C 
ENDBRANCH   2   3
ENDBRANCH   1   2
BRANCH   1   5
ATOM      5  C   UNL     1      24.063  64.256 108.492  1.00  0.00     0.123 C 
BRANCH   5   6
ATOM      6  C   UNL     1      22.594  64.463 108.688  1.00  0.00     0.305 C 
ATOM      7  O   UNL     1      21.788  63.531 108.421  1.00  0.00    -0.252 OA
BRANCH   6   8
ATOM      8  O   UNL     1      22.128  65.706 109.125  1.00  0.00    -0.469 OA
ATOM      9  C   UNL     1      22.788  66.926 108.806  1.00  0.00     0.282 C 
ENDBRANCH   6   8
ENDBRANCH   5   6
ENDBRANCH   1   5
TORSDOF 5
ENDMDL
MODEL 2
REMARK VINA RESULT:    -3.106      2.462      4.559
REMARK INTER + INTRA:          -4.205
REMARK INTER:                  -4.092
REMARK INTRA:                  -0.113
REMARK UNBOUND:                -0.191
REMARK SMILES CCCCCC(=O)OC
REMARK SMILES IDX 4 1 3 2 2 3 1 4 5 5 6 6 7 7 8 8 9 9
REMARK H PARENT
REMARK Flexibility Score: inf
ROOT
ATOM      1  C   UNL     1      23.485  65.889 107.718  1.00  0.00     0.012 C 
ENDROOT
BRANCH   1   2
ATOM      2  C   UNL     1      22.669  65.376 108.916  1.00  0.00     0.000 C 
BRANCH   2   3
ATOM      3  C   UNL     1      22.171  63.937 108.719  1.00  0.00    -0.003 C 
ATOM      4  C   UNL     1      20.706  63.802 109.125  1.00  0.00     0.004 C 
ENDBRANCH   2   3
ENDBRANCH   1   2
BRANCH   1   5
ATOM      5  C   UNL     1      24.365  64.798 107.095  1.00  0.00     0.123 C 
BRANCH   5   6
ATOM      6  C   UNL     1      24.657  65.120 105.663  1.00  0.00     0.305 C 
ATOM      7  O   UNL     1      25.440  66.067 105.380  1.00  0.00    -0.252 OA
BRANCH   6   8
ATOM      8  O   UNL     1      24.021  64.393 104.653  1.00  0.00    -0.469 OA
ATOM      9  C   UNL     1      24.660  63.327 103.959  1.00  0.00     0.282 C 
ENDBRANCH   6   8
ENDBRANCH   5   6
ENDBRANCH   1   5
TORSDOF 5
ENDMDL
MODEL 3
REMARK VINA RESULT:    -3.015      2.466      4.120
REMARK INTER + INTRA:          -4.088
REMARK INTER:                  -3.857
REMARK INTRA:                  -0.231
REMARK UNBOUND:                -0.191
REMARK SMILES CCCCCC(=O)OC
REMARK SMILES IDX 4 1 3 2 2 3 1 4 5 5 6 6 7 7 8 8 9 9
REMARK H PARENT
REMARK Flexibility Score: inf
ROOT
ATOM      1  C   UNL     1      23.433  63.176 107.223  1.00  0.00     0.012 C 
ENDROOT
BRANCH   1   2
ATOM      2  C   UNL     1      23.808  63.858 108.548  1.00  0.00     0.000 C 
BRANCH   2   3
ATOM      3  C   UNL     1      22.764  64.889 108.999  1.00  0.00    -0.003 C 
ATOM      4  C   UNL     1      23.155  66.297 108.560  1.00  0.00     0.004 C 
ENDBRANCH   2   3
ENDBRANCH   1   2
BRANCH   1   5
ATOM      5  C   UNL     1      24.652  62.902 106.334  1.00  0.00     0.123 C 
BRANCH   5   6
ATOM      6  C   UNL     1      24.498  63.588 105.014  1.00  0.00     0.305 C 
ATOM      7  O   UNL     1      24.690  62.944 103.947  1.00  0.00    -0.252 OA
BRANCH   6   8
ATOM      8  O   UNL     1      24.186  64.950 104.980  1.00  0.00    -0.469 OA
ATOM      9  C   UNL     1      25.103  65.956 105.394  1.00  0.00     0.282 C 
ENDBRANCH   6   8
ENDBRANCH   5   6
ENDBRANCH   1   5
TORSDOF 5
ENDMDL
MODEL 4
REMARK VINA RESULT:    -2.798      1.395      2.049
REMARK INTER + INTRA:          -3.808
REMARK INTER:                  -4.007
REMARK INTRA:                   0.200
REMARK UNBOUND:                -0.191
REMARK SMILES CCCCCC(=O)OC
REMARK SMILES IDX 4 1 3 2 2 3 1 4 5 5 6 6 7 7 8 8 9 9
REMARK H PARENT
REMARK Flexibility Score: inf
ROOT
ATOM      1  C   UNL     1      24.121  65.494 107.032  1.00  0.00     0.012 C 
ENDROOT
BRANCH   1   2
ATOM      2  C   UNL     1      24.211  64.192 106.219  1.00  0.00     0.000 C 
BRANCH   2   3
ATOM      3  C   UNL     1      24.345  64.446 104.710  1.00  0.00    -0.003 C 
ATOM      4  C   UNL     1      24.751  63.173 103.973  1.00  0.00     0.004 C 
ENDBRANCH   2   3
ENDBRANCH   1   2
BRANCH   1   5
ATOM      5  C   UNL     1      23.763  65.246 108.502  1.00  0.00     0.123 C 
BRANCH   5   6
ATOM      6  C   UNL     1      23.831  63.784 108.815  1.00  0.00     0.305 C 
ATOM      7  O   UNL     1      24.948  63.238 109.022  1.00  0.00    -0.252 OA
BRANCH   6   8
ATOM      8  O   UNL     1      22.654  63.031 108.831  1.00  0.00    -0.469 OA
ATOM      9  C   UNL     1      21.364  63.627 108.913  1.00  0.00     0.282 C 
ENDBRANCH   6   8
ENDBRANCH   5   6
ENDBRANCH   1   5
TORSDOF 5
ENDMDL
MODEL 5
REMARK VINA RESULT:    -2.777     16.217     17.430
REMARK INTER + INTRA:          -3.781
REMARK INTER:                  -3.643
REMARK INTRA:                  -0.137
REMARK UNBOUND:                -0.191
REMARK SMILES CCCCCC(=O)OC
REMARK SMILES IDX 4 1 3 2 2 3 1 4 5 5 6 6 7 7 8 8 9 9
REMARK H PARENT
REMARK Flexibility Score: inf
ROOT
ATOM      1  C   UNL     1      20.226  78.084  98.982  1.00  0.00     0.012 C 
ENDROOT
BRANCH   1   2
ATOM      2  C   UNL     1      20.195  77.610 100.444  1.00  0.00     0.000 C 
BRANCH   2   3
ATOM      3  C   UNL     1      19.919  78.754 101.431  1.00  0.00    -0.003 C 
ATOM      4  C   UNL     1      20.723  78.577 102.716  1.00  0.00     0.004 C 
ENDBRANCH   2   3
ENDBRANCH   1   2
BRANCH   1   5
ATOM      5  C   UNL     1      20.588  79.569  98.852  1.00  0.00     0.123 C 
BRANCH   5   6
ATOM      6  C   UNL     1      21.184  79.843  97.507  1.00  0.00     0.305 C 
ATOM      7  O   UNL     1      20.674  79.324  96.477  1.00  0.00    -0.252 OA
BRANCH   6   8
ATOM      8  O   UNL     1      22.330  80.638  97.413  1.00  0.00    -0.469 OA
ATOM      9  C   UNL     1      22.927  81.256  98.547  1.00  0.00     0.282 C 
ENDBRANCH   6   8
ENDBRANCH   5   6
ENDBRANCH   1   5
TORSDOF 5
ENDMDL
MODEL 6
REMARK VINA RESULT:    -2.751     16.550     17.774
REMARK INTER + INTRA:          -3.747
REMARK INTER:                  -3.554
REMARK INTRA:                  -0.192
REMARK UNBOUND:                -0.191
REMARK SMILES CCCCCC(=O)OC
REMARK SMILES IDX 4 1 3 2 2 3 1 4 5 5 6 6 7 7 8 8 9 9
REMARK H PARENT
REMARK Flexibility Score: inf
ROOT
ATOM      1  C   UNL     1      20.879  80.318 100.426  1.00  0.00     0.012 C 
ENDROOT
BRANCH   1   2
ATOM      2  C   UNL     1      21.282  79.557 101.699  1.00  0.00     0.000 C 
BRANCH   2   3
ATOM      3  C   UNL     1      20.724  78.127 101.735  1.00  0.00    -0.003 C 
ATOM      4  C   UNL     1      20.063  77.761 100.409  1.00  0.00     0.004 C 
ENDBRANCH   2   3
ENDBRANCH   1   2
BRANCH   1   5
ATOM      5  C   UNL     1      22.069  81.012  99.752  1.00  0.00     0.123 C 
BRANCH   5   6
ATOM      6  C   UNL     1      22.101  80.688  98.291  1.00  0.00     0.305 C 
ATOM      7  O   UNL     1      21.375  79.761  97.839  1.00  0.00    -0.252 OA
BRANCH   6   8
ATOM      8  O   UNL     1      22.969  81.390  97.451  1.00  0.00    -0.469 OA
ATOM      9  C   UNL     1      24.303  81.714  97.827  1.00  0.00     0.282 C 
ENDBRANCH   6   8
ENDBRANCH   5   6
ENDBRANCH   1   5
TORSDOF 5
ENDMDL
MODEL 7
REMARK VINA RESULT:    -2.743     15.391     17.124
REMARK INTER + INTRA:          -3.736
REMARK INTER:                  -3.663
REMARK INTRA:                  -0.073
REMARK UNBOUND:                -0.191
REMARK SMILES CCCCCC(=O)OC
REMARK SMILES IDX 4 1 3 2 2 3 1 4 5 5 6 6 7 7 8 8 9 9
REMARK H PARENT
REMARK Flexibility Score: inf
ROOT
ATOM      1  C   UNL     1      23.183  66.121  89.949  1.00  0.00     0.012 C 
ENDROOT
BRANCH   1   2
ATOM      2  C   UNL     1      23.729  65.142  88.897  1.00  0.00     0.000 C 
BRANCH   2   3
ATOM      3  C   UNL     1      25.263  65.091  88.875  1.00  0.00    -0.003 C 
ATOM      4  C   UNL     1      25.767  63.651  88.919  1.00  0.00     0.004 C 
ENDBRANCH   2   3
ENDBRANCH   1   2
BRANCH   1   5
ATOM      5  C   UNL     1      21.651  66.151  89.987  1.00  0.00     0.123 C 
BRANCH   5   6
ATOM      6  C   UNL     1      21.175  67.239  90.897  1.00  0.00     0.305 C 
ATOM      7  O   UNL     1      20.287  68.043  90.502  1.00  0.00    -0.252 OA
BRANCH   6   8
ATOM      8  O   UNL     1      21.753  67.378  92.162  1.00  0.00    -0.469 OA
ATOM      9  C   UNL     1      20.996  67.725  93.316  1.00  0.00     0.282 C 
ENDBRANCH   6   8
ENDBRANCH   5   6
ENDBRANCH   1   5
TORSDOF 5
ENDMDL
MODEL 8
REMARK VINA RESULT:    -2.690     15.157     16.133
REMARK INTER + INTRA:          -3.668
REMARK INTER:                  -3.527
REMARK INTRA:                  -0.141
REMARK UNBOUND:                -0.191
REMARK SMILES CCCCCC(=O)OC
REMARK SMILES IDX 4 1 3 2 2 3 1 4 5 5 6 6 7 7 8 8 9 9
REMARK H PARENT
REMARK Flexibility Score: inf
ROOT
ATOM      1  C   UNL     1      36.165  63.379  97.758  1.00  0.00     0.012 C 
ENDROOT
BRANCH   1   2
ATOM      2  C   UNL     1      34.836  63.192  97.010  1.00  0.00     0.000 C 
BRANCH   2   3
ATOM      3  C   UNL     1      34.934  63.573  95.526  1.00  0.00    -0.003 C 
ATOM      4  C   UNL     1      36.182  64.408  95.254  1.00  0.00     0.004 C 
ENDBRANCH   2   3
ENDBRANCH   1   2
BRANCH   1   5
ATOM      5  C   UNL     1      35.966  63.639  99.257  1.00  0.00     0.123 C 
BRANCH   5   6
ATOM      6  C   UNL     1      37.126  64.405  99.810  1.00  0.00     0.305 C 
ATOM      7  O   UNL     1      37.337  64.412 101.053  1.00  0.00    -0.252 OA
BRANCH   6   8
ATOM      8  O   UNL     1      37.939  65.140  98.944  1.00  0.00    -0.469 OA
ATOM      9  C   UNL     1      38.478  66.410  99.293  1.00  0.00     0.282 C 
ENDBRANCH   6   8
ENDBRANCH   5   6
ENDBRANCH   1   5
TORSDOF 5
ENDMDL
MODEL 9
REMARK VINA RESULT:    -2.642     16.016     17.386
REMARK INTER + INTRA:          -3.606
REMARK INTER:                  -3.371
REMARK INTRA:                  -0.236
REMARK UNBOUND:                -0.191
REMARK SMILES CCCCCC(=O)OC
REMARK SMILES IDX 4 1 3 2 2 3 1 4 5 5 6 6 7 7 8 8 9 9
REMARK H PARENT
REMARK Flexibility Score: inf
ROOT
ATOM      1  C   UNL     1      22.053  80.239 101.659  1.00  0.00     0.012 C 
ENDROOT
BRANCH   1   2
ATOM      2  C   UNL     1      20.875  79.753 102.518  1.00  0.00     0.000 C 
BRANCH   2   3
ATOM      3  C   UNL     1      20.651  78.238 102.411  1.00  0.00    -0.003 C 
ATOM      4  C   UNL     1      20.303  77.833 100.982  1.00  0.00     0.004 C 
ENDBRANCH   2   3
ENDBRANCH   1   2
BRANCH   1   5
ATOM      5  C   UNL     1      21.651  81.353 100.684  1.00  0.00     0.123 C 
BRANCH   5   6
ATOM      6  C   UNL     1      21.868  80.911  99.271  1.00  0.00     0.305 C 
ATOM      7  O   UNL     1      22.990  81.087  98.724  1.00  0.00    -0.252 OA
BRANCH   6   8
ATOM      8  O   UNL     1      20.807  80.346  98.558  1.00  0.00    -0.469 OA
ATOM      9  C   UNL     1      21.004  79.402  97.511  1.00  0.00     0.282 C 
ENDBRANCH   6   8
ENDBRANCH   5   6
ENDBRANCH   1   5
TORSDOF 5
ENDMDL
