MODEL 1
REMARK VINA RESULT:    -3.918      0.000      0.000
REMARK INTER + INTRA:          -5.484
REMARK INTER:                  -5.293
REMARK INTRA:                  -0.191
REMARK UNBOUND:                -0.191
REMARK SMILES CCCCCCCC=O
REMARK SMILES IDX 5 1 4 2 3 3 2 4 1 5 6 6 7 7 8 8 9 9
REMARK H PARENT
REMARK Flexibility Score: inf
ROOT
ATOM      1  C   UNL     1      25.186  58.144  -8.409  1.00  0.00     0.000 C 
ENDROOT
BRANCH   1   2
ATOM      2  C   UNL     1      26.122  59.302  -8.789  1.00  0.00     0.000 C 
BRANCH   2   3
ATOM      3  C   UNL     1      27.206  58.879  -9.796  1.00  0.00    -0.000 C 
BRANCH   3   4
ATOM      4  C   UNL     1      28.218  60.000 -10.077  1.00  0.00    -0.003 C 
ATOM      5  C   UNL     1      29.479  59.500 -10.782  1.00  0.00     0.004 C 
ENDBRANCH   3   4
ENDBRANCH   2   3
ENDBRANCH   1   2
BRANCH   1   6
ATOM      6  C   UNL     1      25.782  56.766  -8.734  1.00  0.00     0.008 C 
BRANCH   6   7
ATOM      7  C   UNL     1      25.429  55.746  -7.647  1.00  0.00     0.072 C 
BRANCH   7   8
ATOM      8  C   UNL     1      23.951  55.499  -7.600  1.00  0.00     0.224 C 
ATOM      9  O   UNL     1      23.409  55.186  -6.551  1.00  0.00    -0.303 OA
ENDBRANCH   7   8
ENDBRANCH   6   7
ENDBRANCH   1   6
TORSDOF 6
ENDMDL
MODEL 2
REMARK VINA RESULT:    -3.808      2.656      5.597
REMARK INTER + INTRA:          -5.336
REMARK INTER:                  -5.132
REMARK INTRA:                  -0.204
REMARK UNBOUND:                -0.191
REMARK SMILES CCCCCCCC=O
REMARK SMILES IDX 5 1 4 2 3 3 2 4 1 5 6 6 7 7 8 8 9 9
REMARK H PARENT
REMARK Flexibility Score: inf
ROOT
ATOM      1  C   UNL     1      24.994  57.914  -8.399  1.00  0.00     0.000 C 
ENDROOT
BRANCH   1   2
ATOM      2  C   UNL     1      25.612  56.515  -8.541  1.00  0.00     0.000 C 
BRANCH   2   3
ATOM      3  C   UNL     1      24.617  55.392  -8.199  1.00  0.00    -0.000 C 
BRANCH   3   4
ATOM      4  C   UNL     1      24.033  55.534  -6.785  1.00  0.00    -0.003 C 
ATOM      5  C   UNL     1      22.697  54.810  -6.618  1.00  0.00     0.004 C 
ENDBRANCH   3   4
ENDBRANCH   2   3
ENDBRANCH   1   2
BRANCH   1   6
ATOM      6  C   UNL     1      25.998  59.040  -8.692  1.00  0.00     0.008 C 
BRANCH   6   7
ATOM      7  C   UNL     1      26.940  58.650  -9.835  1.00  0.00     0.072 C 
BRANCH   7   8
ATOM      8  C   UNL     1      28.060  59.638  -9.970  1.00  0.00     0.224 C 
ATOM      9  O   UNL     1      28.184  60.547  -9.165  1.00  0.00    -0.303 OA
ENDBRANCH   7   8
ENDBRANCH   6   7
ENDBRANCH   1   6
TORSDOF 6
ENDMDL
MODEL 3
REMARK VINA RESULT:    -3.595      3.152      5.789
REMARK INTER + INTRA:          -5.047
REMARK INTER:                  -4.933
REMARK INTRA:                  -0.114
REMARK UNBOUND:                -0.191
REMARK SMILES CCCCCCCC=O
REMARK SMILES IDX 5 1 4 2 3 3 2 4 1 5 6 6 7 7 8 8 9 9
REMARK H PARENT
REMARK Flexibility Score: inf
ROOT
ATOM      1  C   UNL     1      26.941  58.551  -9.672  1.00  0.00     0.000 C 
ENDROOT
BRANCH   1   2
ATOM      2  C   UNL     1      25.832  58.155  -8.684  1.00  0.00     0.000 C 
BRANCH   2   3
ATOM      3  C   UNL     1      25.486  56.657  -8.752  1.00  0.00    -0.000 C 
BRANCH   3   4
ATOM      4  C   UNL     1      25.211  56.053  -7.366  1.00  0.00    -0.003 C 
ATOM      5  C   UNL     1      23.832  55.402  -7.266  1.00  0.00     0.004 C 
ENDBRANCH   3   4
ENDBRANCH   2   3
ENDBRANCH   1   2
BRANCH   1   6
ATOM      6  C   UNL     1      27.469  59.974  -9.435  1.00  0.00     0.008 C 
BRANCH   6   7
ATOM      7  C   UNL     1      28.996  60.016  -9.541  1.00  0.00     0.072 C 
BRANCH   7   8
ATOM      8  C   UNL     1      29.446  59.738 -10.944  1.00  0.00     0.224 C 
ATOM      9  O   UNL     1      30.452  59.076 -11.152  1.00  0.00    -0.303 OA
ENDBRANCH   7   8
ENDBRANCH   6   7
ENDBRANCH   1   6
TORSDOF 6
ENDMDL
MODEL 4
REMARK VINA RESULT:    -3.510     18.147     19.529
REMARK INTER + INTRA:          -4.933
REMARK INTER:                  -4.493
REMARK INTRA:                  -0.440
REMARK UNBOUND:                -0.191
REMARK SMILES CCCCCCCC=O
REMARK SMILES IDX 5 1 4 2 3 3 2 4 1 5 6 6 7 7 8 8 9 9
REMARK H PARENT
REMARK Flexibility Score: inf
ROOT
ATOM      1  C   UNL     1      17.781  42.534   1.858  1.00  0.00     0.000 C 
ENDROOT
BRANCH   1   2
ATOM      2  C   UNL     1      16.279  42.812   1.688  1.00  0.00     0.000 C 
BRANCH   2   3
ATOM      3  C   UNL     1      15.902  44.259   2.052  1.00  0.00    -0.000 C 
BRANCH   3   4
ATOM      4  C   UNL     1      15.352  45.044   0.850  1.00  0.00    -0.003 C 
ATOM      5  C   UNL     1      16.426  45.367  -0.189  1.00  0.00     0.004 C 
ENDBRANCH   3   4
ENDBRANCH   2   3
ENDBRANCH   1   2
BRANCH   1   6
ATOM      6  C   UNL     1      18.530  43.698   2.525  1.00  0.00     0.008 C 
BRANCH   6   7
ATOM      7  C   UNL     1      19.889  43.928   1.858  1.00  0.00     0.072 C 
BRANCH   7   8
ATOM      8  C   UNL     1      20.191  42.847   0.864  1.00  0.00     0.224 C 
ATOM      9  O   UNL     1      21.329  42.422   0.739  1.00  0.00    -0.303 OA
ENDBRANCH   7   8
ENDBRANCH   6   7
ENDBRANCH   1   6
TORSDOF 6
ENDMDL
MODEL 5
REMARK VINA RESULT:    -3.465     17.331     19.162
REMARK INTER + INTRA:          -4.872
REMARK INTER:                  -4.390
REMARK INTRA:                  -0.481
REMARK UNBOUND:                -0.191
REMARK SMILES CCCCCCCC=O
REMARK SMILES IDX 5 1 4 2 3 3 2 4 1 5 6 6 7 7 8 8 9 9
REMARK H PARENT
REMARK Flexibility Score: inf
ROOT
ATOM      1  C   UNL     1      16.275  42.853   1.698  1.00  0.00     0.000 C 
ENDROOT
BRANCH   1   2
ATOM      2  C   UNL     1      17.777  42.531   1.732  1.00  0.00     0.000 C 
BRANCH   2   3
ATOM      3  C   UNL     1      18.591  43.591   2.494  1.00  0.00    -0.000 C 
BRANCH   3   4
ATOM      4  C   UNL     1      19.812  44.079   1.699  1.00  0.00    -0.003 C 
ATOM      5  C   UNL     1      19.428  44.832   0.425  1.00  0.00     0.004 C 
ENDBRANCH   3   4
ENDBRANCH   2   3
ENDBRANCH   1   2
BRANCH   1   6
ATOM      6  C   UNL     1      15.970  44.310   2.078  1.00  0.00     0.008 C 
BRANCH   6   7
ATOM      7  C   UNL     1      15.124  44.993   0.999  1.00  0.00     0.072 C 
BRANCH   7   8
ATOM      8  C   UNL     1      15.808  44.940  -0.334  1.00  0.00     0.224 C 
ATOM      9  O   UNL     1      16.322  45.943  -0.806  1.00  0.00    -0.303 OA
ENDBRANCH   7   8
ENDBRANCH   6   7
ENDBRANCH   1   6
TORSDOF 6
ENDMDL
MODEL 6
REMARK VINA RESULT:    -3.455     17.323     18.893
REMARK INTER + INTRA:          -4.859
REMARK INTER:                  -4.483
REMARK INTRA:                  -0.376
REMARK UNBOUND:                -0.191
REMARK SMILES CCCCCCCC=O
REMARK SMILES IDX 5 1 4 2 3 3 2 4 1 5 6 6 7 7 8 8 9 9
REMARK H PARENT
REMARK Flexibility Score: inf
ROOT
ATOM      1  C   UNL     1      17.971  45.690  -0.097  1.00  0.00     0.000 C 
ENDROOT
BRANCH   1   2
ATOM      2  C   UNL     1      16.638  44.927  -0.073  1.00  0.00     0.000 C 
BRANCH   2   3
ATOM      3  C   UNL     1      15.419  45.867  -0.068  1.00  0.00    -0.000 C 
BRANCH   3   4
ATOM      4  C   UNL     1      14.447  45.563   1.082  1.00  0.00    -0.003 C 
ATOM      5  C   UNL     1      15.107  44.803   2.233  1.00  0.00     0.004 C 
ENDBRANCH   3   4
ENDBRANCH   2   3
ENDBRANCH   1   2
BRANCH   1   6
ATOM      6  C   UNL     1      19.161  44.821   0.340  1.00  0.00     0.008 C 
BRANCH   6   7
ATOM      7  C   UNL     1      18.721  43.376   0.592  1.00  0.00     0.072 C 
BRANCH   7   8
ATOM      8  C   UNL     1      18.888  43.007   2.035  1.00  0.00     0.224 C 
ATOM      9  O   UNL     1      18.944  43.874   2.893  1.00  0.00    -0.303 OA
ENDBRANCH   7   8
ENDBRANCH   6   7
ENDBRANCH   1   6
TORSDOF 6
ENDMDL
MODEL 7
REMARK VINA RESULT:    -3.362     17.531     19.290
REMARK INTER + INTRA:          -4.733
REMARK INTER:                  -4.313
REMARK INTRA:                  -0.420
REMARK UNBOUND:                -0.191
REMARK SMILES CCCCCCCC=O
REMARK SMILES IDX 5 1 4 2 3 3 2 4 1 5 6 6 7 7 8 8 9 9
REMARK H PARENT
REMARK Flexibility Score: inf
ROOT
ATOM      1  C   UNL     1      17.381  43.483   0.200  1.00  0.00     0.000 C 
ENDROOT
BRANCH   1   2
ATOM      2  C   UNL     1      15.933  43.497   0.714  1.00  0.00     0.000 C 
BRANCH   2   3
ATOM      3  C   UNL     1      15.806  44.138   2.107  1.00  0.00    -0.000 C 
BRANCH   3   4
ATOM      4  C   UNL     1      14.677  45.177   2.177  1.00  0.00    -0.003 C 
ATOM      5  C   UNL     1      14.342  45.783   0.814  1.00  0.00     0.004 C 
ENDBRANCH   3   4
ENDBRANCH   2   3
ENDBRANCH   1   2
BRANCH   1   6
ATOM      6  C   UNL     1      18.002  44.887   0.131  1.00  0.00     0.008 C 
BRANCH   6   7
ATOM      7  C   UNL     1      19.469  44.858   0.570  1.00  0.00     0.072 C 
BRANCH   7   8
ATOM      8  C   UNL     1      19.686  43.852   1.660  1.00  0.00     0.224 C 
ATOM      9  O   UNL     1      20.694  43.163   1.674  1.00  0.00    -0.303 OA
ENDBRANCH   7   8
ENDBRANCH   6   7
ENDBRANCH   1   6
TORSDOF 6
ENDMDL
MODEL 8
REMARK VINA RESULT:    -3.342      2.997      5.084
REMARK INTER + INTRA:          -4.705
REMARK INTER:                  -4.514
REMARK INTRA:                  -0.192
REMARK UNBOUND:                -0.191
REMARK SMILES CCCCCCCC=O
REMARK SMILES IDX 5 1 4 2 3 3 2 4 1 5 6 6 7 7 8 8 9 9
REMARK H PARENT
REMARK Flexibility Score: inf
ROOT
ATOM      1  C   UNL     1      30.383  59.597 -10.218  1.00  0.00     0.000 C 
ENDROOT
BRANCH   1   2
ATOM      2  C   UNL     1      31.247  58.948 -11.311  1.00  0.00     0.000 C 
BRANCH   2   3
ATOM      3  C   UNL     1      30.413  58.459 -12.509  1.00  0.00    -0.000 C 
BRANCH   3   4
ATOM      4  C   UNL     1      31.016  57.212 -13.174  1.00  0.00    -0.003 C 
ATOM      5  C   UNL     1      32.438  57.440 -13.686  1.00  0.00     0.004 C 
ENDBRANCH   3   4
ENDBRANCH   2   3
ENDBRANCH   1   2
BRANCH   1   6
ATOM      6  C   UNL     1      28.969  59.947 -10.706  1.00  0.00     0.008 C 
BRANCH   6   7
ATOM      7  C   UNL     1      27.991  60.037  -9.531  1.00  0.00     0.072 C 
BRANCH   7   8
ATOM      8  C   UNL     1      27.022  58.893  -9.548  1.00  0.00     0.224 C 
ATOM      9  O   UNL     1      26.078  58.870  -8.773  1.00  0.00    -0.303 OA
ENDBRANCH   7   8
ENDBRANCH   6   7
ENDBRANCH   1   6
TORSDOF 6
ENDMDL
MODEL 9
REMARK VINA RESULT:    -3.330     17.665     19.061
REMARK INTER + INTRA:          -4.689
REMARK INTER:                  -4.113
REMARK INTRA:                  -0.576
REMARK UNBOUND:                -0.191
REMARK SMILES CCCCCCCC=O
REMARK SMILES IDX 5 1 4 2 3 3 2 4 1 5 6 6 7 7 8 8 9 9
REMARK H PARENT
REMARK Flexibility Score: inf
ROOT
ATOM      1  C   UNL     1      17.369  45.633  -0.292  1.00  0.00     0.000 C 
ENDROOT
BRANCH   1   2
ATOM      2  C   UNL     1      18.628  44.923   0.229  1.00  0.00     0.000 C 
BRANCH   2   3
ATOM      3  C   UNL     1      18.471  43.392   0.264  1.00  0.00    -0.000 C 
BRANCH   3   4
ATOM      4  C   UNL     1      18.929  42.784   1.599  1.00  0.00    -0.003 C 
ATOM      5  C   UNL     1      18.947  43.801   2.740  1.00  0.00     0.004 C 
ENDBRANCH   3   4
ENDBRANCH   2   3
ENDBRANCH   1   2
BRANCH   1   6
ATOM      6  C   UNL     1      16.101  44.777  -0.150  1.00  0.00     0.008 C 
BRANCH   6   7
ATOM      7  C   UNL     1      15.125  45.406   0.848  1.00  0.00     0.072 C 
BRANCH   7   8
ATOM      8  C   UNL     1      15.040  44.591   2.104  1.00  0.00     0.224 C 
ATOM      9  O   UNL     1      15.443  43.439   2.122  1.00  0.00    -0.303 OA
ENDBRANCH   7   8
ENDBRANCH   6   7
ENDBRANCH   1   6
TORSDOF 6
ENDMDL
