MODEL 1
REMARK VINA RESULT:    -0.001      0.000      0.000
REMARK INTER + INTRA:           0.198
REMARK INTER:                  -0.001
REMARK INTRA:                   0.199
REMARK UNBOUND:                 0.199
REMARK SMILES COC(=O)c1ccccc1C(=O)OC
REMARK SMILES IDX 5 1 6 2 7 3 8 4 9 5 10 6 3 7 4 8 2 9 1 10 11 11 12 12 13 13
REMARK SMILES IDX 14 14
REMARK H PARENT
REMARK Flexibility Score: inf
ROOT
ATOM      1  C   UNL     1     138.500 128.124 129.566  1.00  0.00     0.074 A 
ATOM      2  C   UNL     1     139.865 128.421 129.722  1.00  0.00     0.016 A 
ATOM      3  C   UNL     1     140.464 128.389 130.982  1.00  0.00     0.001 A 
ATOM      4  C   UNL     1     139.709 128.061 132.105  1.00  0.00     0.001 A 
ATOM      5  C   UNL     1     138.358 127.741 131.972  1.00  0.00     0.016 A 
ATOM      6  C   UNL     1     137.739 127.746 130.707  1.00  0.00     0.074 A 
ENDROOT
BRANCH   1   7
ATOM      7  C   UNL     1     137.903 128.287 128.221  1.00  0.00     0.338 C 
ATOM      8  O   UNL     1     137.038 127.469 127.804  1.00  0.00    -0.246 OA
BRANCH   7   9
ATOM      9  O   UNL     1     138.263 129.388 127.437  1.00  0.00    -0.465 OA
ATOM     10  C   UNL     1     137.925 129.492 126.059  1.00  0.00     0.282 C 
ENDBRANCH   7   9
ENDBRANCH   1   7
BRANCH   6  11
ATOM     11  C   UNL     1     136.335 127.283 130.613  1.00  0.00     0.338 C 
ATOM     12  O   UNL     1     136.090 126.063 130.406  1.00  0.00    -0.246 OA
BRANCH  11  13
ATOM     13  O   UNL     1     135.286 128.205 130.698  1.00  0.00    -0.465 OA
ATOM     14  C   UNL     1     134.418 128.482 129.608  1.00  0.00     0.282 C 
ENDBRANCH  11  13
ENDBRANCH   6  11
TORSDOF 4
ENDMDL
MODEL 2
REMARK VINA RESULT:     0.030      0.097      3.331
REMARK INTER + INTRA:           0.237
REMARK INTER:                  -0.034
REMARK INTRA:                   0.271
REMARK UNBOUND:                 0.199
REMARK SMILES COC(=O)c1ccccc1C(=O)OC
REMARK SMILES IDX 5 1 6 2 7 3 8 4 9 5 10 6 3 7 4 8 2 9 1 10 11 11 12 12 13 13
REMARK SMILES IDX 14 14
REMARK H PARENT
REMARK Flexibility Score: inf
ROOT
ATOM      1  C   UNL     1     137.762 127.739 130.702  1.00  0.00     0.074 A 
ATOM      2  C   UNL     1     138.358 127.727 131.976  1.00  0.00     0.016 A 
ATOM      3  C   UNL     1     139.699 128.070 132.141  1.00  0.00     0.001 A 
ATOM      4  C   UNL     1     140.469 128.430 131.037  1.00  0.00     0.001 A 
ATOM      5  C   UNL     1     139.893 128.471 129.766  1.00  0.00     0.016 A 
ATOM      6  C   UNL     1     138.535 128.149 129.581  1.00  0.00     0.074 A 
ENDROOT
BRANCH   1   7
ATOM      7  C   UNL     1     136.368 127.255 130.584  1.00  0.00     0.338 C 
ATOM      8  O   UNL     1     136.132 126.027 130.415  1.00  0.00    -0.246 OA
BRANCH   7   9
ATOM      9  O   UNL     1     135.310 128.161 130.717  1.00  0.00    -0.465 OA
ATOM     10  C   UNL     1     134.442 128.490 129.640  1.00  0.00     0.282 C 
ENDBRANCH   7   9
ENDBRANCH   1   7
BRANCH   6  11
ATOM     11  C   UNL     1     137.953 128.325 128.231  1.00  0.00     0.338 C 
ATOM     12  O   UNL     1     137.047 127.542 127.832  1.00  0.00    -0.246 OA
BRANCH  11  13
ATOM     13  O   UNL     1     138.443 129.321 127.379  1.00  0.00    -0.465 OA
ATOM     14  C   UNL     1     137.803 129.672 126.160  1.00  0.00     0.282 C 
ENDBRANCH  11  13
ENDBRANCH   6  11
TORSDOF 4
ENDMDL
