MODEL 1
REMARK VINA RESULT:    -5.191      0.000      0.000
REMARK INTER + INTRA:          -7.555
REMARK INTER:                  -7.012
REMARK INTRA:                  -0.543
REMARK UNBOUND:                -0.543
REMARK SMILES C=CC(C)=CCC=C(C)CCC=C(C)C
REMARK SMILES IDX 8 1 7 2 9 3 10 4 11 5 12 6 14 7 13 8 15 9 6 10 5 11 3 12
REMARK SMILES IDX 4 13 2 14 1 15
REMARK H PARENT
REMARK Flexibility Score: inf
ROOT
ATOM      1  C   UNL     1      20.543  63.415  15.069  1.00  0.00    -0.077 C 
ATOM      2  C   UNL     1      21.526  63.180  14.173  1.00  0.00    -0.024 C 
ATOM      3  C   UNL     1      20.834  63.536  16.545  1.00  0.00     0.039 C 
ENDROOT
BRANCH   1   4
ATOM      4  C   UNL     1      19.117  63.555  14.581  1.00  0.00     0.034 C 
BRANCH   4   5
ATOM      5  C   UNL     1      18.387  64.707  15.282  1.00  0.00     0.032 C 
BRANCH   5   6
ATOM      6  C   UNL     1      16.923  64.732  14.908  1.00  0.00    -0.028 C 
ATOM      7  C   UNL     1      16.129  64.932  17.274  1.00  0.00     0.039 C 
ATOM      8  C   UNL     1      15.902  64.853  15.785  1.00  0.00    -0.080 C 
ATOM      9  C   UNL     1      14.496  64.916  15.245  1.00  0.00     0.039 C 
ENDBRANCH   5   6
ENDBRANCH   4   5
ENDBRANCH   1   4
BRANCH   2  10
ATOM     10  C   UNL     1      22.978  63.031  14.561  1.00  0.00     0.055 C 
BRANCH  10  11
ATOM     11  C   UNL     1      23.652  61.946  13.760  1.00  0.00    -0.020 C 
ATOM     12  C   UNL     1      24.499  61.028  14.269  1.00  0.00    -0.055 C 
ATOM     13  C   UNL     1      24.884  61.029  15.731  1.00  0.00     0.044 C 
BRANCH  12  14
ATOM     14  C   UNL     1      25.010  59.975  13.355  1.00  0.00    -0.005 C 
ATOM     15  C   UNL     1      24.905  60.039  12.027  1.00  0.00     0.009 C 
ENDBRANCH  12  14
ENDBRANCH  10  11
ENDBRANCH   2  10
TORSDOF 6
ENDMDL
MODEL 2
REMARK VINA RESULT:    -4.973      1.014      7.872
REMARK INTER + INTRA:          -7.261
REMARK INTER:                  -6.496
REMARK INTRA:                  -0.765
REMARK UNBOUND:                -0.543
REMARK SMILES C=CC(C)=CCC=C(C)CCC=C(C)C
REMARK SMILES IDX 8 1 7 2 9 3 10 4 11 5 12 6 14 7 13 8 15 9 6 10 5 11 3 12
REMARK SMILES IDX 4 13 2 14 1 15
REMARK H PARENT
REMARK Flexibility Score: inf
ROOT
ATOM      1  C   UNL     1      20.123  63.608  15.145  1.00  0.00    -0.077 C 
ATOM      2  C   UNL     1      19.233  64.481  14.625  1.00  0.00    -0.024 C 
ATOM      3  C   UNL     1      20.329  63.486  16.635  1.00  0.00     0.039 C 
ENDROOT
BRANCH   1   4
ATOM      4  C   UNL     1      20.934  62.735  14.211  1.00  0.00     0.034 C 
BRANCH   4   5
ATOM      5  C   UNL     1      22.318  63.334  13.933  1.00  0.00     0.032 C 
BRANCH   5   6
ATOM      6  C   UNL     1      23.372  62.253  13.850  1.00  0.00    -0.028 C 
ATOM      7  C   UNL     1      23.925  62.345  16.291  1.00  0.00     0.039 C 
ATOM      8  C   UNL     1      24.084  61.784  14.899  1.00  0.00    -0.080 C 
ATOM      9  C   UNL     1      25.061  60.662  14.659  1.00  0.00     0.039 C 
ENDBRANCH   5   6
ENDBRANCH   4   5
ENDBRANCH   1   4
BRANCH   2  10
ATOM     10  C   UNL     1      18.375  65.388  15.473  1.00  0.00     0.055 C 
BRANCH  10  11
ATOM     11  C   UNL     1      16.924  65.306  15.070  1.00  0.00    -0.020 C 
ATOM     12  C   UNL     1      15.904  65.058  15.917  1.00  0.00    -0.055 C 
ATOM     13  C   UNL     1      16.139  64.801  17.389  1.00  0.00     0.044 C 
BRANCH  12  14
ATOM     14  C   UNL     1      14.524  65.095  15.370  1.00  0.00    -0.005 C 
ATOM     15  C   UNL     1      13.540  64.307  15.804  1.00  0.00     0.009 C 
ENDBRANCH  12  14
ENDBRANCH  10  11
ENDBRANCH   2  10
TORSDOF 6
ENDMDL
MODEL 3
REMARK VINA RESULT:    -4.961      3.160      7.890
REMARK INTER + INTRA:          -7.244
REMARK INTER:                  -6.696
REMARK INTRA:                  -0.548
REMARK UNBOUND:                -0.543
REMARK SMILES C=CC(C)=CCC=C(C)CCC=C(C)C
REMARK SMILES IDX 8 1 7 2 9 3 10 4 11 5 12 6 14 7 13 8 15 9 6 10 5 11 3 12
REMARK SMILES IDX 4 13 2 14 1 15
REMARK H PARENT
REMARK Flexibility Score: inf
ROOT
ATOM      1  C   UNL     1      19.961  63.615  15.605  1.00  0.00    -0.077 C 
ATOM      2  C   UNL     1      19.091  64.586  15.960  1.00  0.00    -0.024 C 
ATOM      3  C   UNL     1      19.793  62.837  14.323  1.00  0.00     0.039 C 
ENDROOT
BRANCH   1   4
ATOM      4  C   UNL     1      21.127  63.299  16.516  1.00  0.00     0.034 C 
BRANCH   4   5
ATOM      5  C   UNL     1      20.678  63.114  17.971  1.00  0.00     0.032 C 
BRANCH   5   6
ATOM      6  C   UNL     1      21.867  63.035  18.901  1.00  0.00    -0.028 C 
ATOM      7  C   UNL     1      20.952  64.714  20.518  1.00  0.00     0.039 C 
ATOM      8  C   UNL     1      21.995  63.727  20.054  1.00  0.00    -0.080 C 
ATOM      9  C   UNL     1      23.221  63.493  20.899  1.00  0.00     0.039 C 
ENDBRANCH   5   6
ENDBRANCH   4   5
ENDBRANCH   1   4
BRANCH   2  10
ATOM     10  C   UNL     1      17.902  64.977  15.116  1.00  0.00     0.055 C 
BRANCH  10  11
ATOM     11  C   UNL     1      16.631  64.981  15.925  1.00  0.00    -0.020 C 
ATOM     12  C   UNL     1      15.393  65.141  15.413  1.00  0.00    -0.055 C 
ATOM     13  C   UNL     1      15.170  65.370  13.935  1.00  0.00     0.044 C 
BRANCH  12  14
ATOM     14  C   UNL     1      14.239  65.035  16.342  1.00  0.00    -0.005 C 
ATOM     15  C   UNL     1      13.596  66.092  16.839  1.00  0.00     0.009 C 
ENDBRANCH  12  14
ENDBRANCH  10  11
ENDBRANCH   2  10
TORSDOF 6
ENDMDL
MODEL 4
REMARK VINA RESULT:    -4.921      1.885      7.927
REMARK INTER + INTRA:          -7.190
REMARK INTER:                  -6.188
REMARK INTRA:                  -1.001
REMARK UNBOUND:                -0.543
REMARK SMILES C=CC(C)=CCC=C(C)CCC=C(C)C
REMARK SMILES IDX 8 1 7 2 9 3 10 4 11 5 12 6 14 7 13 8 15 9 6 10 5 11 3 12
REMARK SMILES IDX 4 13 2 14 1 15
REMARK H PARENT
REMARK Flexibility Score: inf
ROOT
ATOM      1  C   UNL     1      19.995  63.877  17.162  1.00  0.00    -0.077 C 
ATOM      2  C   UNL     1      19.266  64.933  17.584  1.00  0.00    -0.024 C 
ATOM      3  C   UNL     1      20.040  63.482  15.706  1.00  0.00     0.039 C 
ENDROOT
BRANCH   1   4
ATOM      4  C   UNL     1      20.781  63.069  18.173  1.00  0.00     0.034 C 
BRANCH   4   5
ATOM      5  C   UNL     1      22.266  63.450  18.174  1.00  0.00     0.032 C 
BRANCH   5   6
ATOM      6  C   UNL     1      23.122  62.308  17.677  1.00  0.00    -0.028 C 
ATOM      7  C   UNL     1      23.730  63.449  15.533  1.00  0.00     0.039 C 
ATOM      8  C   UNL     1      23.800  62.300  16.508  1.00  0.00    -0.080 C 
ATOM      9  C   UNL     1      24.654  61.102  16.182  1.00  0.00     0.039 C 
ENDBRANCH   5   6
ENDBRANCH   4   5
ENDBRANCH   1   4
BRANCH   2  10
ATOM     10  C   UNL     1      18.455  65.801  16.653  1.00  0.00     0.055 C 
BRANCH  10  11
ATOM     11  C   UNL     1      16.977  65.642  16.901  1.00  0.00    -0.020 C 
ATOM     12  C   UNL     1      16.106  65.093  16.029  1.00  0.00    -0.055 C 
ATOM     13  C   UNL     1      16.548  64.603  14.668  1.00  0.00     0.044 C 
BRANCH  12  14
ATOM     14  C   UNL     1      14.695  64.935  16.466  1.00  0.00    -0.005 C 
ATOM     15  C   UNL     1      13.726  64.477  15.671  1.00  0.00     0.009 C 
ENDBRANCH  12  14
ENDBRANCH  10  11
ENDBRANCH   2  10
TORSDOF 6
ENDMDL
MODEL 5
REMARK VINA RESULT:    -4.907      1.101      2.059
REMARK INTER + INTRA:          -7.172
REMARK INTER:                  -6.619
REMARK INTRA:                  -0.553
REMARK UNBOUND:                -0.543
REMARK SMILES C=CC(C)=CCC=C(C)CCC=C(C)C
REMARK SMILES IDX 8 1 7 2 9 3 10 4 11 5 12 6 14 7 13 8 15 9 6 10 5 11 3 12
REMARK SMILES IDX 4 13 2 14 1 15
REMARK H PARENT
REMARK Flexibility Score: inf
ROOT
ATOM      1  C   UNL     1      20.063  64.103  14.221  1.00  0.00    -0.077 C 
ATOM      2  C   UNL     1      21.386  64.354  14.105  1.00  0.00    -0.024 C 
ATOM      3  C   UNL     1      19.487  62.747  13.896  1.00  0.00     0.039 C 
ENDROOT
BRANCH   1   4
ATOM      4  C   UNL     1      19.139  65.210  14.683  1.00  0.00     0.034 C 
BRANCH   4   5
ATOM      5  C   UNL     1      18.160  64.721  15.757  1.00  0.00     0.032 C 
BRANCH   5   6
ATOM      6  C   UNL     1      16.730  64.832  15.281  1.00  0.00    -0.028 C 
ATOM      7  C   UNL     1      15.774  64.971  17.591  1.00  0.00     0.039 C 
ATOM      8  C   UNL     1      15.653  64.966  16.087  1.00  0.00    -0.080 C 
ATOM      9  C   UNL     1      14.296  65.119  15.451  1.00  0.00     0.039 C 
ENDBRANCH   5   6
ENDBRANCH   4   5
ENDBRANCH   1   4
BRANCH   2  10
ATOM     10  C   UNL     1      22.386  63.315  13.659  1.00  0.00     0.055 C 
BRANCH  10  11
ATOM     11  C   UNL     1      23.146  62.746  14.829  1.00  0.00    -0.020 C 
ATOM     12  C   UNL     1      24.042  61.740  14.749  1.00  0.00    -0.055 C 
ATOM     13  C   UNL     1      24.347  61.053  13.436  1.00  0.00     0.044 C 
BRANCH  12  14
ATOM     14  C   UNL     1      24.766  61.356  15.987  1.00  0.00    -0.005 C 
ATOM     15  C   UNL     1      24.198  61.336  17.194  1.00  0.00     0.009 C 
ENDBRANCH  12  14
ENDBRANCH  10  11
ENDBRANCH   2  10
TORSDOF 6
ENDMDL
MODEL 6
REMARK VINA RESULT:    -4.873      1.393      2.816
REMARK INTER + INTRA:          -7.126
REMARK INTER:                  -6.015
REMARK INTRA:                  -1.110
REMARK UNBOUND:                -0.543
REMARK SMILES C=CC(C)=CCC=C(C)CCC=C(C)C
REMARK SMILES IDX 8 1 7 2 9 3 10 4 11 5 12 6 14 7 13 8 15 9 6 10 5 11 3 12
REMARK SMILES IDX 4 13 2 14 1 15
REMARK H PARENT
REMARK Flexibility Score: inf
ROOT
ATOM      1  C   UNL     1      18.921  64.887  15.649  1.00  0.00    -0.077 C 
ATOM      2  C   UNL     1      19.100  63.660  15.111  1.00  0.00    -0.024 C 
ATOM      3  C   UNL     1      19.494  66.123  15.001  1.00  0.00     0.039 C 
ENDROOT
BRANCH   1   4
ATOM      4  C   UNL     1      18.130  65.022  16.933  1.00  0.00     0.034 C 
BRANCH   4   5
ATOM      5  C   UNL     1      17.004  66.054  16.801  1.00  0.00     0.032 C 
BRANCH   5   6
ATOM      6  C   UNL     1      15.652  65.379  16.751  1.00  0.00    -0.028 C 
ATOM      7  C   UNL     1      15.501  65.449  14.252  1.00  0.00     0.039 C 
ATOM      8  C   UNL     1      14.976  65.083  15.618  1.00  0.00    -0.080 C 
ATOM      9  C   UNL     1      13.661  64.358  15.737  1.00  0.00     0.039 C 
ENDBRANCH   5   6
ENDBRANCH   4   5
ENDBRANCH   1   4
BRANCH   2  10
ATOM     10  C   UNL     1      19.867  63.424  13.833  1.00  0.00     0.055 C 
BRANCH  10  11
ATOM     11  C   UNL     1      21.157  62.689  14.094  1.00  0.00    -0.020 C 
ATOM     12  C   UNL     1      22.389  63.209  13.912  1.00  0.00    -0.055 C 
ATOM     13  C   UNL     1      22.587  64.612  13.383  1.00  0.00     0.044 C 
BRANCH  12  14
ATOM     14  C   UNL     1      23.556  62.376  14.298  1.00  0.00    -0.005 C 
ATOM     15  C   UNL     1      24.192  61.565  13.452  1.00  0.00     0.009 C 
ENDBRANCH  12  14
ENDBRANCH  10  11
ENDBRANCH   2  10
TORSDOF 6
ENDMDL
MODEL 7
REMARK VINA RESULT:    -4.800      1.832      3.549
REMARK INTER + INTRA:          -7.027
REMARK INTER:                  -5.760
REMARK INTRA:                  -1.267
REMARK UNBOUND:                -0.543
REMARK SMILES C=CC(C)=CCC=C(C)CCC=C(C)C
REMARK SMILES IDX 8 1 7 2 9 3 10 4 11 5 12 6 14 7 13 8 15 9 6 10 5 11 3 12
REMARK SMILES IDX 4 13 2 14 1 15
REMARK H PARENT
REMARK Flexibility Score: inf
ROOT
ATOM      1  C   UNL     1      19.961  64.033  14.451  1.00  0.00    -0.077 C 
ATOM      2  C   UNL     1      21.269  64.369  14.410  1.00  0.00    -0.024 C 
ATOM      3  C   UNL     1      19.471  62.711  13.911  1.00  0.00     0.039 C 
ENDROOT
BRANCH   1   4
ATOM      4  C   UNL     1      18.967  65.005  15.048  1.00  0.00     0.034 C 
BRANCH   4   5
ATOM      5  C   UNL     1      18.555  64.597  16.467  1.00  0.00     0.032 C 
BRANCH   5   6
ATOM      6  C   UNL     1      19.480  65.203  17.498  1.00  0.00    -0.028 C 
ATOM      7  C   UNL     1      20.649  63.044  17.993  1.00  0.00     0.039 C 
ATOM      8  C   UNL     1      20.436  64.527  18.173  1.00  0.00    -0.080 C 
ATOM      9  C   UNL     1      21.315  65.291  19.129  1.00  0.00     0.039 C 
ENDBRANCH   5   6
ENDBRANCH   4   5
ENDBRANCH   1   4
BRANCH   2  10
ATOM     10  C   UNL     1      22.336  63.466  13.840  1.00  0.00     0.055 C 
BRANCH  10  11
ATOM     11  C   UNL     1      23.128  62.794  14.933  1.00  0.00    -0.020 C 
ATOM     12  C   UNL     1      24.024  61.805  14.737  1.00  0.00    -0.055 C 
ATOM     13  C   UNL     1      24.297  61.244  13.359  1.00  0.00     0.044 C 
BRANCH  12  14
ATOM     14  C   UNL     1      24.780  61.311  15.916  1.00  0.00    -0.005 C 
ATOM     15  C   UNL     1      24.261  61.231  17.142  1.00  0.00     0.009 C 
ENDBRANCH  12  14
ENDBRANCH  10  11
ENDBRANCH   2  10
TORSDOF 6
ENDMDL
MODEL 8
REMARK VINA RESULT:    -4.747      2.850      4.226
REMARK INTER + INTRA:          -6.955
REMARK INTER:                  -5.881
REMARK INTRA:                  -1.074
REMARK UNBOUND:                -0.543
REMARK SMILES C=CC(C)=CCC=C(C)CCC=C(C)C
REMARK SMILES IDX 8 1 7 2 9 3 10 4 11 5 12 6 14 7 13 8 15 9 6 10 5 11 3 12
REMARK SMILES IDX 4 13 2 14 1 15
REMARK H PARENT
REMARK Flexibility Score: inf
ROOT
ATOM      1  C   UNL     1      19.583  64.225  15.670  1.00  0.00    -0.077 C 
ATOM      2  C   UNL     1      19.526  64.228  17.020  1.00  0.00    -0.024 C 
ATOM      3  C   UNL     1      20.236  63.096  14.911  1.00  0.00     0.039 C 
ENDROOT
BRANCH   1   4
ATOM      4  C   UNL     1      18.982  65.384  14.903  1.00  0.00     0.034 C 
BRANCH   4   5
ATOM      5  C   UNL     1      17.864  66.071  15.696  1.00  0.00     0.032 C 
BRANCH   5   6
ATOM      6  C   UNL     1      16.506  65.545  15.289  1.00  0.00    -0.028 C 
ATOM      7  C   UNL     1      15.844  64.917  17.621  1.00  0.00     0.039 C 
ATOM      8  C   UNL     1      15.583  65.046  16.140  1.00  0.00    -0.080 C 
ATOM      9  C   UNL     1      14.252  64.612  15.582  1.00  0.00     0.039 C 
ENDBRANCH   5   6
ENDBRANCH   4   5
ENDBRANCH   1   4
BRANCH   2  10
ATOM     10  C   UNL     1      20.091  63.117  17.872  1.00  0.00     0.055 C 
BRANCH  10  11
ATOM     11  C   UNL     1      21.186  63.621  18.777  1.00  0.00    -0.020 C 
ATOM     12  C   UNL     1      22.494  63.321  18.642  1.00  0.00    -0.055 C 
ATOM     13  C   UNL     1      22.987  62.394  17.553  1.00  0.00     0.044 C 
BRANCH  12  14
ATOM     14  C   UNL     1      23.454  63.970  19.571  1.00  0.00    -0.005 C 
ATOM     15  C   UNL     1      23.457  63.762  20.888  1.00  0.00     0.009 C 
ENDBRANCH  12  14
ENDBRANCH  10  11
ENDBRANCH   2  10
TORSDOF 6
ENDMDL
MODEL 9
REMARK VINA RESULT:    -4.651      2.285      6.804
REMARK INTER + INTRA:          -6.825
REMARK INTER:                  -5.555
REMARK INTRA:                  -1.270
REMARK UNBOUND:                -0.543
REMARK SMILES C=CC(C)=CCC=C(C)CCC=C(C)C
REMARK SMILES IDX 8 1 7 2 9 3 10 4 11 5 12 6 14 7 13 8 15 9 6 10 5 11 3 12
REMARK SMILES IDX 4 13 2 14 1 15
REMARK H PARENT
REMARK Flexibility Score: inf
ROOT
ATOM      1  C   UNL     1      20.541  63.665  14.071  1.00  0.00    -0.077 C 
ATOM      2  C   UNL     1      20.385  64.996  14.247  1.00  0.00    -0.024 C 
ATOM      3  C   UNL     1      19.354  62.748  13.906  1.00  0.00     0.039 C 
ENDROOT
BRANCH   1   4
ATOM      4  C   UNL     1      21.938  63.083  14.042  1.00  0.00     0.034 C 
BRANCH   4   5
ATOM      5  C   UNL     1      22.761  63.518  15.260  1.00  0.00     0.032 C 
BRANCH   5   6
ATOM      6  C   UNL     1      22.097  63.088  16.548  1.00  0.00    -0.028 C 
ATOM      7  C   UNL     1      21.948  65.412  17.467  1.00  0.00     0.039 C 
ATOM      8  C   UNL     1      21.708  63.924  17.535  1.00  0.00    -0.080 C 
ATOM      9  C   UNL     1      21.008  63.341  18.735  1.00  0.00     0.039 C 
ENDBRANCH   5   6
ENDBRANCH   4   5
ENDBRANCH   1   4
BRANCH   2  10
ATOM     10  C   UNL     1      19.035  65.670  14.285  1.00  0.00     0.055 C 
BRANCH  10  11
ATOM     11  C   UNL     1      18.416  65.585  15.656  1.00  0.00    -0.020 C 
ATOM     12  C   UNL     1      17.168  65.141  15.911  1.00  0.00    -0.055 C 
ATOM     13  C   UNL     1      16.240  64.705  14.799  1.00  0.00     0.044 C 
BRANCH  12  14
ATOM     14  C   UNL     1      16.744  65.042  17.330  1.00  0.00    -0.005 C 
ATOM     15  C   UNL     1      15.554  65.454  17.772  1.00  0.00     0.009 C 
ENDBRANCH  12  14
ENDBRANCH  10  11
ENDBRANCH   2  10
TORSDOF 6
ENDMDL
