MODEL 1
REMARK VINA RESULT:    -0.057      0.000      0.000
REMARK INTER + INTRA:          -0.368
REMARK INTER:                  -0.067
REMARK INTRA:                  -0.300
REMARK UNBOUND:                -0.300
REMARK SMILES O=c1c(O)c(-c2ccc(O)cc2)oc2cc(O)cc(O)c12
REMARK SMILES IDX 5 1 3 2 2 3 1 4 21 5 19 6 18 7 16 8 15 9 14 10 13 11 6 12
REMARK SMILES IDX 7 13 8 14 9 15 12 16 11 17 10 18 4 20 20 22 17 24
REMARK H PARENT 10 19 4 21 20 23 17 25
REMARK Flexibility Score: inf
ROOT
ATOM      1  C   UNL     1     188.935 198.234 200.372  1.00  0.00     0.180 A 
ATOM      2  C   UNL     1     188.493 196.905 200.272  1.00  0.00     0.208 A 
ATOM      3  C   UNL     1     187.635 196.549 199.218  1.00  0.00     0.238 A 
ATOM      4  O   UNL     1     187.198 195.371 199.166  1.00  0.00    -0.285 OA
ATOM      5  C   UNL     1     187.245 197.525 198.269  1.00  0.00     0.111 A 
ATOM      6  C   UNL     1     186.412 197.268 197.139  1.00  0.00     0.134 A 
ATOM      7  C   UNL     1     185.984 198.334 196.339  1.00  0.00     0.093 A 
ATOM      8  C   UNL     1     186.412 199.641 196.591  1.00  0.00     0.123 A 
ATOM      9  C   UNL     1     187.272 199.893 197.657  1.00  0.00     0.094 A 
ATOM     10  C   UNL     1     187.688 198.854 198.494  1.00  0.00     0.146 A 
ATOM     11  O   UNL     1     188.500 199.140 199.504  1.00  0.00    -0.452 OA
ENDROOT
BRANCH   1  12
ATOM     12  C   UNL     1     189.860 198.679 201.441  1.00  0.00     0.021 A 
ATOM     13  C   UNL     1     191.256 198.619 201.273  1.00  0.00     0.016 A 
ATOM     14  C   UNL     1     192.109 199.067 202.286  1.00  0.00     0.047 A 
ATOM     15  C   UNL     1     191.582 199.592 203.470  1.00  0.00     0.115 A 
ATOM     16  C   UNL     1     189.338 199.227 202.624  1.00  0.00     0.016 A 
ATOM     17  C   UNL     1     190.193 199.673 203.635  1.00  0.00     0.047 A 
BRANCH  15  18
ATOM     18  O   UNL     1     192.444 200.033 204.471  1.00  0.00    -0.508 OA
ATOM     19  H   UNL     1     193.382 200.351 204.261  1.00  0.00     0.293 HD
ENDBRANCH  15  18
ENDBRANCH   1  12
BRANCH   2  20
ATOM     20  O   UNL     1     188.872 195.963 201.232  1.00  0.00    -0.502 OA
ATOM     21  H   UNL     1     188.209 195.538 201.870  1.00  0.00     0.293 HD
ENDBRANCH   2  20
BRANCH   6  22
ATOM     22  O   UNL     1     186.004 195.990 196.745  1.00  0.00    -0.507 OA
ATOM     23  H   UNL     1     186.432 195.129 197.052  1.00  0.00     0.293 HD
ENDBRANCH   6  22
BRANCH   8  24
ATOM     24  O   UNL     1     185.994 200.695 195.782  1.00  0.00    -0.508 OA
ATOM     25  H   UNL     1     185.177 200.614 195.187  1.00  0.00     0.293 HD
ENDBRANCH   8  24
TORSDOF 5
ENDMDL
MODEL 2
REMARK VINA RESULT:    -0.051      2.585      4.169
REMARK INTER + INTRA:          -0.361
REMARK INTER:                  -0.072
REMARK INTRA:                  -0.289
REMARK UNBOUND:                -0.300
REMARK SMILES O=c1c(O)c(-c2ccc(O)cc2)oc2cc(O)cc(O)c12
REMARK SMILES IDX 5 1 3 2 2 3 1 4 21 5 19 6 18 7 16 8 15 9 14 10 13 11 6 12
REMARK SMILES IDX 7 13 8 14 9 15 12 16 11 17 10 18 4 20 20 22 17 24
REMARK H PARENT 10 19 4 21 20 23 17 25
REMARK Flexibility Score: inf
ROOT
ATOM      1  C   UNL     1     188.448 196.056 200.210  1.00  0.00     0.180 A 
ATOM      2  C   UNL     1     188.283 197.297 200.848  1.00  0.00     0.208 A 
ATOM      3  C   UNL     1     187.592 198.321 200.178  1.00  0.00     0.238 A 
ATOM      4  O   UNL     1     187.495 199.447 200.732  1.00  0.00    -0.285 OA
ATOM      5  C   UNL     1     187.063 198.085 198.887  1.00  0.00     0.111 A 
ATOM      6  C   UNL     1     186.312 199.035 198.132  1.00  0.00     0.134 A 
ATOM      7  C   UNL     1     185.949 198.740 196.813  1.00  0.00     0.093 A 
ATOM      8  C   UNL     1     186.253 197.501 196.243  1.00  0.00     0.123 A 
ATOM      9  C   UNL     1     186.935 196.543 196.991  1.00  0.00     0.094 A 
ATOM     10  C   UNL     1     187.341 196.823 198.298  1.00  0.00     0.146 A 
ATOM     11  O   UNL     1     187.996 195.887 198.972  1.00  0.00    -0.452 OA
ENDROOT
BRANCH   1  12
ATOM     12  C   UNL     1     189.143 194.921 200.862  1.00  0.00     0.021 A 
ATOM     13  C   UNL     1     190.533 194.745 200.739  1.00  0.00     0.016 A 
ATOM     14  C   UNL     1     191.171 193.681 201.383  1.00  0.00     0.047 A 
ATOM     15  C   UNL     1     190.433 192.789 202.167  1.00  0.00     0.115 A 
ATOM     16  C   UNL     1     188.411 194.034 201.668  1.00  0.00     0.016 A 
ATOM     17  C   UNL     1     189.051 192.969 202.309  1.00  0.00     0.047 A 
BRANCH  15  18
ATOM     18  O   UNL     1     191.080 191.731 202.802  1.00  0.00    -0.508 OA
ATOM     19  H   UNL     1     192.090 191.695 202.875  1.00  0.00     0.293 HD
ENDBRANCH  15  18
ENDBRANCH   1  12
BRANCH   2  20
ATOM     20  O   UNL     1     188.833 197.516 202.114  1.00  0.00    -0.502 OA
ATOM     21  H   UNL     1     188.381 197.202 202.965  1.00  0.00     0.293 HD
ENDBRANCH   2  20
BRANCH   6  22
ATOM     22  O   UNL     1     185.876 200.264 198.639  1.00  0.00    -0.507 OA
ATOM     23  H   UNL     1     186.420 200.862 199.243  1.00  0.00     0.293 HD
ENDBRANCH   6  22
BRANCH   8  24
ATOM     24  O   UNL     1     185.875 197.208 194.935  1.00  0.00    -0.508 OA
ATOM     25  H   UNL     1     185.815 196.252 194.601  1.00  0.00     0.293 HD
ENDBRANCH   8  24
TORSDOF 5
ENDMDL
MODEL 3
REMARK VINA RESULT:    -0.049      2.753      6.668
REMARK INTER + INTRA:          -0.358
REMARK INTER:                  -0.059
REMARK INTRA:                  -0.299
REMARK UNBOUND:                -0.300
REMARK SMILES O=c1c(O)c(-c2ccc(O)cc2)oc2cc(O)cc(O)c12
REMARK SMILES IDX 5 1 3 2 2 3 1 4 21 5 19 6 18 7 16 8 15 9 14 10 13 11 6 12
REMARK SMILES IDX 7 13 8 14 9 15 12 16 11 17 10 18 4 20 20 22 17 24
REMARK H PARENT 10 19 4 21 20 23 17 25
REMARK Flexibility Score: inf
ROOT
ATOM      1  C   UNL     1     188.011 196.769 199.937  1.00  0.00     0.180 A 
ATOM      2  C   UNL     1     189.035 195.807 199.974  1.00  0.00     0.208 A 
ATOM      3  C   UNL     1     189.492 195.346 201.220  1.00  0.00     0.238 A 
ATOM      4  O   UNL     1     190.446 194.526 201.248  1.00  0.00    -0.285 OA
ATOM      5  C   UNL     1     188.907 195.841 202.411  1.00  0.00     0.111 A 
ATOM      6  C   UNL     1     189.263 195.415 203.725  1.00  0.00     0.134 A 
ATOM      7  C   UNL     1     188.713 196.066 204.836  1.00  0.00     0.093 A 
ATOM      8  C   UNL     1     187.768 197.084 204.678  1.00  0.00     0.123 A 
ATOM      9  C   UNL     1     187.370 197.466 203.399  1.00  0.00     0.094 A 
ATOM     10  C   UNL     1     187.929 196.859 202.272  1.00  0.00     0.146 A 
ATOM     11  O   UNL     1     187.529 197.260 201.072  1.00  0.00    -0.452 OA
ENDROOT
BRANCH   1  12
ATOM     12  C   UNL     1     187.461 197.284 198.662  1.00  0.00     0.021 A 
ATOM     13  C   UNL     1     186.395 196.637 198.008  1.00  0.00     0.016 A 
ATOM     14  C   UNL     1     185.876 197.156 196.819  1.00  0.00     0.047 A 
ATOM     15  C   UNL     1     186.402 198.331 196.274  1.00  0.00     0.115 A 
ATOM     16  C   UNL     1     187.969 198.477 198.120  1.00  0.00     0.016 A 
ATOM     17  C   UNL     1     187.449 198.992 196.930  1.00  0.00     0.047 A 
BRANCH  15  18
ATOM     18  O   UNL     1     185.876 198.836 195.088  1.00  0.00    -0.508 OA
ATOM     19  H   UNL     1     184.997 199.340 195.069  1.00  0.00     0.293 HD
ENDBRANCH  15  18
ENDBRANCH   1  12
BRANCH   2  20
ATOM     20  O   UNL     1     189.613 195.349 198.787  1.00  0.00    -0.502 OA
ATOM     21  H   UNL     1     190.563 194.999 198.744  1.00  0.00     0.293 HD
ENDBRANCH   2  20
BRANCH   6  22
ATOM     22  O   UNL     1     190.126 194.347 203.993  1.00  0.00    -0.507 OA
ATOM     23  H   UNL     1     190.536 193.749 203.291  1.00  0.00     0.293 HD
ENDBRANCH   6  22
BRANCH   8  24
ATOM     24  O   UNL     1     187.212 197.716 205.788  1.00  0.00    -0.508 OA
ATOM     25  H   UNL     1     186.247 197.564 206.057  1.00  0.00     0.293 HD
ENDBRANCH   8  24
TORSDOF 5
ENDMDL
MODEL 4
REMARK VINA RESULT:    -0.047      2.496      3.873
REMARK INTER + INTRA:          -0.355
REMARK INTER:                  -0.055
REMARK INTRA:                  -0.300
REMARK UNBOUND:                -0.300
REMARK SMILES O=c1c(O)c(-c2ccc(O)cc2)oc2cc(O)cc(O)c12
REMARK SMILES IDX 5 1 3 2 2 3 1 4 21 5 19 6 18 7 16 8 15 9 14 10 13 11 6 12
REMARK SMILES IDX 7 13 8 14 9 15 12 16 11 17 10 18 4 20 20 22 17 24
REMARK H PARENT 10 19 4 21 20 23 17 25
REMARK Flexibility Score: inf
ROOT
ATOM      1  C   UNL     1     190.489 198.654 199.163  1.00  0.00     0.180 A 
ATOM      2  C   UNL     1     190.026 199.927 199.537  1.00  0.00     0.208 A 
ATOM      3  C   UNL     1     188.742 200.331 199.134  1.00  0.00     0.238 A 
ATOM      4  O   UNL     1     188.355 201.492 199.426  1.00  0.00    -0.285 OA
ATOM      5  C   UNL     1     187.933 199.451 198.375  1.00  0.00     0.111 A 
ATOM      6  C   UNL     1     186.603 199.739 197.947  1.00  0.00     0.134 A 
ATOM      7  C   UNL     1     185.944 198.849 197.091  1.00  0.00     0.093 A 
ATOM      8  C   UNL     1     186.543 197.648 196.701  1.00  0.00     0.123 A 
ATOM      9  C   UNL     1     187.819 197.330 197.162  1.00  0.00     0.094 A 
ATOM     10  C   UNL     1     188.515 198.215 197.988  1.00  0.00     0.146 A 
ATOM     11  O   UNL     1     189.732 197.878 198.396  1.00  0.00    -0.452 OA
ENDROOT
BRANCH   1  12
ATOM     12  C   UNL     1     191.820 198.149 199.571  1.00  0.00     0.021 A 
ATOM     13  C   UNL     1     191.999 197.445 200.776  1.00  0.00     0.016 A 
ATOM     14  C   UNL     1     193.260 196.956 201.129  1.00  0.00     0.047 A 
ATOM     15  C   UNL     1     194.353 197.149 200.279  1.00  0.00     0.115 A 
ATOM     16  C   UNL     1     192.919 198.321 198.712  1.00  0.00     0.016 A 
ATOM     17  C   UNL     1     194.179 197.832 199.068  1.00  0.00     0.047 A 
BRANCH  15  18
ATOM     18  O   UNL     1     195.605 196.658 200.644  1.00  0.00    -0.508 OA
ATOM     19  H   UNL     1     196.096 195.982 200.071  1.00  0.00     0.293 HD
ENDBRANCH  15  18
ENDBRANCH   1  12
BRANCH   2  20
ATOM     20  O   UNL     1     190.849 200.788 200.268  1.00  0.00    -0.502 OA
ATOM     21  H   UNL     1     191.859 200.775 200.186  1.00  0.00     0.293 HD
ENDBRANCH   2  20
BRANCH   6  22
ATOM     22  O   UNL     1     185.879 200.865 198.354  1.00  0.00    -0.507 OA
ATOM     23  H   UNL     1     184.896 200.866 198.579  1.00  0.00     0.293 HD
ENDBRANCH   6  22
BRANCH   8  24
ATOM     24  O   UNL     1     185.875 196.760 195.861  1.00  0.00    -0.508 OA
ATOM     25  H   UNL     1     185.031 196.283 196.158  1.00  0.00     0.293 HD
ENDBRANCH   8  24
TORSDOF 5
ENDMDL
MODEL 5
REMARK VINA RESULT:    -0.045      2.640      3.211
REMARK INTER + INTRA:          -0.353
REMARK INTER:                  -0.065
REMARK INTRA:                  -0.289
REMARK UNBOUND:                -0.300
REMARK SMILES O=c1c(O)c(-c2ccc(O)cc2)oc2cc(O)cc(O)c12
REMARK SMILES IDX 5 1 3 2 2 3 1 4 21 5 19 6 18 7 16 8 15 9 14 10 13 11 6 12
REMARK SMILES IDX 7 13 8 14 9 15 12 16 11 17 10 18 4 20 20 22 17 24
REMARK H PARENT 10 19 4 21 20 23 17 25
REMARK Flexibility Score: inf
ROOT
ATOM      1  C   UNL     1     190.422 197.806 197.970  1.00  0.00     0.180 A 
ATOM      2  C   UNL     1     189.847 196.525 197.930  1.00  0.00     0.208 A 
ATOM      3  C   UNL     1     188.554 196.375 197.403  1.00  0.00     0.238 A 
ATOM      4  O   UNL     1     188.023 195.234 197.420  1.00  0.00    -0.285 OA
ATOM      5  C   UNL     1     187.860 197.505 196.908  1.00  0.00     0.111 A 
ATOM      6  C   UNL     1     186.563 197.465 196.315  1.00  0.00     0.134 A 
ATOM      7  C   UNL     1     185.917 198.661 195.980  1.00  0.00     0.093 A 
ATOM      8  C   UNL     1     186.552 199.894 196.155  1.00  0.00     0.123 A 
ATOM      9  C   UNL     1     187.842 199.941 196.678  1.00  0.00     0.094 A 
ATOM     10  C   UNL     1     188.496 198.765 197.055  1.00  0.00     0.146 A 
ATOM     11  O   UNL     1     189.721 198.855 197.558  1.00  0.00    -0.452 OA
ENDROOT
BRANCH   1  12
ATOM     12  C   UNL     1     191.790 198.039 198.489  1.00  0.00     0.021 A 
ATOM     13  C   UNL     1     192.021 198.317 199.849  1.00  0.00     0.016 A 
ATOM     14  C   UNL     1     193.323 198.510 200.320  1.00  0.00     0.047 A 
ATOM     15  C   UNL     1     194.410 198.414 199.445  1.00  0.00     0.115 A 
ATOM     16  C   UNL     1     192.888 197.923 197.620  1.00  0.00     0.016 A 
ATOM     17  C   UNL     1     194.189 198.118 198.094  1.00  0.00     0.047 A 
BRANCH  15  18
ATOM     18  O   UNL     1     195.702 198.610 199.928  1.00  0.00    -0.508 OA
ATOM     19  H   UNL     1     196.414 197.895 199.843  1.00  0.00     0.293 HD
ENDBRANCH  15  18
ENDBRANCH   1  12
BRANCH   2  20
ATOM     20  O   UNL     1     190.541 195.425 198.444  1.00  0.00    -0.502 OA
ATOM     21  H   UNL     1     190.282 194.470 198.228  1.00  0.00     0.293 HD
ENDBRANCH   2  20
BRANCH   6  22
ATOM     22  O   UNL     1     185.880 196.282 196.012  1.00  0.00    -0.507 OA
ATOM     23  H   UNL     1     186.235 195.353 196.183  1.00  0.00     0.293 HD
ENDBRANCH   6  22
BRANCH   8  24
ATOM     24  O   UNL     1     185.910 201.080 195.804  1.00  0.00    -0.508 OA
ATOM     25  H   UNL     1     185.448 201.658 196.498  1.00  0.00     0.293 HD
ENDBRANCH   8  24
TORSDOF 5
ENDMDL
MODEL 6
REMARK VINA RESULT:    -0.042      2.258      7.024
REMARK INTER + INTRA:          -0.349
REMARK INTER:                  -0.061
REMARK INTRA:                  -0.288
REMARK UNBOUND:                -0.300
REMARK SMILES O=c1c(O)c(-c2ccc(O)cc2)oc2cc(O)cc(O)c12
REMARK SMILES IDX 5 1 3 2 2 3 1 4 21 5 19 6 18 7 16 8 15 9 14 10 13 11 6 12
REMARK SMILES IDX 7 13 8 14 9 15 12 16 11 17 10 18 4 20 20 22 17 24
REMARK H PARENT 10 19 4 21 20 23 17 25
REMARK Flexibility Score: inf
ROOT
ATOM      1  C   UNL     1     187.638 198.517 200.415  1.00  0.00     0.180 A 
ATOM      2  C   UNL     1     186.987 199.388 201.304  1.00  0.00     0.208 A 
ATOM      3  C   UNL     1     187.446 199.478 202.629  1.00  0.00     0.238 A 
ATOM      4  O   UNL     1     186.825 200.218 203.435  1.00  0.00    -0.285 OA
ATOM      5  C   UNL     1     188.559 198.707 203.042  1.00  0.00     0.111 A 
ATOM      6  C   UNL     1     189.134 198.748 204.347  1.00  0.00     0.134 A 
ATOM      7  C   UNL     1     190.151 197.847 204.684  1.00  0.00     0.093 A 
ATOM      8  C   UNL     1     190.660 196.950 203.740  1.00  0.00     0.123 A 
ATOM      9  C   UNL     1     190.146 196.943 202.445  1.00  0.00     0.094 A 
ATOM     10  C   UNL     1     189.105 197.806 202.091  1.00  0.00     0.146 A 
ATOM     11  O   UNL     1     188.638 197.759 200.850  1.00  0.00    -0.452 OA
ENDROOT
BRANCH   1  12
ATOM     12  C   UNL     1     187.228 198.386 198.997  1.00  0.00     0.021 A 
ATOM     13  C   UNL     1     186.264 197.442 198.597  1.00  0.00     0.016 A 
ATOM     14  C   UNL     1     185.875 197.354 197.257  1.00  0.00     0.047 A 
ATOM     15  C   UNL     1     186.430 198.214 196.304  1.00  0.00     0.115 A 
ATOM     16  C   UNL     1     187.766 199.261 198.038  1.00  0.00     0.016 A 
ATOM     17  C   UNL     1     187.375 199.170 196.700  1.00  0.00     0.047 A 
BRANCH  15  18
ATOM     18  O   UNL     1     186.035 198.114 194.973  1.00  0.00    -0.508 OA
ATOM     19  H   UNL     1     185.348 197.431 194.673  1.00  0.00     0.293 HD
ENDBRANCH  15  18
ENDBRANCH   1  12
BRANCH   2  20
ATOM     20  O   UNL     1     185.876 200.123 200.882  1.00  0.00    -0.502 OA
ATOM     21  H   UNL     1     184.972 199.697 200.716  1.00  0.00     0.293 HD
ENDBRANCH   2  20
BRANCH   6  22
ATOM     22  O   UNL     1     188.763 199.667 205.334  1.00  0.00    -0.507 OA
ATOM     23  H   UNL     1     188.251 200.519 205.163  1.00  0.00     0.293 HD
ENDBRANCH   6  22
BRANCH   8  24
ATOM     24  O   UNL     1     191.683 196.067 204.077  1.00  0.00    -0.508 OA
ATOM     25  H   UNL     1     192.550 196.034 203.552  1.00  0.00     0.293 HD
ENDBRANCH   8  24
TORSDOF 5
ENDMDL
MODEL 7
REMARK VINA RESULT:    -0.041      2.704      7.202
REMARK INTER + INTRA:          -0.348
REMARK INTER:                  -0.059
REMARK INTRA:                  -0.289
REMARK UNBOUND:                -0.300
REMARK SMILES O=c1c(O)c(-c2ccc(O)cc2)oc2cc(O)cc(O)c12
REMARK SMILES IDX 5 1 3 2 2 3 1 4 21 5 19 6 18 7 16 8 15 9 14 10 13 11 6 12
REMARK SMILES IDX 7 13 8 14 9 15 12 16 11 17 10 18 4 20 20 22 17 24
REMARK H PARENT 10 19 4 21 20 23 17 25
REMARK Flexibility Score: inf
ROOT
ATOM      1  C   UNL     1     187.770 200.025 200.443  1.00  0.00     0.180 A 
ATOM      2  C   UNL     1     188.940 200.804 200.430  1.00  0.00     0.208 A 
ATOM      3  C   UNL     1     189.385 201.384 201.628  1.00  0.00     0.238 A 
ATOM      4  O   UNL     1     190.402 202.125 201.600  1.00  0.00    -0.285 OA
ATOM      5  C   UNL     1     188.665 201.165 202.827  1.00  0.00     0.111 A 
ATOM      6  C   UNL     1     189.046 201.670 204.106  1.00  0.00     0.134 A 
ATOM      7  C   UNL     1     188.190 201.501 205.201  1.00  0.00     0.093 A 
ATOM      8  C   UNL     1     186.994 200.787 205.075  1.00  0.00     0.123 A 
ATOM      9  C   UNL     1     186.642 200.239 203.844  1.00  0.00     0.094 A 
ATOM     10  C   UNL     1     187.459 200.422 202.726  1.00  0.00     0.146 A 
ATOM     11  O   UNL     1     187.081 199.892 201.570  1.00  0.00    -0.452 OA
ENDROOT
BRANCH   1  12
ATOM     12  C   UNL     1     187.252 199.361 199.224  1.00  0.00     0.021 A 
ATOM     13  C   UNL     1     186.358 200.016 198.357  1.00  0.00     0.016 A 
ATOM     14  C   UNL     1     185.901 199.378 197.200  1.00  0.00     0.047 A 
ATOM     15  C   UNL     1     186.340 198.088 196.887  1.00  0.00     0.115 A 
ATOM     16  C   UNL     1     187.706 198.074 198.892  1.00  0.00     0.016 A 
ATOM     17  C   UNL     1     187.246 197.439 197.735  1.00  0.00     0.047 A 
BRANCH  15  18
ATOM     18  O   UNL     1     185.875 197.464 195.731  1.00  0.00    -0.508 OA
ATOM     19  H   UNL     1     186.110 197.812 194.810  1.00  0.00     0.293 HD
ENDBRANCH  15  18
ENDBRANCH   1  12
BRANCH   2  20
ATOM     20  O   UNL     1     189.624 201.026 199.231  1.00  0.00    -0.502 OA
ATOM     21  H   UNL     1     189.756 201.953 198.844  1.00  0.00     0.293 HD
ENDBRANCH   2  20
BRANCH   6  22
ATOM     22  O   UNL     1     190.261 202.316 204.359  1.00  0.00    -0.507 OA
ATOM     23  H   UNL     1     190.925 202.589 203.651  1.00  0.00     0.293 HD
ENDBRANCH   6  22
BRANCH   8  24
ATOM     24  O   UNL     1     186.154 200.609 206.172  1.00  0.00    -0.508 OA
ATOM     25  H   UNL     1     186.085 201.307 206.905  1.00  0.00     0.293 HD
ENDBRANCH   8  24
TORSDOF 5
ENDMDL
MODEL 8
REMARK VINA RESULT:    -0.039      3.419      4.354
REMARK INTER + INTRA:          -0.346
REMARK INTER:                  -0.045
REMARK INTRA:                  -0.300
REMARK UNBOUND:                -0.300
REMARK SMILES O=c1c(O)c(-c2ccc(O)cc2)oc2cc(O)cc(O)c12
REMARK SMILES IDX 5 1 3 2 2 3 1 4 21 5 19 6 18 7 16 8 15 9 14 10 13 11 6 12
REMARK SMILES IDX 7 13 8 14 9 15 12 16 11 17 10 18 4 20 20 22 17 24
REMARK H PARENT 10 19 4 21 20 23 17 25
REMARK Flexibility Score: inf
ROOT
ATOM      1  C   UNL     1     190.637 200.321 198.978  1.00  0.00     0.180 A 
ATOM      2  C   UNL     1     190.062 200.531 200.242  1.00  0.00     0.208 A 
ATOM      3  C   UNL     1     188.710 200.205 200.439  1.00  0.00     0.238 A 
ATOM      4  O   UNL     1     188.186 200.447 201.557  1.00  0.00    -0.285 OA
ATOM      5  C   UNL     1     187.956 199.658 199.373  1.00  0.00     0.111 A 
ATOM      6  C   UNL     1     186.591 199.253 199.469  1.00  0.00     0.134 A 
ATOM      7  C   UNL     1     185.907 198.846 198.318  1.00  0.00     0.093 A 
ATOM      8  C   UNL     1     186.558 198.768 197.084  1.00  0.00     0.123 A 
ATOM      9  C   UNL     1     187.907 199.104 196.991  1.00  0.00     0.094 A 
ATOM     10  C   UNL     1     188.606 199.547 198.116  1.00  0.00     0.146 A 
ATOM     11  O   UNL     1     189.887 199.867 197.981  1.00  0.00    -0.452 OA
ENDROOT
BRANCH   1  12
ATOM     12  C   UNL     1     192.062 200.617 198.701  1.00  0.00     0.021 A 
ATOM     13  C   UNL     1     193.064 199.650 198.902  1.00  0.00     0.016 A 
ATOM     14  C   UNL     1     194.400 199.945 198.611  1.00  0.00     0.047 A 
ATOM     15  C   UNL     1     194.750 201.200 198.104  1.00  0.00     0.115 A 
ATOM     16  C   UNL     1     192.418 201.869 198.171  1.00  0.00     0.016 A 
ATOM     17  C   UNL     1     193.754 202.160 197.883  1.00  0.00     0.047 A 
BRANCH  15  18
ATOM     18  O   UNL     1     196.084 201.480 197.820  1.00  0.00    -0.508 OA
ATOM     19  H   UNL     1     196.839 200.992 198.286  1.00  0.00     0.293 HD
ENDBRANCH  15  18
ENDBRANCH   1  12
BRANCH   2  20
ATOM     20  O   UNL     1     190.819 201.093 201.275  1.00  0.00    -0.502 OA
ATOM     21  H   UNL     1     190.404 201.650 202.013  1.00  0.00     0.293 HD
ENDBRANCH   2  20
BRANCH   6  22
ATOM     22  O   UNL     1     185.875 199.205 200.670  1.00  0.00    -0.507 OA
ATOM     23  H   UNL     1     184.941 199.565 200.797  1.00  0.00     0.293 HD
ENDBRANCH   6  22
BRANCH   8  24
ATOM     24  O   UNL     1     185.875 198.347 195.945  1.00  0.00    -0.508 OA
ATOM     25  H   UNL     1     185.095 197.703 196.003  1.00  0.00     0.293 HD
ENDBRANCH   8  24
TORSDOF 5
ENDMDL
MODEL 9
REMARK VINA RESULT:    -0.038      2.587      6.540
REMARK INTER + INTRA:          -0.345
REMARK INTER:                  -0.049
REMARK INTRA:                  -0.297
REMARK UNBOUND:                -0.300
REMARK SMILES O=c1c(O)c(-c2ccc(O)cc2)oc2cc(O)cc(O)c12
REMARK SMILES IDX 5 1 3 2 2 3 1 4 21 5 19 6 18 7 16 8 15 9 14 10 13 11 6 12
REMARK SMILES IDX 7 13 8 14 9 15 12 16 11 17 10 18 4 20 20 22 17 24
REMARK H PARENT 10 19 4 21 20 23 17 25
REMARK Flexibility Score: inf
ROOT
ATOM      1  C   UNL     1     187.990 196.914 198.770  1.00  0.00     0.180 A 
ATOM      2  C   UNL     1     189.073 197.243 199.601  1.00  0.00     0.208 A 
ATOM      3  C   UNL     1     189.535 196.293 200.527  1.00  0.00     0.238 A 
ATOM      4  O   UNL     1     190.469 196.614 201.307  1.00  0.00    -0.285 OA
ATOM      5  C   UNL     1     188.917 195.021 200.598  1.00  0.00     0.111 A 
ATOM      6  C   UNL     1     189.327 193.968 201.470  1.00  0.00     0.134 A 
ATOM      7  C   UNL     1     188.563 192.798 201.549  1.00  0.00     0.093 A 
ATOM      8  C   UNL     1     187.439 192.617 200.739  1.00  0.00     0.123 A 
ATOM      9  C   UNL     1     187.064 193.615 199.842  1.00  0.00     0.094 A 
ATOM     10  C   UNL     1     187.787 194.808 199.766  1.00  0.00     0.146 A 
ATOM     11  O   UNL     1     187.390 195.736 198.905  1.00  0.00    -0.452 OA
ENDROOT
BRANCH   1  12
ATOM     12  C   UNL     1     187.463 197.853 197.752  1.00  0.00     0.021 A 
ATOM     13  C   UNL     1     187.961 197.863 196.436  1.00  0.00     0.016 A 
ATOM     14  C   UNL     1     187.432 198.741 195.486  1.00  0.00     0.047 A 
ATOM     15  C   UNL     1     186.392 199.609 195.833  1.00  0.00     0.115 A 
ATOM     16  C   UNL     1     186.403 198.712 198.087  1.00  0.00     0.016 A 
ATOM     17  C   UNL     1     185.877 199.590 197.135  1.00  0.00     0.047 A 
BRANCH  15  18
ATOM     18  O   UNL     1     185.875 200.480 194.877  1.00  0.00    -0.508 OA
ATOM     19  H   UNL     1     184.922 200.397 194.544  1.00  0.00     0.293 HD
ENDBRANCH  15  18
ENDBRANCH   1  12
BRANCH   2  20
ATOM     20  O   UNL     1     189.654 198.512 199.530  1.00  0.00    -0.502 OA
ATOM     21  H   UNL     1     189.701 199.041 198.667  1.00  0.00     0.293 HD
ENDBRANCH   2  20
BRANCH   6  22
ATOM     22  O   UNL     1     190.486 194.011 202.253  1.00  0.00    -0.507 OA
ATOM     23  H   UNL     1     191.158 193.262 202.326  1.00  0.00     0.293 HD
ENDBRANCH   6  22
BRANCH   8  24
ATOM     24  O   UNL     1     186.692 191.443 200.812  1.00  0.00    -0.508 OA
ATOM     25  H   UNL     1     187.087 190.586 201.181  1.00  0.00     0.293 HD
ENDBRANCH   8  24
TORSDOF 5
ENDMDL
