MODEL 1
REMARK VINA RESULT:    -4.243      0.000      0.000
REMARK INTER + INTRA:          -5.746
REMARK INTER:                  -5.980
REMARK INTRA:                   0.234
REMARK UNBOUND:                 0.234
REMARK SMILES CC1=CCC(=C(C)C)C(=O)CC(C)=CCC1
REMARK SMILES IDX 12 1 14 2 13 3 15 4 16 5 2 6 1 7 3 8 11 10 9 11 10 12 5 13
REMARK SMILES IDX 6 14 7 15 8 16 4 17
REMARK H PARENT
REMARK Flexibility Score: 60.00
ROOT
ATOM      1  C   UNL     1     -39.055  15.495  15.391  1.00  0.00    -0.070 C 
ATOM      2  C   UNL     1     -40.148  15.630  16.186  1.00  0.00    -0.027 C 
ATOM      3  C   UNL     1     -38.374  14.148  15.376  1.00  0.00     0.039 C 
ENDROOT
BRANCH   2   4
ATOM      4  C   UNL     1     -40.919  16.904  16.432  1.00  0.00     0.032 C 
BRANCH   4   5
ATOM      5  C   UNL     1     -42.142  17.060  15.517  1.00  0.00     0.034 C 
BRANCH   5   6
ATOM      6  C   UNL     1     -42.217  18.475  14.978  1.00  0.00    -0.077 C 
ATOM      7  C   UNL     1     -42.649  19.574  15.914  1.00  0.00     0.039 C 
ATOM      8  C   UNL     1     -41.841  18.815  13.723  1.00  0.00    -0.023 CG0
ATOM      9  G   UNL     1     -41.398  17.856  12.645  1.00  0.00     0.000 G0
ENDBRANCH   5   6
ENDBRANCH   4   5
ENDBRANCH   2   4
BRANCH   1  10
ATOM     10  C   UNL     1     -38.526  16.581  14.458  1.00  0.00     0.111 C 
BRANCH  10  11
ATOM     11  C   UNL     1     -39.166  16.581  13.093  1.00  0.00     0.163 C 
ATOM     12  O   UNL     1     -39.148  15.501  12.440  1.00  0.00    -0.294 OA
BRANCH  11  13
ATOM     13  C   UNL     1     -39.863  17.781  12.523  1.00  0.00    -0.002 C 
ATOM     14  C   UNL     1     -39.149  18.800  11.952  1.00  0.00    -0.069 C 
ATOM     15  C   UNL     1     -37.654  18.700  11.736  1.00  0.00     0.039 C 
ATOM     16  C   UNL     1     -39.819  20.063  11.458  1.00  0.00     0.039 C 
BRANCH  13  17
ATOM     17  C   UNL     1     -41.384  17.872  12.643  1.00  0.00     0.066 CG0
ATOM     18  G   UNL     1     -41.814  18.826  13.731  1.00  0.00     0.000 G0
ENDBRANCH  13  17
ENDBRANCH  11  13
ENDBRANCH  10  11
ENDBRANCH   1  10
TORSDOF 0
ENDMDL
MODEL 2
REMARK VINA RESULT:    -3.936      6.060      9.096
REMARK INTER + INTRA:          -5.313
REMARK INTER:                  -5.971
REMARK INTRA:                   0.658
REMARK UNBOUND:                 0.234
REMARK SMILES CC1=CCC(=C(C)C)C(=O)CC(C)=CCC1
REMARK SMILES IDX 12 1 14 2 13 3 15 4 16 5 2 6 1 7 3 8 11 10 9 11 10 12 5 13
REMARK SMILES IDX 6 14 7 15 8 16 4 17
REMARK H PARENT
REMARK Flexibility Score: 60.00
ROOT
ATOM      1  C   UNL     1     -33.970  15.965   6.686  1.00  0.00    -0.070 C 
ATOM      2  C   UNL     1     -33.508  16.882   5.797  1.00  0.00    -0.027 C 
ATOM      3  C   UNL     1     -32.943  15.162   7.447  1.00  0.00     0.039 C 
ENDROOT
BRANCH   2   4
ATOM      4  C   UNL     1     -34.348  17.718   4.862  1.00  0.00     0.032 C 
BRANCH   4   5
ATOM      5  C   UNL     1     -34.182  19.228   5.083  1.00  0.00     0.034 C 
BRANCH   5   6
ATOM      6  C   UNL     1     -34.061  19.531   6.563  1.00  0.00    -0.077 C 
ATOM      7  C   UNL     1     -32.747  20.060   7.079  1.00  0.00     0.039 C 
ATOM      8  C   UNL     1     -35.092  19.424   7.434  1.00  0.00    -0.023 CG0
ATOM      9  G   UNL     1     -36.470  18.900   7.107  1.00  0.00     0.000 G0
ENDBRANCH   5   6
ENDBRANCH   4   5
ENDBRANCH   2   4
BRANCH   1  10
ATOM     10  C   UNL     1     -35.444  15.753   7.021  1.00  0.00     0.111 C 
BRANCH  10  11
ATOM     11  C   UNL     1     -35.936  16.591   8.175  1.00  0.00     0.163 C 
ATOM     12  O   UNL     1     -35.475  16.333   9.321  1.00  0.00    -0.294 OA
BRANCH  11  13
ATOM     13  C   UNL     1     -36.888  17.736   7.998  1.00  0.00    -0.002 C 
ATOM     14  C   UNL     1     -38.129  17.712   8.577  1.00  0.00    -0.069 C 
ATOM     15  C   UNL     1     -38.539  16.612   9.534  1.00  0.00     0.039 C 
ATOM     16  C   UNL     1     -39.143  18.808   8.336  1.00  0.00     0.039 C 
BRANCH  13  17
ATOM     17  C   UNL     1     -36.470  18.908   7.110  1.00  0.00     0.066 CG0
ATOM     18  G   UNL     1     -35.089  19.415   7.448  1.00  0.00     0.000 G0
ENDBRANCH  13  17
ENDBRANCH  11  13
ENDBRANCH  10  11
ENDBRANCH   1  10
TORSDOF 0
ENDMDL
MODEL 3
REMARK VINA RESULT:    -3.783      1.774      3.670
REMARK INTER + INTRA:          -5.097
REMARK INTER:                  -5.428
REMARK INTRA:                   0.331
REMARK UNBOUND:                 0.234
REMARK SMILES CC1=CCC(=C(C)C)C(=O)CC(C)=CCC1
REMARK SMILES IDX 12 1 14 2 13 3 15 4 16 5 2 6 1 7 3 8 11 10 9 11 10 12 5 13
REMARK SMILES IDX 6 14 7 15 8 16 4 17
REMARK H PARENT
REMARK Flexibility Score: 60.00
ROOT
ATOM      1  C   UNL     1     -41.300  18.025  12.929  1.00  0.00    -0.070 C 
ATOM      2  C   UNL     1     -41.537  17.939  14.264  1.00  0.00    -0.027 C 
ATOM      3  C   UNL     1     -41.233  19.407  12.327  1.00  0.00     0.039 C 
ENDROOT
BRANCH   2   4
ATOM      4  C   UNL     1     -41.744  16.669  15.052  1.00  0.00     0.032 C 
BRANCH   4   5
ATOM      5  C   UNL     1     -40.579  16.345  15.999  1.00  0.00     0.034 C 
BRANCH   5   6
ATOM      6  C   UNL     1     -39.737  15.222  15.428  1.00  0.00    -0.077 C 
ATOM      7  C   UNL     1     -40.137  13.801  15.735  1.00  0.00     0.039 C 
ATOM      8  C   UNL     1     -38.689  15.424  14.594  1.00  0.00    -0.023 CG0
ATOM      9  G   UNL     1     -38.134  16.768  14.187  1.00  0.00     0.000 G0
ENDBRANCH   5   6
ENDBRANCH   4   5
ENDBRANCH   2   4
BRANCH   1  10
ATOM     10  C   UNL     1     -41.019  16.830  12.024  1.00  0.00     0.111 C 
BRANCH  10  11
ATOM     11  C   UNL     1     -39.583  16.368  12.048  1.00  0.00     0.163 C 
ATOM     12  O   UNL     1     -39.298  15.314  11.416  1.00  0.00    -0.294 OA
BRANCH  11  13
ATOM     13  C   UNL     1     -38.494  17.138  12.735  1.00  0.00    -0.002 C 
ATOM     14  C   UNL     1     -37.804  18.117  12.073  1.00  0.00    -0.069 C 
ATOM     15  C   UNL     1     -38.198  18.568  10.683  1.00  0.00     0.039 C 
ATOM     16  C   UNL     1     -36.639  18.841  12.711  1.00  0.00     0.039 C 
BRANCH  13  17
ATOM     17  C   UNL     1     -38.130  16.770  14.174  1.00  0.00     0.066 CG0
ATOM     18  G   UNL     1     -38.693  15.429  14.578  1.00  0.00     0.000 G0
ENDBRANCH  13  17
ENDBRANCH  11  13
ENDBRANCH  10  11
ENDBRANCH   1  10
TORSDOF 0
ENDMDL
MODEL 4
REMARK VINA RESULT:    -3.610      4.310      5.556
REMARK INTER + INTRA:          -4.853
REMARK INTER:                  -4.986
REMARK INTRA:                   0.133
REMARK UNBOUND:                 0.234
REMARK SMILES CC1=CCC(=C(C)C)C(=O)CC(C)=CCC1
REMARK SMILES IDX 12 1 14 2 13 3 15 4 16 5 2 6 1 7 3 8 11 10 9 11 10 12 5 13
REMARK SMILES IDX 6 14 7 15 8 16 4 17
REMARK H PARENT
REMARK Flexibility Score: 60.00
ROOT
ATOM      1  C   UNL     1     -36.794  19.524  11.731  1.00  0.00    -0.070 C 
ATOM      2  C   UNL     1     -38.045  19.984  11.994  1.00  0.00    -0.027 C 
ATOM      3  C   UNL     1     -35.748  19.717  12.802  1.00  0.00     0.039 C 
ENDROOT
BRANCH   2   4
ATOM      4  C   UNL     1     -39.212  19.989  11.037  1.00  0.00     0.032 C 
BRANCH   4   5
ATOM      5  C   UNL     1     -39.904  18.624  10.915  1.00  0.00     0.034 C 
BRANCH   5   6
ATOM      6  C   UNL     1     -40.063  18.246   9.456  1.00  0.00    -0.077 C 
ATOM      7  C   UNL     1     -40.850  19.168   8.560  1.00  0.00     0.039 C 
ATOM      8  C   UNL     1     -39.472  17.163   8.898  1.00  0.00    -0.023 CG0
ATOM      9  G   UNL     1     -38.664  16.122   9.635  1.00  0.00     0.000 G0
ENDBRANCH   5   6
ENDBRANCH   4   5
ENDBRANCH   2   4
BRANCH   1  10
ATOM     10  C   UNL     1     -36.403  18.759  10.470  1.00  0.00     0.111 C 
BRANCH  10  11
ATOM     11  C   UNL     1     -36.524  17.262  10.601  1.00  0.00     0.163 C 
ATOM     12  O   UNL     1     -36.125  16.735  11.676  1.00  0.00    -0.294 OA
BRANCH  11  13
ATOM     13  C   UNL     1     -37.147  16.402   9.540  1.00  0.00    -0.002 C 
ATOM     14  C   UNL     1     -36.398  15.918   8.501  1.00  0.00    -0.069 C 
ATOM     15  C   UNL     1     -34.896  16.098   8.451  1.00  0.00     0.039 C 
ATOM     16  C   UNL     1     -37.021  15.132   7.369  1.00  0.00     0.039 C 
BRANCH  13  17
ATOM     17  C   UNL     1     -38.649  16.124   9.609  1.00  0.00     0.066 CG0
ATOM     18  G   UNL     1     -39.458  17.182   8.899  1.00  0.00     0.000 G0
ENDBRANCH  13  17
ENDBRANCH  11  13
ENDBRANCH  10  11
ENDBRANCH   1  10
TORSDOF 0
ENDMDL
MODEL 5
REMARK VINA RESULT:    -3.487      4.514      7.404
REMARK INTER + INTRA:          -4.680
REMARK INTER:                  -4.820
REMARK INTRA:                   0.140
REMARK UNBOUND:                 0.234
REMARK SMILES CC1=CCC(=C(C)C)C(=O)CC(C)=CCC1
REMARK SMILES IDX 12 1 14 2 13 3 15 4 16 5 2 6 1 7 3 8 11 10 9 11 10 12 5 13
REMARK SMILES IDX 6 14 7 15 8 16 4 17
REMARK H PARENT
REMARK Flexibility Score: 60.00
ROOT
ATOM      1  C   UNL     1     -36.724  15.234   7.607  1.00  0.00    -0.070 C 
ATOM      2  C   UNL     1     -35.658  15.634   6.867  1.00  0.00    -0.027 C 
ATOM      3  C   UNL     1     -36.865  13.756   7.874  1.00  0.00     0.039 C 
ENDROOT
BRANCH   2   4
ATOM      4  C   UNL     1     -35.377  17.040   6.396  1.00  0.00     0.032 C 
BRANCH   4   5
ATOM      5  C   UNL     1     -34.780  17.939   7.488  1.00  0.00     0.034 C 
BRANCH   5   6
ATOM      6  C   UNL     1     -35.571  19.227   7.597  1.00  0.00    -0.077 C 
ATOM      7  C   UNL     1     -35.667  20.112   6.381  1.00  0.00     0.039 C 
ATOM      8  C   UNL     1     -36.261  19.587   8.705  1.00  0.00    -0.023 CG0
ATOM      9  G   UNL     1     -36.272  18.840  10.017  1.00  0.00     0.000 G0
ENDBRANCH   5   6
ENDBRANCH   4   5
ENDBRANCH   2   4
BRANCH   1  10
ATOM     10  C   UNL     1     -37.735  16.182   8.247  1.00  0.00     0.111 C 
BRANCH  10  11
ATOM     11  C   UNL     1     -37.412  16.547   9.674  1.00  0.00     0.163 C 
ATOM     12  O   UNL     1     -37.009  15.625  10.436  1.00  0.00    -0.294 OA
BRANCH  11  13
ATOM     13  C   UNL     1     -37.495  17.953  10.191  1.00  0.00    -0.002 C 
ATOM     14  C   UNL     1     -38.650  18.428  10.751  1.00  0.00    -0.069 C 
ATOM     15  C   UNL     1     -39.839  17.525  11.008  1.00  0.00     0.039 C 
ATOM     16  C   UNL     1     -38.790  19.868  11.190  1.00  0.00     0.039 C 
BRANCH  13  17
ATOM     17  C   UNL     1     -36.280  18.867  10.029  1.00  0.00     0.066 CG0
ATOM     18  G   UNL     1     -36.277  19.582   8.699  1.00  0.00     0.000 G0
ENDBRANCH  13  17
ENDBRANCH  11  13
ENDBRANCH  10  11
ENDBRANCH   1  10
TORSDOF 0
ENDMDL
MODEL 6
REMARK VINA RESULT:    -3.456      2.492      5.086
REMARK INTER + INTRA:          -4.636
REMARK INTER:                  -4.945
REMARK INTRA:                   0.309
REMARK UNBOUND:                 0.234
REMARK SMILES CC1=CCC(=C(C)C)C(=O)CC(C)=CCC1
REMARK SMILES IDX 12 1 14 2 13 3 15 4 16 5 2 6 1 7 3 8 11 10 9 11 10 12 5 13
REMARK SMILES IDX 6 14 7 15 8 16 4 17
REMARK H PARENT
REMARK Flexibility Score: 60.00
ROOT
ATOM      1  C   UNL     1     -39.815  15.522  11.107  1.00  0.00    -0.070 C 
ATOM      2  C   UNL     1     -38.786  15.623  10.226  1.00  0.00    -0.027 C 
ATOM      3  C   UNL     1     -40.106  14.155  11.675  1.00  0.00     0.039 C 
ENDROOT
BRANCH   2   4
ATOM      4  C   UNL     1     -38.385  16.862   9.463  1.00  0.00     0.032 C 
BRANCH   4   5
ATOM      5  C   UNL     1     -37.094  17.507   9.988  1.00  0.00     0.034 C 
BRANCH   5   6
ATOM      6  C   UNL     1     -37.424  18.706  10.856  1.00  0.00    -0.077 C 
ATOM      7  C   UNL     1     -37.615  20.042  10.187  1.00  0.00     0.039 C 
ATOM      8  C   UNL     1     -37.631  18.625  12.192  1.00  0.00    -0.023 CG0
ATOM      9  G   UNL     1     -37.471  17.382  13.034  1.00  0.00     0.000 G0
ENDBRANCH   5   6
ENDBRANCH   4   5
ENDBRANCH   2   4
BRANCH   1  10
ATOM     10  C   UNL     1     -40.635  16.704  11.617  1.00  0.00     0.111 C 
BRANCH  10  11
ATOM     11  C   UNL     1     -40.083  17.336  12.870  1.00  0.00     0.163 C 
ATOM     12  O   UNL     1     -40.747  18.274  13.391  1.00  0.00    -0.294 OA
BRANCH  11  13
ATOM     13  C   UNL     1     -38.829  16.854  13.538  1.00  0.00    -0.002 C 
ATOM     14  C   UNL     1     -38.887  15.999  14.605  1.00  0.00    -0.069 C 
ATOM     15  C   UNL     1     -40.194  15.387  15.064  1.00  0.00     0.039 C 
ATOM     16  C   UNL     1     -37.644  15.576  15.356  1.00  0.00     0.039 C 
BRANCH  13  17
ATOM     17  C   UNL     1     -37.483  17.383  13.040  1.00  0.00     0.066 CG0
ATOM     18  G   UNL     1     -37.637  18.622  12.191  1.00  0.00     0.000 G0
ENDBRANCH  13  17
ENDBRANCH  11  13
ENDBRANCH  10  11
ENDBRANCH   1  10
TORSDOF 0
ENDMDL
MODEL 7
REMARK VINA RESULT:    -3.426      3.796      5.516
REMARK INTER + INTRA:          -4.593
REMARK INTER:                  -4.732
REMARK INTRA:                   0.138
REMARK UNBOUND:                 0.234
REMARK SMILES CC1=CCC(=C(C)C)C(=O)CC(C)=CCC1
REMARK SMILES IDX 12 1 14 2 13 3 15 4 16 5 2 6 1 7 3 8 11 10 9 11 10 12 5 13
REMARK SMILES IDX 6 14 7 15 8 16 4 17
REMARK H PARENT
REMARK Flexibility Score: 60.00
ROOT
ATOM      1  C   UNL     1     -39.118  16.064  11.272  1.00  0.00    -0.070 C 
ATOM      2  C   UNL     1     -39.243  16.925  12.316  1.00  0.00    -0.027 C 
ATOM      3  C   UNL     1     -40.232  15.068  11.061  1.00  0.00     0.039 C 
ENDROOT
BRANCH   2   4
ATOM      4  C   UNL     1     -38.212  17.929  12.771  1.00  0.00     0.032 C 
BRANCH   4   5
ATOM      5  C   UNL     1     -38.164  19.189  11.895  1.00  0.00     0.034 C 
BRANCH   5   6
ATOM      6  C   UNL     1     -36.728  19.538  11.557  1.00  0.00    -0.077 C 
ATOM      7  C   UNL     1     -35.765  19.777  12.691  1.00  0.00     0.039 C 
ATOM      8  C   UNL     1     -36.247  19.570  10.292  1.00  0.00    -0.023 CG0
ATOM      9  G   UNL     1     -37.059  19.373   9.035  1.00  0.00     0.000 G0
ENDBRANCH   5   6
ENDBRANCH   4   5
ENDBRANCH   2   4
BRANCH   1  10
ATOM     10  C   UNL     1     -37.976  16.094  10.261  1.00  0.00     0.111 C 
BRANCH  10  11
ATOM     11  C   UNL     1     -38.202  17.042   9.110  1.00  0.00     0.163 C 
ATOM     12  O   UNL     1     -39.370  17.119   8.638  1.00  0.00    -0.294 OA
BRANCH  11  13
ATOM     13  C   UNL     1     -37.119  17.922   8.559  1.00  0.00    -0.002 C 
ATOM     14  C   UNL     1     -36.177  17.421   7.701  1.00  0.00    -0.069 C 
ATOM     15  C   UNL     1     -36.266  16.011   7.156  1.00  0.00     0.039 C 
ATOM     16  C   UNL     1     -35.021  18.262   7.208  1.00  0.00     0.039 C 
BRANCH  13  17
ATOM     17  C   UNL     1     -37.053  19.379   9.018  1.00  0.00     0.066 CG0
ATOM     18  G   UNL     1     -36.263  19.539  10.295  1.00  0.00     0.000 G0
ENDBRANCH  13  17
ENDBRANCH  11  13
ENDBRANCH  10  11
ENDBRANCH   1  10
TORSDOF 0
ENDMDL
MODEL 8
REMARK VINA RESULT:    -3.368      3.273      5.584
REMARK INTER + INTRA:          -4.512
REMARK INTER:                  -4.726
REMARK INTRA:                   0.214
REMARK UNBOUND:                 0.234
REMARK SMILES CC1=CCC(=C(C)C)C(=O)CC(C)=CCC1
REMARK SMILES IDX 12 1 14 2 13 3 15 4 16 5 2 6 1 7 3 8 11 10 9 11 10 12 5 13
REMARK SMILES IDX 6 14 7 15 8 16 4 17
REMARK H PARENT
REMARK Flexibility Score: 60.00
ROOT
ATOM      1  C   UNL     1     -37.309  19.348   9.616  1.00  0.00    -0.070 C 
ATOM      2  C   UNL     1     -38.558  19.692  10.023  1.00  0.00    -0.027 C 
ATOM      3  C   UNL     1     -36.891  19.776   8.230  1.00  0.00     0.039 C 
ENDROOT
BRANCH   2   4
ATOM      4  C   UNL     1     -39.217  19.285  11.319  1.00  0.00     0.032 C 
BRANCH   4   5
ATOM      5  C   UNL     1     -40.279  18.190  11.143  1.00  0.00     0.034 C 
BRANCH   5   6
ATOM      6  C   UNL     1     -39.758  16.866  11.665  1.00  0.00    -0.077 C 
ATOM      7  C   UNL     1     -40.094  16.474  13.081  1.00  0.00     0.039 C 
ATOM      8  C   UNL     1     -39.071  15.982  10.903  1.00  0.00    -0.023 CG0
ATOM      9  G   UNL     1     -38.630  16.205   9.476  1.00  0.00     0.000 G0
ENDBRANCH   5   6
ENDBRANCH   4   5
ENDBRANCH   2   4
BRANCH   1  10
ATOM     10  C   UNL     1     -36.282  18.635  10.491  1.00  0.00     0.111 C 
BRANCH  10  11
ATOM     11  C   UNL     1     -36.393  17.131  10.463  1.00  0.00     0.163 C 
ATOM     12  O   UNL     1     -35.907  16.492  11.437  1.00  0.00    -0.294 OA
BRANCH  11  13
ATOM     13  C   UNL     1     -37.101  16.389   9.368  1.00  0.00    -0.002 C 
ATOM     14  C   UNL     1     -36.417  15.939   8.271  1.00  0.00    -0.069 C 
ATOM     15  C   UNL     1     -34.909  16.035   8.179  1.00  0.00     0.039 C 
ATOM     16  C   UNL     1     -37.123  15.275   7.109  1.00  0.00     0.039 C 
BRANCH  13  17
ATOM     17  C   UNL     1     -38.614  16.195   9.473  1.00  0.00     0.066 CG0
ATOM     18  G   UNL     1     -39.064  15.988  10.898  1.00  0.00     0.000 G0
ENDBRANCH  13  17
ENDBRANCH  11  13
ENDBRANCH  10  11
ENDBRANCH   1  10
TORSDOF 0
ENDMDL
MODEL 9
REMARK VINA RESULT:    -3.348      1.335      4.322
REMARK INTER + INTRA:          -4.484
REMARK INTER:                  -5.232
REMARK INTRA:                   0.748
REMARK UNBOUND:                 0.234
REMARK SMILES CC1=CCC(=C(C)C)C(=O)CC(C)=CCC1
REMARK SMILES IDX 12 1 14 2 13 3 15 4 16 5 2 6 1 7 3 8 11 10 9 11 10 12 5 13
REMARK SMILES IDX 6 14 7 15 8 16 4 17
REMARK H PARENT
REMARK Flexibility Score: 60.00
ROOT
ATOM      1  C   UNL     1     -37.185  17.741  11.799  1.00  0.00    -0.070 C 
ATOM      2  C   UNL     1     -37.540  18.966  11.332  1.00  0.00    -0.027 C 
ATOM      3  C   UNL     1     -36.141  16.980  11.018  1.00  0.00     0.039 C 
ENDROOT
BRANCH   2   4
ATOM      4  C   UNL     1     -38.627  19.851  11.891  1.00  0.00     0.032 C 
BRANCH   4   5
ATOM      5  C   UNL     1     -39.762  20.124  10.893  1.00  0.00     0.034 C 
BRANCH   5   6
ATOM      6  C   UNL     1     -40.403  18.820  10.460  1.00  0.00    -0.077 C 
ATOM      7  C   UNL     1     -40.335  18.439   9.003  1.00  0.00     0.039 C 
ATOM      8  C   UNL     1     -40.966  17.943  11.324  1.00  0.00    -0.023 CG0
ATOM      9  G   UNL     1     -41.140  18.157  12.808  1.00  0.00     0.000 G0
ENDBRANCH   5   6
ENDBRANCH   4   5
ENDBRANCH   2   4
BRANCH   1  10
ATOM     10  C   UNL     1     -37.708  17.125  13.093  1.00  0.00     0.111 C 
BRANCH  10  11
ATOM     11  C   UNL     1     -39.085  16.523  12.972  1.00  0.00     0.163 C 
ATOM     12  O   UNL     1     -39.193  15.434  12.343  1.00  0.00    -0.294 OA
BRANCH  11  13
ATOM     13  C   UNL     1     -40.297  17.132  13.613  1.00  0.00    -0.002 C 
ATOM     14  C   UNL     1     -40.684  16.762  14.873  1.00  0.00    -0.069 C 
ATOM     15  C   UNL     1     -39.836  15.844  15.729  1.00  0.00     0.039 C 
ATOM     16  C   UNL     1     -41.954  17.288  15.503  1.00  0.00     0.039 C 
BRANCH  13  17
ATOM     17  C   UNL     1     -41.127  18.133  12.810  1.00  0.00     0.066 CG0
ATOM     18  G   UNL     1     -40.974  17.935  11.321  1.00  0.00     0.000 G0
ENDBRANCH  13  17
ENDBRANCH  11  13
ENDBRANCH  10  11
ENDBRANCH   1  10
TORSDOF 0
ENDMDL
