MODEL 1
REMARK VINA RESULT:    -4.077      0.000      0.000
REMARK INTER + INTRA:          -7.327
REMARK INTER:                  -6.222
REMARK INTRA:                  -1.105
REMARK UNBOUND:                -1.105
REMARK SMILES CCCCCCCCCCC(=O)[O-]
REMARK SMILES IDX 7 1 8 2 9 3 10 4 11 5 12 6 13 7 6 8 5 9 4 10 3 11 2 12 1 13
REMARK H PARENT
REMARK Flexibility Score: inf
ROOT
ATOM      1  C   UNL     1       7.676   5.662  19.152  1.00  0.00     0.000 C 
ENDROOT
BRANCH   1   2
ATOM      2  C   UNL     1       7.497   4.137  19.151  1.00  0.00     0.000 C 
BRANCH   2   3
ATOM      3  C   UNL     1       6.023   3.708  19.265  1.00  0.00     0.006 C 
BRANCH   3   4
ATOM      4  C   UNL     1       5.785   2.502  20.188  1.00  0.00     0.053 C 
BRANCH   4   5
ATOM      5  C   UNL     1       5.069   2.890  21.445  1.00  0.00     0.041 C 
ATOM      6  O   UNL     1       4.413   3.965  21.494  1.00  0.00    -0.550 OA
ATOM      7  O   UNL     1       5.098   2.050  22.549  1.00  0.00    -0.550 OA
ENDBRANCH   4   5
ENDBRANCH   3   4
ENDBRANCH   2   3
ENDBRANCH   1   2
BRANCH   1   8
ATOM      8  C   UNL     1       6.373   6.367  18.754  1.00  0.00     0.000 C 
BRANCH   8   9
ATOM      9  C   UNL     1       6.463   6.922  17.325  1.00  0.00    -0.000 C 
BRANCH   9  10
ATOM     10  C   UNL     1       5.841   5.984  16.275  1.00  0.00    -0.000 C 
BRANCH  10  11
ATOM     11  C   UNL     1       6.848   5.114  15.503  1.00  0.00    -0.000 C 
BRANCH  11  12
ATOM     12  C   UNL     1       8.262   5.713  15.478  1.00  0.00    -0.003 C 
ATOM     13  C   UNL     1       9.305   4.676  15.885  1.00  0.00     0.004 C 
ENDBRANCH  11  12
ENDBRANCH  10  11
ENDBRANCH   9  10
ENDBRANCH   8   9
ENDBRANCH   1   8
TORSDOF 9
ENDMDL
MODEL 2
REMARK VINA RESULT:    -4.007      1.642      2.705
REMARK INTER + INTRA:          -7.220
REMARK INTER:                  -6.649
REMARK INTRA:                  -0.571
REMARK UNBOUND:                -1.105
REMARK SMILES CCCCCCCCCCC(=O)[O-]
REMARK SMILES IDX 7 1 8 2 9 3 10 4 11 5 12 6 13 7 6 8 5 9 4 10 3 11 2 12 1 13
REMARK H PARENT
REMARK Flexibility Score: inf
ROOT
ATOM      1  C   UNL     1       5.933   3.430  19.318  1.00  0.00     0.000 C 
ENDROOT
BRANCH   1   2
ATOM      2  C   UNL     1       5.801   2.468  20.508  1.00  0.00     0.000 C 
BRANCH   2   3
ATOM      3  C   UNL     1       4.934   3.039  21.645  1.00  0.00     0.006 C 
BRANCH   3   4
ATOM      4  C   UNL     1       5.021   2.252  22.962  1.00  0.00     0.053 C 
BRANCH   4   5
ATOM      5  C   UNL     1       4.102   2.805  24.008  1.00  0.00     0.041 C 
ATOM      6  O   UNL     1       4.423   3.841  24.650  1.00  0.00    -0.550 OA
ATOM      7  O   UNL     1       2.877   2.197  24.249  1.00  0.00    -0.550 OA
ENDBRANCH   4   5
ENDBRANCH   3   4
ENDBRANCH   2   3
ENDBRANCH   1   2
BRANCH   1   8
ATOM      8  C   UNL     1       5.998   4.886  19.795  1.00  0.00     0.000 C 
BRANCH   8   9
ATOM      9  C   UNL     1       6.996   5.696  18.955  1.00  0.00    -0.000 C 
BRANCH   9  10
ATOM     10  C   UNL     1       6.385   6.983  18.371  1.00  0.00    -0.000 C 
BRANCH  10  11
ATOM     11  C   UNL     1       6.412   7.076  16.835  1.00  0.00    -0.000 C 
BRANCH  11  12
ATOM     12  C   UNL     1       6.637   5.717  16.157  1.00  0.00    -0.003 C 
ATOM     13  C   UNL     1       5.311   5.071  15.766  1.00  0.00     0.004 C 
ENDBRANCH  11  12
ENDBRANCH  10  11
ENDBRANCH   9  10
ENDBRANCH   8   9
ENDBRANCH   1   8
TORSDOF 9
ENDMDL
MODEL 3
REMARK VINA RESULT:    -3.931      4.833      7.084
REMARK INTER + INTRA:          -7.104
REMARK INTER:                  -6.528
REMARK INTRA:                  -0.576
REMARK UNBOUND:                -1.105
REMARK SMILES CCCCCCCCCCC(=O)[O-]
REMARK SMILES IDX 7 1 8 2 9 3 10 4 11 5 12 6 13 7 6 8 5 9 4 10 3 11 2 12 1 13
REMARK H PARENT
REMARK Flexibility Score: inf
ROOT
ATOM      1  C   UNL     1       7.543   5.197  15.469  1.00  0.00     0.000 C 
ENDROOT
BRANCH   1   2
ATOM      2  C   UNL     1       8.649   6.255  15.597  1.00  0.00     0.000 C 
BRANCH   2   3
ATOM      3  C   UNL     1       9.954   5.841  14.892  1.00  0.00     0.006 C 
BRANCH   3   4
ATOM      4  C   UNL     1      10.512   6.898  13.924  1.00  0.00     0.053 C 
BRANCH   4   5
ATOM      5  C   UNL     1      10.478   6.429  12.502  1.00  0.00     0.041 C 
ATOM      6  O   UNL     1       9.401   6.012  11.998  1.00  0.00    -0.550 OA
ATOM      7  O   UNL     1      11.626   6.483  11.725  1.00  0.00    -0.550 OA
ENDBRANCH   4   5
ENDBRANCH   3   4
ENDBRANCH   2   3
ENDBRANCH   1   2
BRANCH   1   8
ATOM      8  C   UNL     1       6.251   5.668  16.150  1.00  0.00     0.000 C 
BRANCH   8   9
ATOM      9  C   UNL     1       6.467   7.006  16.871  1.00  0.00    -0.000 C 
BRANCH   9  10
ATOM     10  C   UNL     1       6.423   6.876  18.405  1.00  0.00    -0.000 C 
BRANCH  10  11
ATOM     11  C   UNL     1       6.893   5.518  18.956  1.00  0.00    -0.000 C 
BRANCH  11  12
ATOM     12  C   UNL     1       5.877   4.873  19.910  1.00  0.00    -0.003 C 
ATOM     13  C   UNL     1       5.697   3.389  19.601  1.00  0.00     0.004 C 
ENDBRANCH  11  12
ENDBRANCH  10  11
ENDBRANCH   9  10
ENDBRANCH   8   9
ENDBRANCH   1   8
TORSDOF 9
ENDMDL
MODEL 4
REMARK VINA RESULT:    -3.902      0.850      2.140
REMARK INTER + INTRA:          -7.060
REMARK INTER:                  -5.927
REMARK INTRA:                  -1.133
REMARK UNBOUND:                -1.105
REMARK SMILES CCCCCCCCCCC(=O)[O-]
REMARK SMILES IDX 7 1 8 2 9 3 10 4 11 5 12 6 13 7 6 8 5 9 4 10 3 11 2 12 1 13
REMARK H PARENT
REMARK Flexibility Score: inf
ROOT
ATOM      1  C   UNL     1       8.784   4.655  19.093  1.00  0.00     0.000 C 
ENDROOT
BRANCH   1   2
ATOM      2  C   UNL     1       7.387   5.028  19.610  1.00  0.00     0.000 C 
BRANCH   2   3
ATOM      3  C   UNL     1       6.299   4.035  19.160  1.00  0.00     0.006 C 
BRANCH   3   4
ATOM      4  C   UNL     1       6.186   2.780  20.040  1.00  0.00     0.053 C 
BRANCH   4   5
ATOM      5  C   UNL     1       5.204   2.965  21.156  1.00  0.00     0.041 C 
ATOM      6  O   UNL     1       4.368   3.906  21.115  1.00  0.00    -0.550 OA
ATOM      7  O   UNL     1       5.192   2.078  22.224  1.00  0.00    -0.550 OA
ENDBRANCH   4   5
ENDBRANCH   3   4
ENDBRANCH   2   3
ENDBRANCH   1   2
BRANCH   1   8
ATOM      8  C   UNL     1       8.720   4.171  17.638  1.00  0.00     0.000 C 
BRANCH   8   9
ATOM      9  C   UNL     1       9.388   5.180  16.693  1.00  0.00    -0.000 C 
BRANCH   9  10
ATOM     10  C   UNL     1       8.374   6.077  15.958  1.00  0.00    -0.000 C 
BRANCH  10  11
ATOM     11  C   UNL     1       6.980   5.456  15.760  1.00  0.00    -0.000 C 
BRANCH  11  12
ATOM     12  C   UNL     1       5.854   6.305  16.368  1.00  0.00    -0.003 C 
ATOM     13  C   UNL     1       6.395   7.623  16.916  1.00  0.00     0.004 C 
ENDBRANCH  11  12
ENDBRANCH  10  11
ENDBRANCH   9  10
ENDBRANCH   8   9
ENDBRANCH   1   8
TORSDOF 9
ENDMDL
MODEL 5
REMARK VINA RESULT:    -3.901      1.575      2.532
REMARK INTER + INTRA:          -7.059
REMARK INTER:                  -5.963
REMARK INTRA:                  -1.096
REMARK UNBOUND:                -1.105
REMARK SMILES CCCCCCCCCCC(=O)[O-]
REMARK SMILES IDX 7 1 8 2 9 3 10 4 11 5 12 6 13 7 6 8 5 9 4 10 3 11 2 12 1 13
REMARK H PARENT
REMARK Flexibility Score: inf
ROOT
ATOM      1  C   UNL     1       6.133   6.317  20.359  1.00  0.00     0.000 C 
ENDROOT
BRANCH   1   2
ATOM      2  C   UNL     1       5.814   5.832  21.781  1.00  0.00     0.000 C 
BRANCH   2   3
ATOM      3  C   UNL     1       4.478   5.072  21.867  1.00  0.00     0.006 C 
BRANCH   3   4
ATOM      4  C   UNL     1       4.454   3.746  21.089  1.00  0.00     0.053 C 
BRANCH   4   5
ATOM      5  C   UNL     1       5.500   2.791  21.578  1.00  0.00     0.041 C 
ATOM      6  O   UNL     1       5.365   2.220  22.693  1.00  0.00    -0.550 OA
ATOM      7  O   UNL     1       6.605   2.507  20.788  1.00  0.00    -0.550 OA
ENDBRANCH   4   5
ENDBRANCH   3   4
ENDBRANCH   2   3
ENDBRANCH   1   2
BRANCH   1   8
ATOM      8  C   UNL     1       7.575   5.967  19.970  1.00  0.00     0.000 C 
BRANCH   8   9
ATOM      9  C   UNL     1       7.613   5.163  18.663  1.00  0.00    -0.000 C 
BRANCH   9  10
ATOM     10  C   UNL     1       6.211   4.874  18.095  1.00  0.00    -0.000 C 
BRANCH  10  11
ATOM     11  C   UNL     1       5.956   5.426  16.681  1.00  0.00    -0.000 C 
BRANCH  11  12
ATOM     12  C   UNL     1       6.880   6.598  16.321  1.00  0.00    -0.003 C 
ATOM     13  C   UNL     1       6.299   7.925  16.803  1.00  0.00     0.004 C 
ENDBRANCH  11  12
ENDBRANCH  10  11
ENDBRANCH   9  10
ENDBRANCH   8   9
ENDBRANCH   1   8
TORSDOF 9
ENDMDL
MODEL 6
REMARK VINA RESULT:    -3.892      0.648      1.661
REMARK INTER + INTRA:          -7.045
REMARK INTER:                  -5.752
REMARK INTRA:                  -1.293
REMARK UNBOUND:                -1.105
REMARK SMILES CCCCCCCCCCC(=O)[O-]
REMARK SMILES IDX 7 1 8 2 9 3 10 4 11 5 12 6 13 7 6 8 5 9 4 10 3 11 2 12 1 13
REMARK H PARENT
REMARK Flexibility Score: inf
ROOT
ATOM      1  C   UNL     1       6.209   6.372  18.754  1.00  0.00     0.000 C 
ENDROOT
BRANCH   1   2
ATOM      2  C   UNL     1       7.488   5.743  19.325  1.00  0.00     0.000 C 
BRANCH   2   3
ATOM      3  C   UNL     1       7.376   4.217  19.500  1.00  0.00     0.006 C 
BRANCH   3   4
ATOM      4  C   UNL     1       5.958   3.660  19.295  1.00  0.00     0.053 C 
BRANCH   4   5
ATOM      5  C   UNL     1       5.295   3.321  20.595  1.00  0.00     0.041 C 
ATOM      6  O   UNL     1       5.495   2.200  21.134  1.00  0.00    -0.550 OA
ATOM      7  O   UNL     1       4.485   4.254  21.226  1.00  0.00    -0.550 OA
ENDBRANCH   4   5
ENDBRANCH   3   4
ENDBRANCH   2   3
ENDBRANCH   1   2
BRANCH   1   8
ATOM      8  C   UNL     1       6.474   7.010  17.384  1.00  0.00     0.000 C 
BRANCH   8   9
ATOM      9  C   UNL     1       5.968   6.107  16.251  1.00  0.00    -0.000 C 
BRANCH   9  10
ATOM     10  C   UNL     1       7.071   5.212  15.657  1.00  0.00    -0.000 C 
BRANCH  10  11
ATOM     11  C   UNL     1       8.440   5.895  15.484  1.00  0.00    -0.000 C 
BRANCH  11  12
ATOM     12  C   UNL     1       9.556   5.212  16.288  1.00  0.00    -0.003 C 
ATOM     13  C   UNL     1       9.314   3.708  16.395  1.00  0.00     0.004 C 
ENDBRANCH  11  12
ENDBRANCH  10  11
ENDBRANCH   9  10
ENDBRANCH   8   9
ENDBRANCH   1   8
TORSDOF 9
ENDMDL
MODEL 7
REMARK VINA RESULT:    -3.881      1.870      3.148
REMARK INTER + INTRA:          -7.027
REMARK INTER:                  -5.923
REMARK INTRA:                  -1.104
REMARK UNBOUND:                -1.105
REMARK SMILES CCCCCCCCCCC(=O)[O-]
REMARK SMILES IDX 7 1 8 2 9 3 10 4 11 5 12 6 13 7 6 8 5 9 4 10 3 11 2 12 1 13
REMARK H PARENT
REMARK Flexibility Score: inf
ROOT
ATOM      1  C   UNL     1       5.867   3.809  19.226  1.00  0.00     0.000 C 
ENDROOT
BRANCH   1   2
ATOM      2  C   UNL     1       5.489   3.004  20.478  1.00  0.00     0.000 C 
BRANCH   2   3
ATOM      3  C   UNL     1       5.347   3.885  21.733  1.00  0.00     0.006 C 
BRANCH   3   4
ATOM      4  C   UNL     1       4.680   5.246  21.478  1.00  0.00     0.053 C 
BRANCH   4   5
ATOM      5  C   UNL     1       5.586   6.389  21.822  1.00  0.00     0.041 C 
ATOM      6  O   UNL     1       6.733   6.168  22.294  1.00  0.00    -0.550 OA
ATOM      7  O   UNL     1       5.177   7.695  21.590  1.00  0.00    -0.550 OA
ENDBRANCH   4   5
ENDBRANCH   3   4
ENDBRANCH   2   3
ENDBRANCH   1   2
BRANCH   1   8
ATOM      8  C   UNL     1       7.381   4.049  19.165  1.00  0.00     0.000 C 
BRANCH   8   9
ATOM      9  C   UNL     1       7.692   5.509  18.806  1.00  0.00    -0.000 C 
BRANCH   9  10
ATOM     10  C   UNL     1       6.442   6.303  18.385  1.00  0.00    -0.000 C 
BRANCH  10  11
ATOM     11  C   UNL     1       6.455   6.814  16.933  1.00  0.00    -0.000 C 
BRANCH  11  12
ATOM     12  C   UNL     1       6.587   5.683  15.902  1.00  0.00    -0.003 C 
ATOM     13  C   UNL     1       5.259   4.954  15.713  1.00  0.00     0.004 C 
ENDBRANCH  11  12
ENDBRANCH  10  11
ENDBRANCH   9  10
ENDBRANCH   8   9
ENDBRANCH   1   8
TORSDOF 9
ENDMDL
MODEL 8
REMARK VINA RESULT:    -3.853      1.785      2.762
REMARK INTER + INTRA:          -6.986
REMARK INTER:                  -6.299
REMARK INTRA:                  -0.687
REMARK UNBOUND:                -1.105
REMARK SMILES CCCCCCCCCCC(=O)[O-]
REMARK SMILES IDX 7 1 8 2 9 3 10 4 11 5 12 6 13 7 6 8 5 9 4 10 3 11 2 12 1 13
REMARK H PARENT
REMARK Flexibility Score: inf
ROOT
ATOM      1  C   UNL     1       5.149   6.383  21.293  1.00  0.00     0.000 C 
ENDROOT
BRANCH   1   2
ATOM      2  C   UNL     1       4.392   5.050  21.207  1.00  0.00     0.000 C 
BRANCH   2   3
ATOM      3  C   UNL     1       4.563   4.183  22.469  1.00  0.00     0.006 C 
BRANCH   3   4
ATOM      4  C   UNL     1       4.916   2.715  22.183  1.00  0.00     0.053 C 
BRANCH   4   5
ATOM      5  C   UNL     1       6.001   2.588  21.157  1.00  0.00     0.041 C 
ATOM      6  O   UNL     1       5.721   2.251  19.976  1.00  0.00    -0.550 OA
ATOM      7  O   UNL     1       7.316   2.875  21.498  1.00  0.00    -0.550 OA
ENDBRANCH   4   5
ENDBRANCH   3   4
ENDBRANCH   2   3
ENDBRANCH   1   2
BRANCH   1   8
ATOM      8  C   UNL     1       6.572   6.242  20.736  1.00  0.00     0.000 C 
BRANCH   8   9
ATOM      9  C   UNL     1       6.545   5.942  19.231  1.00  0.00    -0.000 C 
BRANCH   9  10
ATOM     10  C   UNL     1       6.272   7.192  18.373  1.00  0.00    -0.000 C 
BRANCH  10  11
ATOM     11  C   UNL     1       6.335   6.963  16.853  1.00  0.00    -0.000 C 
BRANCH  11  12
ATOM     12  C   UNL     1       6.482   5.482  16.476  1.00  0.00    -0.003 C 
ATOM     13  C   UNL     1       5.255   4.983  15.717  1.00  0.00     0.004 C 
ENDBRANCH  11  12
ENDBRANCH  10  11
ENDBRANCH   9  10
ENDBRANCH   8   9
ENDBRANCH   1   8
TORSDOF 9
ENDMDL
MODEL 9
REMARK VINA RESULT:    -3.820      3.232      5.822
REMARK INTER + INTRA:          -6.935
REMARK INTER:                  -5.855
REMARK INTRA:                  -1.080
REMARK UNBOUND:                -1.105
REMARK SMILES CCCCCCCCCCC(=O)[O-]
REMARK SMILES IDX 7 1 8 2 9 3 10 4 11 5 12 6 13 7 6 8 5 9 4 10 3 11 2 12 1 13
REMARK H PARENT
REMARK Flexibility Score: inf
ROOT
ATOM      1  C   UNL     1       7.597   4.325  19.138  1.00  0.00     0.000 C 
ENDROOT
BRANCH   1   2
ATOM      2  C   UNL     1       6.320   4.615  18.335  1.00  0.00     0.000 C 
BRANCH   2   3
ATOM      3  C   UNL     1       6.264   6.059  17.803  1.00  0.00     0.006 C 
BRANCH   3   4
ATOM      4  C   UNL     1       6.260   6.168  16.270  1.00  0.00     0.053 C 
BRANCH   4   5
ATOM      5  C   UNL     1       7.533   5.657  15.668  1.00  0.00     0.041 C 
ATOM      6  O   UNL     1       7.517   4.651  14.910  1.00  0.00    -0.550 OA
ATOM      7  O   UNL     1       8.731   6.313  15.916  1.00  0.00    -0.550 OA
ENDBRANCH   4   5
ENDBRANCH   3   4
ENDBRANCH   2   3
ENDBRANCH   1   2
BRANCH   1   8
ATOM      8  C   UNL     1       7.385   3.148  20.100  1.00  0.00     0.000 C 
BRANCH   8   9
ATOM      9  C   UNL     1       5.935   2.649  20.046  1.00  0.00    -0.000 C 
BRANCH   9  10
ATOM     10  C   UNL     1       5.189   2.825  21.382  1.00  0.00    -0.000 C 
BRANCH  10  11
ATOM     11  C   UNL     1       4.371   4.123  21.504  1.00  0.00    -0.000 C 
BRANCH  11  12
ATOM     12  C   UNL     1       5.146   5.257  22.191  1.00  0.00    -0.003 C 
ATOM     13  C   UNL     1       5.165   6.513  21.324  1.00  0.00     0.004 C 
ENDBRANCH  11  12
ENDBRANCH  10  11
ENDBRANCH   9  10
ENDBRANCH   8   9
ENDBRANCH   1   8
TORSDOF 9
ENDMDL
