MODEL 1
REMARK VINA RESULT:    -3.344      0.000      0.000
REMARK INTER + INTRA:          -4.249
REMARK INTER:                  -4.028
REMARK INTRA:                  -0.221
REMARK UNBOUND:                -0.221
REMARK SMILES OCC(O)CO
REMARK SMILES IDX 3 1 5 2 6 3 2 5 1 6 4 8
REMARK H PARENT 6 4 1 7 4 9
REMARK Flexibility Score: inf
ROOT
ATOM      1  C   UNL     1     104.470 111.665 119.999  1.00  0.00     0.165 C 
ENDROOT
BRANCH   1   2
ATOM      2  C   UNL     1     105.137 112.733 119.113  1.00  0.00     0.190 C 
BRANCH   2   3
ATOM      3  O   UNL     1     106.122 113.441 119.821  1.00  0.00    -0.394 OA
ATOM      4  H   UNL     1     106.510 114.104 119.191  1.00  0.00     0.210 HD
ENDBRANCH   2   3
ENDBRANCH   1   2
BRANCH   1   5
ATOM      5  C   UNL     1     105.424 111.087 121.061  1.00  0.00     0.190 C 
BRANCH   5   6
ATOM      6  O   UNL     1     105.380 111.845 122.240  1.00  0.00    -0.394 OA
ATOM      7  H   UNL     1     105.892 111.338 122.923  1.00  0.00     0.210 HD
ENDBRANCH   5   6
ENDBRANCH   1   5
BRANCH   1   8
ATOM      8  O   UNL     1     103.307 112.175 120.601  1.00  0.00    -0.388 OA
ATOM      9  H   UNL     1     103.587 112.805 121.316  1.00  0.00     0.211 HD
ENDBRANCH   1   8
TORSDOF 5
ENDMDL
MODEL 2
REMARK VINA RESULT:    -3.341     19.664     20.371
REMARK INTER + INTRA:          -4.246
REMARK INTER:                  -4.235
REMARK INTRA:                  -0.011
REMARK UNBOUND:                -0.221
REMARK SMILES OCC(O)CO
REMARK SMILES IDX 3 1 5 2 6 3 2 5 1 6 4 8
REMARK H PARENT 6 4 1 7 4 9
REMARK Flexibility Score: inf
ROOT
ATOM      1  C   UNL     1     111.404 129.125 110.186  1.00  0.00     0.165 C 
ENDROOT
BRANCH   1   2
ATOM      2  C   UNL     1     110.480 128.273 109.296  1.00  0.00     0.190 C 
BRANCH   2   3
ATOM      3  O   UNL     1     111.108 127.081 108.901  1.00  0.00    -0.394 OA
ATOM      4  H   UNL     1     111.450 127.228 107.980  1.00  0.00     0.210 HD
ENDBRANCH   2   3
ENDBRANCH   1   2
BRANCH   1   5
ATOM      5  C   UNL     1     111.366 128.703 111.667  1.00  0.00     0.190 C 
BRANCH   5   6
ATOM      6  O   UNL     1     110.115 128.979 112.235  1.00  0.00    -0.394 OA
ATOM      7  H   UNL     1     109.641 128.110 112.316  1.00  0.00     0.210 HD
ENDBRANCH   5   6
ENDBRANCH   1   5
BRANCH   1   8
ATOM      8  O   UNL     1     112.722 129.103 109.697  1.00  0.00    -0.388 OA
ATOM      9  H   UNL     1     113.302 128.717 110.405  1.00  0.00     0.211 HD
ENDBRANCH   1   8
TORSDOF 5
ENDMDL
MODEL 3
REMARK VINA RESULT:    -3.327      1.508      2.185
REMARK INTER + INTRA:          -4.228
REMARK INTER:                  -4.226
REMARK INTRA:                  -0.003
REMARK UNBOUND:                -0.221
REMARK SMILES OCC(O)CO
REMARK SMILES IDX 3 1 5 2 6 3 2 5 1 6 4 8
REMARK H PARENT 6 4 1 7 4 9
REMARK Flexibility Score: inf
ROOT
ATOM      1  C   UNL     1     104.390 111.645 120.086  1.00  0.00     0.165 C 
ENDROOT
BRANCH   1   2
ATOM      2  C   UNL     1     105.032 112.634 119.096  1.00  0.00     0.190 C 
BRANCH   2   3
ATOM      3  O   UNL     1     106.099 113.329 119.688  1.00  0.00    -0.394 OA
ATOM      4  H   UNL     1     106.896 112.740 119.628  1.00  0.00     0.210 HD
ENDBRANCH   2   3
ENDBRANCH   1   2
BRANCH   1   5
ATOM      5  C   UNL     1     103.267 110.805 119.450  1.00  0.00     0.190 C 
BRANCH   5   6
ATOM      6  O   UNL     1     103.257 109.503 119.971  1.00  0.00    -0.394 OA
ATOM      7  H   UNL     1     103.756 109.537 120.829  1.00  0.00     0.210 HD
ENDBRANCH   5   6
ENDBRANCH   1   5
BRANCH   1   8
ATOM      8  O   UNL     1     105.367 110.813 120.661  1.00  0.00    -0.388 OA
ATOM      9  H   UNL     1     105.179 109.881 120.373  1.00  0.00     0.211 HD
ENDBRANCH   1   8
TORSDOF 5
ENDMDL
MODEL 4
REMARK VINA RESULT:    -3.304     19.552     19.992
REMARK INTER + INTRA:          -4.201
REMARK INTER:                  -3.978
REMARK INTRA:                  -0.223
REMARK UNBOUND:                -0.221
REMARK SMILES OCC(O)CO
REMARK SMILES IDX 3 1 5 2 6 3 2 5 1 6 4 8
REMARK H PARENT 6 4 1 7 4 9
REMARK Flexibility Score: inf
ROOT
ATOM      1  C   UNL     1     110.539 128.017 110.144  1.00  0.00     0.165 C 
ENDROOT
BRANCH   1   2
ATOM      2  C   UNL     1     110.766 129.125 111.190  1.00  0.00     0.190 C 
BRANCH   2   3
ATOM      3  O   UNL     1     109.940 128.945 112.311  1.00  0.00    -0.394 OA
ATOM      4  H   UNL     1     109.018 129.189 112.033  1.00  0.00     0.210 HD
ENDBRANCH   2   3
ENDBRANCH   1   2
BRANCH   1   5
ATOM      5  C   UNL     1     109.284 128.254 109.283  1.00  0.00     0.190 C 
BRANCH   5   6
ATOM      6  O   UNL     1     108.152 128.445 110.088  1.00  0.00    -0.394 OA
ATOM      7  H   UNL     1     107.718 127.557 110.183  1.00  0.00     0.210 HD
ENDBRANCH   5   6
ENDBRANCH   1   5
BRANCH   1   8
ATOM      8  O   UNL     1     111.676 127.861 109.331  1.00  0.00    -0.388 OA
ATOM      9  H   UNL     1     111.422 128.108 108.404  1.00  0.00     0.211 HD
ENDBRANCH   1   8
TORSDOF 5
ENDMDL
MODEL 5
REMARK VINA RESULT:    -3.257     15.504     16.651
REMARK INTER + INTRA:          -4.144
REMARK INTER:                  -4.142
REMARK INTRA:                  -0.002
REMARK UNBOUND:                -0.221
REMARK SMILES OCC(O)CO
REMARK SMILES IDX 3 1 5 2 6 3 2 5 1 6 4 8
REMARK H PARENT 6 4 1 7 4 9
REMARK Flexibility Score: inf
ROOT
ATOM      1  C   UNL     1     110.891 127.765 121.373  1.00  0.00     0.165 C 
ENDROOT
BRANCH   1   2
ATOM      2  C   UNL     1     110.799 126.464 122.191  1.00  0.00     0.190 C 
BRANCH   2   3
ATOM      3  O   UNL     1     109.621 126.423 122.954  1.00  0.00    -0.394 OA
ATOM      4  H   UNL     1     109.879 126.618 123.893  1.00  0.00     0.210 HD
ENDBRANCH   2   3
ENDBRANCH   1   2
BRANCH   1   5
ATOM      5  C   UNL     1     111.162 127.514 119.878  1.00  0.00     0.190 C 
BRANCH   5   6
ATOM      6  O   UNL     1     111.077 128.707 119.145  1.00  0.00    -0.394 OA
ATOM      7  H   UNL     1     110.170 129.077 119.309  1.00  0.00     0.210 HD
ENDBRANCH   5   6
ENDBRANCH   1   5
BRANCH   1   8
ATOM      8  O   UNL     1     109.732 128.542 121.543  1.00  0.00    -0.388 OA
ATOM      9  H   UNL     1     109.115 128.335 120.793  1.00  0.00     0.211 HD
ENDBRANCH   1   8
TORSDOF 5
ENDMDL
MODEL 6
REMARK VINA RESULT:    -3.236      0.990      2.658
REMARK INTER + INTRA:          -4.119
REMARK INTER:                  -3.897
REMARK INTRA:                  -0.222
REMARK UNBOUND:                -0.221
REMARK SMILES OCC(O)CO
REMARK SMILES IDX 3 1 5 2 6 3 2 5 1 6 4 8
REMARK H PARENT 6 4 1 7 4 9
REMARK Flexibility Score: inf
ROOT
ATOM      1  C   UNL     1     105.620 112.029 119.865  1.00  0.00     0.165 C 
ENDROOT
BRANCH   1   2
ATOM      2  C   UNL     1     106.073 111.393 121.192  1.00  0.00     0.190 C 
BRANCH   2   3
ATOM      3  O   UNL     1     105.472 110.140 121.389  1.00  0.00    -0.394 OA
ATOM      4  H   UNL     1     105.801 109.796 122.261  1.00  0.00     0.210 HD
ENDBRANCH   2   3
ENDBRANCH   1   2
BRANCH   1   5
ATOM      5  C   UNL     1     104.098 111.937 119.646  1.00  0.00     0.190 C 
BRANCH   5   6
ATOM      6  O   UNL     1     103.403 112.211 120.832  1.00  0.00    -0.394 OA
ATOM      7  H   UNL     1     103.253 111.338 121.282  1.00  0.00     0.210 HD
ENDBRANCH   5   6
ENDBRANCH   1   5
BRANCH   1   8
ATOM      8  O   UNL     1     106.053 113.364 119.781  1.00  0.00    -0.388 OA
ATOM      9  H   UNL     1     106.768 113.495 120.458  1.00  0.00     0.211 HD
ENDBRANCH   1   8
TORSDOF 5
ENDMDL
MODEL 7
REMARK VINA RESULT:    -3.227      1.320      2.504
REMARK INTER + INTRA:          -4.109
REMARK INTER:                  -3.885
REMARK INTRA:                  -0.223
REMARK UNBOUND:                -0.221
REMARK SMILES OCC(O)CO
REMARK SMILES IDX 3 1 5 2 6 3 2 5 1 6 4 8
REMARK H PARENT 6 4 1 7 4 9
REMARK Flexibility Score: inf
ROOT
ATOM      1  C   UNL     1     105.163 111.485 120.920  1.00  0.00     0.165 C 
ENDROOT
BRANCH   1   2
ATOM      2  C   UNL     1     106.558 111.447 121.569  1.00  0.00     0.190 C 
BRANCH   2   3
ATOM      3  O   UNL     1     106.791 112.592 122.347  1.00  0.00    -0.394 OA
ATOM      4  H   UNL     1     106.436 112.401 123.255  1.00  0.00     0.210 HD
ENDBRANCH   2   3
ENDBRANCH   1   2
BRANCH   1   5
ATOM      5  C   UNL     1     105.152 112.221 119.567  1.00  0.00     0.190 C 
BRANCH   5   6
ATOM      6  O   UNL     1     106.029 113.315 119.584  1.00  0.00    -0.394 OA
ATOM      7  H   UNL     1     106.608 113.228 118.782  1.00  0.00     0.210 HD
ENDBRANCH   5   6
ENDBRANCH   1   5
BRANCH   1   8
ATOM      8  O   UNL     1     104.643 110.186 120.782  1.00  0.00    -0.388 OA
ATOM      9  H   UNL     1     104.305 110.092 119.853  1.00  0.00     0.211 HD
ENDBRANCH   1   8
TORSDOF 5
ENDMDL
MODEL 8
REMARK VINA RESULT:    -3.188      2.185      3.153
REMARK INTER + INTRA:          -4.061
REMARK INTER:                  -4.059
REMARK INTRA:                  -0.002
REMARK UNBOUND:                -0.221
REMARK SMILES OCC(O)CO
REMARK SMILES IDX 3 1 5 2 6 3 2 5 1 6 4 8
REMARK H PARENT 6 4 1 7 4 9
REMARK Flexibility Score: inf
ROOT
ATOM      1  C   UNL     1     106.984 111.063 122.121  1.00  0.00     0.165 C 
ENDROOT
BRANCH   1   2
ATOM      2  C   UNL     1     105.973 111.465 121.031  1.00  0.00     0.190 C 
BRANCH   2   3
ATOM      3  O   UNL     1     106.402 112.605 120.333  1.00  0.00    -0.394 OA
ATOM      4  H   UNL     1     107.080 112.301 119.674  1.00  0.00     0.210 HD
ENDBRANCH   2   3
ENDBRANCH   1   2
BRANCH   1   5
ATOM      5  C   UNL     1     107.004 109.546 122.390  1.00  0.00     0.190 C 
BRANCH   5   6
ATOM      6  O   UNL     1     105.883 109.154 123.136  1.00  0.00    -0.394 OA
ATOM      7  H   UNL     1     105.085 109.458 122.630  1.00  0.00     0.210 HD
ENDBRANCH   5   6
ENDBRANCH   1   5
BRANCH   1   8
ATOM      8  O   UNL     1     108.272 111.526 121.800  1.00  0.00    -0.388 OA
ATOM      9  H   UNL     1     108.707 111.823 122.642  1.00  0.00     0.211 HD
ENDBRANCH   1   8
TORSDOF 5
ENDMDL
MODEL 9
REMARK VINA RESULT:    -3.081     16.033     16.939
REMARK INTER + INTRA:          -3.932
REMARK INTER:                  -3.709
REMARK INTRA:                  -0.224
REMARK UNBOUND:                -0.221
REMARK SMILES OCC(O)CO
REMARK SMILES IDX 3 1 5 2 6 3 2 5 1 6 4 8
REMARK H PARENT 6 4 1 7 4 9
REMARK Flexibility Score: inf
ROOT
ATOM      1  C   UNL     1     110.762 127.223 120.998  1.00  0.00     0.165 C 
ENDROOT
BRANCH   1   2
ATOM      2  C   UNL     1     110.414 128.614 121.560  1.00  0.00     0.190 C 
BRANCH   2   3
ATOM      3  O   UNL     1     109.223 129.107 121.002  1.00  0.00    -0.394 OA
ATOM      4  H   UNL     1     109.136 128.697 120.101  1.00  0.00     0.210 HD
ENDBRANCH   2   3
ENDBRANCH   1   2
BRANCH   1   5
ATOM      5  C   UNL     1     111.551 127.291 119.677  1.00  0.00     0.190 C 
BRANCH   5   6
ATOM      6  O   UNL     1     111.277 128.482 118.990  1.00  0.00    -0.394 OA
ATOM      7  H   UNL     1     110.894 129.112 119.655  1.00  0.00     0.210 HD
ENDBRANCH   5   6
ENDBRANCH   1   5
BRANCH   1   8
ATOM      8  O   UNL     1     111.458 126.462 121.954  1.00  0.00    -0.388 OA
ATOM      9  H   UNL     1     112.337 126.216 121.563  1.00  0.00     0.211 HD
ENDBRANCH   1   8
TORSDOF 5
ENDMDL
