MODEL 1
REMARK VINA RESULT:    -5.806      0.000      0.000
REMARK INTER + INTRA:          -5.806
REMARK INTER:                  -5.806
REMARK INTRA:                   0.000
REMARK UNBOUND:                 0.000
REMARK SMILES C=C1c2ccccc2-c2ccccc21
REMARK SMILES IDX 1 1 2 2 3 3 4 4 5 5 6 6 7 7 8 8 9 9 10 10 11 11 12 12 13 13
REMARK SMILES IDX 14 14
REMARK H PARENT
REMARK Flexibility Score: inf
ROOT
ATOM      1  C   UNL     1      52.489  60.533 244.480  1.00  0.00     0.018 C 
ATOM      2  C   UNL     1      52.060  59.730 245.451  1.00  0.00    -0.017 C 
ATOM      3  C   UNL     1      52.801  58.638 246.096  1.00  0.00    -0.010 A 
ATOM      4  C   UNL     1      54.099  58.173 245.869  1.00  0.00     0.009 A 
ATOM      5  C   UNL     1      54.566  57.094 246.641  1.00  0.00     0.001 A 
ATOM      6  C   UNL     1      53.739  56.503 247.616  1.00  0.00     0.001 A 
ATOM      7  C   UNL     1      52.436  56.982 247.832  1.00  0.00     0.009 A 
ATOM      8  C   UNL     1      51.991  58.054 247.056  1.00  0.00    -0.010 A 
ATOM      9  C   UNL     1      50.708  58.746 247.063  1.00  0.00    -0.010 A 
ATOM     10  C   UNL     1      49.574  58.528 247.846  1.00  0.00     0.009 A 
ATOM     11  C   UNL     1      48.457  59.355 247.641  1.00  0.00     0.001 A 
ATOM     12  C   UNL     1      48.491  60.375 246.668  1.00  0.00     0.001 A 
ATOM     13  C   UNL     1      49.644  60.579 245.890  1.00  0.00     0.009 A 
ATOM     14  C   UNL     1      50.746  59.747 246.107  1.00  0.00    -0.010 A 
ENDROOT
TORSDOF 0
ENDMDL
MODEL 2
REMARK VINA RESULT:    -5.801      0.054      4.268
REMARK INTER + INTRA:          -5.801
REMARK INTER:                  -5.801
REMARK INTRA:                   0.000
REMARK UNBOUND:                 0.000
REMARK SMILES C=C1c2ccccc2-c2ccccc21
REMARK SMILES IDX 1 1 2 2 3 3 4 4 5 5 6 6 7 7 8 8 9 9 10 10 11 11 12 12 13 13
REMARK SMILES IDX 14 14
REMARK H PARENT
REMARK Flexibility Score: inf
ROOT
ATOM      1  C   UNL     1      52.472  60.525 244.468  1.00  0.00     0.018 C 
ATOM      2  C   UNL     1      52.034  59.738 245.449  1.00  0.00    -0.017 C 
ATOM      3  C   UNL     1      50.720  59.775 246.102  1.00  0.00    -0.010 A 
ATOM      4  C   UNL     1      49.626  60.614 245.876  1.00  0.00     0.009 A 
ATOM      5  C   UNL     1      48.471  60.431 246.657  1.00  0.00     0.001 A 
ATOM      6  C   UNL     1      48.428  59.422 247.641  1.00  0.00     0.001 A 
ATOM      7  C   UNL     1      49.536  58.587 247.855  1.00  0.00     0.009 A 
ATOM      8  C   UNL     1      50.672  58.785 247.070  1.00  0.00    -0.010 A 
ATOM      9  C   UNL     1      51.949  58.079 247.072  1.00  0.00    -0.010 A 
ATOM     10  C   UNL     1      52.383  57.013 247.860  1.00  0.00     0.009 A 
ATOM     11  C   UNL     1      53.681  56.519 247.651  1.00  0.00     0.001 A 
ATOM     12  C   UNL     1      54.515  57.092 246.668  1.00  0.00     0.001 A 
ATOM     13  C   UNL     1      54.058  58.166 245.884  1.00  0.00     0.009 A 
ATOM     14  C   UNL     1      52.764  58.645 246.106  1.00  0.00    -0.010 A 
ENDROOT
TORSDOF 0
ENDMDL
MODEL 3
REMARK VINA RESULT:    -5.733      0.709      2.933
REMARK INTER + INTRA:          -5.733
REMARK INTER:                  -5.733
REMARK INTRA:                   0.000
REMARK UNBOUND:                 0.000
REMARK SMILES C=C1c2ccccc2-c2ccccc21
REMARK SMILES IDX 1 1 2 2 3 3 4 4 5 5 6 6 7 7 8 8 9 9 10 10 11 11 12 12 13 13
REMARK SMILES IDX 14 14
REMARK H PARENT
REMARK Flexibility Score: inf
ROOT
ATOM      1  C   UNL     1      52.244  57.099 247.900  1.00  0.00     0.018 C 
ATOM      2  C   UNL     1      51.850  58.118 247.139  1.00  0.00    -0.017 C 
ATOM      3  C   UNL     1      52.630  58.812 246.106  1.00  0.00    -0.010 A 
ATOM      4  C   UNL     1      53.938  58.594 245.666  1.00  0.00     0.009 A 
ATOM      5  C   UNL     1      54.446  59.417 244.646  1.00  0.00     0.001 A 
ATOM      6  C   UNL     1      53.647  60.435 244.086  1.00  0.00     0.001 A 
ATOM      7  C   UNL     1      52.334  60.641 244.539  1.00  0.00     0.009 A 
ATOM      8  C   UNL     1      51.849  59.813 245.552  1.00  0.00    -0.010 A 
ATOM      9  C   UNL     1      50.545  59.797 246.206  1.00  0.00    -0.010 A 
ATOM     10  C   UNL     1      49.427  60.606 245.998  1.00  0.00     0.009 A 
ATOM     11  C   UNL     1      48.284  60.371 246.780  1.00  0.00     0.001 A 
ATOM     12  C   UNL     1      48.277  59.343 247.746  1.00  0.00     0.001 A 
ATOM     13  C   UNL     1      49.414  58.539 247.940  1.00  0.00     0.009 A 
ATOM     14  C   UNL     1      50.542  58.787 247.153  1.00  0.00    -0.010 A 
ENDROOT
TORSDOF 0
ENDMDL
MODEL 4
REMARK VINA RESULT:    -5.694      0.685      4.776
REMARK INTER + INTRA:          -5.694
REMARK INTER:                  -5.694
REMARK INTRA:                   0.000
REMARK UNBOUND:                 0.000
REMARK SMILES C=C1c2ccccc2-c2ccccc21
REMARK SMILES IDX 1 1 2 2 3 3 4 4 5 5 6 6 7 7 8 8 9 9 10 10 11 11 12 12 13 13
REMARK SMILES IDX 14 14
REMARK H PARENT
REMARK Flexibility Score: inf
ROOT
ATOM      1  C   UNL     1      52.352  57.139 247.926  1.00  0.00     0.018 C 
ATOM      2  C   UNL     1      51.943  58.143 247.152  1.00  0.00    -0.017 C 
ATOM      3  C   UNL     1      50.625  58.791 247.156  1.00  0.00    -0.010 A 
ATOM      4  C   UNL     1      49.498  58.535 247.942  1.00  0.00     0.009 A 
ATOM      5  C   UNL     1      48.348  59.318 247.735  1.00  0.00     0.001 A 
ATOM      6  C   UNL     1      48.342  60.333 246.757  1.00  0.00     0.001 A 
ATOM      7  C   UNL     1      49.483  60.577 245.976  1.00  0.00     0.009 A 
ATOM      8  C   UNL     1      50.614  59.790 246.197  1.00  0.00    -0.010 A 
ATOM      9  C   UNL     1      51.919  59.819 245.545  1.00  0.00    -0.010 A 
ATOM     10  C   UNL     1      52.394  60.642 244.524  1.00  0.00     0.009 A 
ATOM     11  C   UNL     1      53.712  60.452 244.077  1.00  0.00     0.001 A 
ATOM     12  C   UNL     1      54.525  59.454 244.653  1.00  0.00     0.001 A 
ATOM     13  C   UNL     1      54.028  58.636 245.682  1.00  0.00     0.009 A 
ATOM     14  C   UNL     1      52.714  58.838 246.113  1.00  0.00    -0.010 A 
ENDROOT
TORSDOF 0
ENDMDL
MODEL 5
REMARK VINA RESULT:    -5.676      8.401     11.573
REMARK INTER + INTRA:          -5.676
REMARK INTER:                  -5.676
REMARK INTRA:                   0.000
REMARK UNBOUND:                 0.000
REMARK SMILES C=C1c2ccccc2-c2ccccc21
REMARK SMILES IDX 1 1 2 2 3 3 4 4 5 5 6 6 7 7 8 8 9 9 10 10 11 11 12 12 13 13
REMARK SMILES IDX 14 14
REMARK H PARENT
REMARK Flexibility Score: inf
ROOT
ATOM      1  C   UNL     1      61.570  61.916 248.131  1.00  0.00     0.018 C 
ATOM      2  C   UNL     1      61.879  60.780 247.508  1.00  0.00    -0.017 C 
ATOM      3  C   UNL     1      61.079  60.069 246.502  1.00  0.00    -0.010 A 
ATOM      4  C   UNL     1      59.833  60.386 245.954  1.00  0.00     0.009 A 
ATOM      5  C   UNL     1      59.287  59.518 244.993  1.00  0.00     0.001 A 
ATOM      6  C   UNL     1      59.986  58.359 244.597  1.00  0.00     0.001 A 
ATOM      7  C   UNL     1      61.237  58.056 245.158  1.00  0.00     0.009 A 
ATOM      8  C   UNL     1      61.762  58.930 246.110  1.00  0.00    -0.010 A 
ATOM      9  C   UNL     1      63.020  58.868 246.847  1.00  0.00    -0.010 A 
ATOM     10  C   UNL     1      64.041  57.919 246.802  1.00  0.00     0.009 A 
ATOM     11  C   UNL     1      65.159  58.107 247.631  1.00  0.00     0.001 A 
ATOM     12  C   UNL     1      65.237  59.228 248.483  1.00  0.00     0.001 A 
ATOM     13  C   UNL     1      64.197  60.173 248.514  1.00  0.00     0.009 A 
ATOM     14  C   UNL     1      63.093  59.971 247.682  1.00  0.00    -0.010 A 
ENDROOT
TORSDOF 0
ENDMDL
MODEL 6
REMARK VINA RESULT:    -5.675      8.459     11.031
REMARK INTER + INTRA:          -5.675
REMARK INTER:                  -5.675
REMARK INTRA:                   0.000
REMARK UNBOUND:                 0.000
REMARK SMILES C=C1c2ccccc2-c2ccccc21
REMARK SMILES IDX 1 1 2 2 3 3 4 4 5 5 6 6 7 7 8 8 9 9 10 10 11 11 12 12 13 13
REMARK SMILES IDX 14 14
REMARK H PARENT
REMARK Flexibility Score: inf
ROOT
ATOM      1  C   UNL     1      61.545  61.858 248.086  1.00  0.00     0.018 C 
ATOM      2  C   UNL     1      61.903  60.716 247.502  1.00  0.00    -0.017 C 
ATOM      3  C   UNL     1      63.132  59.945 247.732  1.00  0.00    -0.010 A 
ATOM      4  C   UNL     1      64.206  60.196 248.591  1.00  0.00     0.009 A 
ATOM      5  C   UNL     1      65.271  59.279 248.613  1.00  0.00     0.001 A 
ATOM      6  C   UNL     1      65.247  58.136 247.788  1.00  0.00     0.001 A 
ATOM      7  C   UNL     1      64.160  57.898 246.931  1.00  0.00     0.009 A 
ATOM      8  C   UNL     1      63.113  58.820 246.923  1.00  0.00    -0.010 A 
ATOM      9  C   UNL     1      61.877  58.829 246.148  1.00  0.00    -0.010 A 
ATOM     10  C   UNL     1      61.404  57.919 245.203  1.00  0.00     0.009 A 
ATOM     11  C   UNL     1      60.163  58.175 244.599  1.00  0.00     0.001 A 
ATOM     12  C   UNL     1      59.421  59.323 244.945  1.00  0.00     0.001 A 
ATOM     13  C   UNL     1      59.916  60.228 245.901  1.00  0.00     0.009 A 
ATOM     14  C   UNL     1      61.153  59.958 246.492  1.00  0.00    -0.010 A 
ENDROOT
TORSDOF 0
ENDMDL
MODEL 7
REMARK VINA RESULT:    -5.626      8.206     10.517
REMARK INTER + INTRA:          -5.626
REMARK INTER:                  -5.626
REMARK INTRA:                   0.000
REMARK UNBOUND:                 0.000
REMARK SMILES C=C1c2ccccc2-c2ccccc21
REMARK SMILES IDX 1 1 2 2 3 3 4 4 5 5 6 6 7 7 8 8 9 9 10 10 11 11 12 12 13 13
REMARK SMILES IDX 14 14
REMARK H PARENT
REMARK Flexibility Score: inf
ROOT
ATOM      1  C   UNL     1      61.107  57.892 244.922  1.00  0.00     0.018 C 
ATOM      2  C   UNL     1      61.444  58.808 245.828  1.00  0.00    -0.017 C 
ATOM      3  C   UNL     1      62.675  58.860 246.627  1.00  0.00    -0.010 A 
ATOM      4  C   UNL     1      63.774  57.996 246.646  1.00  0.00     0.009 A 
ATOM      5  C   UNL     1      64.835  58.285 247.521  1.00  0.00     0.001 A 
ATOM      6  C   UNL     1      64.784  59.420 248.355  1.00  0.00     0.001 A 
ATOM      7  C   UNL     1      63.673  60.278 248.324  1.00  0.00     0.009 A 
ATOM      8  C   UNL     1      62.630  59.974 247.448  1.00  0.00    -0.010 A 
ATOM      9  C   UNL     1      61.374  60.675 247.207  1.00  0.00    -0.010 A 
ATOM     10  C   UNL     1      60.871  61.841 247.785  1.00  0.00     0.009 A 
ATOM     11  C   UNL     1      59.614  62.302 247.362  1.00  0.00     0.001 A 
ATOM     12  C   UNL     1      58.887  61.600 246.378  1.00  0.00     0.001 A 
ATOM     13  C   UNL     1      59.412  60.427 245.807  1.00  0.00     0.009 A 
ATOM     14  C   UNL     1      60.664  59.982 246.240  1.00  0.00    -0.010 A 
ENDROOT
TORSDOF 0
ENDMDL
MODEL 8
REMARK VINA RESULT:    -5.589      2.781      4.729
REMARK INTER + INTRA:          -5.589
REMARK INTER:                  -5.589
REMARK INTRA:                   0.000
REMARK UNBOUND:                 0.000
REMARK SMILES C=C1c2ccccc2-c2ccccc21
REMARK SMILES IDX 1 1 2 2 3 3 4 4 5 5 6 6 7 7 8 8 9 9 10 10 11 11 12 12 13 13
REMARK SMILES IDX 14 14
REMARK H PARENT
REMARK Flexibility Score: inf
ROOT
ATOM      1  C   UNL     1      54.722  56.760 246.301  1.00  0.00     0.018 C 
ATOM      2  C   UNL     1      55.060  58.042 246.174  1.00  0.00    -0.017 C 
ATOM      3  C   UNL     1      56.414  58.600 246.069  1.00  0.00    -0.010 A 
ATOM      4  C   UNL     1      57.655  57.958 246.072  1.00  0.00     0.009 A 
ATOM      5  C   UNL     1      58.814  58.746 245.955  1.00  0.00     0.001 A 
ATOM      6  C   UNL     1      58.716  60.147 245.836  1.00  0.00     0.001 A 
ATOM      7  C   UNL     1      57.460  60.776 245.834  1.00  0.00     0.009 A 
ATOM      8  C   UNL     1      56.322  59.977 245.951  1.00  0.00    -0.010 A 
ATOM      9  C   UNL     1      54.913  60.351 245.977  1.00  0.00    -0.010 A 
ATOM     10  C   UNL     1      54.316  61.609 245.892  1.00  0.00     0.009 A 
ATOM     11  C   UNL     1      52.915  61.684 245.945  1.00  0.00     0.001 A 
ATOM     12  C   UNL     1      52.140  60.513 246.080  1.00  0.00     0.001 A 
ATOM     13  C   UNL     1      52.761  59.254 246.164  1.00  0.00     0.009 A 
ATOM     14  C   UNL     1      54.156  59.198 246.110  1.00  0.00    -0.010 A 
ENDROOT
TORSDOF 0
ENDMDL
MODEL 9
REMARK VINA RESULT:    -5.553      1.212      1.806
REMARK INTER + INTRA:          -5.553
REMARK INTER:                  -5.553
REMARK INTRA:                   0.000
REMARK UNBOUND:                 0.000
REMARK SMILES C=C1c2ccccc2-c2ccccc21
REMARK SMILES IDX 1 1 2 2 3 3 4 4 5 5 6 6 7 7 8 8 9 9 10 10 11 11 12 12 13 13
REMARK SMILES IDX 14 14
REMARK H PARENT
REMARK Flexibility Score: inf
ROOT
ATOM      1  C   UNL     1      52.855  61.528 244.339  1.00  0.00     0.018 C 
ATOM      2  C   UNL     1      52.852  60.434 245.097  1.00  0.00    -0.017 C 
ATOM      3  C   UNL     1      54.003  59.594 245.453  1.00  0.00    -0.010 A 
ATOM      4  C   UNL     1      55.351  59.717 245.103  1.00  0.00     0.009 A 
ATOM      5  C   UNL     1      56.257  58.758 245.588  1.00  0.00     0.001 A 
ATOM      6  C   UNL     1      55.808  57.702 246.407  1.00  0.00     0.001 A 
ATOM      7  C   UNL     1      54.451  57.593 246.750  1.00  0.00     0.009 A 
ATOM      8  C   UNL     1      53.567  58.555 246.258  1.00  0.00    -0.010 A 
ATOM      9  C   UNL     1      52.128  58.689 246.448  1.00  0.00    -0.010 A 
ATOM     10  C   UNL     1      51.239  57.894 247.174  1.00  0.00     0.009 A 
ATOM     11  C   UNL     1      49.883  58.258 247.188  1.00  0.00     0.001 A 
ATOM     12  C   UNL     1      49.441  59.399 246.485  1.00  0.00     0.001 A 
ATOM     13  C   UNL     1      50.352  60.187 245.761  1.00  0.00     0.009 A 
ATOM     14  C   UNL     1      51.698  59.810 245.757  1.00  0.00    -0.010 A 
ENDROOT
TORSDOF 0
ENDMDL
