MODEL 1
REMARK VINA RESULT:     0.016      0.000      0.000
REMARK INTER + INTRA:           0.128
REMARK INTER:                   0.019
REMARK INTRA:                   0.109
REMARK UNBOUND:                 0.109
REMARK SMILES O=c1c(O)c(-c2ccc(O)c(O)c2)oc2cc(O)cc(O)c12
REMARK SMILES IDX 5 1 3 2 2 3 1 4 22 5 20 6 19 7 17 8 16 9 15 10 14 11 6 12
REMARK SMILES IDX 7 13 8 14 9 15 13 16 11 17 10 18 12 20 4 22 21 24 18 26
REMARK H PARENT 10 19 12 21 4 23 21 25 18 27
REMARK Flexibility Score: inf
ROOT
ATOM      1  C   UNL     1      30.094 -22.805   0.970  1.00  0.00     0.180 A 
ATOM      2  C   UNL     1      31.057 -22.327   1.878  1.00  0.00     0.208 A 
ATOM      3  C   UNL     1      30.952 -21.008   2.346  1.00  0.00     0.238 A 
ATOM      4  O   UNL     1      31.803 -20.570   3.167  1.00  0.00    -0.285 OA
ATOM      5  C   UNL     1      29.903 -20.186   1.883  1.00  0.00     0.111 A 
ATOM      6  C   UNL     1      29.728 -18.845   2.302  1.00  0.00     0.134 A 
ATOM      7  C   UNL     1      28.663 -18.089   1.789  1.00  0.00     0.093 A 
ATOM      8  C   UNL     1      27.772 -18.647   0.869  1.00  0.00     0.123 A 
ATOM      9  C   UNL     1      27.939 -19.971   0.454  1.00  0.00     0.094 A 
ATOM     10  C   UNL     1      28.993 -20.741   0.953  1.00  0.00     0.146 A 
ATOM     11  O   UNL     1      29.127 -21.998   0.545  1.00  0.00    -0.452 OA
ENDROOT
BRANCH   1  12
ATOM     12  C   UNL     1      30.126 -24.191   0.447  1.00  0.00     0.025 A 
ATOM     13  C   UNL     1      31.339 -24.727  -0.013  1.00  0.00     0.016 A 
ATOM     14  C   UNL     1      31.390 -26.024  -0.530  1.00  0.00     0.051 A 
ATOM     15  C   UNL     1      30.225 -26.799  -0.610  1.00  0.00     0.157 A 
ATOM     16  C   UNL     1      28.955 -24.964   0.346  1.00  0.00     0.062 A 
ATOM     17  C   UNL     1      29.002 -26.262  -0.174  1.00  0.00     0.158 A 
BRANCH  15  18
ATOM     18  O   UNL     1      30.279 -28.092  -1.125  1.00  0.00    -0.504 OA
ATOM     19  H   UNL     1      31.107 -28.445  -1.590  1.00  0.00     0.293 HD
ENDBRANCH  15  18
BRANCH  17  20
ATOM     20  O   UNL     1      27.823 -27.003  -0.253  1.00  0.00    -0.504 OA
ATOM     21  H   UNL     1      27.547 -27.486  -1.100  1.00  0.00     0.293 HD
ENDBRANCH  17  20
ENDBRANCH   1  12
BRANCH   2  22
ATOM     22  O   UNL     1      32.116 -23.144   2.282  1.00  0.00    -0.502 OA
ATOM     23  H   UNL     1      32.250 -23.423   3.245  1.00  0.00     0.293 HD
ENDBRANCH   2  22
BRANCH   6  24
ATOM     24  O   UNL     1      30.601 -18.258   3.218  1.00  0.00    -0.507 OA
ATOM     25  H   UNL     1      31.300 -18.801   3.713  1.00  0.00     0.293 HD
ENDBRANCH   6  24
BRANCH   8  26
ATOM     26  O   UNL     1      26.723 -17.875   0.375  1.00  0.00    -0.508 OA
ATOM     27  H   UNL     1      26.569 -16.925   0.690  1.00  0.00     0.293 HD
ENDBRANCH   8  26
TORSDOF 6
ENDMDL
MODEL 2
REMARK VINA RESULT:     1.208      4.658      6.664
REMARK INTER + INTRA:           1.564
REMARK INTER:                   1.282
REMARK INTRA:                   0.282
REMARK UNBOUND:                 0.109
REMARK SMILES O=c1c(O)c(-c2ccc(O)c(O)c2)oc2cc(O)cc(O)c12
REMARK SMILES IDX 5 1 3 2 2 3 1 4 22 5 20 6 19 7 17 8 16 9 15 10 14 11 6 12
REMARK SMILES IDX 7 13 8 14 9 15 13 16 11 17 10 18 12 20 4 22 21 24 18 26
REMARK H PARENT 10 19 12 21 4 23 21 25 18 27
REMARK Flexibility Score: inf
ROOT
ATOM      1  C   UNL     1      26.535 -19.157   0.830  1.00  0.00     0.180 A 
ATOM      2  C   UNL     1      26.814 -19.623   2.128  1.00  0.00     0.208 A 
ATOM      3  C   UNL     1      28.151 -19.690   2.551  1.00  0.00     0.238 A 
ATOM      4  O   UNL     1      28.414 -20.097   3.716  1.00  0.00    -0.285 OA
ATOM      5  C   UNL     1      29.182 -19.313   1.666  1.00  0.00     0.111 A 
ATOM      6  C   UNL     1      30.554 -19.356   2.013  1.00  0.00     0.134 A 
ATOM      7  C   UNL     1      31.521 -18.971   1.072  1.00  0.00     0.093 A 
ATOM      8  C   UNL     1      31.145 -18.547  -0.204  1.00  0.00     0.123 A 
ATOM      9  C   UNL     1      29.791 -18.501  -0.552  1.00  0.00     0.094 A 
ATOM     10  C   UNL     1      28.812 -18.879   0.371  1.00  0.00     0.146 A 
ATOM     11  O   UNL     1      27.533 -18.823   0.018  1.00  0.00    -0.452 OA
ENDROOT
BRANCH   1  12
ATOM     12  C   UNL     1      25.150 -19.038   0.318  1.00  0.00     0.025 A 
ATOM     13  C   UNL     1      24.836 -18.019  -0.595  1.00  0.00     0.016 A 
ATOM     14  C   UNL     1      23.531 -17.875  -1.075  1.00  0.00     0.051 A 
ATOM     15  C   UNL     1      22.518 -18.738  -0.637  1.00  0.00     0.157 A 
ATOM     16  C   UNL     1      24.125 -19.889   0.772  1.00  0.00     0.062 A 
ATOM     17  C   UNL     1      22.817 -19.746   0.295  1.00  0.00     0.158 A 
BRANCH  15  18
ATOM     18  O   UNL     1      21.218 -18.593  -1.118  1.00  0.00    -0.504 OA
ATOM     19  H   UNL     1      20.473 -19.216  -0.831  1.00  0.00     0.293 HD
ENDBRANCH  15  18
BRANCH  17  20
ATOM     20  O   UNL     1      21.828 -20.611   0.761  1.00  0.00    -0.504 OA
ATOM     21  H   UNL     1      21.390 -21.300   0.162  1.00  0.00     0.293 HD
ENDBRANCH  17  20
ENDBRANCH   1  12
BRANCH   2  22
ATOM     22  O   UNL     1      25.778 -20.039   2.969  1.00  0.00    -0.502 OA
ATOM     23  H   UNL     1      25.847 -20.868   3.545  1.00  0.00     0.293 HD
ENDBRANCH   2  22
BRANCH   6  24
ATOM     24  O   UNL     1      30.963 -19.776   3.278  1.00  0.00    -0.507 OA
ATOM     25  H   UNL     1      30.850 -20.736   3.585  1.00  0.00     0.293 HD
ENDBRANCH   6  24
BRANCH   8  26
ATOM     26  O   UNL     1      32.125 -18.171  -1.120  1.00  0.00    -0.508 OA
ATOM     27  H   UNL     1      32.006 -18.320  -2.115  1.00  0.00     0.293 HD
ENDBRANCH   8  26
TORSDOF 6
ENDMDL
