MODEL 1
REMARK VINA RESULT:    -6.147      0.000      0.000
REMARK INTER + INTRA:          -6.819
REMARK INTER:                  -6.686
REMARK INTRA:                  -0.133
REMARK UNBOUND:                -0.133
REMARK SMILES CC(=O)[C@@H]1CC[C@H]2[C@H]3CC=C4C[C@@H](O)CC[C@@]4(C)[C@@H]3CC[C@@]12C
REMARK SMILES IDX 4 1 5 2 6 3 7 4 22 5 21 6 20 7 19 8 8 9 9 10 10 11 11 12
REMARK SMILES IDX 17 13 16 14 15 15 13 16 12 17 18 18 23 19 2 20 1 21 3 22
REMARK SMILES IDX 14 23
REMARK H PARENT 14 24
REMARK Flexibility Score: inf
ROOT
ATOM      1  C   UNL     1     167.604 159.210 152.136  1.00  0.00     0.062 C 
ATOM      2  C   UNL     1     167.836 160.659 152.595  1.00  0.00     0.012 C 
ATOM      3  C   UNL     1     169.045 161.189 151.821  1.00  0.00     0.005 C 
ATOM      4  C   UNL     1     169.456 160.092 150.822  1.00  0.00    -0.001 C 
ATOM      5  C   UNL     1     168.927 158.779 151.434  1.00  0.00    -0.020 C 
ATOM      6  C   UNL     1     169.910 158.254 152.525  1.00  0.00     0.008 C 
ATOM      7  C   UNL     1     171.359 158.153 152.045  1.00  0.00     0.005 C 
ATOM      8  C   UNL     1     171.892 159.516 151.536  1.00  0.00     0.003 C 
ATOM      9  C   UNL     1     170.965 160.064 150.422  1.00  0.00     0.000 C 
ATOM     10  C   UNL     1     171.434 161.457 149.969  1.00  0.00     0.031 C 
ATOM     11  C   UNL     1     172.908 161.529 149.711  1.00  0.00    -0.027 C 
ATOM     12  C   UNL     1     173.810 160.739 150.328  1.00  0.00    -0.065 C 
ATOM     13  C   UNL     1     173.406 159.457 151.075  1.00  0.00    -0.008 C 
ATOM     14  C   UNL     1     174.308 159.311 152.341  1.00  0.00     0.014 C 
ATOM     15  C   UNL     1     175.808 159.505 152.069  1.00  0.00     0.033 C 
ATOM     16  C   UNL     1     176.108 160.845 151.381  1.00  0.00     0.118 C 
ATOM     17  C   UNL     1     175.285 161.021 150.095  1.00  0.00     0.063 C 
ATOM     18  C   UNL     1     173.664 158.255 150.122  1.00  0.00     0.016 C 
ATOM     19  C   UNL     1     168.708 157.690 150.352  1.00  0.00     0.012 C 
ENDROOT
BRANCH   1  20
ATOM     20  C   UNL     1     166.343 159.072 151.286  1.00  0.00     0.133 C 
ATOM     21  C   UNL     1     165.413 157.891 151.367  1.00  0.00     0.088 C 
ATOM     22  O   UNL     1     166.050 159.980 150.523  1.00  0.00    -0.300 OA
ENDBRANCH   1  20
BRANCH  16  23
ATOM     23  O   UNL     1     175.929 161.925 152.266  1.00  0.00    -0.393 OA
ATOM     24  H   UNL     1     176.727 161.985 152.851  1.00  0.00     0.210 HD
ENDBRANCH  16  23
TORSDOF 2
ENDMDL
MODEL 2
REMARK VINA RESULT:    -6.129      8.391     10.298
REMARK INTER + INTRA:          -6.800
REMARK INTER:                  -6.670
REMARK INTRA:                  -0.130
REMARK UNBOUND:                -0.133
REMARK SMILES CC(=O)[C@@H]1CC[C@H]2[C@H]3CC=C4C[C@@H](O)CC[C@@]4(C)[C@@H]3CC[C@@]12C
REMARK SMILES IDX 4 1 5 2 6 3 7 4 22 5 21 6 20 7 19 8 8 9 9 10 10 11 11 12
REMARK SMILES IDX 17 13 16 14 15 15 13 16 12 17 18 18 23 19 2 20 1 21 3 22
REMARK SMILES IDX 14 23
REMARK H PARENT 14 24
REMARK Flexibility Score: inf
ROOT
ATOM      1  C   UNL     1     172.865 165.393 152.121  1.00  0.00     0.062 C 
ATOM      2  C   UNL     1     171.553 166.049 152.585  1.00  0.00     0.012 C 
ATOM      3  C   UNL     1     171.411 167.363 151.812  1.00  0.00     0.005 C 
ATOM      4  C   UNL     1     172.578 167.425 150.810  1.00  0.00    -0.001 C 
ATOM      5  C   UNL     1     173.672 166.526 151.418  1.00  0.00    -0.020 C 
ATOM      6  C   UNL     1     174.472 167.304 152.509  1.00  0.00     0.008 C 
ATOM      7  C   UNL     1     175.002 168.655 152.028  1.00  0.00     0.005 C 
ATOM      8  C   UNL     1     173.862 169.574 151.524  1.00  0.00     0.003 C 
ATOM      9  C   UNL     1     173.057 168.858 150.411  1.00  0.00     0.000 C 
ATOM     10  C   UNL     1     171.869 169.724 149.963  1.00  0.00     0.031 C 
ATOM     11  C   UNL     1     172.243 171.152 149.706  1.00  0.00    -0.027 C 
ATOM     12  C   UNL     1     173.270 171.774 150.320  1.00  0.00    -0.065 C 
ATOM     13  C   UNL     1     174.372 171.001 151.063  1.00  0.00    -0.008 C 
ATOM     14  C   UNL     1     174.787 171.815 152.330  1.00  0.00     0.014 C 
ATOM     15  C   UNL     1     175.052 173.305 152.058  1.00  0.00     0.033 C 
ATOM     16  C   UNL     1     173.863 173.996 151.375  1.00  0.00     0.118 C 
ATOM     17  C   UNL     1     173.444 173.265 150.089  1.00  0.00     0.063 C 
ATOM     18  C   UNL     1     175.594 170.887 150.107  1.00  0.00     0.016 C 
ATOM     19  C   UNL     1     174.641 165.990 150.333  1.00  0.00     0.012 C 
ENDROOT
BRANCH   1  20
ATOM     20  C   UNL     1     172.614 164.150 151.270  1.00  0.00     0.133 C 
ATOM     21  C   UNL     1     173.473 162.915 151.334  1.00  0.00     0.088 C 
ATOM     22  O   UNL     1     171.649 164.139 150.521  1.00  0.00    -0.300 OA
ENDBRANCH   1  20
BRANCH  16  23
ATOM     23  O   UNL     1     172.782 174.148 152.263  1.00  0.00    -0.393 OA
ATOM     24  H   UNL     1     172.626 173.281 152.718  1.00  0.00     0.210 HD
ENDBRANCH  16  23
TORSDOF 2
ENDMDL
MODEL 3
REMARK VINA RESULT:    -6.102      8.296     10.614
REMARK INTER + INTRA:          -6.770
REMARK INTER:                  -6.626
REMARK INTRA:                  -0.144
REMARK UNBOUND:                -0.133
REMARK SMILES CC(=O)[C@@H]1CC[C@H]2[C@H]3CC=C4C[C@@H](O)CC[C@@]4(C)[C@@H]3CC[C@@]12C
REMARK SMILES IDX 4 1 5 2 6 3 7 4 22 5 21 6 20 7 19 8 8 9 9 10 10 11 11 12
REMARK SMILES IDX 17 13 16 14 15 15 13 16 12 17 18 18 23 19 2 20 1 21 3 22
REMARK SMILES IDX 14 23
REMARK H PARENT 14 24
REMARK Flexibility Score: inf
ROOT
ATOM      1  C   UNL     1     173.404 172.514 151.709  1.00  0.00     0.062 C 
ATOM      2  C   UNL     1     174.892 172.267 151.408  1.00  0.00     0.012 C 
ATOM      3  C   UNL     1     174.996 170.881 150.767  1.00  0.00     0.005 C 
ATOM      4  C   UNL     1     173.560 170.359 150.585  1.00  0.00    -0.001 C 
ATOM      5  C   UNL     1     172.726 171.112 151.640  1.00  0.00    -0.020 C 
ATOM      6  C   UNL     1     172.873 170.431 153.036  1.00  0.00     0.008 C 
ATOM      7  C   UNL     1     172.597 168.927 153.012  1.00  0.00     0.005 C 
ATOM      8  C   UNL     1     173.526 168.187 152.018  1.00  0.00     0.003 C 
ATOM      9  C   UNL     1     173.390 168.807 150.605  1.00  0.00     0.000 C 
ATOM     10  C   UNL     1     174.371 168.139 149.628  1.00  0.00     0.031 C 
ATOM     11  C   UNL     1     174.359 166.643 149.708  1.00  0.00    -0.027 C 
ATOM     12  C   UNL     1     174.032 165.961 150.824  1.00  0.00    -0.065 C 
ATOM     13  C   UNL     1     173.299 166.619 152.005  1.00  0.00    -0.008 C 
ATOM     14  C   UNL     1     173.857 166.023 153.335  1.00  0.00     0.014 C 
ATOM     15  C   UNL     1     173.943 164.488 153.347  1.00  0.00     0.033 C 
ATOM     16  C   UNL     1     174.752 163.939 152.163  1.00  0.00     0.118 C 
ATOM     17  C   UNL     1     174.213 164.452 150.819  1.00  0.00     0.063 C 
ATOM     18  C   UNL     1     171.790 166.265 151.879  1.00  0.00     0.016 C 
ATOM     19  C   UNL     1     171.229 171.186 151.243  1.00  0.00     0.012 C 
ENDROOT
BRANCH   1  20
ATOM     20  C   UNL     1     172.801 173.572 150.788  1.00  0.00     0.133 C 
ATOM     21  C   UNL     1     171.862 174.648 151.264  1.00  0.00     0.088 C 
ATOM     22  O   UNL     1     173.121 173.572 149.608  1.00  0.00    -0.300 OA
ENDBRANCH   1  20
BRANCH  16  23
ATOM     23  O   UNL     1     176.125 164.212 152.312  1.00  0.00    -0.393 OA
ATOM     24  H   UNL     1     176.260 165.191 152.226  1.00  0.00     0.210 HD
ENDBRANCH  16  23
TORSDOF 2
ENDMDL
MODEL 4
REMARK VINA RESULT:    -6.040     11.385     13.452
REMARK INTER + INTRA:          -6.703
REMARK INTER:                  -6.562
REMARK INTRA:                  -0.141
REMARK UNBOUND:                -0.133
REMARK SMILES CC(=O)[C@@H]1CC[C@H]2[C@H]3CC=C4C[C@@H](O)CC[C@@]4(C)[C@@H]3CC[C@@]12C
REMARK SMILES IDX 4 1 5 2 6 3 7 4 22 5 21 6 20 7 19 8 8 9 9 10 10 11 11 12
REMARK SMILES IDX 17 13 16 14 15 15 13 16 12 17 18 18 23 19 2 20 1 21 3 22
REMARK SMILES IDX 14 23
REMARK H PARENT 14 24
REMARK Flexibility Score: inf
ROOT
ATOM      1  C   UNL     1     173.643 169.838 158.309  1.00  0.00     0.062 C 
ATOM      2  C   UNL     1     172.693 168.981 157.456  1.00  0.00     0.012 C 
ATOM      3  C   UNL     1     173.184 169.070 156.009  1.00  0.00     0.005 C 
ATOM      4  C   UNL     1     174.489 169.885 156.026  1.00  0.00    -0.001 C 
ATOM      5  C   UNL     1     174.401 170.750 157.298  1.00  0.00    -0.020 C 
ATOM      6  C   UNL     1     173.530 172.017 157.035  1.00  0.00     0.008 C 
ATOM      7  C   UNL     1     173.960 172.808 155.799  1.00  0.00     0.005 C 
ATOM      8  C   UNL     1     173.933 171.934 154.520  1.00  0.00     0.003 C 
ATOM      9  C   UNL     1     174.815 170.677 154.719  1.00  0.00     0.000 C 
ATOM     10  C   UNL     1     174.729 169.758 153.490  1.00  0.00     0.031 C 
ATOM     11  C   UNL     1     174.888 170.490 152.192  1.00  0.00    -0.027 C 
ATOM     12  C   UNL     1     174.557 171.786 152.025  1.00  0.00    -0.065 C 
ATOM     13  C   UNL     1     174.327 172.736 153.212  1.00  0.00    -0.008 C 
ATOM     14  C   UNL     1     173.161 173.711 152.854  1.00  0.00     0.014 C 
ATOM     15  C   UNL     1     173.291 174.361 151.467  1.00  0.00     0.033 C 
ATOM     16  C   UNL     1     173.448 173.322 150.347  1.00  0.00     0.118 C 
ATOM     17  C   UNL     1     174.619 172.364 150.621  1.00  0.00     0.063 C 
ATOM     18  C   UNL     1     175.633 173.556 153.419  1.00  0.00     0.016 C 
ATOM     19  C   UNL     1     175.806 171.171 157.803  1.00  0.00     0.012 C 
ENDROOT
BRANCH   1  20
ATOM     20  C   UNL     1     174.534 168.984 159.208  1.00  0.00     0.133 C 
ATOM     21  C   UNL     1     174.871 169.349 160.629  1.00  0.00     0.088 C 
ATOM     22  O   UNL     1     174.972 167.932 158.768  1.00  0.00    -0.300 OA
ENDBRANCH   1  20
BRANCH  16  23
ATOM     23  O   UNL     1     172.246 172.624 150.125  1.00  0.00    -0.393 OA
ATOM     24  H   UNL     1     171.513 173.111 150.582  1.00  0.00     0.210 HD
ENDBRANCH  16  23
TORSDOF 2
ENDMDL
MODEL 5
REMARK VINA RESULT:    -5.969      4.313      5.812
REMARK INTER + INTRA:          -6.625
REMARK INTER:                  -6.487
REMARK INTRA:                  -0.139
REMARK UNBOUND:                -0.133
REMARK SMILES CC(=O)[C@@H]1CC[C@H]2[C@H]3CC=C4C[C@@H](O)CC[C@@]4(C)[C@@H]3CC[C@@]12C
REMARK SMILES IDX 4 1 5 2 6 3 7 4 22 5 21 6 20 7 19 8 8 9 9 10 10 11 11 12
REMARK SMILES IDX 17 13 16 14 15 15 13 16 12 17 18 18 23 19 2 20 1 21 3 22
REMARK SMILES IDX 14 23
REMARK H PARENT 14 24
REMARK Flexibility Score: inf
ROOT
ATOM      1  C   UNL     1     171.898 159.751 158.244  1.00  0.00     0.062 C 
ATOM      2  C   UNL     1     170.785 160.375 157.386  1.00  0.00     0.012 C 
ATOM      3  C   UNL     1     171.046 159.955 155.937  1.00  0.00     0.005 C 
ATOM      4  C   UNL     1     172.245 158.990 155.957  1.00  0.00    -0.001 C 
ATOM      5  C   UNL     1     173.020 159.345 157.241  1.00  0.00    -0.020 C 
ATOM      6  C   UNL     1     173.932 160.587 157.000  1.00  0.00     0.008 C 
ATOM      7  C   UNL     1     174.833 160.453 155.772  1.00  0.00     0.005 C 
ATOM      8  C   UNL     1     174.013 160.204 154.482  1.00  0.00     0.003 C 
ATOM      9  C   UNL     1     173.114 158.956 154.659  1.00  0.00     0.000 C 
ATOM     10  C   UNL     1     172.230 158.747 153.418  1.00  0.00     0.031 C 
ATOM     11  C   UNL     1     172.988 158.851 152.129  1.00  0.00    -0.027 C 
ATOM     12  C   UNL     1     174.105 159.591 151.981  1.00  0.00    -0.065 C 
ATOM     13  C   UNL     1     174.914 160.109 153.182  1.00  0.00    -0.008 C 
ATOM     14  C   UNL     1     175.454 161.534 152.844  1.00  0.00     0.014 C 
ATOM     15  C   UNL     1     176.125 161.639 151.465  1.00  0.00     0.033 C 
ATOM     16  C   UNL     1     175.208 161.160 150.331  1.00  0.00     0.118 C 
ATOM     17  C   UNL     1     174.686 159.737 150.585  1.00  0.00     0.063 C 
ATOM     18  C   UNL     1     176.115 159.143 153.392  1.00  0.00     0.016 C 
ATOM     19  C   UNL     1     173.874 158.152 157.743  1.00  0.00     0.012 C 
ENDROOT
BRANCH   1  20
ATOM     20  C   UNL     1     171.375 158.619 159.127  1.00  0.00     0.133 C 
ATOM     21  C   UNL     1     171.697 158.495 160.592  1.00  0.00     0.088 C 
ATOM     22  O   UNL     1     170.629 157.789 158.631  1.00  0.00    -0.300 OA
ENDBRANCH   1  20
BRANCH  16  23
ATOM     23  O   UNL     1     174.155 162.068 150.107  1.00  0.00    -0.393 OA
ATOM     24  H   UNL     1     174.547 162.944 149.856  1.00  0.00     0.210 HD
ENDBRANCH  16  23
TORSDOF 2
ENDMDL
MODEL 6
REMARK VINA RESULT:    -5.911     13.702     15.335
REMARK INTER + INTRA:          -6.563
REMARK INTER:                  -6.422
REMARK INTRA:                  -0.141
REMARK UNBOUND:                -0.133
REMARK SMILES CC(=O)[C@@H]1CC[C@H]2[C@H]3CC=C4C[C@@H](O)CC[C@@]4(C)[C@@H]3CC[C@@]12C
REMARK SMILES IDX 4 1 5 2 6 3 7 4 22 5 21 6 20 7 19 8 8 9 9 10 10 11 11 12
REMARK SMILES IDX 17 13 16 14 15 15 13 16 12 17 18 18 23 19 2 20 1 21 3 22
REMARK SMILES IDX 14 23
REMARK H PARENT 14 24
REMARK Flexibility Score: inf
ROOT
ATOM      1  C   UNL     1     161.829 174.730 151.818  1.00  0.00     0.062 C 
ATOM      2  C   UNL     1     162.456 176.125 151.656  1.00  0.00     0.012 C 
ATOM      3  C   UNL     1     163.810 175.932 150.968  1.00  0.00     0.005 C 
ATOM      4  C   UNL     1     163.930 174.437 150.621  1.00  0.00    -0.001 C 
ATOM      5  C   UNL     1     163.000 173.721 151.621  1.00  0.00    -0.020 C 
ATOM      6  C   UNL     1     163.719 173.534 152.993  1.00  0.00     0.008 C 
ATOM      7  C   UNL     1     165.096 172.879 152.876  1.00  0.00     0.005 C 
ATOM      8  C   UNL     1     166.039 173.683 151.947  1.00  0.00     0.003 C 
ATOM      9  C   UNL     1     165.382 173.866 150.556  1.00  0.00     0.000 C 
ATOM     10  C   UNL     1     166.270 174.738 149.652  1.00  0.00     0.031 C 
ATOM     11  C   UNL     1     167.710 174.326 149.665  1.00  0.00    -0.027 C 
ATOM     12  C   UNL     1     168.300 173.715 150.712  1.00  0.00    -0.065 C 
ATOM     13  C   UNL     1     167.490 173.057 151.842  1.00  0.00    -0.008 C 
ATOM     14  C   UNL     1     168.235 173.294 153.194  1.00  0.00     0.014 C 
ATOM     15  C   UNL     1     169.737 172.973 153.146  1.00  0.00     0.033 C 
ATOM     16  C   UNL     1     170.462 173.733 152.026  1.00  0.00     0.118 C 
ATOM     17  C   UNL     1     169.802 173.494 150.658  1.00  0.00     0.063 C 
ATOM     18  C   UNL     1     167.431 171.530 151.552  1.00  0.00     0.016 C 
ATOM     19  C   UNL     1     162.527 172.347 151.081  1.00  0.00     0.012 C 
ENDROOT
BRANCH   1  20
ATOM     20  C   UNL     1     160.634 174.527 150.889  1.00  0.00     0.133 C 
ATOM     21  C   UNL     1     159.378 173.806 151.300  1.00  0.00     0.088 C 
ATOM     22  O   UNL     1     160.680 175.002 149.765  1.00  0.00    -0.300 OA
ENDBRANCH   1  20
BRANCH  16  23
ATOM     23  O   UNL     1     170.564 175.105 152.322  1.00  0.00    -0.393 OA
ATOM     24  H   UNL     1     170.711 175.598 151.474  1.00  0.00     0.210 HD
ENDBRANCH  16  23
TORSDOF 2
ENDMDL
MODEL 7
REMARK VINA RESULT:    -5.874      8.453     10.593
REMARK INTER + INTRA:          -6.522
REMARK INTER:                  -6.391
REMARK INTRA:                  -0.131
REMARK UNBOUND:                -0.133
REMARK SMILES CC(=O)[C@@H]1CC[C@H]2[C@H]3CC=C4C[C@@H](O)CC[C@@]4(C)[C@@H]3CC[C@@]12C
REMARK SMILES IDX 4 1 5 2 6 3 7 4 22 5 21 6 20 7 19 8 8 9 9 10 10 11 11 12
REMARK SMILES IDX 17 13 16 14 15 15 13 16 12 17 18 18 23 19 2 20 1 21 3 22
REMARK SMILES IDX 14 23
REMARK H PARENT 14 24
REMARK Flexibility Score: inf
ROOT
ATOM      1  C   UNL     1     174.035 165.358 151.496  1.00  0.00     0.062 C 
ATOM      2  C   UNL     1     174.818 165.793 152.746  1.00  0.00     0.012 C 
ATOM      3  C   UNL     1     174.282 167.167 153.156  1.00  0.00     0.005 C 
ATOM      4  C   UNL     1     173.106 167.490 152.217  1.00  0.00    -0.001 C 
ATOM      5  C   UNL     1     173.370 166.656 150.948  1.00  0.00    -0.020 C 
ATOM      6  C   UNL     1     174.398 167.381 150.025  1.00  0.00     0.008 C 
ATOM      7  C   UNL     1     174.030 168.834 149.724  1.00  0.00     0.005 C 
ATOM      8  C   UNL     1     173.878 169.669 151.020  1.00  0.00     0.003 C 
ATOM      9  C   UNL     1     172.838 169.007 151.958  1.00  0.00     0.000 C 
ATOM     10  C   UNL     1     172.740 169.777 153.284  1.00  0.00     0.031 C 
ATOM     11  C   UNL     1     172.629 171.260 153.100  1.00  0.00    -0.027 C 
ATOM     12  C   UNL     1     173.131 171.917 152.035  1.00  0.00    -0.065 C 
ATOM     13  C   UNL     1     173.543 171.193 150.742  1.00  0.00    -0.008 C 
ATOM     14  C   UNL     1     174.818 171.885 150.165  1.00  0.00     0.014 C 
ATOM     15  C   UNL     1     174.721 173.418 150.095  1.00  0.00     0.033 C 
ATOM     16  C   UNL     1     174.370 174.044 151.453  1.00  0.00     0.118 C 
ATOM     17  C   UNL     1     173.090 173.436 152.046  1.00  0.00     0.063 C 
ATOM     18  C   UNL     1     172.376 171.342 149.726  1.00  0.00     0.016 C 
ATOM     19  C   UNL     1     172.061 166.377 150.163  1.00  0.00     0.012 C 
ENDROOT
BRANCH   1  20
ATOM     20  C   UNL     1     173.073 164.210 151.792  1.00  0.00     0.133 C 
ATOM     21  C   UNL     1     172.987 162.963 150.953  1.00  0.00     0.088 C 
ATOM     22  O   UNL     1     172.358 164.287 152.780  1.00  0.00    -0.300 OA
ENDBRANCH   1  20
BRANCH  16  23
ATOM     23  O   UNL     1     175.452 173.958 152.350  1.00  0.00    -0.393 OA
ATOM     24  H   UNL     1     175.324 173.154 152.917  1.00  0.00     0.210 HD
ENDBRANCH  16  23
TORSDOF 2
ENDMDL
MODEL 8
REMARK VINA RESULT:    -5.796     11.281     13.350
REMARK INTER + INTRA:          -6.437
REMARK INTER:                  -6.296
REMARK INTRA:                  -0.141
REMARK UNBOUND:                -0.133
REMARK SMILES CC(=O)[C@@H]1CC[C@H]2[C@H]3CC=C4C[C@@H](O)CC[C@@]4(C)[C@@H]3CC[C@@]12C
REMARK SMILES IDX 4 1 5 2 6 3 7 4 22 5 21 6 20 7 19 8 8 9 9 10 10 11 11 12
REMARK SMILES IDX 17 13 16 14 15 15 13 16 12 17 18 18 23 19 2 20 1 21 3 22
REMARK SMILES IDX 14 23
REMARK H PARENT 14 24
REMARK Flexibility Score: inf
ROOT
ATOM      1  C   UNL     1     175.314 169.502 157.758  1.00  0.00     0.062 C 
ATOM      2  C   UNL     1     176.125 170.807 157.833  1.00  0.00     0.012 C 
ATOM      3  C   UNL     1     175.406 171.835 156.956  1.00  0.00     0.005 C 
ATOM      4  C   UNL     1     174.110 171.172 156.456  1.00  0.00    -0.001 C 
ATOM      5  C   UNL     1     174.391 169.657 156.511  1.00  0.00    -0.020 C 
ATOM      6  C   UNL     1     175.193 169.207 155.251  1.00  0.00     0.008 C 
ATOM      7  C   UNL     1     174.559 169.654 153.933  1.00  0.00     0.005 C 
ATOM      8  C   UNL     1     174.390 171.192 153.868  1.00  0.00     0.003 C 
ATOM      9  C   UNL     1     173.567 171.686 155.084  1.00  0.00     0.000 C 
ATOM     10  C   UNL     1     173.465 173.220 155.079  1.00  0.00     0.031 C 
ATOM     11  C   UNL     1     173.089 173.782 153.742  1.00  0.00    -0.027 C 
ATOM     12  C   UNL     1     173.373 173.174 152.573  1.00  0.00    -0.065 C 
ATOM     13  C   UNL     1     173.779 171.693 152.495  1.00  0.00    -0.008 C 
ATOM     14  C   UNL     1     174.860 171.529 151.380  1.00  0.00     0.014 C 
ATOM     15  C   UNL     1     174.500 172.216 150.053  1.00  0.00     0.033 C 
ATOM     16  C   UNL     1     174.177 173.706 150.234  1.00  0.00     0.118 C 
ATOM     17  C   UNL     1     173.078 173.925 151.286  1.00  0.00     0.063 C 
ATOM     18  C   UNL     1     172.514 170.877 152.104  1.00  0.00     0.016 C 
ATOM     19  C   UNL     1     173.081 168.835 156.625  1.00  0.00     0.012 C 
ENDROOT
BRANCH   1  20
ATOM     20  C   UNL     1     174.591 169.199 159.067  1.00  0.00     0.133 C 
ATOM     21  C   UNL     1     173.791 170.223 159.829  1.00  0.00     0.088 C 
ATOM     22  O   UNL     1     174.631 168.060 159.508  1.00  0.00    -0.300 OA
ENDBRANCH   1  20
BRANCH  16  23
ATOM     23  O   UNL     1     175.336 174.448 150.530  1.00  0.00    -0.393 OA
ATOM     24  H   UNL     1     176.102 173.821 150.585  1.00  0.00     0.210 HD
ENDBRANCH  16  23
TORSDOF 2
ENDMDL
MODEL 9
REMARK VINA RESULT:    -5.777      1.822      2.212
REMARK INTER + INTRA:          -6.417
REMARK INTER:                  -6.268
REMARK INTRA:                  -0.148
REMARK UNBOUND:                -0.133
REMARK SMILES CC(=O)[C@@H]1CC[C@H]2[C@H]3CC=C4C[C@@H](O)CC[C@@]4(C)[C@@H]3CC[C@@]12C
REMARK SMILES IDX 4 1 5 2 6 3 7 4 22 5 21 6 20 7 19 8 8 9 9 10 10 11 11 12
REMARK SMILES IDX 17 13 16 14 15 15 13 16 12 17 18 18 23 19 2 20 1 21 3 22
REMARK SMILES IDX 14 23
REMARK H PARENT 14 24
REMARK Flexibility Score: inf
ROOT
ATOM      1  C   UNL     1     169.056 157.759 152.236  1.00  0.00     0.062 C 
ATOM      2  C   UNL     1     168.810 158.739 153.395  1.00  0.00     0.012 C 
ATOM      3  C   UNL     1     169.383 160.093 152.967  1.00  0.00     0.005 C 
ATOM      4  C   UNL     1     169.862 159.940 151.513  1.00  0.00    -0.001 C 
ATOM      5  C   UNL     1     170.140 158.433 151.342  1.00  0.00    -0.020 C 
ATOM      6  C   UNL     1     171.544 158.071 151.919  1.00  0.00     0.008 C 
ATOM      7  C   UNL     1     172.670 158.954 151.383  1.00  0.00     0.005 C 
ATOM      8  C   UNL     1     172.409 160.454 151.667  1.00  0.00     0.003 C 
ATOM      9  C   UNL     1     171.038 160.873 151.081  1.00  0.00     0.000 C 
ATOM     10  C   UNL     1     170.727 162.338 151.431  1.00  0.00     0.031 C 
ATOM     11  C   UNL     1     171.877 163.264 151.174  1.00  0.00    -0.027 C 
ATOM     12  C   UNL     1     173.168 162.875 151.213  1.00  0.00    -0.065 C 
ATOM     13  C   UNL     1     173.582 161.395 151.166  1.00  0.00    -0.008 C 
ATOM     14  C   UNL     1     174.817 161.191 152.099  1.00  0.00     0.014 C 
ATOM     15  C   UNL     1     175.935 162.226 151.895  1.00  0.00     0.033 C 
ATOM     16  C   UNL     1     175.427 163.669 152.029  1.00  0.00     0.118 C 
ATOM     17  C   UNL     1     174.241 163.944 151.091  1.00  0.00     0.063 C 
ATOM     18  C   UNL     1     173.989 161.066 149.701  1.00  0.00     0.016 C 
ATOM     19  C   UNL     1     170.051 157.999 149.856  1.00  0.00     0.012 C 
ENDROOT
BRANCH   1  20
ATOM     20  C   UNL     1     167.762 157.384 151.517  1.00  0.00     0.133 C 
ATOM     21  C   UNL     1     166.663 158.369 151.223  1.00  0.00     0.088 C 
ATOM     22  O   UNL     1     167.621 156.235 151.127  1.00  0.00    -0.300 OA
ENDBRANCH   1  20
BRANCH  16  23
ATOM     23  O   UNL     1     175.116 163.979 153.367  1.00  0.00    -0.393 OA
ATOM     24  H   UNL     1     175.509 164.863 153.582  1.00  0.00     0.210 HD
ENDBRANCH  16  23
TORSDOF 2
ENDMDL
