MODEL 1
REMARK VINA RESULT:    -6.068      0.000      0.000
REMARK INTER + INTRA:          -6.675
REMARK INTER:                  -6.423
REMARK INTRA:                  -0.251
REMARK UNBOUND:                -0.251
REMARK SMILES CC1=CC[C@@H]2[C@H]3[C@H](C(C)C)CC[C@]2(C)[C@@H]13
REMARK SMILES IDX 1 1 2 2 3 3 4 4 5 5 6 6 15 7 13 8 12 9 11 10 7 11 14 12 8 13
REMARK SMILES IDX 9 14 10 15
REMARK H PARENT
REMARK Flexibility Score: inf
ROOT
ATOM      1  C   UNL     1     150.646 142.647 165.243  1.00  0.00     0.039 C 
ATOM      2  C   UNL     1     149.715 143.527 164.463  1.00  0.00    -0.073 C 
ATOM      3  C   UNL     1     149.466 144.806 164.848  1.00  0.00    -0.027 C 
ATOM      4  C   UNL     1     148.522 145.666 164.000  1.00  0.00     0.031 C 
ATOM      5  C   UNL     1     147.964 144.836 162.796  1.00  0.00     0.003 C 
ATOM      6  C   UNL     1     147.512 143.463 163.348  1.00  0.00     0.004 C 
ATOM      7  C   UNL     1     148.989 143.022 163.212  1.00  0.00     0.024 C 
ATOM      8  C   UNL     1     149.094 144.068 162.071  1.00  0.00    -0.022 C 
ATOM      9  C   UNL     1     148.528 143.497 160.739  1.00  0.00     0.008 C 
ATOM     10  C   UNL     1     147.357 142.509 160.969  1.00  0.00     0.005 C 
ATOM     11  C   UNL     1     146.588 142.746 162.311  1.00  0.00    -0.005 C 
ATOM     12  C   UNL     1     150.445 144.782 161.834  1.00  0.00     0.012 C 
ENDROOT
BRANCH  11  13
ATOM     13  C   UNL     1     145.985 141.413 162.863  1.00  0.00    -0.014 C 
ATOM     14  C   UNL     1     145.339 141.592 164.251  1.00  0.00     0.007 C 
ATOM     15  C   UNL     1     144.929 140.838 161.900  1.00  0.00     0.007 C 
ENDBRANCH  11  13
TORSDOF 1
ENDMDL
MODEL 2
REMARK VINA RESULT:    -6.055      3.698      5.749
REMARK INTER + INTRA:          -6.661
REMARK INTER:                  -6.406
REMARK INTRA:                  -0.255
REMARK UNBOUND:                -0.251
REMARK SMILES CC1=CC[C@@H]2[C@H]3[C@H](C(C)C)CC[C@]2(C)[C@@H]13
REMARK SMILES IDX 1 1 2 2 3 3 4 4 5 5 6 6 15 7 13 8 12 9 11 10 7 11 14 12 8 13
REMARK SMILES IDX 9 14 10 15
REMARK H PARENT
REMARK Flexibility Score: inf
ROOT
ATOM      1  C   UNL     1     148.198 150.698 165.245  1.00  0.00     0.039 C 
ATOM      2  C   UNL     1     147.307 149.752 164.496  1.00  0.00    -0.073 C 
ATOM      3  C   UNL     1     146.044 149.485 164.922  1.00  0.00    -0.027 C 
ATOM      4  C   UNL     1     145.172 148.527 164.104  1.00  0.00     0.031 C 
ATOM      5  C   UNL     1     145.971 147.978 162.875  1.00  0.00     0.003 C 
ATOM      6  C   UNL     1     147.367 147.548 163.383  1.00  0.00     0.004 C 
ATOM      7  C   UNL     1     147.782 149.031 163.231  1.00  0.00     0.024 C 
ATOM      8  C   UNL     1     146.698 149.118 162.124  1.00  0.00    -0.022 C 
ATOM      9  C   UNL     1     147.234 148.559 160.775  1.00  0.00     0.008 C 
ATOM     10  C   UNL     1     148.246 147.402 160.975  1.00  0.00     0.005 C 
ATOM     11  C   UNL     1     148.065 146.632 162.325  1.00  0.00    -0.005 C 
ATOM     12  C   UNL     1     145.957 150.459 161.908  1.00  0.00     0.012 C 
ENDROOT
BRANCH  11  13
ATOM     13  C   UNL     1     149.423 146.051 162.835  1.00  0.00    -0.014 C 
ATOM     14  C   UNL     1     149.307 145.440 164.245  1.00  0.00     0.007 C 
ATOM     15  C   UNL     1     149.963 144.973 161.875  1.00  0.00     0.007 C 
ENDBRANCH  11  13
TORSDOF 1
ENDMDL
MODEL 3
REMARK VINA RESULT:    -6.046      3.692      5.725
REMARK INTER + INTRA:          -6.651
REMARK INTER:                  -6.398
REMARK INTRA:                  -0.253
REMARK UNBOUND:                -0.251
REMARK SMILES CC1=CC[C@@H]2[C@H]3[C@H](C(C)C)CC[C@]2(C)[C@@H]13
REMARK SMILES IDX 1 1 2 2 3 3 4 4 5 5 6 6 15 7 13 8 12 9 11 10 7 11 14 12 8 13
REMARK SMILES IDX 9 14 10 15
REMARK H PARENT
REMARK Flexibility Score: inf
ROOT
ATOM      1  C   UNL     1     142.639 140.152 165.199  1.00  0.00     0.039 C 
ATOM      2  C   UNL     1     143.509 141.058 164.379  1.00  0.00    -0.073 C 
ATOM      3  C   UNL     1     144.773 141.365 164.771  1.00  0.00    -0.027 C 
ATOM      4  C   UNL     1     145.624 142.280 163.882  1.00  0.00     0.031 C 
ATOM      5  C   UNL     1     144.803 142.740 162.632  1.00  0.00     0.003 C 
ATOM      6  C   UNL     1     143.408 143.186 163.130  1.00  0.00     0.004 C 
ATOM      7  C   UNL     1     143.010 141.692 163.077  1.00  0.00     0.024 C 
ATOM      8  C   UNL     1     144.080 141.547 161.964  1.00  0.00    -0.022 C 
ATOM      9  C   UNL     1     143.521 142.014 160.590  1.00  0.00     0.008 C 
ATOM     10  C   UNL     1     142.498 143.169 160.729  1.00  0.00     0.005 C 
ATOM     11  C   UNL     1     142.687 144.025 162.025  1.00  0.00    -0.005 C 
ATOM     12  C   UNL     1     144.835 140.204 161.824  1.00  0.00     0.012 C 
ENDROOT
BRANCH  11  13
ATOM     13  C   UNL     1     141.329 144.624 162.515  1.00  0.00    -0.014 C 
ATOM     14  C   UNL     1     141.460 145.344 163.871  1.00  0.00     0.007 C 
ATOM     15  C   UNL     1     140.752 145.615 161.486  1.00  0.00     0.007 C 
ENDBRANCH  11  13
TORSDOF 1
ENDMDL
MODEL 4
REMARK VINA RESULT:    -6.038      6.147      8.147
REMARK INTER + INTRA:          -6.642
REMARK INTER:                  -6.392
REMARK INTRA:                  -0.250
REMARK UNBOUND:                -0.251
REMARK SMILES CC1=CC[C@@H]2[C@H]3[C@H](C(C)C)CC[C@]2(C)[C@@H]13
REMARK SMILES IDX 1 1 2 2 3 3 4 4 5 5 6 6 15 7 13 8 12 9 11 10 7 11 14 12 8 13
REMARK SMILES IDX 9 14 10 15
REMARK H PARENT
REMARK Flexibility Score: inf
ROOT
ATOM      1  C   UNL     1     140.132 148.099 165.216  1.00  0.00     0.039 C 
ATOM      2  C   UNL     1     141.030 147.223 164.394  1.00  0.00    -0.073 C 
ATOM      3  C   UNL     1     141.325 145.954 164.782  1.00  0.00    -0.027 C 
ATOM      4  C   UNL     1     142.232 145.099 163.891  1.00  0.00     0.031 C 
ATOM      5  C   UNL     1     142.701 145.920 162.644  1.00  0.00     0.003 C 
ATOM      6  C   UNL     1     143.160 147.308 163.147  1.00  0.00     0.004 C 
ATOM      7  C   UNL     1     141.670 147.721 163.095  1.00  0.00     0.024 C 
ATOM      8  C   UNL     1     141.515 146.656 161.978  1.00  0.00    -0.022 C 
ATOM      9  C   UNL     1     141.989 147.215 160.605  1.00  0.00     0.008 C 
ATOM     10  C   UNL     1     143.154 148.227 160.750  1.00  0.00     0.005 C 
ATOM     11  C   UNL     1     144.007 148.025 162.046  1.00  0.00    -0.005 C 
ATOM     12  C   UNL     1     140.165 145.915 161.833  1.00  0.00     0.012 C 
ENDROOT
BRANCH  11  13
ATOM     13  C   UNL     1     144.617 149.376 162.541  1.00  0.00    -0.014 C 
ATOM     14  C   UNL     1     145.364 149.227 163.881  1.00  0.00     0.007 C 
ATOM     15  C   UNL     1     145.589 149.964 161.500  1.00  0.00     0.007 C 
ENDBRANCH  11  13
TORSDOF 1
ENDMDL
MODEL 5
REMARK VINA RESULT:    -5.992      1.480      3.162
REMARK INTER + INTRA:          -6.594
REMARK INTER:                  -6.295
REMARK INTRA:                  -0.299
REMARK UNBOUND:                -0.251
REMARK SMILES CC1=CC[C@@H]2[C@H]3[C@H](C(C)C)CC[C@]2(C)[C@@H]13
REMARK SMILES IDX 1 1 2 2 3 3 4 4 5 5 6 6 15 7 13 8 12 9 11 10 7 11 14 12 8 13
REMARK SMILES IDX 9 14 10 15
REMARK H PARENT
REMARK Flexibility Score: inf
ROOT
ATOM      1  C   UNL     1     148.668 143.450 161.113  1.00  0.00     0.039 C 
ATOM      2  C   UNL     1     148.428 143.411 162.593  1.00  0.00    -0.073 C 
ATOM      3  C   UNL     1     149.435 143.136 163.463  1.00  0.00    -0.027 C 
ATOM      4  C   UNL     1     149.136 143.130 164.966  1.00  0.00     0.031 C 
ATOM      5  C   UNL     1     147.620 143.426 165.221  1.00  0.00     0.003 C 
ATOM      6  C   UNL     1     146.805 142.548 164.243  1.00  0.00     0.004 C 
ATOM      7  C   UNL     1     147.040 143.658 163.191  1.00  0.00     0.024 C 
ATOM      8  C   UNL     1     147.137 144.637 164.390  1.00  0.00    -0.022 C 
ATOM      9  C   UNL     1     145.723 145.048 164.890  1.00  0.00     0.008 C 
ATOM     10  C   UNL     1     144.683 143.912 164.720  1.00  0.00     0.005 C 
ATOM     11  C   UNL     1     145.312 142.479 164.700  1.00  0.00    -0.005 C 
ATOM     12  C   UNL     1     148.060 145.874 164.271  1.00  0.00     0.012 C 
ENDROOT
BRANCH  11  13
ATOM     13  C   UNL     1     144.461 141.496 163.832  1.00  0.00    -0.014 C 
ATOM     14  C   UNL     1     145.333 140.475 163.076  1.00  0.00     0.007 C 
ATOM     15  C   UNL     1     143.442 140.728 164.697  1.00  0.00     0.007 C 
ENDBRANCH  11  13
TORSDOF 1
ENDMDL
MODEL 6
REMARK VINA RESULT:    -5.992      2.780      5.324
REMARK INTER + INTRA:          -6.594
REMARK INTER:                  -6.293
REMARK INTRA:                  -0.301
REMARK UNBOUND:                -0.251
REMARK SMILES CC1=CC[C@@H]2[C@H]3[C@H](C(C)C)CC[C@]2(C)[C@@H]13
REMARK SMILES IDX 1 1 2 2 3 3 4 4 5 5 6 6 15 7 13 8 12 9 11 10 7 11 14 12 8 13
REMARK SMILES IDX 9 14 10 15
REMARK H PARENT
REMARK Flexibility Score: inf
ROOT
ATOM      1  C   UNL     1     147.231 148.638 161.102  1.00  0.00     0.039 C 
ATOM      2  C   UNL     1     147.301 148.424 162.585  1.00  0.00    -0.073 C 
ATOM      3  C   UNL     1     147.597 149.447 163.431  1.00  0.00    -0.027 C 
ATOM      4  C   UNL     1     147.634 149.174 164.939  1.00  0.00     0.031 C 
ATOM      5  C   UNL     1     147.339 147.665 165.227  1.00  0.00     0.003 C 
ATOM      6  C   UNL     1     148.194 146.829 164.246  1.00  0.00     0.004 C 
ATOM      7  C   UNL     1     147.063 147.048 163.213  1.00  0.00     0.024 C 
ATOM      8  C   UNL     1     146.109 147.170 164.430  1.00  0.00    -0.022 C 
ATOM      9  C   UNL     1     145.705 145.766 164.965  1.00  0.00     0.008 C 
ATOM     10  C   UNL     1     146.835 144.720 164.789  1.00  0.00     0.005 C 
ATOM     11  C   UNL     1     148.268 145.344 164.729  1.00  0.00    -0.005 C 
ATOM     12  C   UNL     1     144.873 148.094 164.321  1.00  0.00     0.012 C 
ENDROOT
BRANCH  11  13
ATOM     13  C   UNL     1     149.231 144.475 163.856  1.00  0.00    -0.014 C 
ATOM     14  C   UNL     1     150.249 145.329 163.076  1.00  0.00     0.007 C 
ATOM     15  C   UNL     1     150.002 143.458 164.720  1.00  0.00     0.007 C 
ENDBRANCH  11  13
TORSDOF 1
ENDMDL
MODEL 7
REMARK VINA RESULT:    -5.984      3.984      6.369
REMARK INTER + INTRA:          -6.585
REMARK INTER:                  -6.283
REMARK INTRA:                  -0.302
REMARK UNBOUND:                -0.251
REMARK SMILES CC1=CC[C@@H]2[C@H]3[C@H](C(C)C)CC[C@]2(C)[C@@H]13
REMARK SMILES IDX 1 1 2 2 3 3 4 4 5 5 6 6 15 7 13 8 12 9 11 10 7 11 14 12 8 13
REMARK SMILES IDX 9 14 10 15
REMARK H PARENT
REMARK Flexibility Score: inf
ROOT
ATOM      1  C   UNL     1     143.428 142.076 161.108  1.00  0.00     0.039 C 
ATOM      2  C   UNL     1     143.393 142.293 162.592  1.00  0.00    -0.073 C 
ATOM      3  C   UNL     1     143.103 141.276 163.446  1.00  0.00    -0.027 C 
ATOM      4  C   UNL     1     143.102 141.552 164.954  1.00  0.00     0.031 C 
ATOM      5  C   UNL     1     143.421 143.058 165.232  1.00  0.00     0.003 C 
ATOM      6  C   UNL     1     142.555 143.903 164.268  1.00  0.00     0.004 C 
ATOM      7  C   UNL     1     143.661 143.668 163.211  1.00  0.00     0.024 C 
ATOM      8  C   UNL     1     144.639 143.536 164.408  1.00  0.00    -0.022 C 
ATOM      9  C   UNL     1     145.071 144.936 164.931  1.00  0.00     0.008 C 
ATOM     10  C   UNL     1     143.951 145.996 164.777  1.00  0.00     0.005 C 
ATOM     11  C   UNL     1     142.509 145.389 164.749  1.00  0.00    -0.005 C 
ATOM     12  C   UNL     1     145.861 142.597 164.274  1.00  0.00     0.012 C 
ENDROOT
BRANCH  11  13
ATOM     13  C   UNL     1     141.539 146.268 163.895  1.00  0.00    -0.014 C 
ATOM     14  C   UNL     1     140.483 145.426 163.153  1.00  0.00     0.007 C 
ATOM     15  C   UNL     1     140.812 147.307 164.771  1.00  0.00     0.007 C 
ENDBRANCH  11  13
TORSDOF 1
ENDMDL
MODEL 8
REMARK VINA RESULT:    -5.982      5.283      7.663
REMARK INTER + INTRA:          -6.583
REMARK INTER:                  -6.279
REMARK INTRA:                  -0.304
REMARK UNBOUND:                -0.251
REMARK SMILES CC1=CC[C@@H]2[C@H]3[C@H](C(C)C)CC[C@]2(C)[C@@H]13
REMARK SMILES IDX 1 1 2 2 3 3 4 4 5 5 6 6 15 7 13 8 12 9 11 10 7 11 14 12 8 13
REMARK SMILES IDX 9 14 10 15
REMARK H PARENT
REMARK Flexibility Score: inf
ROOT
ATOM      1  C   UNL     1     142.110 147.257 161.097  1.00  0.00     0.039 C 
ATOM      2  C   UNL     1     142.322 147.321 162.581  1.00  0.00    -0.073 C 
ATOM      3  C   UNL     1     141.301 147.622 163.426  1.00  0.00    -0.027 C 
ATOM      4  C   UNL     1     141.571 147.652 164.934  1.00  0.00     0.031 C 
ATOM      5  C   UNL     1     143.079 147.345 165.223  1.00  0.00     0.003 C 
ATOM      6  C   UNL     1     143.922 148.196 164.246  1.00  0.00     0.004 C 
ATOM      7  C   UNL     1     143.696 147.070 163.209  1.00  0.00     0.024 C 
ATOM      8  C   UNL     1     143.564 146.113 164.424  1.00  0.00    -0.022 C 
ATOM      9  C   UNL     1     144.965 145.698 164.959  1.00  0.00     0.008 C 
ATOM     10  C   UNL     1     146.020 146.819 164.788  1.00  0.00     0.005 C 
ATOM     11  C   UNL     1     145.407 148.258 164.731  1.00  0.00    -0.005 C 
ATOM     12  C   UNL     1     142.632 144.885 164.309  1.00  0.00     0.012 C 
ENDROOT
BRANCH  11  13
ATOM     13  C   UNL     1     146.284 149.216 163.863  1.00  0.00    -0.014 C 
ATOM     14  C   UNL     1     145.442 150.268 163.115  1.00  0.00     0.007 C 
ATOM     15  C   UNL     1     147.331 149.948 164.725  1.00  0.00     0.007 C 
ENDBRANCH  11  13
TORSDOF 1
ENDMDL
MODEL 9
REMARK VINA RESULT:    -5.972      1.585      5.137
REMARK INTER + INTRA:          -6.572
REMARK INTER:                  -6.275
REMARK INTRA:                  -0.298
REMARK UNBOUND:                -0.251
REMARK SMILES CC1=CC[C@@H]2[C@H]3[C@H](C(C)C)CC[C@]2(C)[C@@H]13
REMARK SMILES IDX 1 1 2 2 3 3 4 4 5 5 6 6 15 7 13 8 12 9 11 10 7 11 14 12 8 13
REMARK SMILES IDX 9 14 10 15
REMARK H PARENT
REMARK Flexibility Score: inf
ROOT
ATOM      1  C   UNL     1     142.901 143.748 164.872  1.00  0.00     0.039 C 
ATOM      2  C   UNL     1     143.691 142.588 164.343  1.00  0.00    -0.073 C 
ATOM      3  C   UNL     1     143.531 141.337 164.850  1.00  0.00    -0.027 C 
ATOM      4  C   UNL     1     144.351 140.186 164.256  1.00  0.00     0.031 C 
ATOM      5  C   UNL     1     145.301 140.718 163.132  1.00  0.00     0.003 C 
ATOM      6  C   UNL     1     145.992 141.992 163.672  1.00  0.00     0.004 C 
ATOM      7  C   UNL     1     144.725 142.760 163.227  1.00  0.00     0.024 C 
ATOM      8  C   UNL     1     144.549 141.652 162.156  1.00  0.00    -0.022 C 
ATOM      9  C   UNL     1     145.462 141.918 160.924  1.00  0.00     0.008 C 
ATOM     10  C   UNL     1     146.792 142.611 161.313  1.00  0.00     0.005 C 
ATOM     11  C   UNL     1     147.233 142.345 162.790  1.00  0.00    -0.005 C 
ATOM     12  C   UNL     1     143.120 141.266 161.708  1.00  0.00     0.012 C 
ENDROOT
BRANCH  11  13
ATOM     13  C   UNL     1     148.057 143.544 163.363  1.00  0.00    -0.014 C 
ATOM     14  C   UNL     1     148.022 143.598 164.902  1.00  0.00     0.007 C 
ATOM     15  C   UNL     1     149.528 143.478 162.906  1.00  0.00     0.007 C 
ENDBRANCH  11  13
TORSDOF 1
ENDMDL
