MODEL 1
REMARK VINA RESULT:    -5.013      0.000      0.000
REMARK INTER + INTRA:          -5.914
REMARK INTER:                  -5.746
REMARK INTRA:                  -0.168
REMARK UNBOUND:                -0.168
REMARK SMILES C=C(C)[C@@H]1CC[C@@]2(C(=O)[O-])CC[C@]3(C)[C@@H](CC[C@@H]4[C@]5(C)CC[C@H](O)C(C)(C)[C@@H]5CC[C@]43C)[C@H]12
REMARK SMILES IDX 7 1 6 2 33 3 11 4 5 5 15 6 4 7 12 8 16 9 13 10 17 11 31 12
REMARK SMILES IDX 14 13 18 14 30 15 32 16 19 17 29 18 21 19 20 20 28 21 22 22
REMARK SMILES IDX 25 23 23 24 26 25 27 26 8 27 9 28 10 29 2 30 3 31 1 32 24 33
REMARK H PARENT 24 34
REMARK Flexibility Score: inf
ROOT
ATOM      1  C   UNL     1       2.620  51.279   8.795  1.00  0.00     0.014 C 
ATOM      2  C   UNL     1       2.105  49.843   9.015  1.00  0.00     0.014 C 
ATOM      3  C   UNL     1       2.325  51.885  10.181  1.00  0.00     0.012 C 
ATOM      4  C   UNL     1       1.865  52.056   7.663  1.00  0.00     0.014 C 
ATOM      5  C   UNL     1       2.485  49.489  10.471  1.00  0.00     0.009 C 
ATOM      6  C   UNL     1       2.585  53.413  10.226  1.00  0.00     0.000 C 
ATOM      7  C   UNL     1       2.742  50.823  11.226  1.00  0.00     0.018 C 
ATOM      8  C   UNL     1       0.945  53.192   8.168  1.00  0.00     0.008 C 
ATOM      9  C   UNL     1       2.771  54.009  11.647  1.00  0.00     0.005 C 
ATOM     10  C   UNL     1       1.595  54.195   9.223  1.00  0.00    -0.024 C 
ATOM     11  C   UNL     1       1.545  54.686  12.234  1.00  0.00     0.005 C 
ATOM     12  C   UNL     1       0.417  55.029   9.994  1.00  0.00    -0.024 C 
ATOM     13  C   UNL     1       2.500  55.149   8.371  1.00  0.00     0.012 C 
ATOM     14  C   UNL     1       0.996  55.755  11.255  1.00  0.00     0.002 C 
ATOM     15  C   UNL     1      -0.175  56.123   9.067  1.00  0.00     0.008 C 
ATOM     16  C   UNL     1      -0.751  54.084  10.423  1.00  0.00     0.012 C 
ATOM     17  C   UNL     1       0.161  56.949  11.956  1.00  0.00    -0.026 C 
ATOM     18  C   UNL     1      -1.239  56.978   9.746  1.00  0.00     0.005 C 
ATOM     19  C   UNL     1      -0.790  56.475  13.125  1.00  0.00     0.010 C 
ATOM     20  C   UNL     1       1.279  57.858  12.594  1.00  0.00     0.012 C 
ATOM     21  C   UNL     1      -0.654  57.830  10.906  1.00  0.00     0.003 C 
ATOM     22  C   UNL     1      -2.307  56.575  12.873  1.00  0.00     0.033 C 
ATOM     23  C   UNL     1      -1.772  58.770  11.549  1.00  0.00    -0.006 C 
ATOM     24  C   UNL     1      -2.819  57.945  12.391  1.00  0.00     0.120 C 
ATOM     25  C   UNL     1      -1.138  59.842  12.480  1.00  0.00     0.014 C 
ATOM     26  C   UNL     1      -2.486  59.599  10.435  1.00  0.00     0.014 C 
ENDROOT
BRANCH   1  27
ATOM     27  C   UNL     1       4.119  51.241   8.461  1.00  0.00     0.048 C 
ATOM     28  O   UNL     1       4.864  52.232   8.691  1.00  0.00    -0.550 OA
ATOM     29  O   UNL     1       4.689  50.116   7.875  1.00  0.00    -0.550 OA
ENDBRANCH   1  27
BRANCH   7  30
ATOM     30  C   UNL     1       4.130  50.821  11.885  1.00  0.00    -0.077 C 
ATOM     31  C   UNL     1       4.608  51.779  12.947  1.00  0.00     0.039 C 
ATOM     32  C   UNL     1       5.000  49.870  11.500  1.00  0.00     0.008 C 
ENDBRANCH   7  30
BRANCH  24  33
ATOM     33  O   UNL     1      -4.007  57.720  11.669  1.00  0.00    -0.393 OA
ATOM     34  H   UNL     1      -4.519  58.571  11.661  1.00  0.00     0.210 HD
ENDBRANCH  24  33
TORSDOF 3
ENDMDL
MODEL 2
REMARK VINA RESULT:    -4.776     12.071     15.065
REMARK INTER + INTRA:          -5.642
REMARK INTER:                  -5.500
REMARK INTRA:                  -0.142
REMARK UNBOUND:                -0.168
REMARK SMILES C=C(C)[C@@H]1CC[C@@]2(C(=O)[O-])CC[C@]3(C)[C@@H](CC[C@@H]4[C@]5(C)CC[C@H](O)C(C)(C)[C@@H]5CC[C@]43C)[C@H]12
REMARK SMILES IDX 7 1 6 2 33 3 11 4 5 5 15 6 4 7 12 8 16 9 13 10 17 11 31 12
REMARK SMILES IDX 14 13 18 14 30 15 32 16 19 17 29 18 21 19 20 20 28 21 22 22
REMARK SMILES IDX 25 23 23 24 26 25 27 26 8 27 9 28 10 29 2 30 3 31 1 32 24 33
REMARK H PARENT 24 34
REMARK Flexibility Score: inf
ROOT
ATOM      1  C   UNL     1      -7.451  65.132   4.126  1.00  0.00     0.014 C 
ATOM      2  C   UNL     1      -7.709  66.285   3.137  1.00  0.00     0.014 C 
ATOM      3  C   UNL     1      -7.660  65.872   5.462  1.00  0.00     0.012 C 
ATOM      4  C   UNL     1      -6.008  64.528   4.032  1.00  0.00     0.014 C 
ATOM      5  C   UNL     1      -8.852  67.116   3.763  1.00  0.00     0.009 C 
ATOM      6  C   UNL     1      -7.296  64.996   6.687  1.00  0.00     0.000 C 
ATOM      7  C   UNL     1      -8.906  66.772   5.278  1.00  0.00     0.018 C 
ATOM      8  C   UNL     1      -5.095  64.858   5.236  1.00  0.00     0.008 C 
ATOM      9  C   UNL     1      -7.904  65.463   8.037  1.00  0.00     0.005 C 
ATOM     10  C   UNL     1      -5.730  64.615   6.678  1.00  0.00    -0.024 C 
ATOM     11  C   UNL     1      -6.968  66.257   8.932  1.00  0.00     0.005 C 
ATOM     12  C   UNL     1      -4.861  65.415   7.809  1.00  0.00    -0.024 C 
ATOM     13  C   UNL     1      -5.656  63.065   6.898  1.00  0.00     0.012 C 
ATOM     14  C   UNL     1      -5.648  65.476   9.162  1.00  0.00     0.002 C 
ATOM     15  C   UNL     1      -3.523  64.681   8.092  1.00  0.00     0.008 C 
ATOM     16  C   UNL     1      -4.520  66.864   7.334  1.00  0.00     0.012 C 
ATOM     17  C   UNL     1      -4.873  65.846  10.532  1.00  0.00    -0.026 C 
ATOM     18  C   UNL     1      -2.690  65.345   9.182  1.00  0.00     0.005 C 
ATOM     19  C   UNL     1      -4.881  67.386  10.886  1.00  0.00     0.010 C 
ATOM     20  C   UNL     1      -5.710  65.101  11.642  1.00  0.00     0.012 C 
ATOM     21  C   UNL     1      -3.384  65.279  10.571  1.00  0.00     0.003 C 
ATOM     22  C   UNL     1      -3.531  68.125  10.808  1.00  0.00     0.033 C 
ATOM     23  C   UNL     1      -2.458  65.912  11.707  1.00  0.00    -0.006 C 
ATOM     24  C   UNL     1      -2.366  67.481  11.582  1.00  0.00     0.120 C 
ATOM     25  C   UNL     1      -2.994  65.569  13.125  1.00  0.00     0.014 C 
ATOM     26  C   UNL     1      -1.036  65.268  11.664  1.00  0.00     0.014 C 
ENDROOT
BRANCH   1  27
ATOM     27  C   UNL     1      -8.477  64.014   3.890  1.00  0.00     0.048 C 
ATOM     28  O   UNL     1      -8.712  63.147   4.775  1.00  0.00    -0.550 OA
ATOM     29  O   UNL     1      -9.160  63.918   2.682  1.00  0.00    -0.550 OA
ENDBRANCH   1  27
BRANCH   7  30
ATOM     30  C   UNL     1     -10.316  66.315   5.687  1.00  0.00    -0.077 C 
ATOM     31  C   UNL     1     -10.892  66.361   7.079  1.00  0.00     0.039 C 
ATOM     32  C   UNL     1     -11.123  65.847   4.718  1.00  0.00     0.008 C 
ENDBRANCH   7  30
BRANCH  24  33
ATOM     33  O   UNL     1      -1.171  67.885  10.956  1.00  0.00    -0.393 OA
ATOM     34  H   UNL     1      -0.817  67.105  10.453  1.00  0.00     0.210 HD
ENDBRANCH  24  33
TORSDOF 3
ENDMDL
MODEL 3
REMARK VINA RESULT:    -4.592      9.314     14.447
REMARK INTER + INTRA:          -5.431
REMARK INTER:                  -5.377
REMARK INTRA:                  -0.055
REMARK UNBOUND:                -0.168
REMARK SMILES C=C(C)[C@@H]1CC[C@@]2(C(=O)[O-])CC[C@]3(C)[C@@H](CC[C@@H]4[C@]5(C)CC[C@H](O)C(C)(C)[C@@H]5CC[C@]43C)[C@H]12
REMARK SMILES IDX 7 1 6 2 33 3 11 4 5 5 15 6 4 7 12 8 16 9 13 10 17 11 31 12
REMARK SMILES IDX 14 13 18 14 30 15 32 16 19 17 29 18 21 19 20 20 28 21 22 22
REMARK SMILES IDX 25 23 23 24 26 25 27 26 8 27 9 28 10 29 2 30 3 31 1 32 24 33
REMARK H PARENT 24 34
REMARK Flexibility Score: inf
ROOT
ATOM      1  C   UNL     1      -7.681  65.099   4.167  1.00  0.00     0.014 C 
ATOM      2  C   UNL     1      -7.760  66.472   3.470  1.00  0.00     0.014 C 
ATOM      3  C   UNL     1      -7.560  65.551   5.636  1.00  0.00     0.012 C 
ATOM      4  C   UNL     1      -6.443  64.240   3.734  1.00  0.00     0.014 C 
ATOM      5  C   UNL     1      -8.595  67.365   4.416  1.00  0.00     0.009 C 
ATOM      6  C   UNL     1      -7.286  64.366   6.598  1.00  0.00     0.000 C 
ATOM      7  C   UNL     1      -8.567  66.712   5.825  1.00  0.00     0.018 C 
ATOM      8  C   UNL     1      -5.353  64.093   4.821  1.00  0.00     0.008 C 
ATOM      9  C   UNL     1      -7.615  64.639   8.090  1.00  0.00     0.005 C 
ATOM     10  C   UNL     1      -5.868  63.674   6.271  1.00  0.00    -0.024 C 
ATOM     11  C   UNL     1      -6.425  64.997   8.963  1.00  0.00     0.005 C 
ATOM     12  C   UNL     1      -4.716  64.000   7.384  1.00  0.00    -0.024 C 
ATOM     13  C   UNL     1      -6.145  62.135   6.175  1.00  0.00     0.012 C 
ATOM     14  C   UNL     1      -5.314  63.924   8.830  1.00  0.00     0.002 C 
ATOM     15  C   UNL     1      -3.570  62.956   7.308  1.00  0.00     0.008 C 
ATOM     16  C   UNL     1      -4.090  65.412   7.149  1.00  0.00     0.012 C 
ATOM     17  C   UNL     1      -4.330  63.806  10.108  1.00  0.00    -0.026 C 
ATOM     18  C   UNL     1      -2.490  63.168   8.362  1.00  0.00     0.005 C 
ATOM     19  C   UNL     1      -3.929  65.195  10.747  1.00  0.00     0.010 C 
ATOM     20  C   UNL     1      -5.195  63.028  11.171  1.00  0.00     0.012 C 
ATOM     21  C   UNL     1      -3.025  62.943   9.803  1.00  0.00     0.003 C 
ATOM     22  C   UNL     1      -2.459  65.630  10.602  1.00  0.00     0.033 C 
ATOM     23  C   UNL     1      -1.857  63.097  10.881  1.00  0.00    -0.006 C 
ATOM     24  C   UNL     1      -1.405  64.598  11.047  1.00  0.00     0.120 C 
ATOM     25  C   UNL     1      -2.303  62.567  12.273  1.00  0.00     0.014 C 
ATOM     26  C   UNL     1      -0.644  62.192  10.493  1.00  0.00     0.014 C 
ENDROOT
BRANCH   1  27
ATOM     27  C   UNL     1      -8.965  64.305   3.884  1.00  0.00     0.048 C 
ATOM     28  O   UNL     1      -9.196  63.211   4.466  1.00  0.00    -0.550 OA
ATOM     29  O   UNL     1      -9.897  64.765   2.960  1.00  0.00    -0.550 OA
ENDBRANCH   1  27
BRANCH   7  30
ATOM     30  C   UNL     1      -9.992  66.484   6.354  1.00  0.00    -0.077 C 
ATOM     31  C   UNL     1     -10.371  66.209   7.787  1.00  0.00     0.039 C 
ATOM     32  C   UNL     1     -11.002  66.553   5.468  1.00  0.00     0.008 C 
ENDBRANCH   7  30
BRANCH  24  33
ATOM     33  O   UNL     1      -0.223  64.868  10.331  1.00  0.00    -0.393 OA
ATOM     34  H   UNL     1       0.490  65.067  10.993  1.00  0.00     0.210 HD
ENDBRANCH  24  33
TORSDOF 3
ENDMDL
MODEL 4
REMARK VINA RESULT:    -4.203      9.466     13.779
REMARK INTER + INTRA:          -4.986
REMARK INTER:                  -4.938
REMARK INTRA:                  -0.048
REMARK UNBOUND:                -0.168
REMARK SMILES C=C(C)[C@@H]1CC[C@@]2(C(=O)[O-])CC[C@]3(C)[C@@H](CC[C@@H]4[C@]5(C)CC[C@H](O)C(C)(C)[C@@H]5CC[C@]43C)[C@H]12
REMARK SMILES IDX 7 1 6 2 33 3 11 4 5 5 15 6 4 7 12 8 16 9 13 10 17 11 31 12
REMARK SMILES IDX 14 13 18 14 30 15 32 16 19 17 29 18 21 19 20 20 28 21 22 22
REMARK SMILES IDX 25 23 23 24 26 25 27 26 8 27 9 28 10 29 2 30 3 31 1 32 24 33
REMARK H PARENT 24 34
REMARK Flexibility Score: inf
ROOT
ATOM      1  C   UNL     1      -3.638  65.059  11.102  1.00  0.00     0.014 C 
ATOM      2  C   UNL     1      -2.490  66.069  11.297  1.00  0.00     0.014 C 
ATOM      3  C   UNL     1      -3.517  64.804   9.586  1.00  0.00     0.012 C 
ATOM      4  C   UNL     1      -5.051  65.629  11.470  1.00  0.00     0.014 C 
ATOM      5  C   UNL     1      -1.363  65.597  10.350  1.00  0.00     0.009 C 
ATOM      6  C   UNL     1      -4.676  63.933   9.039  1.00  0.00     0.000 C 
ATOM      7  C   UNL     1      -2.005  64.671   9.280  1.00  0.00     0.018 C 
ATOM      8  C   UNL     1      -5.977  65.880  10.258  1.00  0.00     0.008 C 
ATOM      9  C   UNL     1      -4.398  63.247   7.675  1.00  0.00     0.005 C 
ATOM     10  C   UNL     1      -6.092  64.684   9.210  1.00  0.00    -0.024 C 
ATOM     11  C   UNL     1      -4.990  63.945   6.463  1.00  0.00     0.005 C 
ATOM     12  C   UNL     1      -6.706  65.239   7.800  1.00  0.00    -0.024 C 
ATOM     13  C   UNL     1      -7.058  63.648   9.881  1.00  0.00     0.012 C 
ATOM     14  C   UNL     1      -6.510  64.180   6.662  1.00  0.00     0.002 C 
ATOM     15  C   UNL     1      -8.232  65.492   7.929  1.00  0.00     0.008 C 
ATOM     16  C   UNL     1      -6.032  66.586   7.385  1.00  0.00     0.012 C 
ATOM     17  C   UNL     1      -7.362  64.295   5.293  1.00  0.00    -0.026 C 
ATOM     18  C   UNL     1      -8.879  65.955   6.629  1.00  0.00     0.005 C 
ATOM     19  C   UNL     1      -6.642  65.112   4.149  1.00  0.00     0.010 C 
ATOM     20  C   UNL     1      -7.481  62.801   4.805  1.00  0.00     0.012 C 
ATOM     21  C   UNL     1      -8.835  64.858   5.529  1.00  0.00     0.003 C 
ATOM     22  C   UNL     1      -7.263  66.469   3.765  1.00  0.00     0.033 C 
ATOM     23  C   UNL     1      -9.585  65.341   4.205  1.00  0.00    -0.006 C 
ATOM     24  C   UNL     1      -8.769  66.451   3.440  1.00  0.00     0.120 C 
ATOM     25  C   UNL     1      -9.822  64.154   3.230  1.00  0.00     0.014 C 
ATOM     26  C   UNL     1     -11.020  65.849   4.554  1.00  0.00     0.014 C 
ENDROOT
BRANCH   1  27
ATOM     27  C   UNL     1      -3.368  63.806  11.947  1.00  0.00     0.048 C 
ATOM     28  O   UNL     1      -4.192  62.852  11.981  1.00  0.00    -0.550 OA
ATOM     29  O   UNL     1      -2.214  63.701  12.716  1.00  0.00    -0.550 OA
ENDBRANCH   1  27
BRANCH   7  30
ATOM     30  C   UNL     1      -1.295  63.309   9.235  1.00  0.00    -0.077 C 
ATOM     31  C   UNL     1      -1.850  62.003   9.744  1.00  0.00     0.039 C 
ATOM     32  C   UNL     1      -0.073  63.264   8.674  1.00  0.00     0.008 C 
ENDBRANCH   7  30
BRANCH  24  33
ATOM     33  O   UNL     1      -9.270  67.741   3.702  1.00  0.00    -0.393 OA
ATOM     34  H   UNL     1     -10.173  67.801   3.292  1.00  0.00     0.210 HD
ENDBRANCH  24  33
TORSDOF 3
ENDMDL
MODEL 5
REMARK VINA RESULT:    -4.182      2.334      9.009
REMARK INTER + INTRA:          -4.961
REMARK INTER:                  -4.894
REMARK INTRA:                  -0.067
REMARK UNBOUND:                -0.168
REMARK SMILES C=C(C)[C@@H]1CC[C@@]2(C(=O)[O-])CC[C@]3(C)[C@@H](CC[C@@H]4[C@]5(C)CC[C@H](O)C(C)(C)[C@@H]5CC[C@]43C)[C@H]12
REMARK SMILES IDX 7 1 6 2 33 3 11 4 5 5 15 6 4 7 12 8 16 9 13 10 17 11 31 12
REMARK SMILES IDX 14 13 18 14 30 15 32 16 19 17 29 18 21 19 20 20 28 21 22 22
REMARK SMILES IDX 25 23 23 24 26 25 27 26 8 27 9 28 10 29 2 30 3 31 1 32 24 33
REMARK H PARENT 24 34
REMARK Flexibility Score: inf
ROOT
ATOM      1  C   UNL     1      -3.333  61.056  10.755  1.00  0.00     0.014 C 
ATOM      2  C   UNL     1      -3.535  61.831   9.438  1.00  0.00     0.014 C 
ATOM      3  C   UNL     1      -1.831  60.728  10.645  1.00  0.00     0.012 C 
ATOM      4  C   UNL     1      -4.193  59.749  10.858  1.00  0.00     0.014 C 
ATOM      5  C   UNL     1      -2.243  62.657   9.245  1.00  0.00     0.009 C 
ATOM      6  C   UNL     1      -1.349  59.781  11.774  1.00  0.00     0.000 C 
ATOM      7  C   UNL     1      -1.137  62.009  10.122  1.00  0.00     0.018 C 
ATOM      8  C   UNL     1      -3.381  58.437  10.756  1.00  0.00     0.008 C 
ATOM      9  C   UNL     1       0.184  59.777  12.022  1.00  0.00     0.005 C 
ATOM     10  C   UNL     1      -2.082  58.349  11.677  1.00  0.00    -0.024 C 
ATOM     11  C   UNL     1       0.943  58.625  11.388  1.00  0.00     0.005 C 
ATOM     12  C   UNL     1      -1.102  57.154  11.142  1.00  0.00    -0.024 C 
ATOM     13  C   UNL     1      -2.624  58.038  13.114  1.00  0.00     0.012 C 
ATOM     14  C   UNL     1       0.314  57.270  11.801  1.00  0.00     0.002 C 
ATOM     15  C   UNL     1      -1.674  55.763  11.528  1.00  0.00     0.008 C 
ATOM     16  C   UNL     1      -0.962  57.196   9.586  1.00  0.00     0.012 C 
ATOM     17  C   UNL     1       1.330  56.012  11.763  1.00  0.00    -0.026 C 
ATOM     18  C   UNL     1      -0.776  54.605  11.110  1.00  0.00     0.005 C 
ATOM     19  C   UNL     1       2.314  56.012  10.527  1.00  0.00     0.010 C 
ATOM     20  C   UNL     1       2.202  56.202  13.063  1.00  0.00     0.012 C 
ATOM     21  C   UNL     1       0.579  54.610  11.870  1.00  0.00     0.003 C 
ATOM     22  C   UNL     1       2.104  54.912   9.470  1.00  0.00     0.033 C 
ATOM     23  C   UNL     1       1.467  53.346  11.469  1.00  0.00    -0.006 C 
ATOM     24  C   UNL     1       2.037  53.469  10.005  1.00  0.00     0.120 C 
ATOM     25  C   UNL     1       2.666  53.170  12.443  1.00  0.00     0.014 C 
ATOM     26  C   UNL     1       0.640  52.032  11.634  1.00  0.00     0.014 C 
ENDROOT
BRANCH   1  27
ATOM     27  C   UNL     1      -3.666  61.969  11.944  1.00  0.00     0.048 C 
ATOM     28  O   UNL     1      -3.669  61.527  13.125  1.00  0.00    -0.550 OA
ATOM     29  O   UNL     1      -3.994  63.306  11.745  1.00  0.00    -0.550 OA
ENDBRANCH   1  27
BRANCH   7  30
ATOM     30  C   UNL     1      -0.507  63.045  11.067  1.00  0.00    -0.077 C 
ATOM     31  C   UNL     1      -0.502  62.982  12.574  1.00  0.00     0.039 C 
ATOM     32  C   UNL     1       0.114  64.099  10.508  1.00  0.00     0.008 C 
ENDBRANCH   7  30
BRANCH  24  33
ATOM     33  O   UNL     1       1.282  52.714   9.086  1.00  0.00    -0.393 OA
ATOM     34  H   UNL     1       1.389  51.756   9.326  1.00  0.00     0.210 HD
ENDBRANCH  24  33
TORSDOF 3
ENDMDL
MODEL 6
REMARK VINA RESULT:    -4.108      7.472     13.332
REMARK INTER + INTRA:          -4.876
REMARK INTER:                  -4.892
REMARK INTRA:                   0.016
REMARK UNBOUND:                -0.168
REMARK SMILES C=C(C)[C@@H]1CC[C@@]2(C(=O)[O-])CC[C@]3(C)[C@@H](CC[C@@H]4[C@]5(C)CC[C@H](O)C(C)(C)[C@@H]5CC[C@]43C)[C@H]12
REMARK SMILES IDX 7 1 6 2 33 3 11 4 5 5 15 6 4 7 12 8 16 9 13 10 17 11 31 12
REMARK SMILES IDX 14 13 18 14 30 15 32 16 19 17 29 18 21 19 20 20 28 21 22 22
REMARK SMILES IDX 25 23 23 24 26 25 27 26 8 27 9 28 10 29 2 30 3 31 1 32 24 33
REMARK H PARENT 24 34
REMARK Flexibility Score: inf
ROOT
ATOM      1  C   UNL     1      -6.076  66.391   7.140  1.00  0.00     0.014 C 
ATOM      2  C   UNL     1      -6.340  67.866   7.501  1.00  0.00     0.014 C 
ATOM      3  C   UNL     1      -6.137  65.755   8.543  1.00  0.00     0.012 C 
ATOM      4  C   UNL     1      -4.683  66.144   6.466  1.00  0.00     0.014 C 
ATOM      5  C   UNL     1      -7.380  67.829   8.644  1.00  0.00     0.009 C 
ATOM      6  C   UNL     1      -5.733  64.259   8.533  1.00  0.00     0.000 C 
ATOM      7  C   UNL     1      -7.338  66.407   9.270  1.00  0.00     0.018 C 
ATOM      8  C   UNL     1      -3.662  65.399   7.357  1.00  0.00     0.008 C 
ATOM      9  C   UNL     1      -6.207  63.439   9.763  1.00  0.00     0.005 C 
ATOM     10  C   UNL     1      -4.198  64.080   8.076  1.00  0.00    -0.024 C 
ATOM     11  C   UNL     1      -5.159  63.219  10.840  1.00  0.00     0.005 C 
ATOM     12  C   UNL     1      -3.199  63.673   9.305  1.00  0.00    -0.024 C 
ATOM     13  C   UNL     1      -4.200  62.981   6.958  1.00  0.00     0.012 C 
ATOM     14  C   UNL     1      -3.875  62.603  10.228  1.00  0.00     0.002 C 
ATOM     15  C   UNL     1      -1.889  63.043   8.759  1.00  0.00     0.008 C 
ATOM     16  C   UNL     1      -2.809  64.927  10.151  1.00  0.00     0.012 C 
ATOM     17  C   UNL     1      -2.977  61.745  11.263  1.00  0.00    -0.026 C 
ATOM     18  C   UNL     1      -0.937  62.586   9.858  1.00  0.00     0.005 C 
ATOM     19  C   UNL     1      -2.866  62.379  12.706  1.00  0.00     0.010 C 
ATOM     20  C   UNL     1      -3.769  60.389  11.403  1.00  0.00     0.012 C 
ATOM     21  C   UNL     1      -1.525  61.414  10.693  1.00  0.00     0.003 C 
ATOM     22  C   UNL     1      -1.484  62.918  13.125  1.00  0.00     0.033 C 
ATOM     23  C   UNL     1      -0.479  60.905  11.786  1.00  0.00    -0.006 C 
ATOM     24  C   UNL     1      -0.304  61.943  12.959  1.00  0.00     0.120 C 
ATOM     25  C   UNL     1      -0.924  59.549  12.401  1.00  0.00     0.014 C 
ATOM     26  C   UNL     1       0.894  60.592  11.112  1.00  0.00     0.014 C 
ENDROOT
BRANCH   1  27
ATOM     27  C   UNL     1      -7.182  65.887   6.201  1.00  0.00     0.048 C 
ATOM     28  O   UNL     1      -7.261  64.670   5.880  1.00  0.00    -0.550 OA
ATOM     29  O   UNL     1      -8.114  66.767   5.662  1.00  0.00    -0.550 OA
ENDBRANCH   1  27
BRANCH   7  30
ATOM     30  C   UNL     1      -8.737  65.770   9.279  1.00  0.00    -0.077 C 
ATOM     31  C   UNL     1      -9.887  66.147   8.379  1.00  0.00     0.039 C 
ATOM     32  C   UNL     1      -8.960  64.771  10.152  1.00  0.00     0.008 C 
ENDBRANCH   7  30
BRANCH  24  33
ATOM     33  O   UNL     1       0.862  62.717  12.800  1.00  0.00    -0.393 OA
ATOM     34  H   UNL     1       0.834  63.119  11.892  1.00  0.00     0.210 HD
ENDBRANCH  24  33
TORSDOF 3
ENDMDL
MODEL 7
REMARK VINA RESULT:    -4.002      9.598     12.359
REMARK INTER + INTRA:          -4.755
REMARK INTER:                  -4.579
REMARK INTRA:                  -0.176
REMARK UNBOUND:                -0.168
REMARK SMILES C=C(C)[C@@H]1CC[C@@]2(C(=O)[O-])CC[C@]3(C)[C@@H](CC[C@@H]4[C@]5(C)CC[C@H](O)C(C)(C)[C@@H]5CC[C@]43C)[C@H]12
REMARK SMILES IDX 7 1 6 2 33 3 11 4 5 5 15 6 4 7 12 8 16 9 13 10 17 11 31 12
REMARK SMILES IDX 14 13 18 14 30 15 32 16 19 17 29 18 21 19 20 20 28 21 22 22
REMARK SMILES IDX 25 23 23 24 26 25 27 26 8 27 9 28 10 29 2 30 3 31 1 32 24 33
REMARK H PARENT 24 34
REMARK Flexibility Score: inf
ROOT
ATOM      1  C   UNL     1      -7.506  59.261  10.500  1.00  0.00     0.014 C 
ATOM      2  C   UNL     1      -8.719  58.694   9.735  1.00  0.00     0.014 C 
ATOM      3  C   UNL     1      -7.892  60.753  10.544  1.00  0.00     0.012 C 
ATOM      4  C   UNL     1      -6.139  59.050   9.763  1.00  0.00     0.014 C 
ATOM      5  C   UNL     1      -9.938  59.498  10.243  1.00  0.00     0.009 C 
ATOM      6  C   UNL     1      -6.757  61.639  11.120  1.00  0.00     0.000 C 
ATOM      7  C   UNL     1      -9.402  60.810  10.881  1.00  0.00     0.018 C 
ATOM      8  C   UNL     1      -5.516  60.342   9.185  1.00  0.00     0.008 C 
ATOM      9  C   UNL     1      -7.207  63.034  11.634  1.00  0.00     0.005 C 
ATOM     10  C   UNL     1      -5.451  61.588  10.178  1.00  0.00    -0.024 C 
ATOM     11  C   UNL     1      -6.968  64.188  10.676  1.00  0.00     0.005 C 
ATOM     12  C   UNL     1      -5.211  62.963   9.326  1.00  0.00    -0.024 C 
ATOM     13  C   UNL     1      -4.240  61.289  11.126  1.00  0.00     0.012 C 
ATOM     14  C   UNL     1      -5.486  64.218  10.224  1.00  0.00     0.002 C 
ATOM     15  C   UNL     1      -3.739  63.059   8.845  1.00  0.00     0.008 C 
ATOM     16  C   UNL     1      -6.130  63.010   8.064  1.00  0.00     0.012 C 
ATOM     17  C   UNL     1      -4.947  65.672   9.767  1.00  0.00    -0.026 C 
ATOM     18  C   UNL     1      -3.433  64.350   8.094  1.00  0.00     0.005 C 
ATOM     19  C   UNL     1      -5.984  66.512   8.922  1.00  0.00     0.010 C 
ATOM     20  C   UNL     1      -4.726  66.429  11.132  1.00  0.00     0.012 C 
ATOM     21  C   UNL     1      -3.546  65.601   9.008  1.00  0.00     0.003 C 
ATOM     22  C   UNL     1      -5.642  66.752   7.439  1.00  0.00     0.033 C 
ATOM     23  C   UNL     1      -3.148  66.929   8.217  1.00  0.00    -0.006 C 
ATOM     24  C   UNL     1      -4.243  67.332   7.158  1.00  0.00     0.120 C 
ATOM     25  C   UNL     1      -2.951  68.125   9.191  1.00  0.00     0.014 C 
ATOM     26  C   UNL     1      -1.755  66.752   7.535  1.00  0.00     0.014 C 
ENDROOT
BRANCH   1  27
ATOM     27  C   UNL     1      -7.430  58.616  11.891  1.00  0.00     0.048 C 
ATOM     28  O   UNL     1      -6.801  59.171  12.833  1.00  0.00    -0.550 OA
ATOM     29  O   UNL     1      -8.037  57.390  12.142  1.00  0.00    -0.550 OA
ENDBRANCH   1  27
BRANCH   7  30
ATOM     30  C   UNL     1      -9.916  60.970  12.320  1.00  0.00    -0.077 C 
ATOM     31  C   UNL     1      -9.912  62.245  13.125  1.00  0.00     0.039 C 
ATOM     32  C   UNL     1     -10.437  59.884  12.919  1.00  0.00     0.008 C 
ENDBRANCH   7  30
BRANCH  24  33
ATOM     33  O   UNL     1      -3.878  66.938   5.856  1.00  0.00    -0.393 OA
ATOM     34  H   UNL     1      -3.953  65.949   5.809  1.00  0.00     0.210 HD
ENDBRANCH  24  33
TORSDOF 3
ENDMDL
MODEL 8
REMARK VINA RESULT:    -3.938      6.529     12.556
REMARK INTER + INTRA:          -4.682
REMARK INTER:                  -4.603
REMARK INTRA:                  -0.079
REMARK UNBOUND:                -0.168
REMARK SMILES C=C(C)[C@@H]1CC[C@@]2(C(=O)[O-])CC[C@]3(C)[C@@H](CC[C@@H]4[C@]5(C)CC[C@H](O)C(C)(C)[C@@H]5CC[C@]43C)[C@H]12
REMARK SMILES IDX 7 1 6 2 33 3 11 4 5 5 15 6 4 7 12 8 16 9 13 10 17 11 31 12
REMARK SMILES IDX 14 13 18 14 30 15 32 16 19 17 29 18 21 19 20 20 28 21 22 22
REMARK SMILES IDX 25 23 23 24 26 25 27 26 8 27 9 28 10 29 2 30 3 31 1 32 24 33
REMARK H PARENT 24 34
REMARK Flexibility Score: inf
ROOT
ATOM      1  C   UNL     1      -5.211  64.777   6.102  1.00  0.00     0.014 C 
ATOM      2  C   UNL     1      -4.475  66.131   6.085  1.00  0.00     0.014 C 
ATOM      3  C   UNL     1      -5.497  64.646   7.611  1.00  0.00     0.012 C 
ATOM      4  C   UNL     1      -4.343  63.579   5.583  1.00  0.00     0.014 C 
ATOM      5  C   UNL     1      -5.189  67.000   7.145  1.00  0.00     0.009 C 
ATOM      6  C   UNL     1      -6.097  63.266   7.981  1.00  0.00     0.000 C 
ATOM      7  C   UNL     1      -5.960  66.041   8.095  1.00  0.00     0.018 C 
ATOM      8  C   UNL     1      -3.904  62.582   6.681  1.00  0.00     0.008 C 
ATOM      9  C   UNL     1      -6.838  63.213   9.345  1.00  0.00     0.005 C 
ATOM     10  C   UNL     1      -5.054  62.079   7.664  1.00  0.00    -0.024 C 
ATOM     11  C   UNL     1      -6.036  62.636  10.499  1.00  0.00     0.005 C 
ATOM     12  C   UNL     1      -4.388  61.425   9.007  1.00  0.00    -0.024 C 
ATOM     13  C   UNL     1      -5.849  61.006   6.844  1.00  0.00     0.012 C 
ATOM     14  C   UNL     1      -5.473  61.242  10.122  1.00  0.00     0.002 C 
ATOM     15  C   UNL     1      -3.807  60.019   8.700  1.00  0.00     0.008 C 
ATOM     16  C   UNL     1      -3.224  62.315   9.548  1.00  0.00     0.012 C 
ATOM     17  C   UNL     1      -5.184  60.267  11.380  1.00  0.00    -0.026 C 
ATOM     18  C   UNL     1      -3.223  59.327   9.927  1.00  0.00     0.005 C 
ATOM     19  C   UNL     1      -4.553  60.995  12.632  1.00  0.00     0.010 C 
ATOM     20  C   UNL     1      -6.620  59.767  11.797  1.00  0.00     0.012 C 
ATOM     21  C   UNL     1      -4.311  58.993  10.985  1.00  0.00     0.003 C 
ATOM     22  C   UNL     1      -3.096  60.638  12.984  1.00  0.00     0.033 C 
ATOM     23  C   UNL     1      -3.685  58.203  12.222  1.00  0.00    -0.006 C 
ATOM     24  C   UNL     1      -2.786  59.135  13.120  1.00  0.00     0.120 C 
ATOM     25  C   UNL     1      -4.799  57.592  13.120  1.00  0.00     0.014 C 
ATOM     26  C   UNL     1      -2.874  56.968  11.719  1.00  0.00     0.014 C 
ENDROOT
BRANCH   1  27
ATOM     27  C   UNL     1      -6.487  64.875   5.253  1.00  0.00     0.048 C 
ATOM     28  O   UNL     1      -6.688  65.858   4.489  1.00  0.00    -0.550 OA
ATOM     29  O   UNL     1      -7.465  63.889   5.322  1.00  0.00    -0.550 OA
ENDBRANCH   1  27
BRANCH   7  30
ATOM     30  C   UNL     1      -7.444  66.429   8.180  1.00  0.00    -0.077 C 
ATOM     31  C   UNL     1      -8.449  65.877   9.159  1.00  0.00     0.039 C 
ATOM     32  C   UNL     1      -7.894  67.360   7.319  1.00  0.00     0.008 C 
ENDBRANCH   7  30
BRANCH  24  33
ATOM     33  O   UNL     1      -1.416  58.961  12.844  1.00  0.00    -0.393 OA
ATOM     34  H   UNL     1      -1.210  59.472  12.018  1.00  0.00     0.210 HD
ENDBRANCH  24  33
TORSDOF 3
ENDMDL
MODEL 9
REMARK VINA RESULT:    -3.656      8.601     11.550
REMARK INTER + INTRA:          -4.359
REMARK INTER:                  -4.240
REMARK INTRA:                  -0.118
REMARK UNBOUND:                -0.168
REMARK SMILES C=C(C)[C@@H]1CC[C@@]2(C(=O)[O-])CC[C@]3(C)[C@@H](CC[C@@H]4[C@]5(C)CC[C@H](O)C(C)(C)[C@@H]5CC[C@]43C)[C@H]12
REMARK SMILES IDX 7 1 6 2 33 3 11 4 5 5 15 6 4 7 12 8 16 9 13 10 17 11 31 12
REMARK SMILES IDX 14 13 18 14 30 15 32 16 19 17 29 18 21 19 20 20 28 21 22 22
REMARK SMILES IDX 25 23 23 24 26 25 27 26 8 27 9 28 10 29 2 30 3 31 1 32 24 33
REMARK H PARENT 24 34
REMARK Flexibility Score: inf
ROOT
ATOM      1  C   UNL     1      -2.915  65.004  10.223  1.00  0.00     0.014 C 
ATOM      2  C   UNL     1      -2.400  65.326   8.806  1.00  0.00     0.014 C 
ATOM      3  C   UNL     1      -3.074  63.475  10.110  1.00  0.00     0.012 C 
ATOM      4  C   UNL     1      -4.279  65.692  10.572  1.00  0.00     0.014 C 
ATOM      5  C   UNL     1      -1.469  64.151   8.431  1.00  0.00     0.009 C 
ATOM      6  C   UNL     1      -3.756  62.858  11.358  1.00  0.00     0.000 C 
ATOM      7  C   UNL     1      -1.825  62.956   9.358  1.00  0.00     0.018 C 
ATOM      8  C   UNL     1      -5.483  64.725  10.653  1.00  0.00     0.008 C 
ATOM      9  C   UNL     1      -3.534  61.332  11.543  1.00  0.00     0.005 C 
ATOM     10  C   UNL     1      -5.260  63.409  11.525  1.00  0.00    -0.024 C 
ATOM     11  C   UNL     1      -4.677  60.448  11.076  1.00  0.00     0.005 C 
ATOM     12  C   UNL     1      -6.403  62.298  11.154  1.00  0.00    -0.024 C 
ATOM     13  C   UNL     1      -5.390  63.881  13.013  1.00  0.00     0.012 C 
ATOM     14  C   UNL     1      -6.010  60.896  11.730  1.00  0.00     0.002 C 
ATOM     15  C   UNL     1      -7.767  62.685  11.784  1.00  0.00     0.008 C 
ATOM     16  C   UNL     1      -6.603  62.193   9.608  1.00  0.00     0.012 C 
ATOM     17  C   UNL     1      -7.125  59.732  11.857  1.00  0.00    -0.026 C 
ATOM     18  C   UNL     1      -8.863  61.658  11.526  1.00  0.00     0.005 C 
ATOM     19  C   UNL     1      -7.213  58.779  10.601  1.00  0.00     0.010 C 
ATOM     20  C   UNL     1      -6.619  58.866  13.074  1.00  0.00     0.012 C 
ATOM     21  C   UNL     1      -8.570  60.300  12.221  1.00  0.00     0.003 C 
ATOM     22  C   UNL     1      -8.492  58.870   9.746  1.00  0.00     0.033 C 
ATOM     23  C   UNL     1      -9.768  59.269  11.997  1.00  0.00    -0.006 C 
ATOM     24  C   UNL     1      -9.823  58.746  10.512  1.00  0.00     0.120 C 
ATOM     25  C   UNL     1      -9.634  58.039  12.940  1.00  0.00     0.014 C 
ATOM     26  C   UNL     1     -11.125  59.923  12.406  1.00  0.00     0.014 C 
ENDROOT
BRANCH   1  27
ATOM     27  C   UNL     1      -1.863  65.426  11.259  1.00  0.00     0.048 C 
ATOM     28  O   UNL     1      -1.733  64.802  12.348  1.00  0.00    -0.550 OA
ATOM     29  O   UNL     1      -1.039  66.522  11.031  1.00  0.00    -0.550 OA
ENDBRANCH   1  27
BRANCH   7  30
ATOM     30  C   UNL     1      -0.578  62.443  10.096  1.00  0.00    -0.077 C 
ATOM     31  C   UNL     1      -0.484  61.168  10.896  1.00  0.00     0.039 C 
ATOM     32  C   UNL     1       0.543  63.182  10.011  1.00  0.00     0.008 C 
ENDBRANCH   7  30
BRANCH  24  33
ATOM     33  O   UNL     1     -10.805  59.418   9.759  1.00  0.00    -0.393 OA
ATOM     34  H   UNL     1     -11.677  58.978   9.942  1.00  0.00     0.210 HD
ENDBRANCH  24  33
TORSDOF 3
ENDMDL
