MODEL 1
REMARK VINA RESULT:    -6.402      0.000      0.000
REMARK INTER + INTRA:          -8.265
REMARK INTER:                  -7.899
REMARK INTRA:                  -0.366
REMARK UNBOUND:                -0.366
REMARK SMILES O=c1c(O)c(-c2cc(O)c(O)c(O)c2)oc2cc(O)cc(O)c12
REMARK SMILES IDX 5 1 3 2 2 3 1 4 23 5 21 6 20 7 18 8 17 9 16 10 15 11 6 12
REMARK SMILES IDX 7 13 8 14 14 15 10 16 12 17 9 18 11 20 13 22 4 24 22 26
REMARK SMILES IDX 19 28
REMARK H PARENT 9 19 11 21 13 23 4 25 22 27 19 29
REMARK Flexibility Score: inf
ROOT
ATOM      1  C   UNL     1      -7.333  28.219  55.941  1.00  0.00     0.180 A 
ATOM      2  C   UNL     1      -8.459  29.058  55.890  1.00  0.00     0.208 A 
ATOM      3  C   UNL     1      -8.533  30.151  56.767  1.00  0.00     0.238 A 
ATOM      4  O   UNL     1      -9.518  30.931  56.680  1.00  0.00    -0.285 OA
ATOM      5  C   UNL     1      -7.489  30.383  57.695  1.00  0.00     0.111 A 
ATOM      6  C   UNL     1      -7.478  31.436  58.658  1.00  0.00     0.134 A 
ATOM      7  C   UNL     1      -6.334  31.649  59.438  1.00  0.00     0.093 A 
ATOM      8  C   UNL     1      -5.226  30.805  59.334  1.00  0.00     0.123 A 
ATOM      9  C   UNL     1      -5.250  29.737  58.440  1.00  0.00     0.094 A 
ATOM     10  C   UNL     1      -6.363  29.522  57.622  1.00  0.00     0.146 A 
ATOM     11  O   UNL     1      -6.340  28.499  56.776  1.00  0.00    -0.452 OA
ENDROOT
BRANCH   1  12
ATOM     12  C   UNL     1      -7.195  27.032  55.065  1.00  0.00     0.029 A 
ATOM     13  C   UNL     1      -7.736  25.788  55.429  1.00  0.00     0.062 A 
ATOM     14  C   UNL     1      -7.577  24.672  54.601  1.00  0.00     0.162 A 
ATOM     15  C   UNL     1      -6.460  27.135  53.874  1.00  0.00     0.062 A 
ATOM     16  C   UNL     1      -6.859  24.786  53.398  1.00  0.00     0.200 A 
ATOM     17  C   UNL     1      -6.297  26.022  53.037  1.00  0.00     0.162 A 
BRANCH  14  18
ATOM     18  O   UNL     1      -8.134  23.455  54.994  1.00  0.00    -0.504 OA
ATOM     19  H   UNL     1      -8.668  22.876  54.358  1.00  0.00     0.293 HD
ENDBRANCH  14  18
BRANCH  16  20
ATOM     20  O   UNL     1      -6.709  23.669  52.576  1.00  0.00    -0.502 OA
ATOM     21  H   UNL     1      -5.886  23.527  52.001  1.00  0.00     0.293 HD
ENDBRANCH  16  20
BRANCH  17  22
ATOM     22  O   UNL     1      -5.577  26.142  51.849  1.00  0.00    -0.504 OA
ATOM     23  H   UNL     1      -4.740  26.710  51.790  1.00  0.00     0.293 HD
ENDBRANCH  17  22
ENDBRANCH   1  12
BRANCH   2  24
ATOM     24  O   UNL     1      -9.468  28.825  54.952  1.00  0.00    -0.502 OA
ATOM     25  H   UNL     1      -9.445  28.039  54.312  1.00  0.00     0.293 HD
ENDBRANCH   2  24
BRANCH   6  26
ATOM     26  O   UNL     1      -8.566  32.278  58.905  1.00  0.00    -0.507 OA
ATOM     27  H   UNL     1      -9.247  32.138  59.635  1.00  0.00     0.293 HD
ENDBRANCH   6  26
BRANCH   8  28
ATOM     28  O   UNL     1      -4.097  31.012  60.124  1.00  0.00    -0.508 OA
ATOM     29  H   UNL     1      -3.643  30.247  60.610  1.00  0.00     0.293 HD
ENDBRANCH   8  28
TORSDOF 7
ENDMDL
MODEL 2
REMARK VINA RESULT:    -6.353      0.120      1.756
REMARK INTER + INTRA:          -8.204
REMARK INTER:                  -7.869
REMARK INTRA:                  -0.335
REMARK UNBOUND:                -0.366
REMARK SMILES O=c1c(O)c(-c2cc(O)c(O)c(O)c2)oc2cc(O)cc(O)c12
REMARK SMILES IDX 5 1 3 2 2 3 1 4 23 5 21 6 20 7 18 8 17 9 16 10 15 11 6 12
REMARK SMILES IDX 7 13 8 14 14 15 10 16 12 17 9 18 11 20 13 22 4 24 22 26
REMARK SMILES IDX 19 28
REMARK H PARENT 9 19 11 21 13 23 4 25 22 27 19 29
REMARK Flexibility Score: inf
ROOT
ATOM      1  C   UNL     1      -7.324  28.198  55.879  1.00  0.00     0.180 A 
ATOM      2  C   UNL     1      -8.458  29.024  55.794  1.00  0.00     0.208 A 
ATOM      3  C   UNL     1      -8.566  30.121  56.663  1.00  0.00     0.238 A 
ATOM      4  O   UNL     1      -9.558  30.889  56.545  1.00  0.00    -0.285 OA
ATOM      5  C   UNL     1      -7.549  30.371  57.615  1.00  0.00     0.111 A 
ATOM      6  C   UNL     1      -7.575  31.430  58.571  1.00  0.00     0.134 A 
ATOM      7  C   UNL     1      -6.453  31.660  59.378  1.00  0.00     0.093 A 
ATOM      8  C   UNL     1      -5.333  30.829  59.307  1.00  0.00     0.123 A 
ATOM      9  C   UNL     1      -5.322  29.756  58.420  1.00  0.00     0.094 A 
ATOM     10  C   UNL     1      -6.411  29.523  57.576  1.00  0.00     0.146 A 
ATOM     11  O   UNL     1      -6.356  28.495  56.737  1.00  0.00    -0.452 OA
ENDROOT
BRANCH   1  12
ATOM     12  C   UNL     1      -7.150  27.008  55.014  1.00  0.00     0.029 A 
ATOM     13  C   UNL     1      -6.384  27.063  53.839  1.00  0.00     0.062 A 
ATOM     14  C   UNL     1      -6.249  25.936  53.021  1.00  0.00     0.162 A 
ATOM     15  C   UNL     1      -7.813  25.815  55.342  1.00  0.00     0.062 A 
ATOM     16  C   UNL     1      -6.896  24.738  53.366  1.00  0.00     0.200 A 
ATOM     17  C   UNL     1      -7.682  24.680  54.529  1.00  0.00     0.162 A 
BRANCH  14  18
ATOM     18  O   UNL     1      -5.474  26.029  51.865  1.00  0.00    -0.504 OA
ATOM     19  H   UNL     1      -5.784  25.657  50.976  1.00  0.00     0.293 HD
ENDBRANCH  14  18
BRANCH  16  20
ATOM     20  O   UNL     1      -6.754  23.617  52.547  1.00  0.00    -0.502 OA
ATOM     21  H   UNL     1      -7.477  22.912  52.465  1.00  0.00     0.293 HD
ENDBRANCH  16  20
BRANCH  17  22
ATOM     22  O   UNL     1      -8.334  23.496  54.873  1.00  0.00    -0.504 OA
ATOM     23  H   UNL     1      -8.404  23.190  55.837  1.00  0.00     0.293 HD
ENDBRANCH  17  22
ENDBRANCH   1  12
BRANCH   2  24
ATOM     24  O   UNL     1      -9.440  28.773  54.832  1.00  0.00    -0.502 OA
ATOM     25  H   UNL     1     -10.292  28.266  55.044  1.00  0.00     0.293 HD
ENDBRANCH   2  24
BRANCH   6  26
ATOM     26  O   UNL     1      -8.678  32.260  58.785  1.00  0.00    -0.507 OA
ATOM     27  H   UNL     1      -8.795  33.177  58.382  1.00  0.00     0.293 HD
ENDBRANCH   6  26
BRANCH   8  28
ATOM     28  O   UNL     1      -4.227  31.054  60.125  1.00  0.00    -0.508 OA
ATOM     29  H   UNL     1      -4.324  31.475  61.042  1.00  0.00     0.293 HD
ENDBRANCH   8  28
TORSDOF 7
ENDMDL
MODEL 3
REMARK VINA RESULT:    -5.613      3.774      6.555
REMARK INTER + INTRA:          -7.292
REMARK INTER:                  -6.954
REMARK INTRA:                  -0.338
REMARK UNBOUND:                -0.366
REMARK SMILES O=c1c(O)c(-c2cc(O)c(O)c(O)c2)oc2cc(O)cc(O)c12
REMARK SMILES IDX 5 1 3 2 2 3 1 4 23 5 21 6 20 7 18 8 17 9 16 10 15 11 6 12
REMARK SMILES IDX 7 13 8 14 14 15 10 16 12 17 9 18 11 20 13 22 4 24 22 26
REMARK SMILES IDX 19 28
REMARK H PARENT 9 19 11 21 13 23 4 25 22 27 19 29
REMARK Flexibility Score: inf
ROOT
ATOM      1  C   UNL     1      -8.348  32.889  57.876  1.00  0.00     0.180 A 
ATOM      2  C   UNL     1      -9.586  32.948  58.539  1.00  0.00     0.208 A 
ATOM      3  C   UNL     1     -10.403  34.074  58.353  1.00  0.00     0.238 A 
ATOM      4  O   UNL     1     -11.536  34.097  58.904  1.00  0.00    -0.285 OA
ATOM      5  C   UNL     1      -9.967  35.134  57.522  1.00  0.00     0.111 A 
ATOM      6  C   UNL     1     -10.695  36.340  57.294  1.00  0.00     0.134 A 
ATOM      7  C   UNL     1     -10.227  37.263  56.350  1.00  0.00     0.093 A 
ATOM      8  C   UNL     1      -9.023  37.052  55.674  1.00  0.00     0.123 A 
ATOM      9  C   UNL     1      -8.275  35.907  55.933  1.00  0.00     0.094 A 
ATOM     10  C   UNL     1      -8.734  34.950  56.842  1.00  0.00     0.146 A 
ATOM     11  O   UNL     1      -7.995  33.868  57.052  1.00  0.00    -0.452 OA
ENDROOT
BRANCH   1  12
ATOM     12  C   UNL     1      -7.421  31.746  58.042  1.00  0.00     0.029 A 
ATOM     13  C   UNL     1      -7.583  30.560  57.308  1.00  0.00     0.062 A 
ATOM     14  C   UNL     1      -6.713  29.481  57.494  1.00  0.00     0.162 A 
ATOM     15  C   UNL     1      -6.393  31.824  58.994  1.00  0.00     0.062 A 
ATOM     16  C   UNL     1      -5.671  29.572  58.432  1.00  0.00     0.200 A 
ATOM     17  C   UNL     1      -5.515  30.748  59.186  1.00  0.00     0.162 A 
BRANCH  14  18
ATOM     18  O   UNL     1      -6.903  28.322  56.740  1.00  0.00    -0.504 OA
ATOM     19  H   UNL     1      -7.710  27.725  56.865  1.00  0.00     0.293 HD
ENDBRANCH  14  18
BRANCH  16  20
ATOM     20  O   UNL     1      -4.804  28.493  58.608  1.00  0.00    -0.502 OA
ATOM     21  H   UNL     1      -4.665  27.789  57.893  1.00  0.00     0.293 HD
ENDBRANCH  16  20
BRANCH  17  22
ATOM     22  O   UNL     1      -4.488  30.844  60.125  1.00  0.00    -0.504 OA
ATOM     23  H   UNL     1      -3.937  31.688  60.226  1.00  0.00     0.293 HD
ENDBRANCH  17  22
ENDBRANCH   1  12
BRANCH   2  24
ATOM     24  O   UNL     1     -10.008  31.882  59.337  1.00  0.00    -0.502 OA
ATOM     25  H   UNL     1      -9.780  30.918  59.123  1.00  0.00     0.293 HD
ENDBRANCH   2  24
BRANCH   6  26
ATOM     26  O   UNL     1     -11.860  36.689  57.983  1.00  0.00    -0.507 OA
ATOM     27  H   UNL     1     -12.095  36.374  58.912  1.00  0.00     0.293 HD
ENDBRANCH   6  26
BRANCH   8  28
ATOM     28  O   UNL     1      -8.556  37.982  54.748  1.00  0.00    -0.508 OA
ATOM     29  H   UNL     1      -9.021  38.873  54.612  1.00  0.00     0.293 HD
ENDBRANCH   8  28
TORSDOF 7
ENDMDL
MODEL 4
REMARK VINA RESULT:    -5.610      3.772      6.528
REMARK INTER + INTRA:          -7.288
REMARK INTER:                  -6.966
REMARK INTRA:                  -0.322
REMARK UNBOUND:                -0.366
REMARK SMILES O=c1c(O)c(-c2cc(O)c(O)c(O)c2)oc2cc(O)cc(O)c12
REMARK SMILES IDX 5 1 3 2 2 3 1 4 23 5 21 6 20 7 18 8 17 9 16 10 15 11 6 12
REMARK SMILES IDX 7 13 8 14 14 15 10 16 12 17 9 18 11 20 13 22 4 24 22 26
REMARK SMILES IDX 19 28
REMARK H PARENT 9 19 11 21 13 23 4 25 22 27 19 29
REMARK Flexibility Score: inf
ROOT
ATOM      1  C   UNL     1      -8.282  32.912  57.878  1.00  0.00     0.180 A 
ATOM      2  C   UNL     1      -9.576  32.969  58.425  1.00  0.00     0.208 A 
ATOM      3  C   UNL     1     -10.355  34.116  58.209  1.00  0.00     0.238 A 
ATOM      4  O   UNL     1     -11.533  34.139  58.654  1.00  0.00    -0.285 OA
ATOM      5  C   UNL     1      -9.827  35.198  57.464  1.00  0.00     0.111 A 
ATOM      6  C   UNL     1     -10.513  36.426  57.218  1.00  0.00     0.134 A 
ATOM      7  C   UNL     1      -9.945  37.375  56.359  1.00  0.00     0.093 A 
ATOM      8  C   UNL     1      -8.687  37.168  55.789  1.00  0.00     0.123 A 
ATOM      9  C   UNL     1      -7.983  36.000  56.071  1.00  0.00     0.094 A 
ATOM     10  C   UNL     1      -8.539  35.018  56.895  1.00  0.00     0.146 A 
ATOM     11  O   UNL     1      -7.839  33.915  57.129  1.00  0.00    -0.452 OA
ENDROOT
BRANCH   1  12
ATOM     12  C   UNL     1      -7.391  31.746  58.084  1.00  0.00     0.029 A 
ATOM     13  C   UNL     1      -6.343  31.783  59.017  1.00  0.00     0.062 A 
ATOM     14  C   UNL     1      -5.496  30.682  59.182  1.00  0.00     0.162 A 
ATOM     15  C   UNL     1      -7.560  30.601  57.290  1.00  0.00     0.062 A 
ATOM     16  C   UNL     1      -5.683  29.530  58.401  1.00  0.00     0.200 A 
ATOM     17  C   UNL     1      -6.717  29.492  57.450  1.00  0.00     0.162 A 
BRANCH  14  18
ATOM     18  O   UNL     1      -4.470  30.755  60.124  1.00  0.00    -0.504 OA
ATOM     19  H   UNL     1      -4.400  30.104  60.896  1.00  0.00     0.293 HD
ENDBRANCH  14  18
BRANCH  16  20
ATOM     20  O   UNL     1      -4.837  28.434  58.575  1.00  0.00    -0.502 OA
ATOM     21  H   UNL     1      -3.988  28.488  59.127  1.00  0.00     0.293 HD
ENDBRANCH  16  20
BRANCH  17  22
ATOM     22  O   UNL     1      -6.903  28.355  56.665  1.00  0.00    -0.504 OA
ATOM     23  H   UNL     1      -7.815  28.107  56.298  1.00  0.00     0.293 HD
ENDBRANCH  17  22
ENDBRANCH   1  12
BRANCH   2  24
ATOM     24  O   UNL     1     -10.086  31.881  59.138  1.00  0.00    -0.502 OA
ATOM     25  H   UNL     1      -9.590  31.458  59.913  1.00  0.00     0.293 HD
ENDBRANCH   2  24
BRANCH   6  26
ATOM     26  O   UNL     1     -11.732  36.770  57.810  1.00  0.00    -0.507 OA
ATOM     27  H   UNL     1     -11.967  36.609  58.777  1.00  0.00     0.293 HD
ENDBRANCH   6  26
BRANCH   8  28
ATOM     28  O   UNL     1      -8.121  38.124  54.948  1.00  0.00    -0.508 OA
ATOM     29  H   UNL     1      -8.692  38.811  54.468  1.00  0.00     0.293 HD
ENDBRANCH   8  28
TORSDOF 7
ENDMDL
MODEL 5
REMARK VINA RESULT:    -5.464      3.658      6.642
REMARK INTER + INTRA:          -7.108
REMARK INTER:                  -6.762
REMARK INTRA:                  -0.346
REMARK UNBOUND:                -0.366
REMARK SMILES O=c1c(O)c(-c2cc(O)c(O)c(O)c2)oc2cc(O)cc(O)c12
REMARK SMILES IDX 5 1 3 2 2 3 1 4 23 5 21 6 20 7 18 8 17 9 16 10 15 11 6 12
REMARK SMILES IDX 7 13 8 14 14 15 10 16 12 17 9 18 11 20 13 22 4 24 22 26
REMARK SMILES IDX 19 28
REMARK H PARENT 9 19 11 21 13 23 4 25 22 27 19 29
REMARK Flexibility Score: inf
ROOT
ATOM      1  C   UNL     1      -8.619  32.597  57.943  1.00  0.00     0.180 A 
ATOM      2  C   UNL     1      -8.450  33.678  57.059  1.00  0.00     0.208 A 
ATOM      3  C   UNL     1      -9.496  34.601  56.907  1.00  0.00     0.238 A 
ATOM      4  O   UNL     1      -9.319  35.597  56.157  1.00  0.00    -0.285 OA
ATOM      5  C   UNL     1     -10.703  34.425  57.626  1.00  0.00     0.111 A 
ATOM      6  C   UNL     1     -11.844  35.277  57.517  1.00  0.00     0.134 A 
ATOM      7  C   UNL     1     -12.935  35.082  58.373  1.00  0.00     0.093 A 
ATOM      8  C   UNL     1     -12.954  34.026  59.288  1.00  0.00     0.123 A 
ATOM      9  C   UNL     1     -11.871  33.153  59.359  1.00  0.00     0.094 A 
ATOM     10  C   UNL     1     -10.752  33.344  58.544  1.00  0.00     0.146 A 
ATOM     11  O   UNL     1      -9.737  32.495  58.652  1.00  0.00    -0.452 OA
ENDROOT
BRANCH   1  12
ATOM     12  C   UNL     1      -7.571  31.569  58.138  1.00  0.00     0.029 A 
ATOM     13  C   UNL     1      -6.510  31.768  59.036  1.00  0.00     0.062 A 
ATOM     14  C   UNL     1      -5.515  30.796  59.190  1.00  0.00     0.162 A 
ATOM     15  C   UNL     1      -7.603  30.396  57.367  1.00  0.00     0.062 A 
ATOM     16  C   UNL     1      -5.565  29.614  58.434  1.00  0.00     0.200 A 
ATOM     17  C   UNL     1      -6.612  29.417  57.517  1.00  0.00     0.162 A 
BRANCH  14  18
ATOM     18  O   UNL     1      -4.481  31.028  60.098  1.00  0.00    -0.504 OA
ATOM     19  H   UNL     1      -3.533  30.718  59.924  1.00  0.00     0.293 HD
ENDBRANCH  14  18
BRANCH  16  20
ATOM     20  O   UNL     1      -4.571  28.648  58.597  1.00  0.00    -0.502 OA
ATOM     21  H   UNL     1      -3.804  28.546  57.943  1.00  0.00     0.293 HD
ENDBRANCH  16  20
BRANCH  17  22
ATOM     22  O   UNL     1      -6.663  28.249  56.757  1.00  0.00    -0.504 OA
ATOM     23  H   UNL     1      -6.287  28.210  55.817  1.00  0.00     0.293 HD
ENDBRANCH  17  22
ENDBRANCH   1  12
BRANCH   2  24
ATOM     24  O   UNL     1      -7.243  33.846  56.376  1.00  0.00    -0.502 OA
ATOM     25  H   UNL     1      -6.395  33.358  56.643  1.00  0.00     0.293 HD
ENDBRANCH   2  24
BRANCH   6  26
ATOM     26  O   UNL     1     -11.965  36.302  56.576  1.00  0.00    -0.507 OA
ATOM     27  H   UNL     1     -11.289  36.503  55.855  1.00  0.00     0.293 HD
ENDBRANCH   6  26
BRANCH   8  28
ATOM     28  O   UNL     1     -14.050  33.829  60.124  1.00  0.00    -0.508 OA
ATOM     29  H   UNL     1     -14.884  34.401  60.048  1.00  0.00     0.293 HD
ENDBRANCH   8  28
TORSDOF 7
ENDMDL
MODEL 6
REMARK VINA RESULT:    -5.269      1.370      3.180
REMARK INTER + INTRA:          -6.867
REMARK INTER:                  -6.511
REMARK INTRA:                  -0.356
REMARK UNBOUND:                -0.366
REMARK SMILES O=c1c(O)c(-c2cc(O)c(O)c(O)c2)oc2cc(O)cc(O)c12
REMARK SMILES IDX 5 1 3 2 2 3 1 4 23 5 21 6 20 7 18 8 17 9 16 10 15 11 6 12
REMARK SMILES IDX 7 13 8 14 14 15 10 16 12 17 9 18 11 20 13 22 4 24 22 26
REMARK SMILES IDX 19 28
REMARK H PARENT 9 19 11 21 13 23 4 25 22 27 19 29
REMARK Flexibility Score: inf
ROOT
ATOM      1  C   UNL     1      -7.755  28.243  55.792  1.00  0.00     0.180 A 
ATOM      2  C   UNL     1      -6.799  28.774  56.676  1.00  0.00     0.208 A 
ATOM      3  C   UNL     1      -7.124  29.920  57.420  1.00  0.00     0.238 A 
ATOM      4  O   UNL     1      -6.285  30.358  58.251  1.00  0.00    -0.285 OA
ATOM      5  C   UNL     1      -8.391  30.530  57.259  1.00  0.00     0.111 A 
ATOM      6  C   UNL     1      -8.811  31.717  57.932  1.00  0.00     0.134 A 
ATOM      7  C   UNL     1     -10.133  32.158  57.795  1.00  0.00     0.093 A 
ATOM      8  C   UNL     1     -11.031  31.490  56.959  1.00  0.00     0.123 A 
ATOM      9  C   UNL     1     -10.614  30.366  56.251  1.00  0.00     0.094 A 
ATOM     10  C   UNL     1      -9.311  29.881  56.396  1.00  0.00     0.146 A 
ATOM     11  O   UNL     1      -8.958  28.799  55.711  1.00  0.00    -0.452 OA
ENDROOT
BRANCH   1  12
ATOM     12  C   UNL     1      -7.477  27.053  54.955  1.00  0.00     0.029 A 
ATOM     13  C   UNL     1      -7.758  25.756  55.414  1.00  0.00     0.062 A 
ATOM     14  C   UNL     1      -7.468  24.640  54.621  1.00  0.00     0.162 A 
ATOM     15  C   UNL     1      -6.866  27.217  53.703  1.00  0.00     0.062 A 
ATOM     16  C   UNL     1      -6.877  24.812  53.358  1.00  0.00     0.200 A 
ATOM     17  C   UNL     1      -6.573  26.105  52.901  1.00  0.00     0.162 A 
BRANCH  14  18
ATOM     18  O   UNL     1      -7.769  23.368  55.108  1.00  0.00    -0.504 OA
ATOM     19  H   UNL     1      -7.583  22.529  54.574  1.00  0.00     0.293 HD
ENDBRANCH  14  18
BRANCH  16  20
ATOM     20  O   UNL     1      -6.595  23.695  52.571  1.00  0.00    -0.502 OA
ATOM     21  H   UNL     1      -5.678  23.264  52.552  1.00  0.00     0.293 HD
ENDBRANCH  16  20
BRANCH  17  22
ATOM     22  O   UNL     1      -5.980  26.283  51.652  1.00  0.00    -0.504 OA
ATOM     23  H   UNL     1      -5.514  27.148  51.403  1.00  0.00     0.293 HD
ENDBRANCH  17  22
ENDBRANCH   1  12
BRANCH   2  24
ATOM     24  O   UNL     1      -5.563  28.144  56.836  1.00  0.00    -0.502 OA
ATOM     25  H   UNL     1      -5.270  27.365  56.257  1.00  0.00     0.293 HD
ENDBRANCH   2  24
BRANCH   6  26
ATOM     26  O   UNL     1      -7.968  32.508  58.717  1.00  0.00    -0.507 OA
ATOM     27  H   UNL     1      -8.158  32.781  59.669  1.00  0.00     0.293 HD
ENDBRANCH   6  26
BRANCH   8  28
ATOM     28  O   UNL     1     -12.341  31.944  56.815  1.00  0.00    -0.508 OA
ATOM     29  H   UNL     1     -13.133  31.326  56.948  1.00  0.00     0.293 HD
ENDBRANCH   8  28
TORSDOF 7
ENDMDL
MODEL 7
REMARK VINA RESULT:    -5.249      3.492      7.872
REMARK INTER + INTRA:          -6.843
REMARK INTER:                  -6.531
REMARK INTRA:                  -0.312
REMARK UNBOUND:                -0.366
REMARK SMILES O=c1c(O)c(-c2cc(O)c(O)c(O)c2)oc2cc(O)cc(O)c12
REMARK SMILES IDX 5 1 3 2 2 3 1 4 23 5 21 6 20 7 18 8 17 9 16 10 15 11 6 12
REMARK SMILES IDX 7 13 8 14 14 15 10 16 12 17 9 18 11 20 13 22 4 24 22 26
REMARK SMILES IDX 19 28
REMARK H PARENT 9 19 11 21 13 23 4 25 22 27 19 29
REMARK Flexibility Score: inf
ROOT
ATOM      1  C   UNL     1      -9.465  32.236  58.017  1.00  0.00     0.180 A 
ATOM      2  C   UNL     1      -9.653  31.115  57.190  1.00  0.00     0.208 A 
ATOM      3  C   UNL     1      -8.609  30.186  57.057  1.00  0.00     0.238 A 
ATOM      4  O   UNL     1      -8.802  29.155  56.360  1.00  0.00    -0.285 OA
ATOM      5  C   UNL     1      -7.385  30.396  57.738  1.00  0.00     0.111 A 
ATOM      6  C   UNL     1      -6.247  29.542  57.643  1.00  0.00     0.134 A 
ATOM      7  C   UNL     1      -5.135  29.778  58.463  1.00  0.00     0.093 A 
ATOM      8  C   UNL     1      -5.097  30.876  59.325  1.00  0.00     0.123 A 
ATOM      9  C   UNL     1      -6.180  31.750  59.381  1.00  0.00     0.094 A 
ATOM     10  C   UNL     1      -7.317  31.520  58.602  1.00  0.00     0.146 A 
ATOM     11  O   UNL     1      -8.331  32.373  58.693  1.00  0.00    -0.452 OA
ENDROOT
BRANCH   1  12
ATOM     12  C   UNL     1     -10.510  33.272  58.187  1.00  0.00     0.029 A 
ATOM     13  C   UNL     1     -10.417  34.517  57.545  1.00  0.00     0.062 A 
ATOM     14  C   UNL     1     -11.401  35.493  57.735  1.00  0.00     0.162 A 
ATOM     15  C   UNL     1     -11.587  33.029  59.054  1.00  0.00     0.062 A 
ATOM     16  C   UNL     1     -12.489  35.236  58.586  1.00  0.00     0.200 A 
ATOM     17  C   UNL     1     -12.579  34.000  59.249  1.00  0.00     0.162 A 
BRANCH  14  18
ATOM     18  O   UNL     1     -11.277  36.715  57.075  1.00  0.00    -0.504 OA
ATOM     19  H   UNL     1     -10.424  37.259  57.104  1.00  0.00     0.293 HD
ENDBRANCH  14  18
BRANCH  16  20
ATOM     20  O   UNL     1     -13.469  36.213  58.767  1.00  0.00    -0.502 OA
ATOM     21  H   UNL     1     -14.434  35.980  58.968  1.00  0.00     0.293 HD
ENDBRANCH  16  20
BRANCH  17  22
ATOM     22  O   UNL     1     -13.651  33.741  60.101  1.00  0.00    -0.504 OA
ATOM     23  H   UNL     1     -13.705  34.150  61.027  1.00  0.00     0.293 HD
ENDBRANCH  17  22
ENDBRANCH   1  12
BRANCH   2  24
ATOM     24  O   UNL     1     -10.876  30.914  56.545  1.00  0.00    -0.502 OA
ATOM     25  H   UNL     1     -11.036  30.138  55.913  1.00  0.00     0.293 HD
ENDBRANCH   2  24
BRANCH   6  26
ATOM     26  O   UNL     1      -6.146  28.472  56.749  1.00  0.00    -0.507 OA
ATOM     27  H   UNL     1      -5.985  27.513  57.015  1.00  0.00     0.293 HD
ENDBRANCH   6  26
BRANCH   8  28
ATOM     28  O   UNL     1      -3.981  31.113  60.125  1.00  0.00    -0.508 OA
ATOM     29  H   UNL     1      -3.137  31.526  59.746  1.00  0.00     0.293 HD
ENDBRANCH   8  28
TORSDOF 7
ENDMDL
MODEL 8
REMARK VINA RESULT:    -5.184     11.531     14.944
REMARK INTER + INTRA:          -6.763
REMARK INTER:                  -6.601
REMARK INTRA:                  -0.161
REMARK UNBOUND:                -0.366
REMARK SMILES O=c1c(O)c(-c2cc(O)c(O)c(O)c2)oc2cc(O)cc(O)c12
REMARK SMILES IDX 5 1 3 2 2 3 1 4 23 5 21 6 20 7 18 8 17 9 16 10 15 11 6 12
REMARK SMILES IDX 7 13 8 14 14 15 10 16 12 17 9 18 11 20 13 22 4 24 22 26
REMARK SMILES IDX 19 28
REMARK H PARENT 9 19 11 21 13 23 4 25 22 27 19 29
REMARK Flexibility Score: inf
ROOT
ATOM      1  C   UNL     1     -10.018  30.297  43.477  1.00  0.00     0.180 A 
ATOM      2  C   UNL     1     -11.387  29.993  43.572  1.00  0.00     0.208 A 
ATOM      3  C   UNL     1     -11.896  28.909  42.841  1.00  0.00     0.238 A 
ATOM      4  O   UNL     1     -13.112  28.608  42.974  1.00  0.00    -0.285 OA
ATOM      5  C   UNL     1     -11.036  28.151  42.011  1.00  0.00     0.111 A 
ATOM      6  C   UNL     1     -11.452  27.057  41.195  1.00  0.00     0.134 A 
ATOM      7  C   UNL     1     -10.491  26.298  40.514  1.00  0.00     0.093 A 
ATOM      8  C   UNL     1      -9.137  26.634  40.570  1.00  0.00     0.123 A 
ATOM      9  C   UNL     1      -8.727  27.736  41.315  1.00  0.00     0.094 A 
ATOM     10  C   UNL     1      -9.658  28.491  42.034  1.00  0.00     0.146 A 
ATOM     11  O   UNL     1      -9.224  29.528  42.741  1.00  0.00    -0.452 OA
ENDROOT
BRANCH   1  12
ATOM     12  C   UNL     1      -9.413  31.440  44.198  1.00  0.00     0.029 A 
ATOM     13  C   UNL     1      -9.416  31.504  45.601  1.00  0.00     0.062 A 
ATOM     14  C   UNL     1      -8.861  32.602  46.266  1.00  0.00     0.162 A 
ATOM     15  C   UNL     1      -8.876  32.511  43.467  1.00  0.00     0.062 A 
ATOM     16  C   UNL     1      -8.305  33.661  45.530  1.00  0.00     0.200 A 
ATOM     17  C   UNL     1      -8.316  33.615  44.125  1.00  0.00     0.162 A 
BRANCH  14  18
ATOM     18  O   UNL     1      -8.877  32.626  47.661  1.00  0.00    -0.504 OA
ATOM     19  H   UNL     1      -8.164  32.170  48.216  1.00  0.00     0.293 HD
ENDBRANCH  14  18
BRANCH  16  20
ATOM     20  O   UNL     1      -7.749  34.751  46.201  1.00  0.00    -0.502 OA
ATOM     21  H   UNL     1      -8.240  35.237  46.943  1.00  0.00     0.293 HD
ENDBRANCH  16  20
BRANCH  17  22
ATOM     22  O   UNL     1      -7.773  34.666  43.387  1.00  0.00    -0.504 OA
ATOM     23  H   UNL     1      -6.940  35.155  43.693  1.00  0.00     0.293 HD
ENDBRANCH  17  22
ENDBRANCH   1  12
BRANCH   2  24
ATOM     24  O   UNL     1     -12.215  30.740  44.415  1.00  0.00    -0.502 OA
ATOM     25  H   UNL     1     -13.176  30.479  44.604  1.00  0.00     0.293 HD
ENDBRANCH   2  24
BRANCH   6  26
ATOM     26  O   UNL     1     -12.787  26.694  40.998  1.00  0.00    -0.507 OA
ATOM     27  H   UNL     1     -13.252  25.934  41.470  1.00  0.00     0.293 HD
ENDBRANCH   6  26
BRANCH   8  28
ATOM     28  O   UNL     1      -8.189  25.884  39.877  1.00  0.00    -0.508 OA
ATOM     29  H   UNL     1      -8.214  24.870  39.876  1.00  0.00     0.293 HD
ENDBRANCH   8  28
TORSDOF 7
ENDMDL
MODEL 9
REMARK VINA RESULT:    -5.177     11.285     13.342
REMARK INTER + INTRA:          -6.754
REMARK INTER:                  -6.388
REMARK INTRA:                  -0.366
REMARK UNBOUND:                -0.366
REMARK SMILES O=c1c(O)c(-c2cc(O)c(O)c(O)c2)oc2cc(O)cc(O)c12
REMARK SMILES IDX 5 1 3 2 2 3 1 4 23 5 21 6 20 7 18 8 17 9 16 10 15 11 6 12
REMARK SMILES IDX 7 13 8 14 14 15 10 16 12 17 9 18 11 20 13 22 4 24 22 26
REMARK SMILES IDX 19 28
REMARK H PARENT 9 19 11 21 13 23 4 25 22 27 19 29
REMARK Flexibility Score: inf
ROOT
ATOM      1  C   UNL     1       4.440  29.647  53.095  1.00  0.00     0.180 A 
ATOM      2  C   UNL     1       4.720  28.821  51.992  1.00  0.00     0.208 A 
ATOM      3  C   UNL     1       5.131  29.412  50.787  1.00  0.00     0.238 A 
ATOM      4  O   UNL     1       5.433  28.664  49.820  1.00  0.00    -0.285 OA
ATOM      5  C   UNL     1       5.241  30.820  50.693  1.00  0.00     0.111 A 
ATOM      6  C   UNL     1       5.609  31.528  49.510  1.00  0.00     0.134 A 
ATOM      7  C   UNL     1       5.813  32.913  49.568  1.00  0.00     0.093 A 
ATOM      8  C   UNL     1       5.598  33.623  50.751  1.00  0.00     0.123 A 
ATOM      9  C   UNL     1       5.181  32.949  51.896  1.00  0.00     0.094 A 
ATOM     10  C   UNL     1       5.004  31.563  51.879  1.00  0.00     0.146 A 
ATOM     11  O   UNL     1       4.615  30.959  52.996  1.00  0.00    -0.452 OA
ENDROOT
BRANCH   1  12
ATOM     12  C   UNL     1       3.977  29.099  54.391  1.00  0.00     0.029 A 
ATOM     13  C   UNL     1       2.616  28.859  54.640  1.00  0.00     0.062 A 
ATOM     14  C   UNL     1       2.194  28.363  55.878  1.00  0.00     0.162 A 
ATOM     15  C   UNL     1       4.910  28.870  55.415  1.00  0.00     0.062 A 
ATOM     16  C   UNL     1       3.134  28.114  56.892  1.00  0.00     0.200 A 
ATOM     17  C   UNL     1       4.495  28.372  56.658  1.00  0.00     0.162 A 
BRANCH  14  18
ATOM     18  O   UNL     1       0.834  28.131  56.084  1.00  0.00    -0.504 OA
ATOM     19  H   UNL     1       0.499  27.380  56.674  1.00  0.00     0.293 HD
ENDBRANCH  14  18
BRANCH  16  20
ATOM     20  O   UNL     1       2.705  27.616  58.123  1.00  0.00    -0.502 OA
ATOM     21  H   UNL     1       3.217  27.782  58.981  1.00  0.00     0.293 HD
ENDBRANCH  16  20
BRANCH  17  22
ATOM     22  O   UNL     1       5.433  28.135  57.663  1.00  0.00    -0.504 OA
ATOM     23  H   UNL     1       5.312  27.389  58.338  1.00  0.00     0.293 HD
ENDBRANCH  17  22
ENDBRANCH   1  12
BRANCH   2  24
ATOM     24  O   UNL     1       4.626  27.432  52.113  1.00  0.00    -0.502 OA
ATOM     25  H   UNL     1       3.862  26.979  52.600  1.00  0.00     0.293 HD
ENDBRANCH   2  24
BRANCH   6  26
ATOM     26  O   UNL     1       5.760  30.927  48.257  1.00  0.00    -0.507 OA
ATOM     27  H   UNL     1       5.028  30.441  47.761  1.00  0.00     0.293 HD
ENDBRANCH   6  26
BRANCH   8  28
ATOM     28  O   UNL     1       5.787  35.002  50.797  1.00  0.00    -0.508 OA
ATOM     29  H   UNL     1       5.118  35.642  50.384  1.00  0.00     0.293 HD
ENDBRANCH   8  28
TORSDOF 7
ENDMDL
