MODEL 1
REMARK VINA RESULT:    -4.281      0.000      0.000
REMARK INTER + INTRA:          -4.793
REMARK INTER:                  -4.781
REMARK INTRA:                  -0.012
REMARK UNBOUND:                -0.012
REMARK SMILES CCCC(=O)[O-]
REMARK SMILES IDX 3 1 4 2 5 3 6 4 2 5 1 6
REMARK H PARENT
REMARK Flexibility Score: inf
ROOT
ATOM      1  C   UNL     1       1.838  -2.675  -1.747  1.00  0.00     0.052 C 
ENDROOT
BRANCH   1   2
ATOM      2  C   UNL     1       1.434  -2.520  -0.314  1.00  0.00     0.041 C 
ATOM      3  O   UNL     1       0.409  -1.853  -0.013  1.00  0.00    -0.550 OA
ATOM      4  O   UNL     1       2.217  -3.071   0.692  1.00  0.00    -0.550 OA
ENDBRANCH   1   2
BRANCH   1   5
ATOM      5  C   UNL     1       3.363  -2.657  -1.878  1.00  0.00     0.003 C 
ATOM      6  C   UNL     1       3.812  -1.682  -2.962  1.00  0.00     0.004 C 
ENDBRANCH   1   5
TORSDOF 2
ENDMDL
MODEL 2
REMARK VINA RESULT:    -3.826      2.820      3.628
REMARK INTER + INTRA:          -4.285
REMARK INTER:                  -4.266
REMARK INTRA:                  -0.019
REMARK UNBOUND:                -0.012
REMARK SMILES CCCC(=O)[O-]
REMARK SMILES IDX 3 1 4 2 5 3 6 4 2 5 1 6
REMARK H PARENT
REMARK Flexibility Score: inf
ROOT
ATOM      1  C   UNL     1       3.331  -2.791  -1.700  1.00  0.00     0.052 C 
ENDROOT
BRANCH   1   2
ATOM      2  C   UNL     1       3.704  -2.088  -2.968  1.00  0.00     0.041 C 
ATOM      3  O   UNL     1       3.681  -0.831  -3.026  1.00  0.00    -0.550 OA
ATOM      4  O   UNL     1       4.031  -2.825  -4.100  1.00  0.00    -0.550 OA
ENDBRANCH   1   2
BRANCH   1   5
ATOM      5  C   UNL     1       1.842  -2.599  -1.400  1.00  0.00     0.003 C 
ATOM      6  C   UNL     1       1.605  -2.374   0.090  1.00  0.00     0.004 C 
ENDBRANCH   1   5
TORSDOF 2
ENDMDL
MODEL 3
REMARK VINA RESULT:    -3.119     12.360     12.922
REMARK INTER + INTRA:          -3.496
REMARK INTER:                  -3.470
REMARK INTRA:                  -0.025
REMARK UNBOUND:                -0.012
REMARK SMILES CCCC(=O)[O-]
REMARK SMILES IDX 3 1 4 2 5 3 6 4 2 5 1 6
REMARK H PARENT
REMARK Flexibility Score: inf
ROOT
ATOM      1  C   UNL     1      -1.942   9.561  -4.269  1.00  0.00     0.052 C 
ENDROOT
BRANCH   1   2
ATOM      2  C   UNL     1      -1.491   8.410  -5.112  1.00  0.00     0.041 C 
ATOM      3  O   UNL     1      -2.305   7.824  -5.873  1.00  0.00    -0.550 OA
ATOM      4  O   UNL     1      -0.181   7.955  -5.023  1.00  0.00    -0.550 OA
ENDBRANCH   1   2
BRANCH   1   5
ATOM      5  C   UNL     1      -3.042   9.117  -3.301  1.00  0.00     0.003 C 
ATOM      6  C   UNL     1      -4.190  10.121  -3.273  1.00  0.00     0.004 C 
ENDBRANCH   1   5
TORSDOF 2
ENDMDL
MODEL 4
REMARK VINA RESULT:    -2.967      8.598      9.852
REMARK INTER + INTRA:          -3.326
REMARK INTER:                  -3.316
REMARK INTRA:                  -0.010
REMARK UNBOUND:                -0.012
REMARK SMILES CCCC(=O)[O-]
REMARK SMILES IDX 3 1 4 2 5 3 6 4 2 5 1 6
REMARK H PARENT
REMARK Flexibility Score: inf
ROOT
ATOM      1  C   UNL     1      -2.612  -7.409   5.954  1.00  0.00     0.052 C 
ENDROOT
BRANCH   1   2
ATOM      2  C   UNL     1      -2.053  -7.574   4.575  1.00  0.00     0.041 C 
ATOM      3  O   UNL     1      -1.456  -8.635   4.255  1.00  0.00    -0.550 OA
ATOM      4  O   UNL     1      -2.149  -6.535   3.658  1.00  0.00    -0.550 OA
ENDBRANCH   1   2
BRANCH   1   5
ATOM      5  C   UNL     1      -1.617  -7.921   6.999  1.00  0.00     0.003 C 
ATOM      6  C   UNL     1      -1.515  -6.959   8.180  1.00  0.00     0.004 C 
ENDBRANCH   1   5
TORSDOF 2
ENDMDL
MODEL 5
REMARK VINA RESULT:    -2.896     11.842     12.277
REMARK INTER + INTRA:          -3.247
REMARK INTER:                  -3.241
REMARK INTRA:                  -0.006
REMARK UNBOUND:                -0.012
REMARK SMILES CCCC(=O)[O-]
REMARK SMILES IDX 3 1 4 2 5 3 6 4 2 5 1 6
REMARK H PARENT
REMARK Flexibility Score: inf
ROOT
ATOM      1  C   UNL     1       0.117   8.979  -6.774  1.00  0.00     0.052 C 
ENDROOT
BRANCH   1   2
ATOM      2  C   UNL     1      -0.775   8.287  -5.791  1.00  0.00     0.041 C 
ATOM      3  O   UNL     1      -0.386   8.091  -4.610  1.00  0.00    -0.550 OA
ATOM      4  O   UNL     1      -2.019   7.816  -6.193  1.00  0.00    -0.550 OA
ENDBRANCH   1   2
BRANCH   1   5
ATOM      5  C   UNL     1       1.378   8.149  -7.027  1.00  0.00     0.003 C 
ATOM      6  C   UNL     1       2.065   8.571  -8.323  1.00  0.00     0.004 C 
ENDBRANCH   1   5
TORSDOF 2
ENDMDL
MODEL 6
REMARK VINA RESULT:    -2.849     11.675     12.572
REMARK INTER + INTRA:          -3.194
REMARK INTER:                  -3.183
REMARK INTRA:                  -0.011
REMARK UNBOUND:                -0.012
REMARK SMILES CCCC(=O)[O-]
REMARK SMILES IDX 3 1 4 2 5 3 6 4 2 5 1 6
REMARK H PARENT
REMARK Flexibility Score: inf
ROOT
ATOM      1  C   UNL     1       2.272   8.272  -8.200  1.00  0.00     0.052 C 
ENDROOT
BRANCH   1   2
ATOM      2  C   UNL     1       3.294   7.181  -8.128  1.00  0.00     0.041 C 
ATOM      3  O   UNL     1       3.115   6.193  -7.369  1.00  0.00    -0.550 OA
ATOM      4  O   UNL     1       4.468   7.280  -8.865  1.00  0.00    -0.550 OA
ENDBRANCH   1   2
BRANCH   1   5
ATOM      5  C   UNL     1       1.323   8.196  -7.001  1.00  0.00     0.003 C 
ATOM      6  C   UNL     1       0.295   9.323  -7.040  1.00  0.00     0.004 C 
ENDBRANCH   1   5
TORSDOF 2
ENDMDL
MODEL 7
REMARK VINA RESULT:    -2.658     13.671     14.166
REMARK INTER + INTRA:          -2.981
REMARK INTER:                  -2.935
REMARK INTRA:                  -0.045
REMARK UNBOUND:                -0.012
REMARK SMILES CCCC(=O)[O-]
REMARK SMILES IDX 3 1 4 2 5 3 6 4 2 5 1 6
REMARK H PARENT
REMARK Flexibility Score: inf
ROOT
ATOM      1  C   UNL     1      -5.074  10.125  -4.567  1.00  0.00     0.052 C 
ENDROOT
BRANCH   1   2
ATOM      2  C   UNL     1      -5.612   8.821  -5.066  1.00  0.00     0.041 C 
ATOM      3  O   UNL     1      -6.668   8.340  -4.576  1.00  0.00    -0.550 OA
ATOM      4  O   UNL     1      -4.921   8.111  -6.040  1.00  0.00    -0.550 OA
ENDBRANCH   1   2
BRANCH   1   5
ATOM      5  C   UNL     1      -4.429   9.946  -3.190  1.00  0.00     0.003 C 
ATOM      6  C   UNL     1      -3.103   9.198  -3.296  1.00  0.00     0.004 C 
ENDBRANCH   1   5
TORSDOF 2
ENDMDL
MODEL 8
REMARK VINA RESULT:    -2.649     12.036     12.863
REMARK INTER + INTRA:          -2.971
REMARK INTER:                  -2.954
REMARK INTRA:                  -0.017
REMARK UNBOUND:                -0.012
REMARK SMILES CCCC(=O)[O-]
REMARK SMILES IDX 3 1 4 2 5 3 6 4 2 5 1 6
REMARK H PARENT
REMARK Flexibility Score: inf
ROOT
ATOM      1  C   UNL     1       3.576   7.185  -8.296  1.00  0.00     0.052 C 
ENDROOT
BRANCH   1   2
ATOM      2  C   UNL     1       2.401   8.042  -7.943  1.00  0.00     0.041 C 
ATOM      3  O   UNL     1       1.706   7.778  -6.927  1.00  0.00    -0.550 OA
ATOM      4  O   UNL     1       2.044   9.104  -8.765  1.00  0.00    -0.550 OA
ENDBRANCH   1   2
BRANCH   1   5
ATOM      5  C   UNL     1       4.246   7.696  -9.575  1.00  0.00     0.003 C 
ATOM      6  C   UNL     1       5.763   7.557  -9.496  1.00  0.00     0.004 C 
ENDBRANCH   1   5
TORSDOF 2
ENDMDL
MODEL 9
REMARK VINA RESULT:    -2.641     13.495     14.032
REMARK INTER + INTRA:          -2.962
REMARK INTER:                  -2.923
REMARK INTRA:                  -0.039
REMARK UNBOUND:                -0.012
REMARK SMILES CCCC(=O)[O-]
REMARK SMILES IDX 3 1 4 2 5 3 6 4 2 5 1 6
REMARK H PARENT
REMARK Flexibility Score: inf
ROOT
ATOM      1  C   UNL     1      -4.500   9.927  -3.562  1.00  0.00     0.052 C 
ENDROOT
BRANCH   1   2
ATOM      2  C   UNL     1      -3.184   9.339  -3.964  1.00  0.00     0.041 C 
ATOM      3  O   UNL     1      -2.395   8.894  -3.090  1.00  0.00    -0.550 OA
ATOM      4  O   UNL     1      -2.808   9.328  -5.301  1.00  0.00    -0.550 OA
ENDBRANCH   1   2
BRANCH   1   5
ATOM      5  C   UNL     1      -5.464   9.946  -4.751  1.00  0.00     0.003 C 
ATOM      6  C   UNL     1      -6.237   8.635  -4.855  1.00  0.00     0.004 C 
ENDBRANCH   1   5
TORSDOF 2
ENDMDL
