MODEL 1
REMARK VINA RESULT:    -2.859      0.000      0.000
REMARK INTER + INTRA:          -3.444
REMARK INTER:                  -3.361
REMARK INTRA:                  -0.084
REMARK UNBOUND:                -0.084
REMARK SMILES O=C([O-])CCC(=O)[O-]
REMARK SMILES IDX 4 1 2 2 1 3 3 4 5 5 6 6 7 7 8 8
REMARK H PARENT
REMARK Flexibility Score: inf
ROOT
ATOM      1  C   UNL     1     155.455 132.617 167.318  1.00  0.00     0.059 C 
ENDROOT
BRANCH   1   2
ATOM      2  C   UNL     1     156.921 132.881 167.454  1.00  0.00     0.042 C 
ATOM      3  O   UNL     1     157.757 132.001 167.120  1.00  0.00    -0.550 OA
ATOM      4  O   UNL     1     157.365 134.118 167.904  1.00  0.00    -0.550 OA
ENDBRANCH   1   2
BRANCH   1   5
ATOM      5  C   UNL     1     155.133 132.091 165.919  1.00  0.00     0.059 C 
BRANCH   5   6
ATOM      6  C   UNL     1     154.318 133.089 165.159  1.00  0.00     0.042 C 
ATOM      7  O   UNL     1     154.379 134.312 165.453  1.00  0.00    -0.550 OA
ATOM      8  O   UNL     1     153.455 132.664 164.157  1.00  0.00    -0.550 OA
ENDBRANCH   5   6
ENDBRANCH   1   5
TORSDOF 3
ENDMDL
MODEL 2
REMARK VINA RESULT:    -2.840      0.265      4.052
REMARK INTER + INTRA:          -3.422
REMARK INTER:                  -3.325
REMARK INTRA:                  -0.097
REMARK UNBOUND:                -0.084
REMARK SMILES O=C([O-])CCC(=O)[O-]
REMARK SMILES IDX 4 1 2 2 1 3 3 4 5 5 6 6 7 7 8 8
REMARK H PARENT
REMARK Flexibility Score: inf
ROOT
ATOM      1  C   UNL     1     155.318 132.154 165.898  1.00  0.00     0.059 C 
ENDROOT
BRANCH   1   2
ATOM      2  C   UNL     1     154.367 133.161 165.330  1.00  0.00     0.042 C 
ATOM      3  O   UNL     1     154.520 134.386 165.578  1.00  0.00    -0.550 OA
ATOM      4  O   UNL     1     153.341 132.751 164.489  1.00  0.00    -0.550 OA
ENDBRANCH   1   2
BRANCH   1   5
ATOM      5  C   UNL     1     155.643 132.488 167.355  1.00  0.00     0.059 C 
BRANCH   5   6
ATOM      6  C   UNL     1     157.096 132.811 167.506  1.00  0.00     0.042 C 
ATOM      7  O   UNL     1     157.955 131.891 167.474  1.00  0.00    -0.550 OA
ATOM      8  O   UNL     1     157.496 134.121 167.731  1.00  0.00    -0.550 OA
ENDBRANCH   5   6
ENDBRANCH   1   5
TORSDOF 3
ENDMDL
MODEL 3
REMARK VINA RESULT:    -2.800      2.443      5.113
REMARK INTER + INTRA:          -3.375
REMARK INTER:                  -3.277
REMARK INTRA:                  -0.098
REMARK UNBOUND:                -0.084
REMARK SMILES O=C([O-])CCC(=O)[O-]
REMARK SMILES IDX 4 1 2 2 1 3 3 4 5 5 6 6 7 7 8 8
REMARK H PARENT
REMARK Flexibility Score: inf
ROOT
ATOM      1  C   UNL     1     152.451 132.073 163.865  1.00  0.00     0.059 C 
ENDROOT
BRANCH   1   2
ATOM      2  C   UNL     1     151.065 132.619 164.016  1.00  0.00     0.042 C 
ATOM      3  O   UNL     1     150.363 132.853 162.997  1.00  0.00    -0.550 OA
ATOM      4  O   UNL     1     150.533 132.824 165.282  1.00  0.00    -0.550 OA
ENDBRANCH   1   2
BRANCH   1   5
ATOM      5  C   UNL     1     153.100 131.875 165.236  1.00  0.00     0.059 C 
BRANCH   5   6
ATOM      6  C   UNL     1     154.307 132.748 165.374  1.00  0.00     0.042 C 
ATOM      7  O   UNL     1     155.427 132.241 165.644  1.00  0.00    -0.550 OA
ATOM      8  O   UNL     1     154.185 134.126 165.253  1.00  0.00    -0.550 OA
ENDBRANCH   5   6
ENDBRANCH   1   5
TORSDOF 3
ENDMDL
MODEL 4
REMARK VINA RESULT:    -2.797      2.976      4.422
REMARK INTER + INTRA:          -3.371
REMARK INTER:                  -3.286
REMARK INTRA:                  -0.084
REMARK UNBOUND:                -0.084
REMARK SMILES O=C([O-])CCC(=O)[O-]
REMARK SMILES IDX 4 1 2 2 1 3 3 4 5 5 6 6 7 7 8 8
REMARK H PARENT
REMARK Flexibility Score: inf
ROOT
ATOM      1  C   UNL     1     152.739 132.183 163.791  1.00  0.00     0.059 C 
ENDROOT
BRANCH   1   2
ATOM      2  C   UNL     1     153.626 132.586 164.927  1.00  0.00     0.042 C 
ATOM      3  O   UNL     1     154.371 133.595 164.821  1.00  0.00    -0.550 OA
ATOM      4  O   UNL     1     153.593 131.875 166.119  1.00  0.00    -0.550 OA
ENDBRANCH   1   2
BRANCH   1   5
ATOM      5  C   UNL     1     151.280 132.123 164.246  1.00  0.00     0.059 C 
BRANCH   5   6
ATOM      6  C   UNL     1     150.491 133.231 163.621  1.00  0.00     0.042 C 
ATOM      7  O   UNL     1     149.759 133.001 162.623  1.00  0.00    -0.550 OA
ATOM      8  O   UNL     1     150.602 134.525 164.111  1.00  0.00    -0.550 OA
ENDBRANCH   5   6
ENDBRANCH   1   5
TORSDOF 3
ENDMDL
MODEL 5
REMARK VINA RESULT:    -2.769      7.866     10.590
REMARK INTER + INTRA:          -3.338
REMARK INTER:                  -3.305
REMARK INTRA:                  -0.033
REMARK UNBOUND:                -0.084
REMARK SMILES O=C([O-])CCC(=O)[O-]
REMARK SMILES IDX 4 1 2 2 1 3 3 4 5 5 6 6 7 7 8 8
REMARK H PARENT
REMARK Flexibility Score: inf
ROOT
ATOM      1  C   UNL     1     146.499 132.115 161.583  1.00  0.00     0.059 C 
ENDROOT
BRANCH   1   2
ATOM      2  C   UNL     1     145.515 132.435 160.501  1.00  0.00     0.042 C 
ATOM      3  O   UNL     1     144.388 131.875 160.485  1.00  0.00    -0.550 OA
ATOM      4  O   UNL     1     145.826 133.387 159.539  1.00  0.00    -0.550 OA
ENDBRANCH   1   2
BRANCH   1   5
ATOM      5  C   UNL     1     147.445 133.294 161.812  1.00  0.00     0.059 C 
BRANCH   5   6
ATOM      6  C   UNL     1     148.413 132.984 162.910  1.00  0.00     0.042 C 
ATOM      7  O   UNL     1     147.991 132.636 164.045  1.00  0.00    -0.550 OA
ATOM      8  O   UNL     1     149.777 133.124 162.695  1.00  0.00    -0.550 OA
ENDBRANCH   5   6
ENDBRANCH   1   5
TORSDOF 3
ENDMDL
MODEL 6
REMARK VINA RESULT:    -2.720      8.212     10.021
REMARK INTER + INTRA:          -3.280
REMARK INTER:                  -3.160
REMARK INTRA:                  -0.120
REMARK UNBOUND:                -0.084
REMARK SMILES O=C([O-])CCC(=O)[O-]
REMARK SMILES IDX 4 1 2 2 1 3 3 4 5 5 6 6 7 7 8 8
REMARK H PARENT
REMARK Flexibility Score: inf
ROOT
ATOM      1  C   UNL     1     147.480 133.725 162.165  1.00  0.00     0.059 C 
ENDROOT
BRANCH   1   2
ATOM      2  C   UNL     1     147.682 132.682 163.219  1.00  0.00     0.042 C 
ATOM      3  O   UNL     1     146.714 132.303 163.928  1.00  0.00    -0.550 OA
ATOM      4  O   UNL     1     148.930 132.095 163.384  1.00  0.00    -0.550 OA
ENDBRANCH   1   2
BRANCH   1   5
ATOM      5  C   UNL     1     147.195 133.070 160.812  1.00  0.00     0.059 C 
BRANCH   5   6
ATOM      6  C   UNL     1     145.720 132.967 160.582  1.00  0.00     0.042 C 
ATOM      7  O   UNL     1     144.924 133.690 161.237  1.00  0.00    -0.550 OA
ATOM      8  O   UNL     1     145.221 132.037 159.678  1.00  0.00    -0.550 OA
ENDBRANCH   5   6
ENDBRANCH   1   5
TORSDOF 3
ENDMDL
MODEL 7
REMARK VINA RESULT:    -2.719      1.548      4.251
REMARK INTER + INTRA:          -3.279
REMARK INTER:                  -3.166
REMARK INTRA:                  -0.113
REMARK UNBOUND:                -0.084
REMARK SMILES O=C([O-])CCC(=O)[O-]
REMARK SMILES IDX 4 1 2 2 1 3 3 4 5 5 6 6 7 7 8 8
REMARK H PARENT
REMARK Flexibility Score: inf
ROOT
ATOM      1  C   UNL     1     154.252 132.928 165.012  1.00  0.00     0.059 C 
ENDROOT
BRANCH   1   2
ATOM      2  C   UNL     1     152.989 132.330 164.478  1.00  0.00     0.042 C 
ATOM      3  O   UNL     1     152.827 132.198 163.236  1.00  0.00    -0.550 OA
ATOM      4  O   UNL     1     152.012 131.875 165.353  1.00  0.00    -0.550 OA
ENDBRANCH   1   2
BRANCH   1   5
ATOM      5  C   UNL     1     154.955 131.946 165.949  1.00  0.00     0.059 C 
BRANCH   5   6
ATOM      6  C   UNL     1     155.166 132.566 167.295  1.00  0.00     0.042 C 
ATOM      7  O   UNL     1     156.290 132.488 167.858  1.00  0.00    -0.550 OA
ATOM      8  O   UNL     1     154.110 133.187 167.947  1.00  0.00    -0.550 OA
ENDBRANCH   5   6
ENDBRANCH   1   5
TORSDOF 3
ENDMDL
MODEL 8
REMARK VINA RESULT:    -2.698      2.734      3.722
REMARK INTER + INTRA:          -3.254
REMARK INTER:                  -3.157
REMARK INTRA:                  -0.098
REMARK UNBOUND:                -0.084
REMARK SMILES O=C([O-])CCC(=O)[O-]
REMARK SMILES IDX 4 1 2 2 1 3 3 4 5 5 6 6 7 7 8 8
REMARK H PARENT
REMARK Flexibility Score: inf
ROOT
ATOM      1  C   UNL     1     152.485 131.916 165.585  1.00  0.00     0.059 C 
ENDROOT
BRANCH   1   2
ATOM      2  C   UNL     1     153.889 132.400 165.774  1.00  0.00     0.042 C 
ATOM      3  O   UNL     1     154.432 133.123 164.898  1.00  0.00    -0.550 OA
ATOM      4  O   UNL     1     154.579 132.092 166.940  1.00  0.00    -0.550 OA
ENDBRANCH   1   2
BRANCH   1   5
ATOM      5  C   UNL     1     152.107 131.939 164.103  1.00  0.00     0.059 C 
BRANCH   5   6
ATOM      6  C   UNL     1     150.835 132.700 163.900  1.00  0.00     0.042 C 
ATOM      7  O   UNL     1     150.810 133.948 164.071  1.00  0.00    -0.550 OA
ATOM      8  O   UNL     1     149.667 132.027 163.568  1.00  0.00    -0.550 OA
ENDBRANCH   5   6
ENDBRANCH   1   5
TORSDOF 3
ENDMDL
MODEL 9
REMARK VINA RESULT:    -2.668      1.460      2.279
REMARK INTER + INTRA:          -3.219
REMARK INTER:                  -3.168
REMARK INTRA:                  -0.051
REMARK UNBOUND:                -0.084
REMARK SMILES O=C([O-])CCC(=O)[O-]
REMARK SMILES IDX 4 1 2 2 1 3 3 4 5 5 6 6 7 7 8 8
REMARK H PARENT
REMARK Flexibility Score: inf
ROOT
ATOM      1  C   UNL     1     154.672 131.937 165.954  1.00  0.00     0.059 C 
ENDROOT
BRANCH   1   2
ATOM      2  C   UNL     1     155.380 132.702 167.027  1.00  0.00     0.042 C 
ATOM      3  O   UNL     1     154.800 133.654 167.613  1.00  0.00    -0.550 OA
ATOM      4  O   UNL     1     156.662 132.335 167.412  1.00  0.00    -0.550 OA
ENDBRANCH   1   2
BRANCH   1   5
ATOM      5  C   UNL     1     154.038 132.893 164.943  1.00  0.00     0.059 C 
BRANCH   5   6
ATOM      6  C   UNL     1     152.795 132.295 164.364  1.00  0.00     0.042 C 
ATOM      7  O   UNL     1     151.778 132.125 165.086  1.00  0.00    -0.550 OA
ATOM      8  O   UNL     1     152.776 131.879 163.039  1.00  0.00    -0.550 OA
ENDBRANCH   5   6
ENDBRANCH   1   5
TORSDOF 3
ENDMDL
