MODEL 1
REMARK VINA RESULT:     3.787      0.000      0.000
REMARK INTER + INTRA:           4.266
REMARK INTER:                   4.451
REMARK INTRA:                  -0.184
REMARK UNBOUND:                -0.184
REMARK SMILES O=c1c(O)c(-c2ccc(O)cc2)oc2cc(O)cc(O)c12
REMARK SMILES IDX 5 1 3 2 2 3 1 4 21 5 19 6 18 7 16 8 15 9 14 10 13 11 6 12
REMARK SMILES IDX 7 13 8 14 9 15 12 16 11 17 10 18 4 20 20 22 17 24
REMARK H PARENT 10 19 4 21 20 23 17 25
REMARK Flexibility Score: inf
ROOT
ATOM      1  C   UNL     1     160.544 146.080 172.236  1.00  0.00     0.180 A 
ATOM      2  C   UNL     1     160.482 145.267 171.091  1.00  0.00     0.208 A 
ATOM      3  C   UNL     1     160.177 145.856 169.854  1.00  0.00     0.238 A 
ATOM      4  O   UNL     1     160.197 145.135 168.822  1.00  0.00    -0.285 OA
ATOM      5  C   UNL     1     159.881 147.239 169.784  1.00  0.00     0.111 A 
ATOM      6  C   UNL     1     159.515 147.933 168.591  1.00  0.00     0.134 A 
ATOM      7  C   UNL     1     159.348 149.323 168.624  1.00  0.00     0.093 A 
ATOM      8  C   UNL     1     159.472 150.035 169.820  1.00  0.00     0.123 A 
ATOM      9  C   UNL     1     159.775 149.360 170.998  1.00  0.00     0.094 A 
ATOM     10  C   UNL     1     159.985 147.979 170.991  1.00  0.00     0.146 A 
ATOM     11  O   UNL     1     160.293 147.380 172.135  1.00  0.00    -0.452 OA
ENDROOT
BRANCH   1  12
ATOM     12  C   UNL     1     160.873 145.535 173.572  1.00  0.00     0.021 A 
ATOM     13  C   UNL     1     159.984 144.688 174.260  1.00  0.00     0.016 A 
ATOM     14  C   UNL     1     160.329 144.166 175.510  1.00  0.00     0.047 A 
ATOM     15  C   UNL     1     161.571 144.470 176.082  1.00  0.00     0.115 A 
ATOM     16  C   UNL     1     162.125 145.817 174.144  1.00  0.00     0.016 A 
ATOM     17  C   UNL     1     162.467 145.294 175.394  1.00  0.00     0.047 A 
BRANCH  15  18
ATOM     18  O   UNL     1     161.924 143.956 177.328  1.00  0.00    -0.508 OA
ATOM     19  H   UNL     1     161.472 144.270 178.177  1.00  0.00     0.293 HD
ENDBRANCH  15  18
ENDBRANCH   1  12
BRANCH   2  20
ATOM     20  O   UNL     1     160.702 143.890 171.192  1.00  0.00    -0.502 OA
ATOM     21  H   UNL     1     160.594 143.263 170.405  1.00  0.00     0.293 HD
ENDBRANCH   2  20
BRANCH   6  22
ATOM     22  O   UNL     1     159.278 147.308 167.363  1.00  0.00    -0.507 OA
ATOM     23  H   UNL     1     159.038 146.336 167.246  1.00  0.00     0.293 HD
ENDBRANCH   6  22
BRANCH   8  24
ATOM     24  O   UNL     1     159.288 151.416 169.847  1.00  0.00    -0.508 OA
ATOM     25  H   UNL     1     158.585 151.846 170.438  1.00  0.00     0.293 HD
ENDBRANCH   8  24
TORSDOF 5
ENDMDL
MODEL 2
REMARK VINA RESULT:     4.787      2.566      2.932
REMARK INTER + INTRA:           5.442
REMARK INTER:                   5.033
REMARK INTRA:                   0.409
REMARK UNBOUND:                -0.184
REMARK SMILES O=c1c(O)c(-c2ccc(O)cc2)oc2cc(O)cc(O)c12
REMARK SMILES IDX 5 1 3 2 2 3 1 4 21 5 19 6 18 7 16 8 15 9 14 10 13 11 6 12
REMARK SMILES IDX 7 13 8 14 9 15 12 16 11 17 10 18 4 20 20 22 17 24
REMARK H PARENT 10 19 4 21 20 23 17 25
REMARK Flexibility Score: inf
ROOT
ATOM      1  C   UNL     1     160.821 145.109 172.594  1.00  0.00     0.180 A 
ATOM      2  C   UNL     1     161.739 145.353 171.558  1.00  0.00     0.208 A 
ATOM      3  C   UNL     1     161.265 145.474 170.242  1.00  0.00     0.238 A 
ATOM      4  O   UNL     1     162.082 145.768 169.331  1.00  0.00    -0.285 OA
ATOM      5  C   UNL     1     159.887 145.293 169.970  1.00  0.00     0.111 A 
ATOM      6  C   UNL     1     159.302 145.349 168.668  1.00  0.00     0.134 A 
ATOM      7  C   UNL     1     157.911 145.260 168.532  1.00  0.00     0.093 A 
ATOM      8  C   UNL     1     157.090 145.053 169.643  1.00  0.00     0.123 A 
ATOM      9  C   UNL     1     157.656 144.943 170.910  1.00  0.00     0.094 A 
ATOM     10  C   UNL     1     159.036 145.066 171.083  1.00  0.00     0.146 A 
ATOM     11  O   UNL     1     159.530 144.976 172.312  1.00  0.00    -0.452 OA
ENDROOT
BRANCH   1  12
ATOM     12  C   UNL     1     161.243 144.983 174.007  1.00  0.00     0.021 A 
ATOM     13  C   UNL     1     160.511 144.209 174.926  1.00  0.00     0.016 A 
ATOM     14  C   UNL     1     160.943 144.085 176.250  1.00  0.00     0.047 A 
ATOM     15  C   UNL     1     162.120 144.721 176.668  1.00  0.00     0.115 A 
ATOM     16  C   UNL     1     162.433 145.598 174.430  1.00  0.00     0.016 A 
ATOM     17  C   UNL     1     162.862 145.474 175.755  1.00  0.00     0.047 A 
BRANCH  15  18
ATOM     18  O   UNL     1     162.559 144.605 177.985  1.00  0.00    -0.508 OA
ATOM     19  H   UNL     1     163.473 144.935 178.269  1.00  0.00     0.293 HD
ENDBRANCH  15  18
ENDBRANCH   1  12
BRANCH   2  20
ATOM     20  O   UNL     1     163.106 145.453 171.837  1.00  0.00    -0.502 OA
ATOM     21  H   UNL     1     163.474 145.395 172.778  1.00  0.00     0.293 HD
ENDBRANCH   2  20
BRANCH   6  22
ATOM     22  O   UNL     1     160.036 145.463 167.484  1.00  0.00    -0.507 OA
ATOM     23  H   UNL     1     160.710 144.789 167.154  1.00  0.00     0.293 HD
ENDBRANCH   6  22
BRANCH   8  24
ATOM     24  O   UNL     1     155.708 144.949 169.497  1.00  0.00    -0.508 OA
ATOM     25  H   UNL     1     155.204 145.509 168.818  1.00  0.00     0.293 HD
ENDBRANCH   8  24
TORSDOF 5
ENDMDL
MODEL 3
REMARK VINA RESULT:     5.247      1.281      3.236
REMARK INTER + INTRA:           5.983
REMARK INTER:                   6.142
REMARK INTRA:                  -0.159
REMARK UNBOUND:                -0.184
REMARK SMILES O=c1c(O)c(-c2ccc(O)cc2)oc2cc(O)cc(O)c12
REMARK SMILES IDX 5 1 3 2 2 3 1 4 21 5 19 6 18 7 16 8 15 9 14 10 13 11 6 12
REMARK SMILES IDX 7 13 8 14 9 15 12 16 11 17 10 18 4 20 20 22 17 24
REMARK H PARENT 10 19 4 21 20 23 17 25
REMARK Flexibility Score: inf
ROOT
ATOM      1  C   UNL     1     160.491 146.253 171.962  1.00  0.00     0.180 A 
ATOM      2  C   UNL     1     160.245 147.630 171.815  1.00  0.00     0.208 A 
ATOM      3  C   UNL     1     159.876 148.126 170.555  1.00  0.00     0.238 A 
ATOM      4  O   UNL     1     159.585 149.346 170.450  1.00  0.00    -0.285 OA
ATOM      5  C   UNL     1     159.814 147.251 169.444  1.00  0.00     0.111 A 
ATOM      6  C   UNL     1     159.495 147.653 168.110  1.00  0.00     0.134 A 
ATOM      7  C   UNL     1     159.359 146.682 167.111  1.00  0.00     0.093 A 
ATOM      8  C   UNL     1     159.592 145.331 167.382  1.00  0.00     0.123 A 
ATOM      9  C   UNL     1     159.957 144.937 168.665  1.00  0.00     0.094 A 
ATOM     10  C   UNL     1     160.064 145.876 169.693  1.00  0.00     0.146 A 
ATOM     11  O   UNL     1     160.392 145.452 170.907  1.00  0.00    -0.452 OA
ENDROOT
BRANCH   1  12
ATOM     12  C   UNL     1     160.870 145.653 173.260  1.00  0.00     0.021 A 
ATOM     13  C   UNL     1     162.102 145.946 173.873  1.00  0.00     0.016 A 
ATOM     14  C   UNL     1     162.426 145.387 175.113  1.00  0.00     0.047 A 
ATOM     15  C   UNL     1     161.518 144.540 175.762  1.00  0.00     0.115 A 
ATOM     16  C   UNL     1     159.957 144.821 173.929  1.00  0.00     0.016 A 
ATOM     17  C   UNL     1     160.284 144.262 175.168  1.00  0.00     0.047 A 
BRANCH  15  18
ATOM     18  O   UNL     1     161.832 143.976 176.997  1.00  0.00    -0.508 OA
ATOM     19  H   UNL     1     161.589 143.019 177.218  1.00  0.00     0.293 HD
ENDBRANCH  15  18
ENDBRANCH   1  12
BRANCH   2  20
ATOM     20  O   UNL     1     160.387 148.490 172.909  1.00  0.00    -0.502 OA
ATOM     21  H   UNL     1     160.486 148.151 173.858  1.00  0.00     0.293 HD
ENDBRANCH   2  20
BRANCH   6  22
ATOM     22  O   UNL     1     159.329 148.982 167.712  1.00  0.00    -0.507 OA
ATOM     23  H   UNL     1     159.111 149.749 168.330  1.00  0.00     0.293 HD
ENDBRANCH   6  22
BRANCH   8  24
ATOM     24  O   UNL     1     159.471 144.373 166.376  1.00  0.00    -0.508 OA
ATOM     25  H   UNL     1     158.620 143.836 166.257  1.00  0.00     0.293 HD
ENDBRANCH   8  24
TORSDOF 5
ENDMDL
