MODEL 1
REMARK VINA RESULT:    -4.724      0.000      0.000
REMARK INTER + INTRA:          -6.548
REMARK INTER:                  -6.104
REMARK INTRA:                  -0.444
REMARK UNBOUND:                -0.444
REMARK SMILES CCO[C@H]1O[C@H](CO)[C@H](O)[C@H](O)[C@H]1O
REMARK SMILES IDX 4 1 13 2 11 3 9 4 6 5 5 6 3 7 2 8 1 9 14 10 12 12 7 14 8 15
REMARK SMILES IDX 10 17
REMARK H PARENT 14 11 12 13 8 16 10 18
REMARK Flexibility Score: inf
ROOT
ATOM      1  C   UNL     1     -11.496   1.409 -17.744  1.00  0.00     0.281 C 
ATOM      2  C   UNL     1     -12.412   2.275 -16.853  1.00  0.00     0.202 C 
ATOM      3  C   UNL     1     -13.448   3.023 -17.716  1.00  0.00     0.179 C 
ATOM      4  C   UNL     1     -12.775   3.740 -18.905  1.00  0.00     0.177 C 
ATOM      5  C   UNL     1     -11.843   2.748 -19.649  1.00  0.00     0.178 C 
ATOM      6  O   UNL     1     -10.883   2.193 -18.762  1.00  0.00    -0.341 OA
ENDROOT
BRANCH   1   7
ATOM      7  O   UNL     1     -12.230   0.323 -18.291  1.00  0.00    -0.350 OA
BRANCH   7   8
ATOM      8  C   UNL     1     -11.472  -0.866 -18.214  1.00  0.00     0.160 C 
ATOM      9  C   UNL     1     -12.205  -1.866 -17.334  1.00  0.00     0.035 C 
ENDBRANCH   7   8
ENDBRANCH   1   7
BRANCH   2  10
ATOM     10  O   UNL     1     -13.081   1.471 -15.917  1.00  0.00    -0.385 OA
ATOM     11  H   UNL     1     -12.445   0.760 -15.642  1.00  0.00     0.211 HD
ENDBRANCH   2  10
BRANCH   3  12
ATOM     12  O   UNL     1     -14.210   3.920 -16.945  1.00  0.00    -0.387 OA
ATOM     13  H   UNL     1     -13.700   4.767 -16.865  1.00  0.00     0.211 HD
ENDBRANCH   3  12
BRANCH   5  14
ATOM     14  C   UNL     1     -11.104   3.424 -20.810  1.00  0.00     0.191 C 
BRANCH  14  15
ATOM     15  O   UNL     1      -9.975   4.105 -20.336  1.00  0.00    -0.394 OA
ATOM     16  H   UNL     1     -10.156   4.308 -19.381  1.00  0.00     0.210 HD
ENDBRANCH  14  15
ENDBRANCH   5  14
BRANCH   4  17
ATOM     17  O   UNL     1     -12.087   4.897 -18.492  1.00  0.00    -0.387 OA
ATOM     18  H   UNL     1     -12.200   5.592 -19.190  1.00  0.00     0.211 HD
ENDBRANCH   4  17
TORSDOF 7
ENDMDL
MODEL 2
REMARK VINA RESULT:    -4.655      1.445      4.094
REMARK INTER + INTRA:          -6.459
REMARK INTER:                  -6.086
REMARK INTRA:                  -0.373
REMARK UNBOUND:                -0.444
REMARK SMILES CCO[C@H]1O[C@H](CO)[C@H](O)[C@H](O)[C@H]1O
REMARK SMILES IDX 4 1 13 2 11 3 9 4 6 5 5 6 3 7 2 8 1 9 14 10 12 12 7 14 8 15
REMARK SMILES IDX 10 17
REMARK H PARENT 14 11 12 13 8 16 10 18
REMARK Flexibility Score: inf
ROOT
ATOM      1  C   UNL     1     -10.909   2.709 -19.309  1.00  0.00     0.281 C 
ATOM      2  C   UNL     1     -10.876   1.301 -18.675  1.00  0.00     0.202 C 
ATOM      3  C   UNL     1     -12.268   0.926 -18.129  1.00  0.00     0.179 C 
ATOM      4  C   UNL     1     -12.851   2.057 -17.255  1.00  0.00     0.177 C 
ATOM      5  C   UNL     1     -12.746   3.406 -18.013  1.00  0.00     0.178 C 
ATOM      6  O   UNL     1     -11.403   3.673 -18.387  1.00  0.00    -0.341 OA
ENDROOT
BRANCH   1   7
ATOM      7  O   UNL     1     -11.674   2.689 -20.505  1.00  0.00    -0.350 OA
BRANCH   7   8
ATOM      8  C   UNL     1     -11.137   3.598 -21.443  1.00  0.00     0.160 C 
ATOM      9  C   UNL     1     -10.631   2.826 -22.651  1.00  0.00     0.035 C 
ENDBRANCH   7   8
ENDBRANCH   1   7
BRANCH   2  10
ATOM     10  O   UNL     1     -10.478   0.348 -19.626  1.00  0.00    -0.385 OA
ATOM     11  H   UNL     1      -9.716   0.743 -20.126  1.00  0.00     0.211 HD
ENDBRANCH   2  10
BRANCH   3  12
ATOM     12  O   UNL     1     -12.237  -0.294 -17.431  1.00  0.00    -0.387 OA
ATOM     13  H   UNL     1     -11.956  -0.107 -16.498  1.00  0.00     0.211 HD
ENDBRANCH   3  12
BRANCH   5  14
ATOM     14  C   UNL     1     -13.262   4.575 -17.166  1.00  0.00     0.191 C 
BRANCH  14  15
ATOM     15  O   UNL     1     -14.049   4.099 -16.109  1.00  0.00    -0.394 OA
ATOM     16  H   UNL     1     -14.993   4.252 -16.376  1.00  0.00     0.210 HD
ENDBRANCH  14  15
ENDBRANCH   5  14
BRANCH   4  17
ATOM     17  O   UNL     1     -12.226   2.113 -15.994  1.00  0.00    -0.387 OA
ATOM     18  H   UNL     1     -12.600   2.885 -15.497  1.00  0.00     0.211 HD
ENDBRANCH   4  17
TORSDOF 7
ENDMDL
MODEL 3
REMARK VINA RESULT:    -4.342      2.348      3.888
REMARK INTER + INTRA:          -6.055
REMARK INTER:                  -5.884
REMARK INTRA:                  -0.171
REMARK UNBOUND:                -0.444
REMARK SMILES CCO[C@H]1O[C@H](CO)[C@H](O)[C@H](O)[C@H]1O
REMARK SMILES IDX 4 1 13 2 11 3 9 4 6 5 5 6 3 7 2 8 1 9 14 10 12 12 7 14 8 15
REMARK SMILES IDX 10 17
REMARK H PARENT 14 11 12 13 8 16 10 18
REMARK Flexibility Score: inf
ROOT
ATOM      1  C   UNL     1     -11.987   2.458 -19.391  1.00  0.00     0.281 C 
ATOM      2  C   UNL     1     -10.473   2.368 -19.099  1.00  0.00     0.202 C 
ATOM      3  C   UNL     1      -9.750   3.622 -19.630  1.00  0.00     0.179 C 
ATOM      4  C   UNL     1     -10.148   3.924 -21.090  1.00  0.00     0.177 C 
ATOM      5  C   UNL     1     -11.694   3.911 -21.220  1.00  0.00     0.178 C 
ATOM      6  O   UNL     1     -12.229   2.673 -20.777  1.00  0.00    -0.341 OA
ENDROOT
BRANCH   1   7
ATOM      7  O   UNL     1     -12.580   3.472 -18.593  1.00  0.00    -0.350 OA
BRANCH   7   8
ATOM      8  C   UNL     1     -13.496   2.904 -17.682  1.00  0.00     0.160 C 
ATOM      9  C   UNL     1     -13.473   3.704 -16.389  1.00  0.00     0.035 C 
ENDBRANCH   7   8
ENDBRANCH   1   7
BRANCH   2  10
ATOM     10  O   UNL     1     -10.250   2.252 -17.718  1.00  0.00    -0.385 OA
ATOM     11  H   UNL     1     -11.058   1.823 -17.332  1.00  0.00     0.211 HD
ENDBRANCH   2  10
BRANCH   3  12
ATOM     12  O   UNL     1      -8.354   3.507 -19.495  1.00  0.00    -0.387 OA
ATOM     13  H   UNL     1      -8.130   3.597 -18.533  1.00  0.00     0.211 HD
ENDBRANCH   3  12
BRANCH   5  14
ATOM     14  C   UNL     1     -12.144   4.152 -22.665  1.00  0.00     0.191 C 
BRANCH  14  15
ATOM     15  O   UNL     1     -12.776   3.009 -23.173  1.00  0.00    -0.394 OA
ATOM     16  H   UNL     1     -12.820   3.133 -24.157  1.00  0.00     0.210 HD
ENDBRANCH  14  15
ENDBRANCH   5  14
BRANCH   4  17
ATOM     17  O   UNL     1      -9.538   3.028 -21.990  1.00  0.00    -0.387 OA
ATOM     18  H   UNL     1      -8.716   3.456 -22.344  1.00  0.00     0.211 HD
ENDBRANCH   4  17
TORSDOF 7
ENDMDL
MODEL 4
REMARK VINA RESULT:    -3.982      1.252      3.280
REMARK INTER + INTRA:          -5.590
REMARK INTER:                  -5.207
REMARK INTRA:                  -0.383
REMARK UNBOUND:                -0.444
REMARK SMILES CCO[C@H]1O[C@H](CO)[C@H](O)[C@H](O)[C@H]1O
REMARK SMILES IDX 4 1 13 2 11 3 9 4 6 5 5 6 3 7 2 8 1 9 14 10 12 12 7 14 8 15
REMARK SMILES IDX 10 17
REMARK H PARENT 14 11 12 13 8 16 10 18
REMARK Flexibility Score: inf
ROOT
ATOM      1  C   UNL     1     -12.117   1.447 -19.151  1.00  0.00     0.281 C 
ATOM      2  C   UNL     1     -11.513   2.597 -19.985  1.00  0.00     0.202 C 
ATOM      3  C   UNL     1     -11.042   3.739 -19.063  1.00  0.00     0.179 C 
ATOM      4  C   UNL     1     -12.139   4.131 -18.051  1.00  0.00     0.177 C 
ATOM      5  C   UNL     1     -12.681   2.857 -17.352  1.00  0.00     0.178 C 
ATOM      6  O   UNL     1     -13.160   1.921 -18.307  1.00  0.00    -0.341 OA
ENDROOT
BRANCH   1   7
ATOM      7  O   UNL     1     -11.098   0.794 -18.407  1.00  0.00    -0.350 OA
BRANCH   7   8
ATOM      8  C   UNL     1     -11.160  -0.602 -18.615  1.00  0.00     0.160 C 
ATOM      9  C   UNL     1     -12.034  -1.226 -17.539  1.00  0.00     0.035 C 
ENDBRANCH   7   8
ENDBRANCH   1   7
BRANCH   2  10
ATOM     10  O   UNL     1     -10.424   2.130 -20.740  1.00  0.00    -0.385 OA
ATOM     11  H   UNL     1      -9.738   1.820 -20.092  1.00  0.00     0.211 HD
ENDBRANCH   2  10
BRANCH   3  12
ATOM     12  O   UNL     1     -10.607   4.854 -19.803  1.00  0.00    -0.387 OA
ATOM     13  H   UNL     1      -9.878   5.294 -19.296  1.00  0.00     0.211 HD
ENDBRANCH   3  12
BRANCH   5  14
ATOM     14  C   UNL     1     -13.815   3.184 -16.374  1.00  0.00     0.191 C 
BRANCH  14  15
ATOM     15  O   UNL     1     -13.752   4.530 -15.991  1.00  0.00    -0.394 OA
ATOM     16  H   UNL     1     -14.692   4.829 -15.877  1.00  0.00     0.210 HD
ENDBRANCH  14  15
ENDBRANCH   5  14
BRANCH   4  17
ATOM     17  O   UNL     1     -13.169   4.872 -18.664  1.00  0.00    -0.387 OA
ATOM     18  H   UNL     1     -12.933   5.000 -19.619  1.00  0.00     0.211 HD
ENDBRANCH   4  17
TORSDOF 7
ENDMDL
MODEL 5
REMARK VINA RESULT:    -3.945      1.186      3.967
REMARK INTER + INTRA:          -5.542
REMARK INTER:                  -5.237
REMARK INTRA:                  -0.305
REMARK UNBOUND:                -0.444
REMARK SMILES CCO[C@H]1O[C@H](CO)[C@H](O)[C@H](O)[C@H]1O
REMARK SMILES IDX 4 1 13 2 11 3 9 4 6 5 5 6 3 7 2 8 1 9 14 10 12 12 7 14 8 15
REMARK SMILES IDX 10 17
REMARK H PARENT 14 11 12 13 8 16 10 18
REMARK Flexibility Score: inf
ROOT
ATOM      1  C   UNL     1     -12.332   3.308 -19.604  1.00  0.00     0.281 C 
ATOM      2  C   UNL     1     -13.119   3.908 -18.419  1.00  0.00     0.202 C 
ATOM      3  C   UNL     1     -12.403   3.599 -17.088  1.00  0.00     0.179 C 
ATOM      4  C   UNL     1     -12.041   2.103 -16.981  1.00  0.00     0.177 C 
ATOM      5  C   UNL     1     -11.318   1.649 -18.277  1.00  0.00     0.178 C 
ATOM      6  O   UNL     1     -12.116   1.914 -19.421  1.00  0.00    -0.341 OA
ENDROOT
BRANCH   1   7
ATOM      7  O   UNL     1     -11.109   4.008 -19.784  1.00  0.00    -0.350 OA
BRANCH   7   8
ATOM      8  C   UNL     1     -10.594   3.767 -21.077  1.00  0.00     0.160 C 
ATOM      9  C   UNL     1     -11.720   3.890 -22.091  1.00  0.00     0.035 C 
ENDBRANCH   7   8
ENDBRANCH   1   7
BRANCH   2  10
ATOM     10  O   UNL     1     -13.239   5.299 -18.569  1.00  0.00    -0.385 OA
ATOM     11  H   UNL     1     -12.624   5.713 -17.909  1.00  0.00     0.211 HD
ENDBRANCH   2  10
BRANCH   3  12
ATOM     12  O   UNL     1     -13.165   4.020 -15.983  1.00  0.00    -0.387 OA
ATOM     13  H   UNL     1     -13.977   3.453 -15.936  1.00  0.00     0.211 HD
ENDBRANCH   3  12
BRANCH   5  14
ATOM     14  C   UNL     1     -10.983   0.154 -18.247  1.00  0.00     0.191 C 
BRANCH  14  15
ATOM     15  O   UNL     1     -12.157  -0.608 -18.308  1.00  0.00    -0.394 OA
ATOM     16  H   UNL     1     -12.762  -0.239 -17.612  1.00  0.00     0.210 HD
ENDBRANCH  14  15
ENDBRANCH   5  14
BRANCH   4  17
ATOM     17  O   UNL     1     -13.174   1.312 -16.708  1.00  0.00    -0.387 OA
ATOM     18  H   UNL     1     -12.934   0.362 -16.860  1.00  0.00     0.211 HD
ENDBRANCH   4  17
TORSDOF 7
ENDMDL
MODEL 6
REMARK VINA RESULT:    -3.532     11.098     12.336
REMARK INTER + INTRA:          -5.008
REMARK INTER:                  -4.523
REMARK INTRA:                  -0.485
REMARK UNBOUND:                -0.444
REMARK SMILES CCO[C@H]1O[C@H](CO)[C@H](O)[C@H](O)[C@H]1O
REMARK SMILES IDX 4 1 13 2 11 3 9 4 6 5 5 6 3 7 2 8 1 9 14 10 12 12 7 14 8 15
REMARK SMILES IDX 10 17
REMARK H PARENT 14 11 12 13 8 16 10 18
REMARK Flexibility Score: inf
ROOT
ATOM      1  C   UNL     1     -21.193   5.194 -26.740  1.00  0.00     0.281 C 
ATOM      2  C   UNL     1     -20.981   5.253 -25.212  1.00  0.00     0.202 C 
ATOM      3  C   UNL     1     -19.768   6.142 -24.873  1.00  0.00     0.179 C 
ATOM      4  C   UNL     1     -18.537   5.758 -25.720  1.00  0.00     0.177 C 
ATOM      5  C   UNL     1     -18.939   5.680 -27.216  1.00  0.00     0.178 C 
ATOM      6  O   UNL     1     -20.010   4.767 -27.404  1.00  0.00    -0.341 OA
ENDROOT
BRANCH   1   7
ATOM      7  O   UNL     1     -21.636   6.455 -27.221  1.00  0.00    -0.350 OA
BRANCH   7   8
ATOM      8  C   UNL     1     -22.526   6.279 -28.304  1.00  0.00     0.160 C 
ATOM      9  C   UNL     1     -23.615   5.300 -27.899  1.00  0.00     0.035 C 
ENDBRANCH   7   8
ENDBRANCH   1   7
BRANCH   2  10
ATOM     10  O   UNL     1     -22.125   5.768 -24.581  1.00  0.00    -0.385 OA
ATOM     11  H   UNL     1     -22.880   5.171 -24.826  1.00  0.00     0.211 HD
ENDBRANCH   2  10
BRANCH   3  12
ATOM     12  O   UNL     1     -19.472   6.108 -23.498  1.00  0.00    -0.387 OA
ATOM     13  H   UNL     1     -18.614   5.624 -23.380  1.00  0.00     0.211 HD
ENDBRANCH   3  12
BRANCH   5  14
ATOM     14  C   UNL     1     -17.763   5.248 -28.099  1.00  0.00     0.191 C 
BRANCH  14  15
ATOM     15  O   UNL     1     -17.603   3.857 -28.047  1.00  0.00    -0.394 OA
ATOM     16  H   UNL     1     -18.040   3.560 -27.206  1.00  0.00     0.210 HD
ENDBRANCH  14  15
ENDBRANCH   5  14
BRANCH   4  17
ATOM     17  O   UNL     1     -17.951   4.559 -25.270  1.00  0.00    -0.387 OA
ATOM     18  H   UNL     1     -18.464   3.801 -25.652  1.00  0.00     0.211 HD
ENDBRANCH   4  17
TORSDOF 7
ENDMDL
MODEL 7
REMARK VINA RESULT:    -3.422     10.797     12.214
REMARK INTER + INTRA:          -4.867
REMARK INTER:                  -4.439
REMARK INTRA:                  -0.428
REMARK UNBOUND:                -0.444
REMARK SMILES CCO[C@H]1O[C@H](CO)[C@H](O)[C@H](O)[C@H]1O
REMARK SMILES IDX 4 1 13 2 11 3 9 4 6 5 5 6 3 7 2 8 1 9 14 10 12 12 7 14 8 15
REMARK SMILES IDX 10 17
REMARK H PARENT 14 11 12 13 8 16 10 18
REMARK Flexibility Score: inf
ROOT
ATOM      1  C   UNL     1     -19.379   6.004 -26.981  1.00  0.00     0.281 C 
ATOM      2  C   UNL     1     -19.021   6.324 -25.513  1.00  0.00     0.202 C 
ATOM      3  C   UNL     1     -19.868   5.464 -24.555  1.00  0.00     0.179 C 
ATOM      4  C   UNL     1     -21.366   5.524 -24.922  1.00  0.00     0.177 C 
ATOM      5  C   UNL     1     -21.540   5.246 -26.438  1.00  0.00     0.178 C 
ATOM      6  O   UNL     1     -20.775   6.158 -27.212  1.00  0.00    -0.341 OA
ENDROOT
BRANCH   1   7
ATOM      7  O   UNL     1     -18.933   4.699 -27.320  1.00  0.00    -0.350 OA
BRANCH   7   8
ATOM      8  C   UNL     1     -18.134   4.743 -28.484  1.00  0.00     0.160 C 
ATOM      9  C   UNL     1     -16.781   4.120 -28.182  1.00  0.00     0.035 C 
ENDBRANCH   7   8
ENDBRANCH   1   7
BRANCH   2  10
ATOM     10  O   UNL     1     -17.659   6.076 -25.280  1.00  0.00    -0.385 OA
ATOM     11  H   UNL     1     -17.543   5.090 -25.283  1.00  0.00     0.211 HD
ENDBRANCH   2  10
BRANCH   3  12
ATOM     12  O   UNL     1     -19.657   5.828 -23.213  1.00  0.00    -0.387 OA
ATOM     13  H   UNL     1     -20.132   6.682 -23.047  1.00  0.00     0.211 HD
ENDBRANCH   3  12
BRANCH   5  14
ATOM     14  C   UNL     1     -23.008   5.348 -26.869  1.00  0.00     0.191 C 
BRANCH  14  15
ATOM     15  O   UNL     1     -23.851   4.986 -25.811  1.00  0.00    -0.394 OA
ATOM     16  H   UNL     1     -24.769   5.245 -26.088  1.00  0.00     0.210 HD
ENDBRANCH  14  15
ENDBRANCH   5  14
BRANCH   4  17
ATOM     17  O   UNL     1     -21.944   6.752 -24.544  1.00  0.00    -0.387 OA
ATOM     18  H   UNL     1     -22.772   6.560 -24.032  1.00  0.00     0.211 HD
ENDBRANCH   4  17
TORSDOF 7
ENDMDL
MODEL 8
REMARK VINA RESULT:    -3.337     10.304     11.916
REMARK INTER + INTRA:          -4.756
REMARK INTER:                  -4.365
REMARK INTRA:                  -0.391
REMARK UNBOUND:                -0.444
REMARK SMILES CCO[C@H]1O[C@H](CO)[C@H](O)[C@H](O)[C@H]1O
REMARK SMILES IDX 4 1 13 2 11 3 9 4 6 5 5 6 3 7 2 8 1 9 14 10 12 12 7 14 8 15
REMARK SMILES IDX 10 17
REMARK H PARENT 14 11 12 13 8 16 10 18
REMARK Flexibility Score: inf
ROOT
ATOM      1  C   UNL     1     -18.685   5.389 -26.040  1.00  0.00     0.281 C 
ATOM      2  C   UNL     1     -19.828   5.486 -27.074  1.00  0.00     0.202 C 
ATOM      3  C   UNL     1     -20.766   6.660 -26.728  1.00  0.00     0.179 C 
ATOM      4  C   UNL     1     -21.188   6.622 -25.244  1.00  0.00     0.177 C 
ATOM      5  C   UNL     1     -19.931   6.456 -24.351  1.00  0.00     0.178 C 
ATOM      6  O   UNL     1     -19.200   5.295 -24.717  1.00  0.00    -0.341 OA
ENDROOT
BRANCH   1   7
ATOM      7  O   UNL     1     -17.803   6.494 -26.180  1.00  0.00    -0.350 OA
BRANCH   7   8
ATOM      8  C   UNL     1     -16.462   6.061 -26.093  1.00  0.00     0.160 C 
ATOM      9  C   UNL     1     -15.993   5.615 -27.469  1.00  0.00     0.035 C 
ENDBRANCH   7   8
ENDBRANCH   1   7
BRANCH   2  10
ATOM     10  O   UNL     1     -19.303   5.675 -28.362  1.00  0.00    -0.385 OA
ATOM     11  H   UNL     1     -19.477   4.839 -28.868  1.00  0.00     0.211 HD
ENDBRANCH   2  10
BRANCH   3  12
ATOM     12  O   UNL     1     -21.888   6.691 -27.577  1.00  0.00    -0.387 OA
ATOM     13  H   UNL     1     -21.941   5.819 -28.046  1.00  0.00     0.211 HD
ENDBRANCH   3  12
BRANCH   5  14
ATOM     14  C   UNL     1     -20.298   6.357 -22.866  1.00  0.00     0.191 C 
BRANCH  14  15
ATOM     15  O   UNL     1     -20.971   5.155 -22.611  1.00  0.00    -0.394 OA
ATOM     16  H   UNL     1     -21.302   4.832 -23.490  1.00  0.00     0.210 HD
ENDBRANCH  14  15
ENDBRANCH   5  14
BRANCH   4  17
ATOM     17  O   UNL     1     -22.142   5.615 -25.001  1.00  0.00    -0.387 OA
ATOM     18  H   UNL     1     -22.106   4.966 -25.750  1.00  0.00     0.211 HD
ENDBRANCH   4  17
TORSDOF 7
ENDMDL
MODEL 9
REMARK VINA RESULT:    -3.221     13.584     14.713
REMARK INTER + INTRA:          -4.606
REMARK INTER:                  -4.195
REMARK INTRA:                  -0.411
REMARK UNBOUND:                -0.444
REMARK SMILES CCO[C@H]1O[C@H](CO)[C@H](O)[C@H](O)[C@H]1O
REMARK SMILES IDX 4 1 13 2 11 3 9 4 6 5 5 6 3 7 2 8 1 9 14 10 12 12 7 14 8 15
REMARK SMILES IDX 10 17
REMARK H PARENT 14 11 12 13 8 16 10 18
REMARK Flexibility Score: inf
ROOT
ATOM      1  C   UNL     1     -11.054  -9.834 -27.791  1.00  0.00     0.281 C 
ATOM      2  C   UNL     1     -10.863 -10.204 -26.304  1.00  0.00     0.202 C 
ATOM      3  C   UNL     1     -10.210  -9.034 -25.541  1.00  0.00     0.179 C 
ATOM      4  C   UNL     1      -8.962  -8.508 -26.280  1.00  0.00     0.177 C 
ATOM      5  C   UNL     1      -9.311  -8.252 -27.770  1.00  0.00     0.178 C 
ATOM      6  O   UNL     1      -9.823  -9.428 -28.379  1.00  0.00    -0.341 OA
ENDROOT
BRANCH   1   7
ATOM      7  O   UNL     1     -12.052  -8.833 -27.922  1.00  0.00    -0.350 OA
BRANCH   7   8
ATOM      8  C   UNL     1     -13.003  -9.215 -28.894  1.00  0.00     0.160 C 
ATOM      9  C   UNL     1     -14.290  -9.623 -28.196  1.00  0.00     0.035 C 
ENDBRANCH   7   8
ENDBRANCH   1   7
BRANCH   2  10
ATOM     10  O   UNL     1     -12.101 -10.509 -25.716  1.00  0.00    -0.385 OA
ATOM     11  H   UNL     1     -12.591 -11.083 -26.361  1.00  0.00     0.211 HD
ENDBRANCH   2  10
BRANCH   3  12
ATOM     12  O   UNL     1      -9.905  -9.390 -24.214  1.00  0.00    -0.387 OA
ATOM     13  H   UNL     1      -9.056  -9.903 -24.222  1.00  0.00     0.211 HD
ENDBRANCH   3  12
BRANCH   5  14
ATOM     14  C   UNL     1      -8.089  -7.779 -28.566  1.00  0.00     0.191 C 
BRANCH  14  15
ATOM     15  O   UNL     1      -7.189  -7.113 -27.724  1.00  0.00    -0.394 OA
ATOM     16  H   UNL     1      -7.153  -6.175 -28.046  1.00  0.00     0.210 HD
ENDBRANCH  14  15
ENDBRANCH   5  14
BRANCH   4  17
ATOM     17  O   UNL     1      -7.868  -9.384 -26.140  1.00  0.00    -0.387 OA
ATOM     18  H   UNL     1      -7.356  -9.379 -26.989  1.00  0.00     0.211 HD
ENDBRANCH   4  17
TORSDOF 7
ENDMDL
