MODEL 1
REMARK VINA RESULT:    -4.663      0.000      0.000
REMARK INTER + INTRA:          -7.376
REMARK INTER:                  -6.844
REMARK INTRA:                  -0.532
REMARK UNBOUND:                -0.532
REMARK SMILES O=C([O-])CCCCCCCC(=O)[O-]
REMARK SMILES IDX 7 1 6 2 5 3 4 4 2 5 1 6 3 7 8 8 9 9 10 10 11 11 12 12 13 13
REMARK H PARENT
REMARK Flexibility Score: inf
ROOT
ATOM      1  C   UNL     1      48.671  33.898  17.077  1.00  0.00     0.000 C 
ENDROOT
BRANCH   1   2
ATOM      2  C   UNL     1      47.608  33.850  15.961  1.00  0.00     0.000 C 
BRANCH   2   3
ATOM      3  C   UNL     1      48.116  33.333  14.600  1.00  0.00     0.006 C 
BRANCH   3   4
ATOM      4  C   UNL     1      48.494  34.439  13.602  1.00  0.00     0.053 C 
BRANCH   4   5
ATOM      5  C   UNL     1      48.747  33.895  12.229  1.00  0.00     0.041 C 
ATOM      6  O   UNL     1      47.786  33.513  11.512  1.00  0.00    -0.550 OA
ATOM      7  O   UNL     1      50.048  33.778  11.756  1.00  0.00    -0.550 OA
ENDBRANCH   4   5
ENDBRANCH   3   4
ENDBRANCH   2   3
ENDBRANCH   1   2
BRANCH   1   8
ATOM      8  C   UNL     1      49.104  32.525  17.629  1.00  0.00     0.000 C 
BRANCH   8   9
ATOM      9  C   UNL     1      47.947  31.602  18.053  1.00  0.00     0.006 C 
BRANCH   9  10
ATOM     10  C   UNL     1      48.186  30.135  17.673  1.00  0.00     0.053 C 
BRANCH  10  11
ATOM     11  C   UNL     1      48.166  29.971  16.185  1.00  0.00     0.041 C 
ATOM     12  O   UNL     1      49.244  29.841  15.549  1.00  0.00    -0.550 OA
ATOM     13  O   UNL     1      46.960  30.013  15.497  1.00  0.00    -0.550 OA
ENDBRANCH  10  11
ENDBRANCH   9  10
ENDBRANCH   8   9
ENDBRANCH   1   8
TORSDOF 8
ENDMDL
MODEL 2
REMARK VINA RESULT:    -4.601      0.867      4.838
REMARK INTER + INTRA:          -7.284
REMARK INTER:                  -6.785
REMARK INTRA:                  -0.499
REMARK UNBOUND:                -0.532
REMARK SMILES O=C([O-])CCCCCCCC(=O)[O-]
REMARK SMILES IDX 7 1 6 2 5 3 4 4 2 5 1 6 3 7 8 8 9 9 10 10 11 11 12 12 13 13
REMARK H PARENT
REMARK Flexibility Score: inf
ROOT
ATOM      1  C   UNL     1      48.627  33.884  16.962  1.00  0.00     0.000 C 
ENDROOT
BRANCH   1   2
ATOM      2  C   UNL     1      49.233  32.658  17.674  1.00  0.00     0.000 C 
BRANCH   2   3
ATOM      3  C   UNL     1      48.443  31.345  17.499  1.00  0.00     0.006 C 
BRANCH   3   4
ATOM      4  C   UNL     1      49.061  30.363  16.492  1.00  0.00     0.053 C 
BRANCH   4   5
ATOM      5  C   UNL     1      48.029  29.472  15.871  1.00  0.00     0.041 C 
ATOM      6  O   UNL     1      47.711  28.388  16.426  1.00  0.00    -0.550 OA
ATOM      7  O   UNL     1      47.444  29.824  14.661  1.00  0.00    -0.550 OA
ENDBRANCH   4   5
ENDBRANCH   3   4
ENDBRANCH   2   3
ENDBRANCH   1   2
BRANCH   1   8
ATOM      8  C   UNL     1      47.658  33.559  15.808  1.00  0.00     0.000 C 
BRANCH   8   9
ATOM      9  C   UNL     1      48.093  34.087  14.429  1.00  0.00     0.006 C 
BRANCH   9  10
ATOM     10  C   UNL     1      48.471  32.964  13.453  1.00  0.00     0.053 C 
BRANCH  10  11
ATOM     11  C   UNL     1      48.703  33.519  12.083  1.00  0.00     0.041 C 
ATOM     12  O   UNL     1      49.861  33.859  11.726  1.00  0.00    -0.550 OA
ATOM     13  O   UNL     1      47.632  33.707  11.218  1.00  0.00    -0.550 OA
ENDBRANCH  10  11
ENDBRANCH   9  10
ENDBRANCH   8   9
ENDBRANCH   1   8
TORSDOF 8
ENDMDL
MODEL 3
REMARK VINA RESULT:    -4.342      1.904      2.828
REMARK INTER + INTRA:          -6.905
REMARK INTER:                  -6.386
REMARK INTRA:                  -0.518
REMARK UNBOUND:                -0.532
REMARK SMILES O=C([O-])CCCCCCCC(=O)[O-]
REMARK SMILES IDX 7 1 6 2 5 3 4 4 2 5 1 6 3 7 8 8 9 9 10 10 11 11 12 12 13 13
REMARK H PARENT
REMARK Flexibility Score: inf
ROOT
ATOM      1  C   UNL     1      48.145  31.578  18.249  1.00  0.00     0.000 C 
ENDROOT
BRANCH   1   2
ATOM      2  C   UNL     1      49.180  32.484  17.551  1.00  0.00     0.000 C 
BRANCH   2   3
ATOM      3  C   UNL     1      48.634  33.840  17.062  1.00  0.00     0.006 C 
BRANCH   3   4
ATOM      4  C   UNL     1      47.580  33.736  15.948  1.00  0.00     0.053 C 
BRANCH   4   5
ATOM      5  C   UNL     1      48.194  33.402  14.623  1.00  0.00     0.041 C 
ATOM      6  O   UNL     1      48.533  34.321  13.832  1.00  0.00    -0.550 OA
ATOM      7  O   UNL     1      48.361  32.075  14.248  1.00  0.00    -0.550 OA
ENDBRANCH   4   5
ENDBRANCH   3   4
ENDBRANCH   2   3
ENDBRANCH   1   2
BRANCH   1   8
ATOM      8  C   UNL     1      47.711  30.337  17.444  1.00  0.00     0.000 C 
BRANCH   8   9
ATOM      9  C   UNL     1      48.860  29.570  16.765  1.00  0.00     0.006 C 
BRANCH   9  10
ATOM     10  C   UNL     1      48.385  28.699  15.595  1.00  0.00     0.053 C 
BRANCH  10  11
ATOM     11  C   UNL     1      49.077  27.372  15.617  1.00  0.00     0.041 C 
ATOM     12  O   UNL     1      50.318  27.302  15.423  1.00  0.00    -0.550 OA
ATOM     13  O   UNL     1      48.342  26.207  15.803  1.00  0.00    -0.550 OA
ENDBRANCH  10  11
ENDBRANCH   9  10
ENDBRANCH   8   9
ENDBRANCH   1   8
TORSDOF 8
ENDMDL
MODEL 4
REMARK VINA RESULT:    -4.240      1.759      5.100
REMARK INTER + INTRA:          -6.755
REMARK INTER:                  -6.259
REMARK INTRA:                  -0.496
REMARK UNBOUND:                -0.532
REMARK SMILES O=C([O-])CCCCCCCC(=O)[O-]
REMARK SMILES IDX 7 1 6 2 5 3 4 4 2 5 1 6 3 7 8 8 9 9 10 10 11 11 12 12 13 13
REMARK H PARENT
REMARK Flexibility Score: inf
ROOT
ATOM      1  C   UNL     1      49.064  32.292  17.429  1.00  0.00     0.000 C 
ENDROOT
BRANCH   1   2
ATOM      2  C   UNL     1      48.059  31.123  17.453  1.00  0.00     0.000 C 
BRANCH   2   3
ATOM      3  C   UNL     1      48.662  29.739  17.141  1.00  0.00     0.006 C 
BRANCH   3   4
ATOM      4  C   UNL     1      47.776  28.846  16.256  1.00  0.00     0.053 C 
BRANCH   4   5
ATOM      5  C   UNL     1      48.359  27.479  16.076  1.00  0.00     0.041 C 
ATOM      6  O   UNL     1      47.926  26.511  16.755  1.00  0.00    -0.550 OA
ATOM      7  O   UNL     1      49.406  27.280  15.185  1.00  0.00    -0.550 OA
ENDBRANCH   4   5
ENDBRANCH   3   4
ENDBRANCH   2   3
ENDBRANCH   1   2
BRANCH   1   8
ATOM      8  C   UNL     1      48.505  33.626  16.894  1.00  0.00     0.000 C 
BRANCH   8   9
ATOM      9  C   UNL     1      47.555  33.495  15.690  1.00  0.00     0.006 C 
BRANCH   9  10
ATOM     10  C   UNL     1      48.190  33.972  14.376  1.00  0.00     0.053 C 
BRANCH  10  11
ATOM     11  C   UNL     1      48.500  32.805  13.492  1.00  0.00     0.041 C 
ATOM     12  O   UNL     1      48.778  32.987  12.278  1.00  0.00    -0.550 OA
ATOM     13  O   UNL     1      48.434  31.512  13.998  1.00  0.00    -0.550 OA
ENDBRANCH  10  11
ENDBRANCH   9  10
ENDBRANCH   8   9
ENDBRANCH   1   8
TORSDOF 8
ENDMDL
MODEL 5
REMARK VINA RESULT:    -4.234      2.877      4.032
REMARK INTER + INTRA:          -6.746
REMARK INTER:                  -6.010
REMARK INTRA:                  -0.737
REMARK UNBOUND:                -0.532
REMARK SMILES O=C([O-])CCCCCCCC(=O)[O-]
REMARK SMILES IDX 7 1 6 2 5 3 4 4 2 5 1 6 3 7 8 8 9 9 10 10 11 11 12 12 13 13
REMARK H PARENT
REMARK Flexibility Score: inf
ROOT
ATOM      1  C   UNL     1      48.271  33.788  14.578  1.00  0.00     0.000 C 
ENDROOT
BRANCH   1   2
ATOM      2  C   UNL     1      47.080  33.858  15.554  1.00  0.00     0.000 C 
BRANCH   2   3
ATOM      3  C   UNL     1      47.457  34.125  17.025  1.00  0.00     0.006 C 
BRANCH   3   4
ATOM      4  C   UNL     1      48.935  33.868  17.357  1.00  0.00     0.053 C 
BRANCH   4   5
ATOM      5  C   UNL     1      49.157  32.491  17.904  1.00  0.00     0.041 C 
ATOM      6  O   UNL     1      50.307  31.978  17.881  1.00  0.00    -0.550 OA
ATOM      7  O   UNL     1      48.088  31.761  18.406  1.00  0.00    -0.550 OA
ENDBRANCH   4   5
ENDBRANCH   3   4
ENDBRANCH   2   3
ENDBRANCH   1   2
BRANCH   1   8
ATOM      8  C   UNL     1      48.545  32.395  13.977  1.00  0.00     0.000 C 
BRANCH   8   9
ATOM      9  C   UNL     1      47.893  31.223  14.732  1.00  0.00     0.006 C 
BRANCH   9  10
ATOM     10  C   UNL     1      48.907  30.153  15.159  1.00  0.00     0.053 C 
BRANCH  10  11
ATOM     11  C   UNL     1      48.199  28.948  15.695  1.00  0.00     0.041 C 
ATOM     12  O   UNL     1      47.145  29.082  16.369  1.00  0.00    -0.550 OA
ATOM     13  O   UNL     1      48.732  27.681  15.492  1.00  0.00    -0.550 OA
ENDBRANCH  10  11
ENDBRANCH   9  10
ENDBRANCH   8   9
ENDBRANCH   1   8
TORSDOF 8
ENDMDL
MODEL 6
REMARK VINA RESULT:    -4.214      2.586      5.773
REMARK INTER + INTRA:          -6.717
REMARK INTER:                  -6.196
REMARK INTRA:                  -0.521
REMARK UNBOUND:                -0.532
REMARK SMILES O=C([O-])CCCCCCCC(=O)[O-]
REMARK SMILES IDX 7 1 6 2 5 3 4 4 2 5 1 6 3 7 8 8 9 9 10 10 11 11 12 12 13 13
REMARK H PARENT
REMARK Flexibility Score: inf
ROOT
ATOM      1  C   UNL     1      47.735  30.365  17.385  1.00  0.00     0.000 C 
ENDROOT
BRANCH   1   2
ATOM      2  C   UNL     1      48.448  30.197  16.029  1.00  0.00     0.000 C 
BRANCH   2   3
ATOM      3  C   UNL     1      48.546  28.745  15.520  1.00  0.00     0.006 C 
BRANCH   3   4
ATOM      4  C   UNL     1      48.035  27.689  16.513  1.00  0.00     0.053 C 
BRANCH   4   5
ATOM      5  C   UNL     1      49.039  26.601  16.742  1.00  0.00     0.041 C 
ATOM      6  O   UNL     1      50.134  26.609  16.122  1.00  0.00    -0.550 OA
ATOM      7  O   UNL     1      48.750  25.559  17.614  1.00  0.00    -0.550 OA
ENDBRANCH   4   5
ENDBRANCH   3   4
ENDBRANCH   2   3
ENDBRANCH   1   2
BRANCH   1   8
ATOM      8  C   UNL     1      48.189  31.581  18.218  1.00  0.00     0.000 C 
BRANCH   8   9
ATOM      9  C   UNL     1      49.248  32.470  17.543  1.00  0.00     0.006 C 
BRANCH   9  10
ATOM     10  C   UNL     1      48.764  33.910  17.324  1.00  0.00     0.053 C 
BRANCH  10  11
ATOM     11  C   UNL     1      47.753  33.959  16.222  1.00  0.00     0.041 C 
ATOM     12  O   UNL     1      46.583  34.361  16.454  1.00  0.00    -0.550 OA
ATOM     13  O   UNL     1      48.090  33.515  14.949  1.00  0.00    -0.550 OA
ENDBRANCH  10  11
ENDBRANCH   9  10
ENDBRANCH   8   9
ENDBRANCH   1   8
TORSDOF 8
ENDMDL
MODEL 7
REMARK VINA RESULT:    -4.166      3.969      6.640
REMARK INTER + INTRA:          -6.646
REMARK INTER:                  -6.340
REMARK INTRA:                  -0.306
REMARK UNBOUND:                -0.532
REMARK SMILES O=C([O-])CCCCCCCC(=O)[O-]
REMARK SMILES IDX 7 1 6 2 5 3 4 4 2 5 1 6 3 7 8 8 9 9 10 10 11 11 12 12 13 13
REMARK H PARENT
REMARK Flexibility Score: inf
ROOT
ATOM      1  C   UNL     1      47.455  34.353  12.245  1.00  0.00     0.000 C 
ENDROOT
BRANCH   1   2
ATOM      2  C   UNL     1      48.361  33.654  13.278  1.00  0.00     0.000 C 
BRANCH   2   3
ATOM      3  C   UNL     1      48.035  33.971  14.752  1.00  0.00     0.006 C 
BRANCH   3   4
ATOM      4  C   UNL     1      47.971  32.737  15.667  1.00  0.00     0.053 C 
BRANCH   4   5
ATOM      5  C   UNL     1      48.349  33.065  17.078  1.00  0.00     0.041 C 
ATOM      6  O   UNL     1      48.193  32.212  17.990  1.00  0.00    -0.550 OA
ATOM      7  O   UNL     1      48.840  34.326  17.393  1.00  0.00    -0.550 OA
ENDBRANCH   4   5
ENDBRANCH   3   4
ENDBRANCH   2   3
ENDBRANCH   1   2
BRANCH   1   8
ATOM      8  C   UNL     1      46.540  35.455  12.815  1.00  0.00     0.000 C 
BRANCH   8   9
ATOM      9  C   UNL     1      45.065  35.361  12.383  1.00  0.00     0.006 C 
BRANCH   9  10
ATOM     10  C   UNL     1      44.128  36.177  13.283  1.00  0.00     0.053 C 
BRANCH  10  11
ATOM     11  C   UNL     1      42.836  36.450  12.580  1.00  0.00     0.041 C 
ATOM     12  O   UNL     1      42.632  35.986  11.428  1.00  0.00    -0.550 OA
ATOM     13  O   UNL     1      41.876  37.258  13.178  1.00  0.00    -0.550 OA
ENDBRANCH  10  11
ENDBRANCH   9  10
ENDBRANCH   8   9
ENDBRANCH   1   8
TORSDOF 8
ENDMDL
MODEL 8
REMARK VINA RESULT:    -4.067      4.265      4.993
REMARK INTER + INTRA:          -6.501
REMARK INTER:                  -6.271
REMARK INTRA:                  -0.230
REMARK UNBOUND:                -0.532
REMARK SMILES O=C([O-])CCCCCCCC(=O)[O-]
REMARK SMILES IDX 7 1 6 2 5 3 4 4 2 5 1 6 3 7 8 8 9 9 10 10 11 11 12 12 13 13
REMARK H PARENT
REMARK Flexibility Score: inf
ROOT
ATOM      1  C   UNL     1      44.730  35.377  15.133  1.00  0.00     0.000 C 
ENDROOT
BRANCH   1   2
ATOM      2  C   UNL     1      45.414  35.711  13.792  1.00  0.00     0.000 C 
BRANCH   2   3
ATOM      3  C   UNL     1      44.473  35.750  12.572  1.00  0.00     0.006 C 
BRANCH   3   4
ATOM      4  C   UNL     1      43.155  36.504  12.812  1.00  0.00     0.053 C 
BRANCH   4   5
ATOM      5  C   UNL     1      42.677  37.206  11.578  1.00  0.00     0.041 C 
ATOM      6  O   UNL     1      41.706  36.746  10.922  1.00  0.00    -0.550 OA
ATOM      7  O   UNL     1      43.328  38.350  11.132  1.00  0.00    -0.550 OA
ENDBRANCH   4   5
ENDBRANCH   3   4
ENDBRANCH   2   3
ENDBRANCH   1   2
BRANCH   1   8
ATOM      8  C   UNL     1      45.688  35.004  16.282  1.00  0.00     0.000 C 
BRANCH   8   9
ATOM      9  C   UNL     1      46.915  34.176  15.861  1.00  0.00     0.006 C 
BRANCH   9  10
ATOM     10  C   UNL     1      47.855  33.867  17.034  1.00  0.00     0.053 C 
BRANCH  10  11
ATOM     11  C   UNL     1      48.115  32.395  17.121  1.00  0.00     0.041 C 
ATOM     12  O   UNL     1      48.300  31.722  16.073  1.00  0.00    -0.550 OA
ATOM     13  O   UNL     1      48.104  31.759  18.356  1.00  0.00    -0.550 OA
ENDBRANCH  10  11
ENDBRANCH   9  10
ENDBRANCH   8   9
ENDBRANCH   1   8
TORSDOF 8
ENDMDL
MODEL 9
REMARK VINA RESULT:    -4.061      5.378      7.799
REMARK INTER + INTRA:          -6.492
REMARK INTER:                  -6.096
REMARK INTRA:                  -0.396
REMARK UNBOUND:                -0.532
REMARK SMILES O=C([O-])CCCCCCCC(=O)[O-]
REMARK SMILES IDX 7 1 6 2 5 3 4 4 2 5 1 6 3 7 8 8 9 9 10 10 11 11 12 12 13 13
REMARK H PARENT
REMARK Flexibility Score: inf
ROOT
ATOM      1  C   UNL     1      48.452  25.589  18.774  1.00  0.00     0.000 C 
ENDROOT
BRANCH   1   2
ATOM      2  C   UNL     1      49.738  25.220  18.008  1.00  0.00     0.000 C 
BRANCH   2   3
ATOM      3  C   UNL     1      49.724  25.565  16.505  1.00  0.00     0.006 C 
BRANCH   3   4
ATOM      4  C   UNL     1      48.484  26.349  16.047  1.00  0.00     0.053 C 
BRANCH   4   5
ATOM      5  C   UNL     1      48.778  27.805  15.856  1.00  0.00     0.041 C 
ATOM      6  O   UNL     1      49.968  28.212  15.830  1.00  0.00    -0.550 OA
ATOM      7  O   UNL     1      47.735  28.716  15.743  1.00  0.00    -0.550 OA
ENDBRANCH   4   5
ENDBRANCH   3   4
ENDBRANCH   2   3
ENDBRANCH   1   2
BRANCH   1   8
ATOM      8  C   UNL     1      48.541  25.456  20.308  1.00  0.00     0.000 C 
BRANCH   8   9
ATOM      9  C   UNL     1      49.905  24.980  20.839  1.00  0.00     0.006 C 
BRANCH   9  10
ATOM     10  C   UNL     1      50.076  25.224  22.344  1.00  0.00     0.053 C 
BRANCH  10  11
ATOM     11  C   UNL     1      50.357  26.670  22.610  1.00  0.00     0.041 C 
ATOM     12  O   UNL     1      51.525  27.122  22.481  1.00  0.00    -0.550 OA
ATOM     13  O   UNL     1      49.338  27.507  23.048  1.00  0.00    -0.550 OA
ENDBRANCH  10  11
ENDBRANCH   9  10
ENDBRANCH   8   9
ENDBRANCH   1   8
TORSDOF 8
ENDMDL
