MODEL 1
REMARK VINA RESULT:    46.623      0.000      0.000
REMARK INTER + INTRA:          70.487
REMARK INTER:                  69.791
REMARK INTRA:                   0.696
REMARK UNBOUND:                 0.696
REMARK SMILES COC(=O)C1=CO[C@H](O[C@@H]2O[C@H](CO)[C@H](O)[C@H](O)[C@H]2O)[C@@H]2C(CO)=CC[C@H]12
REMARK SMILES IDX 9 1 8 2 5 3 6 4 27 5 7 6 21 7 26 8 22 9 25 10 3 11 4 12 2 13
REMARK SMILES IDX 1 14 23 15 24 16 10 18 19 19 11 20 17 21 12 22 15 23 20 24
REMARK SMILES IDX 18 26 13 28 14 29 16 31
REMARK H PARENT 24 17 20 25 18 27 14 30 16 32
REMARK Flexibility Score: inf
ROOT
ATOM      1  O   UNL     1      24.186  -0.390  48.773  1.00  0.00    -0.310 OA
ENDROOT
BRANCH   1   2
ATOM      2  C   UNL     1      23.406  -0.910  49.846  1.00  0.00     0.316 C 
ATOM      3  C   UNL     1      22.848   1.594  51.143  1.00  0.00     0.076 C 
ATOM      4  C   UNL     1      23.811   0.779  51.597  1.00  0.00     0.202 C 
ATOM      5  C   UNL     1      21.788   1.069  50.188  1.00  0.00     0.047 C 
ATOM      6  O   UNL     1      23.939  -0.525  51.113  1.00  0.00    -0.471 OA
ATOM      7  C   UNL     1      21.948  -0.408  49.752  1.00  0.00     0.094 C 
ATOM      8  C   UNL     1      21.699   1.863  48.877  1.00  0.00     0.037 C 
ATOM      9  C   UNL     1      21.440  -0.399  48.343  1.00  0.00    -0.039 C 
ATOM     10  C   UNL     1      21.313   0.836  47.870  1.00  0.00    -0.024 C 
BRANCH   3  11
ATOM     11  C   UNL     1      22.742   2.976  51.667  1.00  0.00     0.337 C 
ATOM     12  O   UNL     1      23.544   3.864  51.266  1.00  0.00    -0.246 OA
BRANCH  11  13
ATOM     13  O   UNL     1      21.756   3.297  52.608  1.00  0.00    -0.466 OA
ATOM     14  C   UNL     1      22.000   4.166  53.708  1.00  0.00     0.282 C 
ENDBRANCH  11  13
ENDBRANCH   3  11
BRANCH   9  15
ATOM     15  C   UNL     1      21.046  -1.632  47.575  1.00  0.00     0.187 C 
BRANCH  15  16
ATOM     16  O   UNL     1      19.993  -1.351  46.694  1.00  0.00    -0.392 OA
ATOM     17  H   UNL     1      19.184  -1.200  47.248  1.00  0.00     0.211 HD
ENDBRANCH  15  16
ENDBRANCH   9  15
ENDBRANCH   1   2
BRANCH   1  18
ATOM     18  C   UNL     1      24.959   0.755  49.127  1.00  0.00     0.286 C 
ATOM     19  C   UNL     1      26.482   0.482  49.234  1.00  0.00     0.202 C 
ATOM     20  O   UNL     1      24.683   1.825  48.229  1.00  0.00    -0.341 OA
ATOM     21  C   UNL     1      27.077   0.185  47.855  1.00  0.00     0.179 C 
ATOM     22  C   UNL     1      25.194   1.640  46.910  1.00  0.00     0.178 C 
ATOM     23  C   UNL     1      26.709   1.313  46.881  1.00  0.00     0.177 C 
BRANCH  19  24
ATOM     24  O   UNL     1      27.125   1.610  49.775  1.00  0.00    -0.385 OA
ATOM     25  H   UNL     1      27.456   2.149  49.009  1.00  0.00     0.211 HD
ENDBRANCH  19  24
BRANCH  21  26
ATOM     26  O   UNL     1      26.618  -1.049  47.369  1.00  0.00    -0.387 OA
ATOM     27  H   UNL     1      25.739  -1.218  47.798  1.00  0.00     0.211 HD
ENDBRANCH  21  26
BRANCH  22  28
ATOM     28  C   UNL     1      24.311   0.707  46.048  1.00  0.00     0.191 C 
BRANCH  28  29
ATOM     29  O   UNL     1      23.785   1.402  44.952  1.00  0.00    -0.394 OA
ATOM     30  H   UNL     1      24.519   1.963  44.591  1.00  0.00     0.210 HD
ENDBRANCH  28  29
ENDBRANCH  22  28
BRANCH  23  31
ATOM     31  O   UNL     1      27.121   0.993  45.576  1.00  0.00    -0.387 OA
ATOM     32  H   UNL     1      26.500   1.456  44.956  1.00  0.00     0.211 HD
ENDBRANCH  23  31
ENDBRANCH   1  18
TORSDOF 11
ENDMDL
MODEL 2
REMARK VINA RESULT:    47.524      0.946      2.336
REMARK INTER + INTRA:          71.835
REMARK INTER:                  72.207
REMARK INTRA:                  -0.372
REMARK UNBOUND:                 0.696
REMARK SMILES COC(=O)C1=CO[C@H](O[C@@H]2O[C@H](CO)[C@H](O)[C@H](O)[C@H]2O)[C@@H]2C(CO)=CC[C@H]12
REMARK SMILES IDX 9 1 8 2 5 3 6 4 27 5 7 6 21 7 26 8 22 9 25 10 3 11 4 12 2 13
REMARK SMILES IDX 1 14 23 15 24 16 10 18 19 19 11 20 17 21 12 22 15 23 20 24
REMARK SMILES IDX 18 26 13 28 14 29 16 31
REMARK H PARENT 24 17 20 25 18 27 14 30 16 32
REMARK Flexibility Score: inf
ROOT
ATOM      1  O   UNL     1      24.338   0.421  48.842  1.00  0.00    -0.310 OA
ENDROOT
BRANCH   1   2
ATOM      2  C   UNL     1      23.745  -0.280  49.931  1.00  0.00     0.316 C 
ATOM      3  C   UNL     1      22.906   2.020  51.435  1.00  0.00     0.076 C 
ATOM      4  C   UNL     1      24.021   1.351  51.759  1.00  0.00     0.202 C 
ATOM      5  C   UNL     1      21.866   1.382  50.528  1.00  0.00     0.047 C 
ATOM      6  O   UNL     1      24.315   0.116  51.178  1.00  0.00    -0.471 OA
ATOM      7  C   UNL     1      22.223  -0.022  49.981  1.00  0.00     0.094 C 
ATOM      8  C   UNL     1      21.541   2.222  49.285  1.00  0.00     0.037 C 
ATOM      9  C   UNL     1      21.602  -0.018  48.617  1.00  0.00    -0.039 C 
ATOM     10  C   UNL     1      21.240   1.204  48.242  1.00  0.00    -0.024 C 
BRANCH   3  11
ATOM     11  C   UNL     1      22.624   3.334  52.061  1.00  0.00     0.337 C 
ATOM     12  O   UNL     1      23.350   4.330  51.786  1.00  0.00    -0.246 OA
BRANCH  11  13
ATOM     13  O   UNL     1      21.558   3.472  52.957  1.00  0.00    -0.466 OA
ATOM     14  C   UNL     1      21.314   4.674  53.680  1.00  0.00     0.282 C 
ENDBRANCH  11  13
ENDBRANCH   3  11
BRANCH   9  15
ATOM     15  C   UNL     1      21.347  -1.254  47.798  1.00  0.00     0.187 C 
BRANCH  15  16
ATOM     16  O   UNL     1      20.216  -1.086  46.989  1.00  0.00    -0.392 OA
ATOM     17  H   UNL     1      20.479  -1.343  46.067  1.00  0.00     0.211 HD
ENDBRANCH  15  16
ENDBRANCH   9  15
ENDBRANCH   1   2
BRANCH   1  18
ATOM     18  C   UNL     1      24.544  -0.384  47.683  1.00  0.00     0.286 C 
ATOM     19  C   UNL     1      24.012   0.248  46.370  1.00  0.00     0.202 C 
ATOM     20  O   UNL     1      25.920  -0.733  47.573  1.00  0.00    -0.341 OA
ATOM     21  C   UNL     1      24.843   1.475  45.983  1.00  0.00     0.179 C 
ATOM     22  C   UNL     1      26.781   0.347  47.220  1.00  0.00     0.178 C 
ATOM     23  C   UNL     1      26.330   1.097  45.940  1.00  0.00     0.177 C 
BRANCH  19  24
ATOM     24  O   UNL     1      24.083  -0.697  45.331  1.00  0.00    -0.385 OA
ATOM     25  H   UNL     1      23.823  -1.573  45.718  1.00  0.00     0.211 HD
ENDBRANCH  19  24
BRANCH  21  26
ATOM     26  O   UNL     1      24.632   2.525  46.890  1.00  0.00    -0.387 OA
ATOM     27  H   UNL     1      24.232   2.126  47.706  1.00  0.00     0.211 HD
ENDBRANCH  21  26
BRANCH  22  28
ATOM     28  C   UNL     1      27.124   1.260  48.420  1.00  0.00     0.191 C 
BRANCH  28  29
ATOM     29  O   UNL     1      26.967   0.566  49.627  1.00  0.00    -0.394 OA
ATOM     30  H   UNL     1      27.087  -0.396  49.419  1.00  0.00     0.210 HD
ENDBRANCH  28  29
ENDBRANCH  22  28
BRANCH  23  31
ATOM     31  O   UNL     1      27.123   2.237  45.729  1.00  0.00    -0.387 OA
ATOM     32  H   UNL     1      26.511   2.965  45.444  1.00  0.00     0.211 HD
ENDBRANCH  23  31
ENDBRANCH   1  18
TORSDOF 11
ENDMDL
MODEL 3
REMARK VINA RESULT:    48.488      1.995      6.247
REMARK INTER + INTRA:          73.279
REMARK INTER:                  71.351
REMARK INTRA:                   1.927
REMARK UNBOUND:                 0.696
REMARK SMILES COC(=O)C1=CO[C@H](O[C@@H]2O[C@H](CO)[C@H](O)[C@H](O)[C@H]2O)[C@@H]2C(CO)=CC[C@H]12
REMARK SMILES IDX 9 1 8 2 5 3 6 4 27 5 7 6 21 7 26 8 22 9 25 10 3 11 4 12 2 13
REMARK SMILES IDX 1 14 23 15 24 16 10 18 19 19 11 20 17 21 12 22 15 23 20 24
REMARK SMILES IDX 18 26 13 28 14 29 16 31
REMARK H PARENT 24 17 20 25 18 27 14 30 16 32
REMARK Flexibility Score: inf
ROOT
ATOM      1  O   UNL     1      22.893   1.954  50.219  1.00  0.00    -0.310 OA
ENDROOT
BRANCH   1   2
ATOM      2  C   UNL     1      22.703   0.566  49.959  1.00  0.00     0.316 C 
ATOM      3  C   UNL     1      23.407   0.615  47.172  1.00  0.00     0.076 C 
ATOM      4  C   UNL     1      22.124   0.602  47.562  1.00  0.00     0.202 C 
ATOM      5  C   UNL     1      24.508   0.227  48.147  1.00  0.00     0.047 C 
ATOM      6  O   UNL     1      21.778   0.357  48.892  1.00  0.00    -0.471 OA
ATOM      7  C   UNL     1      24.043  -0.107  49.586  1.00  0.00     0.094 C 
ATOM      8  C   UNL     1      25.583   1.310  48.317  1.00  0.00     0.037 C 
ATOM      9  C   UNL     1      25.180   0.388  50.428  1.00  0.00    -0.039 C 
ATOM     10  C   UNL     1      26.009   1.161  49.736  1.00  0.00    -0.024 C 
BRANCH   3  11
ATOM     11  C   UNL     1      23.746   0.887  45.755  1.00  0.00     0.337 C 
ATOM     12  O   UNL     1      24.684   1.685  45.475  1.00  0.00    -0.246 OA
BRANCH  11  13
ATOM     13  O   UNL     1      23.028   0.264  44.728  1.00  0.00    -0.466 OA
ATOM     14  C   UNL     1      22.137   0.974  43.875  1.00  0.00     0.282 C 
ENDBRANCH  11  13
ENDBRANCH   3  11
BRANCH   9  15
ATOM     15  C   UNL     1      25.404  -0.002  51.864  1.00  0.00     0.187 C 
BRANCH  15  16
ATOM     16  O   UNL     1      24.429  -0.916  52.286  1.00  0.00    -0.392 OA
ATOM     17  H   UNL     1      23.546  -0.511  52.083  1.00  0.00     0.211 HD
ENDBRANCH  15  16
ENDBRANCH   9  15
ENDBRANCH   1   2
BRANCH   1  18
ATOM     18  C   UNL     1      23.530   2.223  51.465  1.00  0.00     0.286 C 
ATOM     19  C   UNL     1      23.646   3.733  51.804  1.00  0.00     0.202 C 
ATOM     20  O   UNL     1      22.880   1.504  52.509  1.00  0.00    -0.341 OA
ATOM     21  C   UNL     1      22.265   4.333  52.084  1.00  0.00     0.179 C 
ATOM     22  C   UNL     1      21.579   1.985  52.842  1.00  0.00     0.178 C 
ATOM     23  C   UNL     1      21.550   3.503  53.159  1.00  0.00     0.177 C 
BRANCH  19  24
ATOM     24  O   UNL     1      24.454   3.899  52.942  1.00  0.00    -0.385 OA
ATOM     25  H   UNL     1      24.986   3.067  53.043  1.00  0.00     0.211 HD
ENDBRANCH  19  24
BRANCH  21  26
ATOM     26  O   UNL     1      21.495   4.380  50.911  1.00  0.00    -0.387 OA
ATOM     27  H   UNL     1      21.359   5.340  50.695  1.00  0.00     0.211 HD
ENDBRANCH  21  26
BRANCH  22  28
ATOM     28  C   UNL     1      20.490   1.508  51.853  1.00  0.00     0.191 C 
BRANCH  28  29
ATOM     29  O   UNL     1      19.375   1.020  52.548  1.00  0.00    -0.394 OA
ATOM     30  H   UNL     1      19.138   0.152  52.132  1.00  0.00     0.210 HD
ENDBRANCH  28  29
ENDBRANCH  22  28
BRANCH  23  31
ATOM     31  O   UNL     1      20.228   3.948  53.329  1.00  0.00    -0.387 OA
ATOM     32  H   UNL     1      19.702   3.171  53.654  1.00  0.00     0.211 HD
ENDBRANCH  23  31
ENDBRANCH   1  18
TORSDOF 11
ENDMDL
MODEL 4
REMARK VINA RESULT:    48.555      1.922      6.284
REMARK INTER + INTRA:          73.379
REMARK INTER:                  73.423
REMARK INTRA:                  -0.044
REMARK UNBOUND:                 0.696
REMARK SMILES COC(=O)C1=CO[C@H](O[C@@H]2O[C@H](CO)[C@H](O)[C@H](O)[C@H]2O)[C@@H]2C(CO)=CC[C@H]12
REMARK SMILES IDX 9 1 8 2 5 3 6 4 27 5 7 6 21 7 26 8 22 9 25 10 3 11 4 12 2 13
REMARK SMILES IDX 1 14 23 15 24 16 10 18 19 19 11 20 17 21 12 22 15 23 20 24
REMARK SMILES IDX 18 26 13 28 14 29 16 31
REMARK H PARENT 24 17 20 25 18 27 14 30 16 32
REMARK Flexibility Score: inf
ROOT
ATOM      1  O   UNL     1      23.635   1.899  50.722  1.00  0.00    -0.310 OA
ENDROOT
BRANCH   1   2
ATOM      2  C   UNL     1      23.829   0.492  50.621  1.00  0.00     0.316 C 
ATOM      3  C   UNL     1      22.960   0.195  47.897  1.00  0.00     0.076 C 
ATOM      4  C   UNL     1      22.146  -0.104  48.920  1.00  0.00     0.202 C 
ATOM      5  C   UNL     1      24.457   0.331  48.125  1.00  0.00     0.047 C 
ATOM      6  O   UNL     1      22.628  -0.174  50.228  1.00  0.00    -0.471 OA
ATOM      7  C   UNL     1      24.932   0.166  49.589  1.00  0.00     0.094 C 
ATOM      8  C   UNL     1      25.023   1.685  47.673  1.00  0.00     0.037 C 
ATOM      9  C   UNL     1      26.088   1.115  49.675  1.00  0.00    -0.039 C 
ATOM     10  C   UNL     1      26.129   1.942  48.637  1.00  0.00    -0.024 C 
BRANCH   3  11
ATOM     11  C   UNL     1      22.418   0.272  46.520  1.00  0.00     0.337 C 
ATOM     12  O   UNL     1      21.241  -0.117  46.285  1.00  0.00    -0.246 OA
BRANCH  11  13
ATOM     13  O   UNL     1      23.210   0.771  45.479  1.00  0.00    -0.466 OA
ATOM     14  C   UNL     1      22.696   1.023  44.177  1.00  0.00     0.282 C 
ENDBRANCH  11  13
ENDBRANCH   3  11
BRANCH   9  15
ATOM     15  C   UNL     1      27.125   1.091  50.765  1.00  0.00     0.187 C 
BRANCH  15  16
ATOM     16  O   UNL     1      27.107  -0.138  51.438  1.00  0.00    -0.392 OA
ATOM     17  H   UNL     1      28.049  -0.442  51.509  1.00  0.00     0.211 HD
ENDBRANCH  15  16
ENDBRANCH   9  15
ENDBRANCH   1   2
BRANCH   1  18
ATOM     18  C   UNL     1      22.271   2.281  50.892  1.00  0.00     0.286 C 
ATOM     19  C   UNL     1      21.620   1.738  52.191  1.00  0.00     0.202 C 
ATOM     20  O   UNL     1      22.148   3.696  50.799  1.00  0.00    -0.341 OA
ATOM     21  C   UNL     1      22.231   2.408  53.425  1.00  0.00     0.179 C 
ATOM     22  C   UNL     1      22.694   4.415  51.903  1.00  0.00     0.178 C 
ATOM     23  C   UNL     1      22.154   3.934  53.274  1.00  0.00     0.177 C 
BRANCH  19  24
ATOM     24  O   UNL     1      20.238   2.000  52.168  1.00  0.00    -0.385 OA
ATOM     25  H   UNL     1      20.119   2.949  52.434  1.00  0.00     0.211 HD
ENDBRANCH  19  24
BRANCH  21  26
ATOM     26  O   UNL     1      23.562   2.002  53.604  1.00  0.00    -0.387 OA
ATOM     27  H   UNL     1      23.957   2.602  54.289  1.00  0.00     0.211 HD
ENDBRANCH  21  26
BRANCH  22  28
ATOM     28  C   UNL     1      24.232   4.559  51.825  1.00  0.00     0.191 C 
BRANCH  28  29
ATOM     29  O   UNL     1      24.669   5.618  52.630  1.00  0.00    -0.394 OA
ATOM     30  H   UNL     1      23.864   6.146  52.867  1.00  0.00     0.210 HD
ENDBRANCH  28  29
ENDBRANCH  22  28
BRANCH  23  31
ATOM     31  O   UNL     1      22.837   4.569  54.325  1.00  0.00    -0.387 OA
ATOM     32  H   UNL     1      22.161   4.784  55.020  1.00  0.00     0.211 HD
ENDBRANCH  23  31
ENDBRANCH   1  18
TORSDOF 11
ENDMDL
MODEL 5
REMARK VINA RESULT:    49.028      9.363     11.505
REMARK INTER + INTRA:          74.086
REMARK INTER:                  73.107
REMARK INTRA:                   0.979
REMARK UNBOUND:                 0.696
REMARK SMILES COC(=O)C1=CO[C@H](O[C@@H]2O[C@H](CO)[C@H](O)[C@H](O)[C@H]2O)[C@@H]2C(CO)=CC[C@H]12
REMARK SMILES IDX 9 1 8 2 5 3 6 4 27 5 7 6 21 7 26 8 22 9 25 10 3 11 4 12 2 13
REMARK SMILES IDX 1 14 23 15 24 16 10 18 19 19 11 20 17 21 12 22 15 23 20 24
REMARK SMILES IDX 18 26 13 28 14 29 16 31
REMARK H PARENT 24 17 20 25 18 27 14 30 16 32
REMARK Flexibility Score: inf
ROOT
ATOM      1  O   UNL     1      19.945  10.995  46.358  1.00  0.00    -0.310 OA
ENDROOT
BRANCH   1   2
ATOM      2  C   UNL     1      20.681  11.891  47.185  1.00  0.00     0.316 C 
ATOM      3  C   UNL     1      23.040  10.274  47.469  1.00  0.00     0.076 C 
ATOM      4  C   UNL     1      22.113  10.322  48.436  1.00  0.00     0.202 C 
ATOM      5  C   UNL     1      23.069  11.338  46.383  1.00  0.00     0.047 C 
ATOM      6  O   UNL     1      21.085  11.265  48.402  1.00  0.00    -0.471 OA
ATOM      7  C   UNL     1      21.943  12.398  46.451  1.00  0.00     0.094 C 
ATOM      8  C   UNL     1      22.988  10.762  44.962  1.00  0.00     0.037 C 
ATOM      9  C   UNL     1      21.678  12.698  45.007  1.00  0.00    -0.039 C 
ATOM     10  C   UNL     1      22.242  11.803  44.204  1.00  0.00    -0.024 C 
BRANCH   3  11
ATOM     11  C   UNL     1      24.116   9.256  47.526  1.00  0.00     0.337 C 
ATOM     12  O   UNL     1      23.859   8.054  47.238  1.00  0.00    -0.246 OA
BRANCH  11  13
ATOM     13  O   UNL     1      25.413   9.623  47.900  1.00  0.00    -0.466 OA
ATOM     14  C   UNL     1      26.341  10.198  46.987  1.00  0.00     0.282 C 
ENDBRANCH  11  13
ENDBRANCH   3  11
BRANCH   9  15
ATOM     15  C   UNL     1      20.928  13.907  44.516  1.00  0.00     0.187 C 
BRANCH  15  16
ATOM     16  O   UNL     1      19.741  13.526  43.876  1.00  0.00    -0.392 OA
ATOM     17  H   UNL     1      18.992  13.881  44.422  1.00  0.00     0.211 HD
ENDBRANCH  15  16
ENDBRANCH   9  15
ENDBRANCH   1   2
BRANCH   1  18
ATOM     18  C   UNL     1      20.123   9.622  46.698  1.00  0.00     0.286 C 
ATOM     19  C   UNL     1      19.085   9.083  47.717  1.00  0.00     0.202 C 
ATOM     20  O   UNL     1      20.153   8.829  45.516  1.00  0.00    -0.341 OA
ATOM     21  C   UNL     1      17.691   9.014  47.085  1.00  0.00     0.179 C 
ATOM     22  C   UNL     1      18.899   8.707  44.848  1.00  0.00     0.178 C 
ATOM     23  C   UNL     1      17.757   8.217  45.775  1.00  0.00     0.177 C 
BRANCH  19  24
ATOM     24  O   UNL     1      19.460   7.793  48.133  1.00  0.00    -0.385 OA
ATOM     25  H   UNL     1      19.032   7.151  47.507  1.00  0.00     0.211 HD
ENDBRANCH  19  24
BRANCH  21  26
ATOM     26  O   UNL     1      17.188  10.302  46.848  1.00  0.00    -0.387 OA
ATOM     27  H   UNL     1      16.215  10.273  47.048  1.00  0.00     0.211 HD
ENDBRANCH  21  26
BRANCH  22  28
ATOM     28  C   UNL     1      18.551   9.946  43.991  1.00  0.00     0.191 C 
BRANCH  28  29
ATOM     29  O   UNL     1      17.374  10.550  44.452  1.00  0.00    -0.394 OA
ATOM     30  H   UNL     1      17.631  11.128  45.215  1.00  0.00     0.210 HD
ENDBRANCH  28  29
ENDBRANCH  22  28
BRANCH  23  31
ATOM     31  O   UNL     1      16.522   8.262  45.107  1.00  0.00    -0.387 OA
ATOM     32  H   UNL     1      15.925   7.612  45.560  1.00  0.00     0.211 HD
ENDBRANCH  23  31
ENDBRANCH   1  18
TORSDOF 11
ENDMDL
MODEL 6
REMARK VINA RESULT:    49.206      1.953      6.276
REMARK INTER + INTRA:          74.354
REMARK INTER:                  73.390
REMARK INTRA:                   0.964
REMARK UNBOUND:                 0.696
REMARK SMILES COC(=O)C1=CO[C@H](O[C@@H]2O[C@H](CO)[C@H](O)[C@H](O)[C@H]2O)[C@@H]2C(CO)=CC[C@H]12
REMARK SMILES IDX 9 1 8 2 5 3 6 4 27 5 7 6 21 7 26 8 22 9 25 10 3 11 4 12 2 13
REMARK SMILES IDX 1 14 23 15 24 16 10 18 19 19 11 20 17 21 12 22 15 23 20 24
REMARK SMILES IDX 18 26 13 28 14 29 16 31
REMARK H PARENT 24 17 20 25 18 27 14 30 16 32
REMARK Flexibility Score: inf
ROOT
ATOM      1  O   UNL     1      23.573   2.229  50.605  1.00  0.00    -0.310 OA
ENDROOT
BRANCH   1   2
ATOM      2  C   UNL     1      23.571   0.807  50.687  1.00  0.00     0.316 C 
ATOM      3  C   UNL     1      22.785   0.282  47.973  1.00  0.00     0.076 C 
ATOM      4  C   UNL     1      21.895   0.229  48.974  1.00  0.00     0.202 C 
ATOM      5  C   UNL     1      24.276   0.244  48.271  1.00  0.00     0.047 C 
ATOM      6  O   UNL     1      22.307   0.264  50.307  1.00  0.00    -0.471 OA
ATOM      7  C   UNL     1      24.660   0.206  49.770  1.00  0.00     0.094 C 
ATOM      8  C   UNL     1      25.045   1.441  47.693  1.00  0.00     0.037 C 
ATOM      9  C   UNL     1      25.934   0.995  49.809  1.00  0.00    -0.039 C 
ATOM     10  C   UNL     1      26.134   1.668  48.682  1.00  0.00    -0.024 C 
BRANCH   3  11
ATOM     11  C   UNL     1      22.318   0.253  46.566  1.00  0.00     0.337 C 
ATOM     12  O   UNL     1      21.258  -0.364  46.269  1.00  0.00    -0.246 OA
BRANCH  11  13
ATOM     13  O   UNL     1      23.051   0.905  45.568  1.00  0.00    -0.466 OA
ATOM     14  C   UNL     1      22.678   0.870  44.196  1.00  0.00     0.282 C 
ENDBRANCH  11  13
ENDBRANCH   3  11
BRANCH   9  15
ATOM     15  C   UNL     1      26.910   0.972  50.954  1.00  0.00     0.187 C 
BRANCH  15  16
ATOM     16  O   UNL     1      27.114  -0.339  51.404  1.00  0.00    -0.392 OA
ATOM     17  H   UNL     1      27.518  -0.844  50.651  1.00  0.00     0.211 HD
ENDBRANCH  15  16
ENDBRANCH   9  15
ENDBRANCH   1   2
BRANCH   1  18
ATOM     18  C   UNL     1      24.082   2.872  51.771  1.00  0.00     0.286 C 
ATOM     19  C   UNL     1      23.887   4.411  51.781  1.00  0.00     0.202 C 
ATOM     20  O   UNL     1      23.533   2.269  52.938  1.00  0.00    -0.341 OA
ATOM     21  C   UNL     1      22.404   4.767  51.917  1.00  0.00     0.179 C 
ATOM     22  C   UNL     1      22.149   2.538  53.151  1.00  0.00     0.178 C 
ATOM     23  C   UNL     1      21.811   4.051  53.138  1.00  0.00     0.177 C 
BRANCH  19  24
ATOM     24  O   UNL     1      24.590   4.967  52.865  1.00  0.00    -0.385 OA
ATOM     25  H   UNL     1      23.930   5.469  53.412  1.00  0.00     0.211 HD
ENDBRANCH  19  24
BRANCH  21  26
ATOM     26  O   UNL     1      21.699   4.417  50.755  1.00  0.00    -0.387 OA
ATOM     27  H   UNL     1      21.452   3.459  50.846  1.00  0.00     0.211 HD
ENDBRANCH  21  26
BRANCH  22  28
ATOM     28  C   UNL     1      21.224   1.659  52.279  1.00  0.00     0.191 C 
BRANCH  28  29
ATOM     29  O   UNL     1      19.923   1.647  52.798  1.00  0.00    -0.394 OA
ATOM     30  H   UNL     1      19.791   2.516  53.255  1.00  0.00     0.210 HD
ENDBRANCH  28  29
ENDBRANCH  22  28
BRANCH  23  31
ATOM     31  O   UNL     1      20.421   4.248  53.200  1.00  0.00    -0.387 OA
ATOM     32  H   UNL     1      19.996   3.401  52.904  1.00  0.00     0.211 HD
ENDBRANCH  23  31
ENDBRANCH   1  18
TORSDOF 11
ENDMDL
MODEL 7
REMARK VINA RESULT:    49.493      8.998     11.684
REMARK INTER + INTRA:          74.783
REMARK INTER:                  75.065
REMARK INTRA:                  -0.283
REMARK UNBOUND:                 0.696
REMARK SMILES COC(=O)C1=CO[C@H](O[C@@H]2O[C@H](CO)[C@H](O)[C@H](O)[C@H]2O)[C@@H]2C(CO)=CC[C@H]12
REMARK SMILES IDX 9 1 8 2 5 3 6 4 27 5 7 6 21 7 26 8 22 9 25 10 3 11 4 12 2 13
REMARK SMILES IDX 1 14 23 15 24 16 10 18 19 19 11 20 17 21 12 22 15 23 20 24
REMARK SMILES IDX 18 26 13 28 14 29 16 31
REMARK H PARENT 24 17 20 25 18 27 14 30 16 32
REMARK Flexibility Score: inf
ROOT
ATOM      1  O   UNL     1      21.836  -0.608  59.570  1.00  0.00    -0.310 OA
ENDROOT
BRANCH   1   2
ATOM      2  C   UNL     1      22.366  -0.654  60.891  1.00  0.00     0.316 C 
ATOM      3  C   UNL     1      24.900  -1.838  60.230  1.00  0.00     0.076 C 
ATOM      4  C   UNL     1      23.899  -2.578  60.727  1.00  0.00     0.202 C 
ATOM      5  C   UNL     1      24.867  -0.323  60.353  1.00  0.00     0.047 C 
ATOM      6  O   UNL     1      22.753  -1.979  61.252  1.00  0.00    -0.471 OA
ATOM      7  C   UNL     1      23.599   0.269  61.016  1.00  0.00     0.094 C 
ATOM      8  C   UNL     1      24.987   0.402  59.006  1.00  0.00     0.037 C 
ATOM      9  C   UNL     1      23.414   1.565  60.287  1.00  0.00    -0.039 C 
ATOM     10  C   UNL     1      24.165   1.629  59.193  1.00  0.00    -0.024 C 
BRANCH   3  11
ATOM     11  C   UNL     1      26.101  -2.501  59.670  1.00  0.00     0.337 C 
ATOM     12  O   UNL     1      26.922  -3.071  60.441  1.00  0.00    -0.246 OA
BRANCH  11  13
ATOM     13  O   UNL     1      26.328  -2.495  58.289  1.00  0.00    -0.466 OA
ATOM     14  C   UNL     1      27.120  -1.503  57.646  1.00  0.00     0.282 C 
ENDBRANCH  11  13
ENDBRANCH   3  11
BRANCH   9  15
ATOM     15  C   UNL     1      22.543   2.693  60.770  1.00  0.00     0.187 C 
BRANCH  15  16
ATOM     16  O   UNL     1      23.018   3.923  60.295  1.00  0.00    -0.392 OA
ATOM     17  H   UNL     1      23.418   3.753  59.403  1.00  0.00     0.211 HD
ENDBRANCH  15  16
ENDBRANCH   9  15
ENDBRANCH   1   2
BRANCH   1  18
ATOM     18  C   UNL     1      20.456  -0.957  59.491  1.00  0.00     0.286 C 
ATOM     19  C   UNL     1      19.701  -0.290  58.312  1.00  0.00     0.202 C 
ATOM     20  O   UNL     1      20.314  -2.374  59.466  1.00  0.00    -0.341 OA
ATOM     21  C   UNL     1      20.186  -0.850  56.971  1.00  0.00     0.179 C 
ATOM     22  C   UNL     1      20.745  -2.994  58.256  1.00  0.00     0.178 C 
ATOM     23  C   UNL     1      20.093  -2.382  56.989  1.00  0.00     0.177 C 
BRANCH  19  24
ATOM     24  O   UNL     1      18.322  -0.537  58.436  1.00  0.00    -0.385 OA
ATOM     25  H   UNL     1      18.182  -0.950  59.328  1.00  0.00     0.211 HD
ENDBRANCH  19  24
BRANCH  21  26
ATOM     26  O   UNL     1      21.503  -0.444  56.709  1.00  0.00    -0.387 OA
ATOM     27  H   UNL     1      22.101  -1.095  57.161  1.00  0.00     0.211 HD
ENDBRANCH  21  26
BRANCH  22  28
ATOM     28  C   UNL     1      22.280  -3.161  58.180  1.00  0.00     0.191 C 
BRANCH  28  29
ATOM     29  O   UNL     1      22.622  -4.152  57.251  1.00  0.00    -0.394 OA
ATOM     30  H   UNL     1      23.354  -4.682  57.657  1.00  0.00     0.210 HD
ENDBRANCH  28  29
ENDBRANCH  22  28
BRANCH  23  31
ATOM     31  O   UNL     1      20.666  -2.925  55.827  1.00  0.00    -0.387 OA
ATOM     32  H   UNL     1      19.982  -3.518  55.418  1.00  0.00     0.211 HD
ENDBRANCH  23  31
ENDBRANCH   1  18
TORSDOF 11
ENDMDL
