MODEL 1
REMARK VINA RESULT:    -4.577      0.000      0.000
REMARK INTER + INTRA:          -6.008
REMARK INTER:                  -5.647
REMARK INTRA:                  -0.361
REMARK UNBOUND:                -0.361
REMARK SMILES O=c1c(O)c(-c2cc(O)c(O)c(O)c2)oc2cc(O)cc(O)c12
REMARK SMILES IDX 5 1 3 2 2 3 1 4 23 5 21 6 20 7 18 8 17 9 16 10 15 11 6 12
REMARK SMILES IDX 7 13 8 14 14 15 10 16 12 17 9 18 11 20 13 22 4 24 22 26
REMARK SMILES IDX 19 28
REMARK H PARENT 9 19 11 21 13 23 4 25 22 27 19 29
REMARK Flexibility Score: inf
ROOT
ATOM      1  C   UNL     1      -9.897   5.580  -4.866  1.00  0.00     0.180 A 
ATOM      2  C   UNL     1     -10.232   6.831  -4.312  1.00  0.00     0.208 A 
ATOM      3  C   UNL     1      -9.216   7.617  -3.748  1.00  0.00     0.238 A 
ATOM      4  O   UNL     1      -9.502   8.743  -3.259  1.00  0.00    -0.285 OA
ATOM      5  C   UNL     1      -7.891   7.134  -3.726  1.00  0.00     0.111 A 
ATOM      6  C   UNL     1      -6.810   7.861  -3.172  1.00  0.00     0.134 A 
ATOM      7  C   UNL     1      -5.521   7.306  -3.181  1.00  0.00     0.093 A 
ATOM      8  C   UNL     1      -5.294   6.040  -3.731  1.00  0.00     0.123 A 
ATOM      9  C   UNL     1      -6.357   5.320  -4.280  1.00  0.00     0.094 A 
ATOM     10  C   UNL     1      -7.648   5.855  -4.282  1.00  0.00     0.146 A 
ATOM     11  O   UNL     1      -8.640   5.150  -4.815  1.00  0.00    -0.452 OA
ENDROOT
BRANCH   1  12
ATOM     12  C   UNL     1     -10.909   4.702  -5.496  1.00  0.00     0.029 A 
ATOM     13  C   UNL     1     -11.296   4.877  -6.837  1.00  0.00     0.062 A 
ATOM     14  C   UNL     1     -12.238   4.021  -7.423  1.00  0.00     0.162 A 
ATOM     15  C   UNL     1     -11.452   3.637  -4.762  1.00  0.00     0.062 A 
ATOM     16  C   UNL     1     -12.794   2.971  -6.672  1.00  0.00     0.200 A 
ATOM     17  C   UNL     1     -12.394   2.779  -5.338  1.00  0.00     0.162 A 
BRANCH  14  18
ATOM     18  O   UNL     1     -12.620   4.207  -8.751  1.00  0.00    -0.504 OA
ATOM     19  H   UNL     1     -13.524   3.899  -9.091  1.00  0.00     0.293 HD
ENDBRANCH  14  18
BRANCH  16  20
ATOM     20  O   UNL     1     -13.737   2.112  -7.239  1.00  0.00    -0.502 OA
ATOM     21  H   UNL     1     -14.070   2.227  -8.189  1.00  0.00     0.293 HD
ENDBRANCH  16  20
BRANCH  17  22
ATOM     22  O   UNL     1     -12.921   1.741  -4.571  1.00  0.00    -0.504 OA
ATOM     23  H   UNL     1     -13.916   1.644  -4.405  1.00  0.00     0.293 HD
ENDBRANCH  17  22
ENDBRANCH   1  12
BRANCH   2  24
ATOM     24  O   UNL     1     -11.560   7.266  -4.302  1.00  0.00    -0.502 OA
ATOM     25  H   UNL     1     -12.137   7.230  -3.471  1.00  0.00     0.293 HD
ENDBRANCH   2  24
BRANCH   6  26
ATOM     26  O   UNL     1      -7.005   9.125  -2.615  1.00  0.00    -0.507 OA
ATOM     27  H   UNL     1      -6.231   9.751  -2.427  1.00  0.00     0.293 HD
ENDBRANCH   6  26
BRANCH   8  28
ATOM     28  O   UNL     1      -4.015   5.488  -3.740  1.00  0.00    -0.508 OA
ATOM     29  H   UNL     1      -3.553   5.236  -4.606  1.00  0.00     0.293 HD
ENDBRANCH   8  28
TORSDOF 7
ENDMDL
MODEL 2
REMARK VINA RESULT:    -4.519      4.537      7.849
REMARK INTER + INTRA:          -5.936
REMARK INTER:                  -5.639
REMARK INTRA:                  -0.297
REMARK UNBOUND:                -0.361
REMARK SMILES O=c1c(O)c(-c2cc(O)c(O)c(O)c2)oc2cc(O)cc(O)c12
REMARK SMILES IDX 5 1 3 2 2 3 1 4 23 5 21 6 20 7 18 8 17 9 16 10 15 11 6 12
REMARK SMILES IDX 7 13 8 14 14 15 10 16 12 17 9 18 11 20 13 22 4 24 22 26
REMARK SMILES IDX 19 28
REMARK H PARENT 9 19 11 21 13 23 4 25 22 27 19 29
REMARK Flexibility Score: inf
ROOT
ATOM      1  C   UNL     1      -5.756   3.151  -3.214  1.00  0.00     0.180 A 
ATOM      2  C   UNL     1      -4.529   2.744  -3.773  1.00  0.00     0.208 A 
ATOM      3  C   UNL     1      -4.297   1.375  -3.977  1.00  0.00     0.238 A 
ATOM      4  O   UNL     1      -3.207   1.000  -4.487  1.00  0.00    -0.285 OA
ATOM      5  C   UNL     1      -5.281   0.437  -3.600  1.00  0.00     0.111 A 
ATOM      6  C   UNL     1      -5.122  -0.960  -3.766  1.00  0.00     0.134 A 
ATOM      7  C   UNL     1      -6.145  -1.829  -3.356  1.00  0.00     0.093 A 
ATOM      8  C   UNL     1      -7.319  -1.328  -2.783  1.00  0.00     0.123 A 
ATOM      9  C   UNL     1      -7.480   0.049  -2.618  1.00  0.00     0.094 A 
ATOM     10  C   UNL     1      -6.473   0.931  -3.021  1.00  0.00     0.146 A 
ATOM     11  O   UNL     1      -6.654   2.237  -2.856  1.00  0.00    -0.452 OA
ENDROOT
BRANCH   1  12
ATOM     12  C   UNL     1      -6.083   4.577  -2.986  1.00  0.00     0.029 A 
ATOM     13  C   UNL     1      -6.392   5.436  -4.055  1.00  0.00     0.062 A 
ATOM     14  C   UNL     1      -6.723   6.777  -3.818  1.00  0.00     0.162 A 
ATOM     15  C   UNL     1      -6.143   5.070  -1.674  1.00  0.00     0.062 A 
ATOM     16  C   UNL     1      -6.757   7.268  -2.502  1.00  0.00     0.200 A 
ATOM     17  C   UNL     1      -6.470   6.407  -1.428  1.00  0.00     0.162 A 
BRANCH  14  18
ATOM     18  O   UNL     1      -7.021   7.622  -4.885  1.00  0.00    -0.504 OA
ATOM     19  H   UNL     1      -6.443   7.650  -5.718  1.00  0.00     0.293 HD
ENDBRANCH  14  18
BRANCH  16  20
ATOM     20  O   UNL     1      -7.080   8.602  -2.248  1.00  0.00    -0.502 OA
ATOM     21  H   UNL     1      -7.356   8.926  -1.328  1.00  0.00     0.293 HD
ENDBRANCH  16  20
BRANCH  17  22
ATOM     22  O   UNL     1      -6.505   6.863  -0.111  1.00  0.00    -0.504 OA
ATOM     23  H   UNL     1      -5.739   7.383   0.301  1.00  0.00     0.293 HD
ENDBRANCH  17  22
ENDBRANCH   1  12
BRANCH   2  24
ATOM     24  O   UNL     1      -3.552   3.690  -4.093  1.00  0.00    -0.502 OA
ATOM     25  H   UNL     1      -3.768   4.553  -4.577  1.00  0.00     0.293 HD
ENDBRANCH   2  24
BRANCH   6  26
ATOM     26  O   UNL     1      -3.963  -1.489  -4.333  1.00  0.00    -0.507 OA
ATOM     27  H   UNL     1      -3.460  -2.256  -3.902  1.00  0.00     0.293 HD
ENDBRANCH   6  26
BRANCH   8  28
ATOM     28  O   UNL     1      -8.335  -2.190  -2.376  1.00  0.00    -0.508 OA
ATOM     29  H   UNL     1      -9.250  -2.174  -2.812  1.00  0.00     0.293 HD
ENDBRANCH   8  28
TORSDOF 7
ENDMDL
MODEL 3
REMARK VINA RESULT:    -4.505      0.520      1.817
REMARK INTER + INTRA:          -5.919
REMARK INTER:                  -5.591
REMARK INTRA:                  -0.329
REMARK UNBOUND:                -0.361
REMARK SMILES O=c1c(O)c(-c2cc(O)c(O)c(O)c2)oc2cc(O)cc(O)c12
REMARK SMILES IDX 5 1 3 2 2 3 1 4 23 5 21 6 20 7 18 8 17 9 16 10 15 11 6 12
REMARK SMILES IDX 7 13 8 14 14 15 10 16 12 17 9 18 11 20 13 22 4 24 22 26
REMARK SMILES IDX 19 28
REMARK H PARENT 9 19 11 21 13 23 4 25 22 27 19 29
REMARK Flexibility Score: inf
ROOT
ATOM      1  C   UNL     1     -10.001   5.750  -5.085  1.00  0.00     0.180 A 
ATOM      2  C   UNL     1     -10.414   6.910  -4.401  1.00  0.00     0.208 A 
ATOM      3  C   UNL     1      -9.455   7.667  -3.709  1.00  0.00     0.238 A 
ATOM      4  O   UNL     1      -9.812   8.713  -3.102  1.00  0.00    -0.285 OA
ATOM      5  C   UNL     1      -8.110   7.243  -3.694  1.00  0.00     0.111 A 
ATOM      6  C   UNL     1      -7.085   7.946  -3.017  1.00  0.00     0.134 A 
ATOM      7  C   UNL     1      -5.771   7.454  -3.042  1.00  0.00     0.093 A 
ATOM      8  C   UNL     1      -5.464   6.274  -3.728  1.00  0.00     0.123 A 
ATOM      9  C   UNL     1      -6.473   5.578  -4.398  1.00  0.00     0.094 A 
ATOM     10  C   UNL     1      -7.787   6.052  -4.386  1.00  0.00     0.146 A 
ATOM     11  O   UNL     1      -8.726   5.373  -5.036  1.00  0.00    -0.452 OA
ENDROOT
BRANCH   1  12
ATOM     12  C   UNL     1     -10.948   4.910  -5.852  1.00  0.00     0.029 A 
ATOM     13  C   UNL     1     -11.497   3.739  -5.302  1.00  0.00     0.062 A 
ATOM     14  C   UNL     1     -12.411   2.969  -6.034  1.00  0.00     0.162 A 
ATOM     15  C   UNL     1     -11.353   5.319  -7.132  1.00  0.00     0.062 A 
ATOM     16  C   UNL     1     -12.793   3.374  -7.325  1.00  0.00     0.200 A 
ATOM     17  C   UNL     1     -12.262   4.555  -7.871  1.00  0.00     0.162 A 
BRANCH  14  18
ATOM     18  O   UNL     1     -12.945   1.806  -5.482  1.00  0.00    -0.504 OA
ATOM     19  H   UNL     1     -13.005   0.945  -6.015  1.00  0.00     0.293 HD
ENDBRANCH  14  18
BRANCH  16  20
ATOM     20  O   UNL     1     -13.698   2.616  -8.070  1.00  0.00    -0.502 OA
ATOM     21  H   UNL     1     -14.680   2.857  -8.134  1.00  0.00     0.293 HD
ENDBRANCH  16  20
BRANCH  17  22
ATOM     22  O   UNL     1     -12.629   4.988  -9.145  1.00  0.00    -0.504 OA
ATOM     23  H   UNL     1     -12.989   4.353  -9.847  1.00  0.00     0.293 HD
ENDBRANCH  17  22
ENDBRANCH   1  12
BRANCH   2  24
ATOM     24  O   UNL     1     -11.760   7.281  -4.390  1.00  0.00    -0.502 OA
ATOM     25  H   UNL     1     -12.511   6.601  -4.372  1.00  0.00     0.293 HD
ENDBRANCH   2  24
BRANCH   6  26
ATOM     26  O   UNL     1      -7.359   9.125  -2.323  1.00  0.00    -0.507 OA
ATOM     27  H   UNL     1      -8.307   9.398  -2.089  1.00  0.00     0.293 HD
ENDBRANCH   6  26
BRANCH   8  28
ATOM     28  O   UNL     1      -4.160   5.784  -3.754  1.00  0.00    -0.508 OA
ATOM     29  H   UNL     1      -3.560   5.837  -2.939  1.00  0.00     0.293 HD
ENDBRANCH   8  28
TORSDOF 7
ENDMDL
MODEL 4
REMARK VINA RESULT:    -4.356     11.228     13.237
REMARK INTER + INTRA:          -5.736
REMARK INTER:                  -5.382
REMARK INTRA:                  -0.353
REMARK UNBOUND:                -0.361
REMARK SMILES O=c1c(O)c(-c2cc(O)c(O)c(O)c2)oc2cc(O)cc(O)c12
REMARK SMILES IDX 5 1 3 2 2 3 1 4 23 5 21 6 20 7 18 8 17 9 16 10 15 11 6 12
REMARK SMILES IDX 7 13 8 14 14 15 10 16 12 17 9 18 11 20 13 22 4 24 22 26
REMARK SMILES IDX 19 28
REMARK H PARENT 9 19 11 21 13 23 4 25 22 27 19 29
REMARK Flexibility Score: inf
ROOT
ATOM      1  C   UNL     1      -6.049  -5.688  -1.518  1.00  0.00     0.180 A 
ATOM      2  C   UNL     1      -5.149  -4.646  -1.809  1.00  0.00     0.208 A 
ATOM      3  C   UNL     1      -5.655  -3.422  -2.273  1.00  0.00     0.238 A 
ATOM      4  O   UNL     1      -4.859  -2.477  -2.527  1.00  0.00    -0.285 OA
ATOM      5  C   UNL     1      -7.045  -3.267  -2.458  1.00  0.00     0.111 A 
ATOM      6  C   UNL     1      -7.635  -2.068  -2.927  1.00  0.00     0.134 A 
ATOM      7  C   UNL     1      -9.026  -1.997  -3.093  1.00  0.00     0.093 A 
ATOM      8  C   UNL     1      -9.836  -3.100  -2.802  1.00  0.00     0.123 A 
ATOM      9  C   UNL     1      -9.259  -4.284  -2.339  1.00  0.00     0.094 A 
ATOM     10  C   UNL     1      -7.875  -4.375  -2.165  1.00  0.00     0.146 A 
ATOM     11  O   UNL     1      -7.352  -5.512  -1.719  1.00  0.00    -0.452 OA
ENDROOT
BRANCH   1  12
ATOM     12  C   UNL     1      -5.594  -7.001  -1.007  1.00  0.00     0.029 A 
ATOM     13  C   UNL     1      -5.595  -7.291   0.368  1.00  0.00     0.062 A 
ATOM     14  C   UNL     1      -5.184  -8.548   0.831  1.00  0.00     0.162 A 
ATOM     15  C   UNL     1      -5.209  -7.999  -1.916  1.00  0.00     0.062 A 
ATOM     16  C   UNL     1      -4.777  -9.534  -0.085  1.00  0.00     0.200 A 
ATOM     17  C   UNL     1      -4.794  -9.256  -1.462  1.00  0.00     0.162 A 
BRANCH  14  18
ATOM     18  O   UNL     1      -5.181  -8.823   2.198  1.00  0.00    -0.504 OA
ATOM     19  H   UNL     1      -4.993  -9.755   2.551  1.00  0.00     0.293 HD
ENDBRANCH  14  18
BRANCH  16  20
ATOM     20  O   UNL     1      -4.359 -10.789   0.360  1.00  0.00    -0.502 OA
ATOM     21  H   UNL     1      -4.356 -11.602  -0.245  1.00  0.00     0.293 HD
ENDBRANCH  16  20
BRANCH  17  22
ATOM     22  O   UNL     1      -4.405 -10.215  -2.396  1.00  0.00    -0.504 OA
ATOM     23  H   UNL     1      -4.925 -10.379  -3.250  1.00  0.00     0.293 HD
ENDBRANCH  17  22
ENDBRANCH   1  12
BRANCH   2  24
ATOM     24  O   UNL     1      -3.773  -4.840  -1.664  1.00  0.00    -0.502 OA
ATOM     25  H   UNL     1      -3.189  -5.179  -2.420  1.00  0.00     0.293 HD
ENDBRANCH   2  24
BRANCH   6  26
ATOM     26  O   UNL     1      -6.853  -0.952  -3.226  1.00  0.00    -0.507 OA
ATOM     27  H   UNL     1      -6.501  -0.338  -2.501  1.00  0.00     0.293 HD
ENDBRANCH   6  26
BRANCH   8  28
ATOM     28  O   UNL     1     -11.218  -3.030  -2.967  1.00  0.00    -0.508 OA
ATOM     29  H   UNL     1     -11.634  -2.838  -3.871  1.00  0.00     0.293 HD
ENDBRANCH   8  28
TORSDOF 7
ENDMDL
MODEL 5
REMARK VINA RESULT:    -4.348      5.686      7.652
REMARK INTER + INTRA:          -5.726
REMARK INTER:                  -5.452
REMARK INTRA:                  -0.274
REMARK UNBOUND:                -0.361
REMARK SMILES O=c1c(O)c(-c2cc(O)c(O)c(O)c2)oc2cc(O)cc(O)c12
REMARK SMILES IDX 5 1 3 2 2 3 1 4 23 5 21 6 20 7 18 8 17 9 16 10 15 11 6 12
REMARK SMILES IDX 7 13 8 14 14 15 10 16 12 17 9 18 11 20 13 22 4 24 22 26
REMARK SMILES IDX 19 28
REMARK H PARENT 9 19 11 21 13 23 4 25 22 27 19 29
REMARK Flexibility Score: inf
ROOT
ATOM      1  C   UNL     1      -5.591   0.401  -3.148  1.00  0.00     0.180 A 
ATOM      2  C   UNL     1      -4.410   0.579  -3.893  1.00  0.00     0.208 A 
ATOM      3  C   UNL     1      -3.938   1.882  -4.116  1.00  0.00     0.238 A 
ATOM      4  O   UNL     1      -2.875   2.053  -4.773  1.00  0.00    -0.285 OA
ATOM      5  C   UNL     1      -4.662   2.982  -3.611  1.00  0.00     0.111 A 
ATOM      6  C   UNL     1      -4.257   4.326  -3.796  1.00  0.00     0.134 A 
ATOM      7  C   UNL     1      -5.038   5.366  -3.269  1.00  0.00     0.093 A 
ATOM      8  C   UNL     1      -6.215   5.088  -2.565  1.00  0.00     0.123 A 
ATOM      9  C   UNL     1      -6.617   3.764  -2.379  1.00  0.00     0.094 A 
ATOM     10  C   UNL     1      -5.852   2.713  -2.895  1.00  0.00     0.146 A 
ATOM     11  O   UNL     1      -6.256   1.463  -2.700  1.00  0.00    -0.452 OA
ENDROOT
BRANCH   1  12
ATOM     12  C   UNL     1      -6.142  -0.941  -2.855  1.00  0.00     0.029 A 
ATOM     13  C   UNL     1      -5.498  -1.817  -1.963  1.00  0.00     0.062 A 
ATOM     14  C   UNL     1      -6.047  -3.075  -1.679  1.00  0.00     0.162 A 
ATOM     15  C   UNL     1      -7.361  -1.328  -3.431  1.00  0.00     0.062 A 
ATOM     16  C   UNL     1      -7.257  -3.463  -2.280  1.00  0.00     0.200 A 
ATOM     17  C   UNL     1      -7.915  -2.582  -3.155  1.00  0.00     0.162 A 
BRANCH  14  18
ATOM     18  O   UNL     1      -5.397  -3.939  -0.800  1.00  0.00    -0.504 OA
ATOM     19  H   UNL     1      -5.113  -4.870  -1.082  1.00  0.00     0.293 HD
ENDBRANCH  14  18
BRANCH  16  20
ATOM     20  O   UNL     1      -7.815  -4.714  -2.012  1.00  0.00    -0.502 OA
ATOM     21  H   UNL     1      -8.798  -4.909  -2.159  1.00  0.00     0.293 HD
ENDBRANCH  16  20
BRANCH  17  22
ATOM     22  O   UNL     1      -9.121  -2.935  -3.759  1.00  0.00    -0.504 OA
ATOM     23  H   UNL     1      -9.158  -3.488  -4.608  1.00  0.00     0.293 HD
ENDBRANCH  17  22
ENDBRANCH   1  12
BRANCH   2  24
ATOM     24  O   UNL     1      -3.737  -0.524  -4.424  1.00  0.00    -0.502 OA
ATOM     25  H   UNL     1      -2.772  -0.477  -4.729  1.00  0.00     0.293 HD
ENDBRANCH   2  24
BRANCH   6  26
ATOM     26  O   UNL     1      -3.090   4.635  -4.495  1.00  0.00    -0.507 OA
ATOM     27  H   UNL     1      -3.116   5.059  -5.415  1.00  0.00     0.293 HD
ENDBRANCH   6  26
BRANCH   8  28
ATOM     28  O   UNL     1      -6.991   6.120  -2.042  1.00  0.00    -0.508 OA
ATOM     29  H   UNL     1      -6.664   6.690  -1.271  1.00  0.00     0.293 HD
ENDBRANCH   8  28
TORSDOF 7
ENDMDL
MODEL 6
REMARK VINA RESULT:    -4.301      6.066      9.550
REMARK INTER + INTRA:          -5.667
REMARK INTER:                  -5.404
REMARK INTRA:                  -0.263
REMARK UNBOUND:                -0.361
REMARK SMILES O=c1c(O)c(-c2cc(O)c(O)c(O)c2)oc2cc(O)cc(O)c12
REMARK SMILES IDX 5 1 3 2 2 3 1 4 23 5 21 6 20 7 18 8 17 9 16 10 15 11 6 12
REMARK SMILES IDX 7 13 8 14 14 15 10 16 12 17 9 18 11 20 13 22 4 24 22 26
REMARK SMILES IDX 19 28
REMARK H PARENT 9 19 11 21 13 23 4 25 22 27 19 29
REMARK Flexibility Score: inf
ROOT
ATOM      1  C   UNL     1      -5.996  -0.017  -2.972  1.00  0.00     0.180 A 
ATOM      2  C   UNL     1      -5.027  -1.000  -2.693  1.00  0.00     0.208 A 
ATOM      3  C   UNL     1      -5.444  -2.324  -2.486  1.00  0.00     0.238 A 
ATOM      4  O   UNL     1      -4.585  -3.215  -2.246  1.00  0.00    -0.285 OA
ATOM      5  C   UNL     1      -6.818  -2.639  -2.539  1.00  0.00     0.111 A 
ATOM      6  C   UNL     1      -7.321  -3.946  -2.336  1.00  0.00     0.134 A 
ATOM      7  C   UNL     1      -8.704  -4.176  -2.396  1.00  0.00     0.093 A 
ATOM      8  C   UNL     1      -9.591  -3.125  -2.652  1.00  0.00     0.123 A 
ATOM      9  C   UNL     1      -9.099  -1.834  -2.853  1.00  0.00     0.094 A 
ATOM     10  C   UNL     1      -7.725  -1.584  -2.799  1.00  0.00     0.146 A 
ATOM     11  O   UNL     1      -7.284  -0.347  -2.999  1.00  0.00    -0.452 OA
ENDROOT
BRANCH   1  12
ATOM     12  C   UNL     1      -5.633   1.397  -3.220  1.00  0.00     0.029 A 
ATOM     13  C   UNL     1      -4.937   1.780  -4.380  1.00  0.00     0.062 A 
ATOM     14  C   UNL     1      -4.623   3.126  -4.610  1.00  0.00     0.162 A 
ATOM     15  C   UNL     1      -6.042   2.384  -2.312  1.00  0.00     0.062 A 
ATOM     16  C   UNL     1      -5.016   4.106  -3.682  1.00  0.00     0.200 A 
ATOM     17  C   UNL     1      -5.731   3.730  -2.532  1.00  0.00     0.162 A 
BRANCH  14  18
ATOM     18  O   UNL     1      -3.926   3.495  -5.759  1.00  0.00    -0.504 OA
ATOM     19  H   UNL     1      -3.190   4.192  -5.733  1.00  0.00     0.293 HD
ENDBRANCH  14  18
BRANCH  16  20
ATOM     20  O   UNL     1      -4.708   5.451  -3.893  1.00  0.00    -0.502 OA
ATOM     21  H   UNL     1      -4.083   5.752  -4.632  1.00  0.00     0.293 HD
ENDBRANCH  16  20
BRANCH  17  22
ATOM     22  O   UNL     1      -6.143   4.680  -1.598  1.00  0.00    -0.504 OA
ATOM     23  H   UNL     1      -7.059   4.649  -1.164  1.00  0.00     0.293 HD
ENDBRANCH  17  22
ENDBRANCH   1  12
BRANCH   2  24
ATOM     24  O   UNL     1      -3.677  -0.654  -2.598  1.00  0.00    -0.502 OA
ATOM     25  H   UNL     1      -2.947  -1.183  -3.059  1.00  0.00     0.293 HD
ENDBRANCH   2  24
BRANCH   6  26
ATOM     26  O   UNL     1      -6.462  -5.015  -2.077  1.00  0.00    -0.507 OA
ATOM     27  H   UNL     1      -6.791  -5.872  -1.649  1.00  0.00     0.293 HD
ENDBRANCH   6  26
BRANCH   8  28
ATOM     28  O   UNL     1     -10.965  -3.352  -2.711  1.00  0.00    -0.508 OA
ATOM     29  H   UNL     1     -11.363  -4.251  -2.468  1.00  0.00     0.293 HD
ENDBRANCH   8  28
TORSDOF 7
ENDMDL
MODEL 7
REMARK VINA RESULT:    -4.233      1.765      6.657
REMARK INTER + INTRA:          -5.584
REMARK INTER:                  -5.487
REMARK INTRA:                  -0.097
REMARK UNBOUND:                -0.361
REMARK SMILES O=c1c(O)c(-c2cc(O)c(O)c(O)c2)oc2cc(O)cc(O)c12
REMARK SMILES IDX 5 1 3 2 2 3 1 4 23 5 21 6 20 7 18 8 17 9 16 10 15 11 6 12
REMARK SMILES IDX 7 13 8 14 14 15 10 16 12 17 9 18 11 20 13 22 4 24 22 26
REMARK SMILES IDX 19 28
REMARK H PARENT 9 19 11 21 13 23 4 25 22 27 19 29
REMARK Flexibility Score: inf
ROOT
ATOM      1  C   UNL     1      -8.346   6.106  -4.212  1.00  0.00     0.180 A 
ATOM      2  C   UNL     1      -9.139   6.971  -3.434  1.00  0.00     0.208 A 
ATOM      3  C   UNL     1     -10.493   7.132  -3.767  1.00  0.00     0.238 A 
ATOM      4  O   UNL     1     -11.216   7.895  -3.070  1.00  0.00    -0.285 OA
ATOM      5  C   UNL     1     -11.025   6.447  -4.879  1.00  0.00     0.111 A 
ATOM      6  C   UNL     1     -12.376   6.559  -5.285  1.00  0.00     0.134 A 
ATOM      7  C   UNL     1     -12.826   5.852  -6.409  1.00  0.00     0.093 A 
ATOM      8  C   UNL     1     -11.951   5.037  -7.137  1.00  0.00     0.123 A 
ATOM      9  C   UNL     1     -10.617   4.923  -6.740  1.00  0.00     0.094 A 
ATOM     10  C   UNL     1     -10.150   5.619  -5.622  1.00  0.00     0.146 A 
ATOM     11  O   UNL     1      -8.877   5.488  -5.264  1.00  0.00    -0.452 OA
ENDROOT
BRANCH   1  12
ATOM     12  C   UNL     1      -6.915   5.869  -3.914  1.00  0.00     0.029 A 
ATOM     13  C   UNL     1      -5.999   6.933  -3.834  1.00  0.00     0.062 A 
ATOM     14  C   UNL     1      -4.653   6.691  -3.526  1.00  0.00     0.162 A 
ATOM     15  C   UNL     1      -6.473   4.565  -3.647  1.00  0.00     0.062 A 
ATOM     16  C   UNL     1      -4.214   5.379  -3.284  1.00  0.00     0.200 A 
ATOM     17  C   UNL     1      -5.131   4.314  -3.342  1.00  0.00     0.162 A 
BRANCH  14  18
ATOM     18  O   UNL     1      -3.752   7.752  -3.457  1.00  0.00    -0.504 OA
ATOM     19  H   UNL     1      -3.231   7.951  -2.610  1.00  0.00     0.293 HD
ENDBRANCH  14  18
BRANCH  16  20
ATOM     20  O   UNL     1      -2.876   5.120  -2.981  1.00  0.00    -0.502 OA
ATOM     21  H   UNL     1      -2.375   5.634  -2.266  1.00  0.00     0.293 HD
ENDBRANCH  16  20
BRANCH  17  22
ATOM     22  O   UNL     1      -4.728   3.002  -3.097  1.00  0.00    -0.504 OA
ATOM     23  H   UNL     1      -4.080   2.767  -2.354  1.00  0.00     0.293 HD
ENDBRANCH  17  22
ENDBRANCH   1  12
BRANCH   2  24
ATOM     24  O   UNL     1      -8.578   7.675  -2.367  1.00  0.00    -0.502 OA
ATOM     25  H   UNL     1      -7.689   8.156  -2.441  1.00  0.00     0.293 HD
ENDBRANCH   2  24
BRANCH   6  26
ATOM     26  O   UNL     1     -13.273   7.364  -4.581  1.00  0.00    -0.507 OA
ATOM     27  H   UNL     1     -13.707   7.052  -3.720  1.00  0.00     0.293 HD
ENDBRANCH   6  26
BRANCH   8  28
ATOM     28  O   UNL     1     -12.397   4.335  -8.254  1.00  0.00    -0.508 OA
ATOM     29  H   UNL     1     -13.205   3.726  -8.208  1.00  0.00     0.293 HD
ENDBRANCH   8  28
TORSDOF 7
ENDMDL
MODEL 8
REMARK VINA RESULT:    -4.222      4.293      6.580
REMARK INTER + INTRA:          -5.570
REMARK INTER:                  -5.533
REMARK INTRA:                  -0.038
REMARK UNBOUND:                -0.361
REMARK SMILES O=c1c(O)c(-c2cc(O)c(O)c(O)c2)oc2cc(O)cc(O)c12
REMARK SMILES IDX 5 1 3 2 2 3 1 4 23 5 21 6 20 7 18 8 17 9 16 10 15 11 6 12
REMARK SMILES IDX 7 13 8 14 14 15 10 16 12 17 9 18 11 20 13 22 4 24 22 26
REMARK SMILES IDX 19 28
REMARK H PARENT 9 19 11 21 13 23 4 25 22 27 19 29
REMARK Flexibility Score: inf
ROOT
ATOM      1  C   UNL     1      -5.420   2.759  -3.181  1.00  0.00     0.180 A 
ATOM      2  C   UNL     1      -4.142   3.337  -3.067  1.00  0.00     0.208 A 
ATOM      3  C   UNL     1      -4.017   4.732  -3.157  1.00  0.00     0.238 A 
ATOM      4  O   UNL     1      -2.879   5.262  -3.046  1.00  0.00    -0.285 OA
ATOM      5  C   UNL     1      -5.165   5.521  -3.381  1.00  0.00     0.111 A 
ATOM      6  C   UNL     1      -5.125   6.932  -3.490  1.00  0.00     0.134 A 
ATOM      7  C   UNL     1      -6.310   7.646  -3.721  1.00  0.00     0.093 A 
ATOM      8  C   UNL     1      -7.532   6.976  -3.848  1.00  0.00     0.123 A 
ATOM      9  C   UNL     1      -7.576   5.585  -3.741  1.00  0.00     0.094 A 
ATOM     10  C   UNL     1      -6.407   4.856  -3.509  1.00  0.00     0.146 A 
ATOM     11  O   UNL     1      -6.478   3.533  -3.406  1.00  0.00    -0.452 OA
ENDROOT
BRANCH   1  12
ATOM     12  C   UNL     1      -5.635   1.297  -3.077  1.00  0.00     0.029 A 
ATOM     13  C   UNL     1      -4.885   0.392  -3.847  1.00  0.00     0.062 A 
ATOM     14  C   UNL     1      -5.085  -0.989  -3.719  1.00  0.00     0.162 A 
ATOM     15  C   UNL     1      -6.564   0.800  -2.151  1.00  0.00     0.062 A 
ATOM     16  C   UNL     1      -6.035  -1.477  -2.805  1.00  0.00     0.200 A 
ATOM     17  C   UNL     1      -6.773  -0.576  -2.018  1.00  0.00     0.162 A 
BRANCH  14  18
ATOM     18  O   UNL     1      -4.341  -1.878  -4.492  1.00  0.00    -0.504 OA
ATOM     19  H   UNL     1      -3.523  -1.576  -5.009  1.00  0.00     0.293 HD
ENDBRANCH  14  18
BRANCH  16  20
ATOM     20  O   UNL     1      -6.251  -2.849  -2.668  1.00  0.00    -0.502 OA
ATOM     21  H   UNL     1      -7.180  -3.244  -2.586  1.00  0.00     0.293 HD
ENDBRANCH  16  20
BRANCH  17  22
ATOM     22  O   UNL     1      -7.715  -1.030  -1.096  1.00  0.00    -0.504 OA
ATOM     23  H   UNL     1      -8.211  -0.400  -0.477  1.00  0.00     0.293 HD
ENDBRANCH  17  22
ENDBRANCH   1  12
BRANCH   2  24
ATOM     24  O   UNL     1      -3.015   2.529  -2.895  1.00  0.00    -0.502 OA
ATOM     25  H   UNL     1      -2.733   1.837  -3.578  1.00  0.00     0.293 HD
ENDBRANCH   2  24
BRANCH   6  26
ATOM     26  O   UNL     1      -3.921   7.628  -3.369  1.00  0.00    -0.507 OA
ATOM     27  H   UNL     1      -3.415   7.964  -4.180  1.00  0.00     0.293 HD
ENDBRANCH   6  26
BRANCH   8  28
ATOM     28  O   UNL     1      -8.710   7.684  -4.079  1.00  0.00    -0.508 OA
ATOM     29  H   UNL     1      -9.179   7.653  -4.977  1.00  0.00     0.293 HD
ENDBRANCH   8  28
TORSDOF 7
ENDMDL
MODEL 9
REMARK VINA RESULT:    -4.145      1.898      3.759
REMARK INTER + INTRA:          -5.475
REMARK INTER:                  -5.111
REMARK INTRA:                  -0.364
REMARK UNBOUND:                -0.361
REMARK SMILES O=c1c(O)c(-c2cc(O)c(O)c(O)c2)oc2cc(O)cc(O)c12
REMARK SMILES IDX 5 1 3 2 2 3 1 4 23 5 21 6 20 7 18 8 17 9 16 10 15 11 6 12
REMARK SMILES IDX 7 13 8 14 14 15 10 16 12 17 9 18 11 20 13 22 4 24 22 26
REMARK SMILES IDX 19 28
REMARK H PARENT 9 19 11 21 13 23 4 25 22 27 19 29
REMARK Flexibility Score: inf
ROOT
ATOM      1  C   UNL     1     -10.475   5.683  -5.444  1.00  0.00     0.180 A 
ATOM      2  C   UNL     1      -9.076   5.825  -5.506  1.00  0.00     0.208 A 
ATOM      3  C   UNL     1      -8.415   6.491  -4.462  1.00  0.00     0.238 A 
ATOM      4  O   UNL     1      -7.161   6.615  -4.500  1.00  0.00    -0.285 OA
ATOM      5  C   UNL     1      -9.162   7.021  -3.389  1.00  0.00     0.111 A 
ATOM      6  C   UNL     1      -8.574   7.710  -2.301  1.00  0.00     0.134 A 
ATOM      7  C   UNL     1      -9.388   8.216  -1.276  1.00  0.00     0.093 A 
ATOM      8  C   UNL     1     -10.776   8.047  -1.320  1.00  0.00     0.123 A 
ATOM      9  C   UNL     1     -11.361   7.368  -2.390  1.00  0.00     0.094 A 
ATOM     10  C   UNL     1     -10.567   6.855  -3.421  1.00  0.00     0.146 A 
ATOM     11  O   UNL     1     -11.149   6.208  -4.425  1.00  0.00    -0.452 OA
ENDROOT
BRANCH   1  12
ATOM     12  C   UNL     1     -11.241   4.977  -6.496  1.00  0.00     0.029 A 
ATOM     13  C   UNL     1     -11.401   3.580  -6.473  1.00  0.00     0.062 A 
ATOM     14  C   UNL     1     -12.149   2.932  -7.464  1.00  0.00     0.162 A 
ATOM     15  C   UNL     1     -11.872   5.719  -7.506  1.00  0.00     0.062 A 
ATOM     16  C   UNL     1     -12.758   3.682  -8.485  1.00  0.00     0.200 A 
ATOM     17  C   UNL     1     -12.620   5.081  -8.501  1.00  0.00     0.162 A 
BRANCH  14  18
ATOM     18  O   UNL     1     -12.295   1.546  -7.436  1.00  0.00    -0.504 OA
ATOM     19  H   UNL     1     -12.559   1.023  -8.263  1.00  0.00     0.293 HD
ENDBRANCH  14  18
BRANCH  16  20
ATOM     20  O   UNL     1     -13.503   3.052  -9.483  1.00  0.00    -0.502 OA
ATOM     21  H   UNL     1     -14.067   2.230  -9.299  1.00  0.00     0.293 HD
ENDBRANCH  16  20
BRANCH  17  22
ATOM     22  O   UNL     1     -13.219   5.852  -9.495  1.00  0.00    -0.504 OA
ATOM     23  H   UNL     1     -14.163   5.678  -9.818  1.00  0.00     0.293 HD
ENDBRANCH  17  22
ENDBRANCH   1  12
BRANCH   2  24
ATOM     24  O   UNL     1      -8.364   5.334  -6.603  1.00  0.00    -0.502 OA
ATOM     25  H   UNL     1      -8.420   5.758  -7.521  1.00  0.00     0.293 HD
ENDBRANCH   2  24
BRANCH   6  26
ATOM     26  O   UNL     1      -7.193   7.895  -2.231  1.00  0.00    -0.507 OA
ATOM     27  H   UNL     1      -6.769   8.479  -1.519  1.00  0.00     0.293 HD
ENDBRANCH   6  26
BRANCH   8  28
ATOM     28  O   UNL     1     -11.585   8.549  -0.303  1.00  0.00    -0.508 OA
ATOM     29  H   UNL     1     -12.593   8.590  -0.399  1.00  0.00     0.293 HD
ENDBRANCH   8  28
TORSDOF 7
ENDMDL
