MODEL 1
REMARK VINA RESULT:    16.865      0.000      0.000
REMARK INTER + INTRA:          28.913
REMARK INTER:                  25.738
REMARK INTRA:                   3.175
REMARK UNBOUND:                 3.175
REMARK SMILES CC1=CCC[C@H](C)C(=O)C[C@H](C(C)C)C(=O)C1
REMARK SMILES IDX 8 1 9 2 6 3 7 4 5 5 4 6 3 7 2 8 1 9 10 11 11 12 15 13 16 14
REMARK SMILES IDX 17 15 12 17 13 18 14 19
REMARK H PARENT
REMARK Flexibility Score: 70.00
ROOT
ATOM      1  C   UNL     1      35.015  12.185  39.962  1.00  0.00     0.136 C 
ATOM      2  O   UNL     1      33.964  12.648  39.544  1.00  0.00    -0.299 OA
ENDROOT
BRANCH   1   3
ATOM      3  C   UNL     1      35.540  10.880  39.402  1.00  0.00     0.053 C 
ATOM      4  C   UNL     1      37.056  10.809  39.612  1.00  0.00     0.016 C 
BRANCH   3   5
ATOM      5  C   UNL     1      34.857   9.646  40.040  1.00  0.00     0.015 C 
BRANCH   5   6
ATOM      6  C   UNL     1      33.430   9.394  39.531  1.00  0.00     0.028 C 
BRANCH   6   7
ATOM      7  C   UNL     1      32.412  10.153  40.349  1.00  0.00    -0.028 C 
ATOM      8  C   UNL     1      32.653  10.726  41.550  1.00  0.00    -0.070 CG0
ATOM      9  C   UNL     1      31.517  11.444  42.234  1.00  0.00     0.039 C 
ATOM     10  G   UNL     1      34.006  10.666  42.235  1.00  0.00     0.000 G0
ENDBRANCH   6   7
ENDBRANCH   5   6
ENDBRANCH   3   5
ENDBRANCH   1   3
BRANCH   1  11
ATOM     11  C   UNL     1      35.742  12.896  41.078  1.00  0.00     0.087 C 
BRANCH  11  12
ATOM     12  C   UNL     1      34.862  13.178  42.324  1.00  0.00     0.066 C 
BRANCH  12  13
ATOM     13  C   UNL     1      34.457  11.868  42.995  1.00  0.00     0.140 C 
ATOM     14  O   UNL     1      34.414  11.822  44.217  1.00  0.00    -0.299 OA
BRANCH  13  15
ATOM     15  C   UNL     1      34.009  10.643  42.222  1.00  0.00     0.106 CG0
ATOM     16  G   UNL     1      32.638  10.773  41.583  1.00  0.00     0.000 G0
ENDBRANCH  13  15
ENDBRANCH  12  13
BRANCH  12  17
ATOM     17  C   UNL     1      35.597  14.105  43.345  1.00  0.00    -0.006 C 
ATOM     18  C   UNL     1      37.124  14.094  43.146  1.00  0.00     0.008 C 
ATOM     19  C   UNL     1      35.097  15.558  43.252  1.00  0.00     0.008 C 
ENDBRANCH  12  17
ENDBRANCH  11  12
ENDBRANCH   1  11
TORSDOF 1
ENDMDL
MODEL 2
REMARK VINA RESULT:    17.251      1.996      4.102
REMARK INTER + INTRA:          29.503
REMARK INTER:                  29.458
REMARK INTRA:                   0.045
REMARK UNBOUND:                 3.175
REMARK SMILES CC1=CCC[C@H](C)C(=O)C[C@H](C(C)C)C(=O)C1
REMARK SMILES IDX 8 1 9 2 6 3 7 4 5 5 4 6 3 7 2 8 1 9 10 11 11 12 15 13 16 14
REMARK SMILES IDX 17 15 12 17 13 18 14 19
REMARK H PARENT
REMARK Flexibility Score: 70.00
ROOT
ATOM      1  C   UNL     1      34.404   9.271  39.618  1.00  0.00     0.136 C 
ATOM      2  O   UNL     1      34.448   8.608  38.592  1.00  0.00    -0.299 OA
ENDROOT
BRANCH   1   3
ATOM      3  C   UNL     1      35.631   9.384  40.497  1.00  0.00     0.053 C 
ATOM      4  C   UNL     1      35.954   8.011  41.099  1.00  0.00     0.016 C 
BRANCH   3   5
ATOM      5  C   UNL     1      36.859   9.929  39.729  1.00  0.00     0.015 C 
BRANCH   5   6
ATOM      6  C   UNL     1      36.909  11.462  39.647  1.00  0.00     0.028 C 
BRANCH   6   7
ATOM      7  C   UNL     1      36.656  12.094  40.994  1.00  0.00    -0.028 C 
ATOM      8  C   UNL     1      35.650  12.954  41.272  1.00  0.00    -0.070 CG0
ATOM      9  C   UNL     1      35.546  13.496  42.674  1.00  0.00     0.039 C 
ATOM     10  G   UNL     1      34.636  13.398  40.233  1.00  0.00     0.000 G0
ENDBRANCH   6   7
ENDBRANCH   5   6
ENDBRANCH   3   5
ENDBRANCH   1   3
BRANCH   1  11
ATOM     11  C   UNL     1      33.101   9.919  40.021  1.00  0.00     0.087 C 
BRANCH  11  12
ATOM     12  C   UNL     1      33.274  11.174  40.918  1.00  0.00     0.066 C 
BRANCH  12  13
ATOM     13  C   UNL     1      33.471  12.419  40.058  1.00  0.00     0.140 C 
ATOM     14  O   UNL     1      32.618  12.701  39.228  1.00  0.00    -0.299 OA
BRANCH  13  15
ATOM     15  C   UNL     1      34.626  13.383  40.244  1.00  0.00     0.106 CG0
ATOM     16  G   UNL     1      35.657  12.934  41.264  1.00  0.00     0.000 G0
ENDBRANCH  13  15
ENDBRANCH  12  13
BRANCH  12  17
ATOM     17  C   UNL     1      32.053  11.365  41.875  1.00  0.00    -0.006 C 
ATOM     18  C   UNL     1      31.051  10.199  41.779  1.00  0.00     0.008 C 
ATOM     19  C   UNL     1      32.500  11.512  43.341  1.00  0.00     0.008 C 
ENDBRANCH  12  17
ENDBRANCH  11  12
ENDBRANCH   1  11
TORSDOF 1
ENDMDL
MODEL 3
REMARK VINA RESULT:    17.756      1.356      3.423
REMARK INTER + INTRA:          30.272
REMARK INTER:                  29.476
REMARK INTRA:                   0.797
REMARK UNBOUND:                 3.175
REMARK SMILES CC1=CCC[C@H](C)C(=O)C[C@H](C(C)C)C(=O)C1
REMARK SMILES IDX 8 1 9 2 6 3 7 4 5 5 4 6 3 7 2 8 1 9 10 11 11 12 15 13 16 14
REMARK SMILES IDX 17 15 12 17 13 18 14 19
REMARK H PARENT
REMARK Flexibility Score: 70.00
ROOT
ATOM      1  C   UNL     1      33.160  11.148  42.469  1.00  0.00     0.136 C 
ATOM      2  O   UNL     1      33.667  10.276  43.159  1.00  0.00    -0.299 OA
ENDROOT
BRANCH   1   3
ATOM      3  C   UNL     1      32.026  10.801  41.527  1.00  0.00     0.053 C 
ATOM      4  C   UNL     1      30.687  11.047  42.230  1.00  0.00     0.016 C 
BRANCH   3   5
ATOM      5  C   UNL     1      32.089  11.606  40.207  1.00  0.00     0.015 C 
BRANCH   5   6
ATOM      6  C   UNL     1      33.057  11.020  39.168  1.00  0.00     0.028 C 
BRANCH   6   7
ATOM      7  C   UNL     1      33.829   9.852  39.732  1.00  0.00    -0.028 C 
ATOM      8  C   UNL     1      35.117   9.897  40.141  1.00  0.00    -0.070 CG0
ATOM      9  C   UNL     1      35.737   8.632  40.677  1.00  0.00     0.039 C 
ATOM     10  G   UNL     1      35.960  11.158  40.073  1.00  0.00     0.000 G0
ENDBRANCH   6   7
ENDBRANCH   5   6
ENDBRANCH   3   5
ENDBRANCH   1   3
BRANCH   1  11
ATOM     11  C   UNL     1      33.716  12.551  42.528  1.00  0.00     0.087 C 
BRANCH  11  12
ATOM     12  C   UNL     1      35.220  12.647  42.159  1.00  0.00     0.066 C 
BRANCH  12  13
ATOM     13  C   UNL     1      35.416  12.419  40.663  1.00  0.00     0.140 C 
ATOM     14  O   UNL     1      35.149  13.329  39.890  1.00  0.00    -0.299 OA
BRANCH  13  15
ATOM     15  C   UNL     1      36.016  11.151  40.087  1.00  0.00     0.106 CG0
ATOM     16  G   UNL     1      35.107   9.938  40.163  1.00  0.00     0.000 G0
ENDBRANCH  13  15
ENDBRANCH  12  13
BRANCH  12  17
ATOM     17  C   UNL     1      35.825  14.026  42.580  1.00  0.00    -0.006 C 
ATOM     18  C   UNL     1      34.825  14.878  43.383  1.00  0.00     0.008 C 
ATOM     19  C   UNL     1      37.106  13.850  43.415  1.00  0.00     0.008 C 
ENDBRANCH  12  17
ENDBRANCH  11  12
ENDBRANCH   1  11
TORSDOF 1
ENDMDL
MODEL 4
REMARK VINA RESULT:    18.695      2.535      5.220
REMARK INTER + INTRA:          31.707
REMARK INTER:                  28.886
REMARK INTRA:                   2.821
REMARK UNBOUND:                 3.175
REMARK SMILES CC1=CCC[C@H](C)C(=O)C[C@H](C(C)C)C(=O)C1
REMARK SMILES IDX 8 1 9 2 6 3 7 4 5 5 4 6 3 7 2 8 1 9 10 11 11 12 15 13 16 14
REMARK SMILES IDX 17 15 12 17 13 18 14 19
REMARK H PARENT
REMARK Flexibility Score: 70.00
ROOT
ATOM      1  C   UNL     1      36.099  13.169  42.113  1.00  0.00     0.136 C 
ATOM      2  O   UNL     1      37.125  13.448  41.511  1.00  0.00    -0.299 OA
ENDROOT
BRANCH   1   3
ATOM      3  C   UNL     1      35.748  13.906  43.388  1.00  0.00     0.053 C 
ATOM      4  C   UNL     1      36.959  14.723  43.854  1.00  0.00     0.016 C 
BRANCH   3   5
ATOM      5  C   UNL     1      34.518  14.829  43.217  1.00  0.00     0.015 C 
BRANCH   5   6
ATOM      6  C   UNL     1      34.877  16.308  43.005  1.00  0.00     0.028 C 
BRANCH   6   7
ATOM      7  C   UNL     1      34.257  16.848  41.739  1.00  0.00    -0.028 C 
ATOM      8  C   UNL     1      34.218  16.198  40.554  1.00  0.00    -0.070 CG0
ATOM      9  C   UNL     1      33.561  16.888  39.387  1.00  0.00     0.039 C 
ATOM     10  G   UNL     1      34.814  14.816  40.353  1.00  0.00     0.000 G0
ENDBRANCH   6   7
ENDBRANCH   5   6
ENDBRANCH   3   5
ENDBRANCH   1   3
BRANCH   1  11
ATOM     11  C   UNL     1      35.226  12.047  41.603  1.00  0.00     0.087 C 
BRANCH  11  12
ATOM     12  C   UNL     1      33.795  12.495  41.203  1.00  0.00     0.066 C 
BRANCH  12  13
ATOM     13  C   UNL     1      33.859  13.653  40.211  1.00  0.00     0.140 C 
ATOM     14  O   UNL     1      33.030  13.704  39.313  1.00  0.00    -0.299 OA
BRANCH  13  15
ATOM     15  C   UNL     1      34.841  14.802  40.338  1.00  0.00     0.106 CG0
ATOM     16  G   UNL     1      34.193  16.161  40.530  1.00  0.00     0.000 G0
ENDBRANCH  13  15
ENDBRANCH  12  13
BRANCH  12  17
ATOM     17  C   UNL     1      32.972  11.311  40.601  1.00  0.00    -0.006 C 
ATOM     18  C   UNL     1      33.878  10.175  40.089  1.00  0.00     0.008 C 
ATOM     19  C   UNL     1      31.984  10.729  41.628  1.00  0.00     0.008 C 
ENDBRANCH  12  17
ENDBRANCH  11  12
ENDBRANCH   1  11
TORSDOF 1
ENDMDL
MODEL 5
REMARK VINA RESULT:    19.127      1.759      3.851
REMARK INTER + INTRA:          32.366
REMARK INTER:                  29.236
REMARK INTRA:                   3.130
REMARK UNBOUND:                 3.175
REMARK SMILES CC1=CCC[C@H](C)C(=O)C[C@H](C(C)C)C(=O)C1
REMARK SMILES IDX 8 1 9 2 6 3 7 4 5 5 4 6 3 7 2 8 1 9 10 11 11 12 15 13 16 14
REMARK SMILES IDX 17 15 12 17 13 18 14 19
REMARK H PARENT
REMARK Flexibility Score: 70.00
ROOT
ATOM      1  C   UNL     1      34.784  13.385  40.478  1.00  0.00     0.136 C 
ATOM      2  O   UNL     1      34.117  14.404  40.385  1.00  0.00    -0.299 OA
ENDROOT
BRANCH   1   3
ATOM      3  C   UNL     1      36.081  13.400  41.258  1.00  0.00     0.053 C 
ATOM      4  C   UNL     1      35.781  13.643  42.741  1.00  0.00     0.016 C 
BRANCH   3   5
ATOM      5  C   UNL     1      36.889  12.091  41.088  1.00  0.00     0.015 C 
BRANCH   5   6
ATOM      6  C   UNL     1      36.334  11.157  40.002  1.00  0.00     0.028 C 
BRANCH   6   7
ATOM      7  C   UNL     1      36.163   9.750  40.521  1.00  0.00    -0.028 C 
ATOM      8  C   UNL     1      35.136   8.927  40.209  1.00  0.00    -0.070 CG0
ATOM      9  C   UNL     1      35.119   7.550  40.822  1.00  0.00     0.039 C 
ATOM     10  G   UNL     1      34.004   9.336  39.283  1.00  0.00     0.000 G0
ENDBRANCH   6   7
ENDBRANCH   5   6
ENDBRANCH   3   5
ENDBRANCH   1   3
BRANCH   1  11
ATOM     11  C   UNL     1      34.329  12.138  39.759  1.00  0.00     0.087 C 
BRANCH  11  12
ATOM     12  C   UNL     1      32.982  11.568  40.278  1.00  0.00     0.066 C 
BRANCH  12  13
ATOM     13  C   UNL     1      32.898  10.069  40.003  1.00  0.00     0.140 C 
ATOM     14  O   UNL     1      31.866   9.476  40.286  1.00  0.00    -0.299 OA
BRANCH  13  15
ATOM     15  C   UNL     1      33.995   9.290  39.304  1.00  0.00     0.106 CG0
ATOM     16  G   UNL     1      35.162   8.913  40.198  1.00  0.00     0.000 G0
ENDBRANCH  13  15
ENDBRANCH  12  13
BRANCH  12  17
ATOM     17  C   UNL     1      32.793  11.849  41.804  1.00  0.00    -0.006 C 
ATOM     18  C   UNL     1      31.346  11.601  42.267  1.00  0.00     0.008 C 
ATOM     19  C   UNL     1      33.740  10.987  42.659  1.00  0.00     0.008 C 
ENDBRANCH  12  17
ENDBRANCH  11  12
ENDBRANCH   1  11
TORSDOF 1
ENDMDL
MODEL 6
REMARK VINA RESULT:    19.389      1.704      3.837
REMARK INTER + INTRA:          32.766
REMARK INTER:                  30.659
REMARK INTRA:                   2.107
REMARK UNBOUND:                 3.175
REMARK SMILES CC1=CCC[C@H](C)C(=O)C[C@H](C(C)C)C(=O)C1
REMARK SMILES IDX 8 1 9 2 6 3 7 4 5 5 4 6 3 7 2 8 1 9 10 11 11 12 15 13 16 14
REMARK SMILES IDX 17 15 12 17 13 18 14 19
REMARK H PARENT
REMARK Flexibility Score: 70.00
ROOT
ATOM      1  C   UNL     1      35.068   9.366  39.647  1.00  0.00     0.136 C 
ATOM      2  O   UNL     1      34.595   8.923  38.611  1.00  0.00    -0.299 OA
ENDROOT
BRANCH   1   3
ATOM      3  C   UNL     1      36.518   9.798  39.690  1.00  0.00     0.053 C 
ATOM      4  C   UNL     1      37.073   9.863  38.262  1.00  0.00     0.016 C 
BRANCH   3   5
ATOM      5  C   UNL     1      36.707  11.163  40.395  1.00  0.00     0.015 C 
BRANCH   5   6
ATOM      6  C   UNL     1      35.673  12.222  39.985  1.00  0.00     0.028 C 
BRANCH   6   7
ATOM      7  C   UNL     1      35.513  13.277  41.052  1.00  0.00    -0.028 C 
ATOM      8  C   UNL     1      34.854  13.106  42.221  1.00  0.00    -0.070 CG0
ATOM      9  C   UNL     1      34.787  14.271  43.175  1.00  0.00     0.039 C 
ATOM     10  G   UNL     1      34.175  11.803  42.601  1.00  0.00     0.000 G0
ENDBRANCH   6   7
ENDBRANCH   5   6
ENDBRANCH   3   5
ENDBRANCH   1   3
BRANCH   1  11
ATOM     11  C   UNL     1      34.208   9.419  40.887  1.00  0.00     0.087 C 
BRANCH  11  12
ATOM     12  C   UNL     1      32.965  10.339  40.752  1.00  0.00     0.066 C 
BRANCH  12  13
ATOM     13  C   UNL     1      32.952  11.379  41.868  1.00  0.00     0.140 C 
ATOM     14  O   UNL     1      31.880  11.857  42.214  1.00  0.00    -0.299 OA
BRANCH  13  15
ATOM     15  C   UNL     1      34.192  11.783  42.642  1.00  0.00     0.106 CG0
ATOM     16  G   UNL     1      34.816  13.090  42.185  1.00  0.00     0.000 G0
ENDBRANCH  13  15
ENDBRANCH  12  13
BRANCH  12  17
ATOM     17  C   UNL     1      32.923  11.041  39.356  1.00  0.00    -0.006 C 
ATOM     18  C   UNL     1      31.935  10.359  38.392  1.00  0.00     0.008 C 
ATOM     19  C   UNL     1      32.543  12.528  39.483  1.00  0.00     0.008 C 
ENDBRANCH  12  17
ENDBRANCH  11  12
ENDBRANCH   1  11
TORSDOF 1
ENDMDL
