MODEL 1
REMARK VINA RESULT:    -3.223      0.000      0.000
REMARK INTER + INTRA:          -3.506
REMARK INTER:                  -3.506
REMARK INTRA:                   0.000
REMARK UNBOUND:                 0.000
REMARK SMILES [NH3+]CC(=O)[O-]
REMARK SMILES IDX 2 1 1 2 3 6 4 7 5 8
REMARK H PARENT 1 3 1 4 1 5
REMARK Flexibility Score: inf
ROOT
ATOM      1  C   UNL     1     182.767 180.011 176.908  1.00  0.00     0.312 C 
ENDROOT
BRANCH   1   2
ATOM      2  N   UNL     1     184.124 179.495 177.085  1.00  0.00    -0.353 N 
ATOM      3  H   UNL     1     184.399 178.918 176.257  1.00  0.00     0.344 HD
ATOM      4  H   UNL     1     184.786 180.299 177.175  1.00  0.00     0.344 HD
ATOM      5  H   UNL     1     184.176 178.914 177.954  1.00  0.00     0.344 HD
ENDBRANCH   1   2
BRANCH   1   6
ATOM      6  C   UNL     1     182.357 180.834 178.089  1.00  0.00     0.096 C 
ATOM      7  O   UNL     1     181.810 180.288 179.083  1.00  0.00    -0.544 OA
ATOM      8  O   UNL     1     182.533 182.212 178.071  1.00  0.00    -0.544 OA
ENDBRANCH   1   6
TORSDOF 2
ENDMDL
MODEL 2
REMARK VINA RESULT:    -3.191     18.385     18.472
REMARK INTER + INTRA:          -3.470
REMARK INTER:                  -3.470
REMARK INTRA:                   0.000
REMARK UNBOUND:                 0.000
REMARK SMILES [NH3+]CC(=O)[O-]
REMARK SMILES IDX 2 1 1 2 3 6 4 7 5 8
REMARK H PARENT 1 3 1 4 1 5
REMARK Flexibility Score: inf
ROOT
ATOM      1  C   UNL     1     166.163 180.517 171.964  1.00  0.00     0.312 C 
ENDROOT
BRANCH   1   2
ATOM      2  N   UNL     1     166.704 181.861 171.767  1.00  0.00    -0.353 N 
ATOM      3  H   UNL     1     167.237 181.905 170.868  1.00  0.00     0.344 HD
ATOM      4  H   UNL     1     165.915 182.546 171.728  1.00  0.00     0.344 HD
ATOM      5  H   UNL     1     167.334 182.115 172.564  1.00  0.00     0.344 HD
ENDBRANCH   1   2
BRANCH   1   6
ATOM      6  C   UNL     1     165.451 180.049 170.734  1.00  0.00     0.096 C 
ATOM      7  O   UNL     1     164.225 180.292 170.579  1.00  0.00    -0.544 OA
ATOM      8  O   UNL     1     166.130 179.299 169.781  1.00  0.00    -0.544 OA
ENDBRANCH   1   6
TORSDOF 2
ENDMDL
MODEL 3
REMARK VINA RESULT:    -3.190      2.229      2.408
REMARK INTER + INTRA:          -3.470
REMARK INTER:                  -3.470
REMARK INTRA:                   0.000
REMARK UNBOUND:                 0.000
REMARK SMILES [NH3+]CC(=O)[O-]
REMARK SMILES IDX 2 1 1 2 3 6 4 7 5 8
REMARK H PARENT 1 3 1 4 1 5
REMARK Flexibility Score: inf
ROOT
ATOM      1  C   UNL     1     181.752 180.517 175.327  1.00  0.00     0.312 C 
ENDROOT
BRANCH   1   2
ATOM      2  N   UNL     1     182.593 181.211 174.352  1.00  0.00    -0.353 N 
ATOM      3  H   UNL     1     182.584 180.698 173.440  1.00  0.00     0.344 HD
ATOM      4  H   UNL     1     182.219 182.176 174.203  1.00  0.00     0.344 HD
ATOM      5  H   UNL     1     183.574 181.279 174.709  1.00  0.00     0.344 HD
ENDBRANCH   1   2
BRANCH   1   6
ATOM      6  C   UNL     1     181.794 181.213 176.651  1.00  0.00     0.096 C 
ATOM      7  O   UNL     1     180.854 181.976 176.997  1.00  0.00    -0.544 OA
ATOM      8  O   UNL     1     182.897 181.060 177.482  1.00  0.00    -0.544 OA
ENDBRANCH   1   6
TORSDOF 2
ENDMDL
MODEL 4
REMARK VINA RESULT:    -3.189     17.893     17.958
REMARK INTER + INTRA:          -3.469
REMARK INTER:                  -3.469
REMARK INTRA:                   0.000
REMARK UNBOUND:                 0.000
REMARK SMILES [NH3+]CC(=O)[O-]
REMARK SMILES IDX 2 1 1 2 3 6 4 7 5 8
REMARK H PARENT 1 3 1 4 1 5
REMARK Flexibility Score: inf
ROOT
ATOM      1  C   UNL     1     166.242 180.537 172.695  1.00  0.00     0.312 C 
ENDROOT
BRANCH   1   2
ATOM      2  N   UNL     1     165.384 181.212 173.668  1.00  0.00    -0.353 N 
ATOM      3  H   UNL     1     165.948 181.887 174.235  1.00  0.00     0.344 HD
ATOM      4  H   UNL     1     164.637 181.736 173.160  1.00  0.00     0.344 HD
ATOM      5  H   UNL     1     164.936 180.508 174.300  1.00  0.00     0.344 HD
ENDBRANCH   1   2
BRANCH   1   6
ATOM      6  C   UNL     1     166.171 181.220 171.365  1.00  0.00     0.096 C 
ATOM      7  O   UNL     1     167.086 182.006 171.006  1.00  0.00    -0.544 OA
ATOM      8  O   UNL     1     165.067 181.027 170.543  1.00  0.00    -0.544 OA
ENDBRANCH   1   6
TORSDOF 2
ENDMDL
MODEL 5
REMARK VINA RESULT:    -3.185     14.845     15.191
REMARK INTER + INTRA:          -3.464
REMARK INTER:                  -3.464
REMARK INTRA:                   0.000
REMARK UNBOUND:                 0.000
REMARK SMILES [NH3+]CC(=O)[O-]
REMARK SMILES IDX 2 1 1 2 3 6 4 7 5 8
REMARK H PARENT 1 3 1 4 1 5
REMARK Flexibility Score: inf
ROOT
ATOM      1  C   UNL     1     181.808 167.491 172.676  1.00  0.00     0.312 C 
ENDROOT
BRANCH   1   2
ATOM      2  N   UNL     1     182.595 166.748 173.659  1.00  0.00    -0.353 N 
ATOM      3  H   UNL     1     181.961 166.208 174.292  1.00  0.00     0.344 HD
ATOM      4  H   UNL     1     183.225 166.080 173.159  1.00  0.00     0.344 HD
ATOM      5  H   UNL     1     183.180 167.408 174.223  1.00  0.00     0.344 HD
ENDBRANCH   1   2
BRANCH   1   6
ATOM      6  C   UNL     1     181.835 166.802 171.348  1.00  0.00     0.096 C 
ATOM      7  O   UNL     1     180.898 166.030 171.014  1.00  0.00    -0.544 OA
ATOM      8  O   UNL     1     182.921 166.972 170.498  1.00  0.00    -0.544 OA
ENDBRANCH   1   6
TORSDOF 2
ENDMDL
MODEL 6
REMARK VINA RESULT:    -3.181      2.187      2.573
REMARK INTER + INTRA:          -3.460
REMARK INTER:                  -3.460
REMARK INTRA:                   0.000
REMARK UNBOUND:                 0.000
REMARK SMILES [NH3+]CC(=O)[O-]
REMARK SMILES IDX 2 1 1 2 3 6 4 7 5 8
REMARK H PARENT 1 3 1 4 1 5
REMARK Flexibility Score: inf
ROOT
ATOM      1  C   UNL     1     181.910 180.576 176.035  1.00  0.00     0.312 C 
ENDROOT
BRANCH   1   2
ATOM      2  N   UNL     1     181.284 181.871 176.297  1.00  0.00    -0.353 N 
ATOM      3  H   UNL     1     180.524 182.050 175.599  1.00  0.00     0.344 HD
ATOM      4  H   UNL     1     180.869 181.863 177.256  1.00  0.00     0.344 HD
ATOM      5  H   UNL     1     181.999 182.633 176.243  1.00  0.00     0.344 HD
ENDBRANCH   1   2
BRANCH   1   6
ATOM      6  C   UNL     1     182.595 180.063 177.263  1.00  0.00     0.096 C 
ATOM      7  O   UNL     1     183.825 180.266 177.435  1.00  0.00    -0.544 OA
ATOM      8  O   UNL     1     181.885 179.315 178.194  1.00  0.00    -0.544 OA
ENDBRANCH   1   6
TORSDOF 2
ENDMDL
MODEL 7
REMARK VINA RESULT:    -3.179     14.773     14.895
REMARK INTER + INTRA:          -3.457
REMARK INTER:                  -3.457
REMARK INTRA:                   0.000
REMARK UNBOUND:                 0.000
REMARK SMILES [NH3+]CC(=O)[O-]
REMARK SMILES IDX 2 1 1 2 3 6 4 7 5 8
REMARK H PARENT 1 3 1 4 1 5
REMARK Flexibility Score: inf
ROOT
ATOM      1  C   UNL     1     181.852 167.421 171.964  1.00  0.00     0.312 C 
ENDROOT
BRANCH   1   2
ATOM      2  N   UNL     1     181.229 166.120 171.728  1.00  0.00    -0.353 N 
ATOM      3  H   UNL     1     180.511 165.927 172.464  1.00  0.00     0.344 HD
ATOM      4  H   UNL     1     180.762 166.129 170.793  1.00  0.00     0.344 HD
ATOM      5  H   UNL     1     181.956 165.367 171.737  1.00  0.00     0.344 HD
ENDBRANCH   1   2
BRANCH   1   6
ATOM      6  C   UNL     1     182.541 167.909 170.727  1.00  0.00     0.096 C 
ATOM      7  O   UNL     1     183.765 167.675 170.549  1.00  0.00    -0.544 OA
ATOM      8  O   UNL     1     181.842 168.666 169.795  1.00  0.00    -0.544 OA
ENDBRANCH   1   6
TORSDOF 2
ENDMDL
MODEL 8
REMARK VINA RESULT:    -3.172     21.006     21.372
REMARK INTER + INTRA:          -3.450
REMARK INTER:                  -3.450
REMARK INTRA:                   0.000
REMARK UNBOUND:                 0.000
REMARK SMILES [NH3+]CC(=O)[O-]
REMARK SMILES IDX 2 1 1 2 3 6 4 7 5 8
REMARK H PARENT 1 3 1 4 1 5
REMARK Flexibility Score: inf
ROOT
ATOM      1  C   UNL     1     166.198 167.500 176.007  1.00  0.00     0.312 C 
ENDROOT
BRANCH   1   2
ATOM      2  N   UNL     1     166.748 166.157 176.190  1.00  0.00    -0.353 N 
ATOM      3  H   UNL     1     167.152 165.809 175.290  1.00  0.00     0.344 HD
ATOM      4  H   UNL     1     167.504 166.193 176.910  1.00  0.00     0.344 HD
ATOM      5  H   UNL     1     165.998 165.504 176.517  1.00  0.00     0.344 HD
ENDBRANCH   1   2
BRANCH   1   6
ATOM      6  C   UNL     1     165.484 167.951 177.242  1.00  0.00     0.096 C 
ATOM      7  O   UNL     1     164.273 167.656 177.419  1.00  0.00    -0.544 OA
ATOM      8  O   UNL     1     166.142 168.743 178.176  1.00  0.00    -0.544 OA
ENDBRANCH   1   6
TORSDOF 2
ENDMDL
MODEL 9
REMARK VINA RESULT:    -3.158     21.309     21.729
REMARK INTER + INTRA:          -3.435
REMARK INTER:                  -3.435
REMARK INTRA:                   0.000
REMARK UNBOUND:                 0.000
REMARK SMILES [NH3+]CC(=O)[O-]
REMARK SMILES IDX 2 1 1 2 3 6 4 7 5 8
REMARK H PARENT 1 3 1 4 1 5
REMARK Flexibility Score: inf
ROOT
ATOM      1  C   UNL     1     165.740 167.472 176.349  1.00  0.00     0.312 C 
ENDROOT
BRANCH   1   2
ATOM      2  N   UNL     1     166.500 166.507 175.556  1.00  0.00    -0.353 N 
ATOM      3  H   UNL     1     166.897 166.973 174.707  1.00  0.00     0.344 HD
ATOM      4  H   UNL     1     167.285 166.131 176.135  1.00  0.00     0.344 HD
ATOM      5  H   UNL     1     165.881 165.714 175.267  1.00  0.00     0.344 HD
ENDBRANCH   1   2
BRANCH   1   6
ATOM      6  C   UNL     1     165.724 167.075 177.791  1.00  0.00     0.096 C 
ATOM      7  O   UNL     1     166.023 167.911 178.683  1.00  0.00    -0.544 OA
ATOM      8  O   UNL     1     165.427 165.765 178.148  1.00  0.00    -0.544 OA
ENDBRANCH   1   6
TORSDOF 2
ENDMDL
