MODEL 1
REMARK VINA RESULT:    -6.958      0.000      0.000
REMARK INTER + INTRA:          -7.568
REMARK INTER:                  -7.568
REMARK INTRA:                   0.000
REMARK UNBOUND:                 0.000
REMARK SMILES Cc1cc(O)c2c(c1)C(=O)c1cc(O)cc(O)c1C2=O
REMARK SMILES IDX 1 1 2 2 8 3 7 4 6 5 4 6 3 7 19 8 20 9 18 10 11 11 9 12 10 13
REMARK SMILES IDX 12 14 13 15 15 16 16 17 5 18 17 20 14 22
REMARK H PARENT 5 19 17 21 14 23
REMARK Flexibility Score: inf
ROOT
ATOM      1  C   UNL     1      -0.693   2.608  -9.959  1.00  0.00     0.044 C 
ATOM      2  C   UNL     1      -0.998   2.988  -8.540  1.00  0.00    -0.047 A 
ATOM      3  C   UNL     1      -2.324   3.094  -8.111  1.00  0.00     0.016 A 
ATOM      4  C   UNL     1      -2.623   3.474  -6.790  1.00  0.00     0.038 A 
ATOM      5  C   UNL     1      -1.574   3.753  -5.883  1.00  0.00     0.076 A 
ATOM      6  C   UNL     1      -0.234   3.739  -6.357  1.00  0.00     0.127 A 
ATOM      7  C   UNL     1       0.037   3.333  -7.666  1.00  0.00     0.050 A 
ATOM      8  C   UNL     1      -1.919   3.997  -4.454  1.00  0.00     0.201 C 
ATOM      9  O   UNL     1      -1.049   3.837  -3.557  1.00  0.00    -0.288 OA
ATOM     10  C   UNL     1      -3.319   4.315  -4.068  1.00  0.00     0.076 A 
ATOM     11  C   UNL     1      -4.356   4.099  -5.001  1.00  0.00     0.041 A 
ATOM     12  C   UNL     1      -4.035   3.593  -6.355  1.00  0.00     0.194 C 
ATOM     13  O   UNL     1      -4.967   3.281  -7.146  1.00  0.00    -0.289 OA
ATOM     14  C   UNL     1      -5.689   4.361  -4.637  1.00  0.00     0.059 A 
ATOM     15  C   UNL     1      -5.994   4.842  -3.361  1.00  0.00     0.120 A 
ATOM     16  C   UNL     1      -4.971   5.065  -2.440  1.00  0.00     0.093 A 
ATOM     17  C   UNL     1      -3.637   4.809  -2.781  1.00  0.00     0.131 A 
ENDROOT
BRANCH   6  18
ATOM     18  O   UNL     1       0.851   4.156  -5.581  1.00  0.00    -0.507 OA
ATOM     19  H   UNL     1       1.760   4.380  -5.962  1.00  0.00     0.293 HD
ENDBRANCH   6  18
BRANCH  17  20
ATOM     20  O   UNL     1      -2.633   5.053  -1.844  1.00  0.00    -0.507 OA
ATOM     21  H   UNL     1      -2.152   5.944  -1.798  1.00  0.00     0.293 HD
ENDBRANCH  17  20
BRANCH  15  22
ATOM     22  O   UNL     1      -7.314   5.103  -2.998  1.00  0.00    -0.508 OA
ATOM     23  H   UNL     1      -7.561   5.371  -2.053  1.00  0.00     0.293 HD
ENDBRANCH  15  22
TORSDOF 3
ENDMDL
MODEL 2
REMARK VINA RESULT:    -6.864      1.327      3.674
REMARK INTER + INTRA:          -7.466
REMARK INTER:                  -7.466
REMARK INTRA:                   0.000
REMARK UNBOUND:                 0.000
REMARK SMILES Cc1cc(O)c2c(c1)C(=O)c1cc(O)cc(O)c1C2=O
REMARK SMILES IDX 1 1 2 2 8 3 7 4 6 5 4 6 3 7 19 8 20 9 18 10 11 11 9 12 10 13
REMARK SMILES IDX 12 14 13 15 15 16 16 17 5 18 17 20 14 22
REMARK H PARENT 5 19 17 21 14 23
REMARK Flexibility Score: inf
ROOT
ATOM      1  C   UNL     1      -0.715   2.677  -7.911  1.00  0.00     0.044 C 
ATOM      2  C   UNL     1      -1.852   3.179  -7.070  1.00  0.00    -0.047 A 
ATOM      3  C   UNL     1      -1.649   3.476  -5.719  1.00  0.00     0.016 A 
ATOM      4  C   UNL     1      -2.712   3.924  -4.915  1.00  0.00     0.038 A 
ATOM      5  C   UNL     1      -4.003   4.076  -5.474  1.00  0.00     0.076 A 
ATOM      6  C   UNL     1      -4.220   3.676  -6.821  1.00  0.00     0.127 A 
ATOM      7  C   UNL     1      -3.141   3.260  -7.606  1.00  0.00     0.050 A 
ATOM      8  C   UNL     1      -5.067   4.700  -4.640  1.00  0.00     0.201 C 
ATOM      9  O   UNL     1      -6.071   5.230  -5.187  1.00  0.00    -0.288 OA
ATOM     10  C   UNL     1      -4.895   4.806  -3.166  1.00  0.00     0.076 A 
ATOM     11  C   UNL     1      -3.619   4.586  -2.606  1.00  0.00     0.041 A 
ATOM     12  C   UNL     1      -2.482   4.223  -3.481  1.00  0.00     0.194 C 
ATOM     13  O   UNL     1      -1.317   4.149  -3.002  1.00  0.00    -0.289 OA
ATOM     14  C   UNL     1      -3.433   4.719  -1.218  1.00  0.00     0.059 A 
ATOM     15  C   UNL     1      -4.504   5.059  -0.389  1.00  0.00     0.120 A 
ATOM     16  C   UNL     1      -5.769   5.269  -0.938  1.00  0.00     0.093 A 
ATOM     17  C   UNL     1      -5.976   5.143  -2.319  1.00  0.00     0.131 A 
ENDROOT
BRANCH   6  18
ATOM     18  O   UNL     1      -5.487   3.638  -7.408  1.00  0.00    -0.507 OA
ATOM     19  H   UNL     1      -6.176   4.370  -7.304  1.00  0.00     0.293 HD
ENDBRANCH   6  18
BRANCH  17  20
ATOM     20  O   UNL     1      -7.254   5.346  -2.839  1.00  0.00    -0.507 OA
ATOM     21  H   UNL     1      -7.622   4.771  -3.589  1.00  0.00     0.293 HD
ENDBRANCH  17  20
BRANCH  15  22
ATOM     22  O   UNL     1      -4.324   5.191   0.987  1.00  0.00    -0.508 OA
ATOM     23  H   UNL     1      -5.106   5.347   1.612  1.00  0.00     0.293 HD
ENDBRANCH  15  22
TORSDOF 3
ENDMDL
MODEL 3
REMARK VINA RESULT:    -6.544      1.284      6.299
REMARK INTER + INTRA:          -7.118
REMARK INTER:                  -7.118
REMARK INTRA:                   0.000
REMARK UNBOUND:                 0.000
REMARK SMILES Cc1cc(O)c2c(c1)C(=O)c1cc(O)cc(O)c1C2=O
REMARK SMILES IDX 1 1 2 2 8 3 7 4 6 5 4 6 3 7 19 8 20 9 18 10 11 11 9 12 10 13
REMARK SMILES IDX 12 14 13 15 15 16 16 17 5 18 17 20 14 22
REMARK H PARENT 5 19 17 21 14 23
REMARK Flexibility Score: inf
ROOT
ATOM      1  C   UNL     1      -4.276   5.249  -0.864  1.00  0.00     0.044 C 
ATOM      2  C   UNL     1      -4.239   4.863  -2.314  1.00  0.00    -0.047 A 
ATOM      3  C   UNL     1      -3.034   4.476  -2.908  1.00  0.00     0.016 A 
ATOM      4  C   UNL     1      -2.982   4.137  -4.272  1.00  0.00     0.038 A 
ATOM      5  C   UNL     1      -4.159   4.187  -5.055  1.00  0.00     0.076 A 
ATOM      6  C   UNL     1      -5.356   4.677  -4.467  1.00  0.00     0.127 A 
ATOM      7  C   UNL     1      -5.387   4.982  -3.103  1.00  0.00     0.050 A 
ATOM      8  C   UNL     1      -4.102   3.671  -6.451  1.00  0.00     0.201 C 
ATOM      9  O   UNL     1      -5.159   3.309  -7.036  1.00  0.00    -0.288 OA
ATOM     10  C   UNL     1      -2.790   3.472  -7.122  1.00  0.00     0.076 A 
ATOM     11  C   UNL     1      -1.612   3.491  -6.345  1.00  0.00     0.041 A 
ATOM     12  C   UNL     1      -1.693   3.741  -4.888  1.00  0.00     0.194 C 
ATOM     13  O   UNL     1      -0.659   3.634  -4.173  1.00  0.00    -0.289 OA
ATOM     14  C   UNL     1      -0.367   3.267  -6.959  1.00  0.00     0.059 A 
ATOM     15  C   UNL     1      -0.286   3.034  -8.334  1.00  0.00     0.120 A 
ATOM     16  C   UNL     1      -1.448   3.023  -9.106  1.00  0.00     0.093 A 
ATOM     17  C   UNL     1      -2.699   3.242  -8.514  1.00  0.00     0.131 A 
ENDROOT
BRANCH   6  18
ATOM     18  O   UNL     1      -6.522   4.914  -5.199  1.00  0.00    -0.507 OA
ATOM     19  H   UNL     1      -7.411   4.479  -4.995  1.00  0.00     0.293 HD
ENDBRANCH   6  18
BRANCH  17  20
ATOM     20  O   UNL     1      -3.842   3.239  -9.313  1.00  0.00    -0.507 OA
ATOM     21  H   UNL     1      -3.843   3.636 -10.245  1.00  0.00     0.293 HD
ENDBRANCH  17  20
BRANCH  15  22
ATOM     22  O   UNL     1       0.947   2.813  -8.946  1.00  0.00    -0.508 OA
ATOM     23  H   UNL     1       1.078   2.067  -9.618  1.00  0.00     0.293 HD
ENDBRANCH  15  22
TORSDOF 3
ENDMDL
MODEL 4
REMARK VINA RESULT:    -6.486      2.760      4.448
REMARK INTER + INTRA:          -7.054
REMARK INTER:                  -7.054
REMARK INTRA:                   0.000
REMARK UNBOUND:                 0.000
REMARK SMILES Cc1cc(O)c2c(c1)C(=O)c1cc(O)cc(O)c1C2=O
REMARK SMILES IDX 1 1 2 2 8 3 7 4 6 5 4 6 3 7 19 8 20 9 18 10 11 11 9 12 10 13
REMARK SMILES IDX 12 14 13 15 15 16 16 17 5 18 17 20 14 22
REMARK H PARENT 5 19 17 21 14 23
REMARK Flexibility Score: inf
ROOT
ATOM      1  C   UNL     1       0.159   3.007  -8.776  1.00  0.00     0.044 C 
ATOM      2  C   UNL     1      -0.324   3.384  -7.407  1.00  0.00    -0.047 A 
ATOM      3  C   UNL     1       0.206   4.501  -6.757  1.00  0.00     0.016 A 
ATOM      4  C   UNL     1      -0.221   4.850  -5.463  1.00  0.00     0.038 A 
ATOM      5  C   UNL     1      -1.198   4.064  -4.808  1.00  0.00     0.076 A 
ATOM      6  C   UNL     1      -1.657   2.875  -5.437  1.00  0.00     0.127 A 
ATOM      7  C   UNL     1      -1.237   2.565  -6.733  1.00  0.00     0.050 A 
ATOM      8  C   UNL     1      -1.742   4.549  -3.509  1.00  0.00     0.201 C 
ATOM      9  O   UNL     1      -2.863   4.141  -3.101  1.00  0.00    -0.288 OA
ATOM     10  C   UNL     1      -1.024   5.602  -2.744  1.00  0.00     0.076 A 
ATOM     11  C   UNL     1      -0.002   6.338  -3.382  1.00  0.00     0.041 A 
ATOM     12  C   UNL     1       0.362   6.032  -4.784  1.00  0.00     0.194 C 
ATOM     13  O   UNL     1       1.184   6.769  -5.395  1.00  0.00    -0.289 OA
ATOM     14  C   UNL     1       0.661   7.363  -2.683  1.00  0.00     0.059 A 
ATOM     15  C   UNL     1       0.322   7.652  -1.359  1.00  0.00     0.120 A 
ATOM     16  C   UNL     1      -0.681   6.921  -0.723  1.00  0.00     0.093 A 
ATOM     17  C   UNL     1      -1.356   5.897  -1.402  1.00  0.00     0.131 A 
ENDROOT
BRANCH   6  18
ATOM     18  O   UNL     1      -2.495   1.955  -4.802  1.00  0.00    -0.507 OA
ATOM     19  H   UNL     1      -2.617   1.905  -3.800  1.00  0.00     0.293 HD
ENDBRANCH   6  18
BRANCH  17  20
ATOM     20  O   UNL     1      -2.345   5.173  -0.737  1.00  0.00    -0.507 OA
ATOM     21  H   UNL     1      -3.244   5.583  -0.508  1.00  0.00     0.293 HD
ENDBRANCH  17  20
BRANCH  15  22
ATOM     22  O   UNL     1       0.978   8.666  -0.663  1.00  0.00    -0.508 OA
ATOM     23  H   UNL     1       1.078   8.639   0.344  1.00  0.00     0.293 HD
ENDBRANCH  15  22
TORSDOF 3
ENDMDL
MODEL 5
REMARK VINA RESULT:    -6.473      1.427      2.434
REMARK INTER + INTRA:          -7.041
REMARK INTER:                  -7.041
REMARK INTRA:                   0.000
REMARK UNBOUND:                 0.000
REMARK SMILES Cc1cc(O)c2c(c1)C(=O)c1cc(O)cc(O)c1C2=O
REMARK SMILES IDX 1 1 2 2 8 3 7 4 6 5 4 6 3 7 19 8 20 9 18 10 11 11 9 12 10 13
REMARK SMILES IDX 12 14 13 15 15 16 16 17 5 18 17 20 14 22
REMARK H PARENT 5 19 17 21 14 23
REMARK Flexibility Score: inf
ROOT
ATOM      1  C   UNL     1      -2.689   3.212  -8.402  1.00  0.00     0.044 C 
ATOM      2  C   UNL     1      -2.829   3.488  -6.935  1.00  0.00    -0.047 A 
ATOM      3  C   UNL     1      -4.054   3.913  -6.413  1.00  0.00     0.016 A 
ATOM      4  C   UNL     1      -4.191   4.198  -5.042  1.00  0.00     0.038 A 
ATOM      5  C   UNL     1      -3.079   4.056  -4.179  1.00  0.00     0.076 A 
ATOM      6  C   UNL     1      -1.816   3.721  -4.735  1.00  0.00     0.127 A 
ATOM      7  C   UNL     1      -1.712   3.416  -6.096  1.00  0.00     0.050 A 
ATOM      8  C   UNL     1      -3.297   4.212  -2.714  1.00  0.00     0.201 C 
ATOM      9  O   UNL     1      -2.483   3.705  -1.895  1.00  0.00    -0.288 OA
ATOM     10  C   UNL     1      -4.533   4.865  -2.207  1.00  0.00     0.076 A 
ATOM     11  C   UNL     1      -5.615   5.067  -3.090  1.00  0.00     0.041 A 
ATOM     12  C   UNL     1      -5.495   4.659  -4.508  1.00  0.00     0.194 C 
ATOM     13  O   UNL     1      -6.500   4.722  -5.268  1.00  0.00    -0.289 OA
ATOM     14  C   UNL     1      -6.804   5.649  -2.617  1.00  0.00     0.059 A 
ATOM     15  C   UNL     1      -6.920   6.038  -1.280  1.00  0.00     0.120 A 
ATOM     16  C   UNL     1      -5.849   5.849  -0.406  1.00  0.00     0.093 A 
ATOM     17  C   UNL     1      -4.656   5.268  -0.857  1.00  0.00     0.131 A 
ENDROOT
BRANCH   6  18
ATOM     18  O   UNL     1      -0.634   3.716  -3.990  1.00  0.00    -0.507 OA
ATOM     19  H   UNL     1       0.075   4.433  -4.056  1.00  0.00     0.293 HD
ENDBRANCH   6  18
BRANCH  17  20
ATOM     20  O   UNL     1      -3.597   5.102   0.036  1.00  0.00    -0.507 OA
ATOM     21  H   UNL     1      -2.744   4.625  -0.231  1.00  0.00     0.293 HD
ENDBRANCH  17  20
BRANCH  15  22
ATOM     22  O   UNL     1      -8.097   6.617  -0.807  1.00  0.00    -0.508 OA
ATOM     23  H   UNL     1      -8.467   7.469  -1.211  1.00  0.00     0.293 HD
ENDBRANCH  15  22
TORSDOF 3
ENDMDL
MODEL 6
REMARK VINA RESULT:    -6.209      2.708      6.449
REMARK INTER + INTRA:          -6.753
REMARK INTER:                  -6.753
REMARK INTRA:                   0.000
REMARK UNBOUND:                 0.000
REMARK SMILES Cc1cc(O)c2c(c1)C(=O)c1cc(O)cc(O)c1C2=O
REMARK SMILES IDX 1 1 2 2 8 3 7 4 6 5 4 6 3 7 19 8 20 9 18 10 11 11 9 12 10 13
REMARK SMILES IDX 12 14 13 15 15 16 16 17 5 18 17 20 14 22
REMARK H PARENT 5 19 17 21 14 23
REMARK Flexibility Score: inf
ROOT
ATOM      1  C   UNL     1      -0.906   8.522   0.331  1.00  0.00     0.044 C 
ATOM      2  C   UNL     1      -1.128   7.342  -0.568  1.00  0.00    -0.047 A 
ATOM      3  C   UNL     1      -0.501   7.280  -1.815  1.00  0.00     0.016 A 
ATOM      4  C   UNL     1      -0.721   6.190  -2.676  1.00  0.00     0.038 A 
ATOM      5  C   UNL     1      -1.586   5.143  -2.280  1.00  0.00     0.076 A 
ATOM      6  C   UNL     1      -2.295   5.264  -1.055  1.00  0.00     0.127 A 
ATOM      7  C   UNL     1      -2.038   6.344  -0.205  1.00  0.00     0.050 A 
ATOM      8  C   UNL     1      -1.673   3.932  -3.143  1.00  0.00     0.201 C 
ATOM      9  O   UNL     1      -2.075   2.838  -2.662  1.00  0.00    -0.288 OA
ATOM     10  C   UNL     1      -1.179   3.976  -4.545  1.00  0.00     0.076 A 
ATOM     11  C   UNL     1      -0.372   5.059  -4.955  1.00  0.00     0.041 A 
ATOM     12  C   UNL     1      -0.057   6.146  -4.001  1.00  0.00     0.194 C 
ATOM     13  O   UNL     1       0.764   7.048  -4.325  1.00  0.00    -0.289 OA
ATOM     14  C   UNL     1       0.134   5.095  -6.267  1.00  0.00     0.059 A 
ATOM     15  C   UNL     1      -0.164   4.072  -7.171  1.00  0.00     0.120 A 
ATOM     16  C   UNL     1      -0.969   3.005  -6.771  1.00  0.00     0.093 A 
ATOM     17  C   UNL     1      -1.481   2.948  -5.468  1.00  0.00     0.131 A 
ENDROOT
BRANCH   6  18
ATOM     18  O   UNL     1      -3.287   4.363  -0.658  1.00  0.00    -0.507 OA
ATOM     19  H   UNL     1      -4.209   4.642  -0.353  1.00  0.00     0.293 HD
ENDBRANCH   6  18
BRANCH  17  20
ATOM     20  O   UNL     1      -2.294   1.876  -5.101  1.00  0.00    -0.507 OA
ATOM     21  H   UNL     1      -2.326   1.533  -4.147  1.00  0.00     0.293 HD
ENDBRANCH  17  20
BRANCH  15  22
ATOM     22  O   UNL     1       0.335   4.107  -8.472  1.00  0.00    -0.508 OA
ATOM     23  H   UNL     1       0.705   4.958  -8.875  1.00  0.00     0.293 HD
ENDBRANCH  15  22
TORSDOF 3
ENDMDL
MODEL 7
REMARK VINA RESULT:    -6.164      2.095      6.284
REMARK INTER + INTRA:          -6.705
REMARK INTER:                  -6.705
REMARK INTRA:                   0.000
REMARK UNBOUND:                 0.000
REMARK SMILES Cc1cc(O)c2c(c1)C(=O)c1cc(O)cc(O)c1C2=O
REMARK SMILES IDX 1 1 2 2 8 3 7 4 6 5 4 6 3 7 19 8 20 9 18 10 11 11 9 12 10 13
REMARK SMILES IDX 12 14 13 15 15 16 16 17 5 18 17 20 14 22
REMARK H PARENT 5 19 17 21 14 23
REMARK Flexibility Score: inf
ROOT
ATOM      1  C   UNL     1      -8.103   7.658  -0.230  1.00  0.00     0.044 C 
ATOM      2  C   UNL     1      -6.954   6.841  -0.744  1.00  0.00    -0.047 A 
ATOM      3  C   UNL     1      -6.816   6.606  -2.115  1.00  0.00     0.016 A 
ATOM      4  C   UNL     1      -5.757   5.821  -2.606  1.00  0.00     0.038 A 
ATOM      5  C   UNL     1      -4.820   5.260  -1.705  1.00  0.00     0.076 A 
ATOM      6  C   UNL     1      -5.027   5.422  -0.309  1.00  0.00     0.127 A 
ATOM      7  C   UNL     1      -6.071   6.229   0.151  1.00  0.00     0.050 A 
ATOM      8  C   UNL     1      -3.626   4.569  -2.267  1.00  0.00     0.201 C 
ATOM      9  O   UNL     1      -2.589   4.427  -1.565  1.00  0.00    -0.288 OA
ATOM     10  C   UNL     1      -3.608   4.147  -3.693  1.00  0.00     0.076 A 
ATOM     11  C   UNL     1      -4.587   4.657  -4.572  1.00  0.00     0.041 A 
ATOM     12  C   UNL     1      -5.632   5.572  -4.062  1.00  0.00     0.194 C 
ATOM     13  O   UNL     1      -6.431   6.126  -4.866  1.00  0.00    -0.289 OA
ATOM     14  C   UNL     1      -4.561   4.296  -5.931  1.00  0.00     0.059 A 
ATOM     15  C   UNL     1      -3.577   3.429  -6.416  1.00  0.00     0.120 A 
ATOM     16  C   UNL     1      -2.614   2.917  -5.547  1.00  0.00     0.093 A 
ATOM     17  C   UNL     1      -2.620   3.265  -4.190  1.00  0.00     0.131 A 
ENDROOT
BRANCH   6  18
ATOM     18  O   UNL     1      -4.250   4.773   0.655  1.00  0.00    -0.507 OA
ATOM     19  H   UNL     1      -3.286   4.507   0.512  1.00  0.00     0.293 HD
ENDBRANCH   6  18
BRANCH  17  20
ATOM     20  O   UNL     1      -1.652   2.728  -3.342  1.00  0.00    -0.507 OA
ATOM     21  H   UNL     1      -1.507   3.084  -2.405  1.00  0.00     0.293 HD
ENDBRANCH  17  20
BRANCH  15  22
ATOM     22  O   UNL     1      -3.549   3.069  -7.762  1.00  0.00    -0.508 OA
ATOM     23  H   UNL     1      -3.816   2.141  -8.068  1.00  0.00     0.293 HD
ENDBRANCH  15  22
TORSDOF 3
ENDMDL
MODEL 8
REMARK VINA RESULT:    -6.120      2.666      3.243
REMARK INTER + INTRA:          -6.656
REMARK INTER:                  -6.656
REMARK INTRA:                   0.000
REMARK UNBOUND:                 0.000
REMARK SMILES Cc1cc(O)c2c(c1)C(=O)c1cc(O)cc(O)c1C2=O
REMARK SMILES IDX 1 1 2 2 8 3 7 4 6 5 4 6 3 7 19 8 20 9 18 10 11 11 9 12 10 13
REMARK SMILES IDX 12 14 13 15 15 16 16 17 5 18 17 20 14 22
REMARK H PARENT 5 19 17 21 14 23
REMARK Flexibility Score: inf
ROOT
ATOM      1  C   UNL     1       0.245   3.091  -8.142  1.00  0.00     0.044 C 
ATOM      2  C   UNL     1       0.068   3.898  -6.890  1.00  0.00    -0.047 A 
ATOM      3  C   UNL     1      -0.750   3.427  -5.860  1.00  0.00     0.016 A 
ATOM      4  C   UNL     1      -0.943   4.186  -4.692  1.00  0.00     0.038 A 
ATOM      5  C   UNL     1      -0.305   5.441  -4.554  1.00  0.00     0.076 A 
ATOM      6  C   UNL     1       0.444   5.955  -5.647  1.00  0.00     0.127 A 
ATOM      7  C   UNL     1       0.642   5.169  -6.786  1.00  0.00     0.050 A 
ATOM      8  C   UNL     1      -0.402   6.145  -3.244  1.00  0.00     0.201 C 
ATOM      9  O   UNL     1       0.451   7.017  -2.929  1.00  0.00    -0.288 OA
ATOM     10  C   UNL     1      -1.436   5.741  -2.254  1.00  0.00     0.076 A 
ATOM     11  C   UNL     1      -2.119   4.520  -2.434  1.00  0.00     0.041 A 
ATOM     12  C   UNL     1      -1.825   3.676  -3.614  1.00  0.00     0.194 C 
ATOM     13  O   UNL     1      -2.340   2.529  -3.711  1.00  0.00    -0.289 OA
ATOM     14  C   UNL     1      -3.073   4.107  -1.486  1.00  0.00     0.059 A 
ATOM     15  C   UNL     1      -3.356   4.902  -0.372  1.00  0.00     0.120 A 
ATOM     16  C   UNL     1      -2.689   6.115  -0.197  1.00  0.00     0.093 A 
ATOM     17  C   UNL     1      -1.733   6.543  -1.128  1.00  0.00     0.131 A 
ENDROOT
BRANCH   6  18
ATOM     18  O   UNL     1       0.973   7.248  -5.665  1.00  0.00    -0.507 OA
ATOM     19  H   UNL     1       1.624   7.578  -6.364  1.00  0.00     0.293 HD
ENDBRANCH   6  18
BRANCH  17  20
ATOM     20  O   UNL     1      -1.091   7.766  -0.934  1.00  0.00    -0.507 OA
ATOM     21  H   UNL     1      -0.359   8.089  -1.556  1.00  0.00     0.293 HD
ENDBRANCH  17  20
BRANCH  15  22
ATOM     22  O   UNL     1      -4.301   4.497   0.568  1.00  0.00    -0.508 OA
ATOM     23  H   UNL     1      -4.339   4.909   1.493  1.00  0.00     0.293 HD
ENDBRANCH  15  22
TORSDOF 3
ENDMDL
MODEL 9
REMARK VINA RESULT:    -6.114      2.091      5.869
REMARK INTER + INTRA:          -6.650
REMARK INTER:                  -6.650
REMARK INTRA:                   0.000
REMARK UNBOUND:                 0.000
REMARK SMILES Cc1cc(O)c2c(c1)C(=O)c1cc(O)cc(O)c1C2=O
REMARK SMILES IDX 1 1 2 2 8 3 7 4 6 5 4 6 3 7 19 8 20 9 18 10 11 11 9 12 10 13
REMARK SMILES IDX 12 14 13 15 15 16 16 17 5 18 17 20 14 22
REMARK H PARENT 5 19 17 21 14 23
REMARK Flexibility Score: inf
ROOT
ATOM      1  C   UNL     1      -4.629   5.142   0.127  1.00  0.00     0.044 C 
ATOM      2  C   UNL     1      -3.530   5.223  -0.890  1.00  0.00    -0.047 A 
ATOM      3  C   UNL     1      -3.665   4.581  -2.124  1.00  0.00     0.016 A 
ATOM      4  C   UNL     1      -2.631   4.629  -3.076  1.00  0.00     0.038 A 
ATOM      5  C   UNL     1      -1.438   5.334  -2.785  1.00  0.00     0.076 A 
ATOM      6  C   UNL     1      -1.272   5.899  -1.492  1.00  0.00     0.127 A 
ATOM      7  C   UNL     1      -2.325   5.859  -0.574  1.00  0.00     0.050 A 
ATOM      8  C   UNL     1      -0.432   5.500  -3.871  1.00  0.00     0.201 C 
ATOM      9  O   UNL     1       0.415   6.432  -3.812  1.00  0.00    -0.288 OA
ATOM     10  C   UNL     1      -0.492   4.642  -5.084  1.00  0.00     0.076 A 
ATOM     11  C   UNL     1      -1.658   3.887  -5.333  1.00  0.00     0.041 A 
ATOM     12  C   UNL     1      -2.785   3.932  -4.375  1.00  0.00     0.194 C 
ATOM     13  O   UNL     1      -3.874   3.360  -4.657  1.00  0.00    -0.289 OA
ATOM     14  C   UNL     1      -1.745   3.099  -6.495  1.00  0.00     0.059 A 
ATOM     15  C   UNL     1      -0.681   3.052  -7.401  1.00  0.00     0.120 A 
ATOM     16  C   UNL     1       0.476   3.790  -7.152  1.00  0.00     0.093 A 
ATOM     17  C   UNL     1       0.582   4.582  -6.001  1.00  0.00     0.131 A 
ENDROOT
BRANCH   6  18
ATOM     18  O   UNL     1      -0.072   6.470  -1.061  1.00  0.00    -0.507 OA
ATOM     19  H   UNL     1       0.101   6.759  -0.108  1.00  0.00     0.293 HD
ENDBRANCH   6  18
BRANCH  17  20
ATOM     20  O   UNL     1       1.756   5.300  -5.772  1.00  0.00    -0.507 OA
ATOM     21  H   UNL     1       2.498   5.342  -6.461  1.00  0.00     0.293 HD
ENDBRANCH  17  20
BRANCH  15  22
ATOM     22  O   UNL     1      -0.763   2.271  -8.553  1.00  0.00    -0.508 OA
ATOM     23  H   UNL     1      -0.726   2.685  -9.476  1.00  0.00     0.293 HD
ENDBRANCH  15  22
TORSDOF 3
ENDMDL
