MODEL 1
REMARK VINA RESULT:    10.504      0.000      0.000
REMARK INTER + INTRA:          26.631
REMARK INTER:                  27.699
REMARK INTRA:                  -1.068
REMARK UNBOUND:                -1.068
REMARK SMILES CCCCCCCCCCCCCCCCCCCCCCCCCCCCCC(=O)[O-]
REMARK SMILES IDX 16 1 17 2 18 3 19 4 20 5 21 6 22 7 23 8 24 9 25 10 26 11
REMARK SMILES IDX 27 12 28 13 29 14 30 15 31 16 32 17 15 18 14 19 13 20 12 21
REMARK SMILES IDX 11 22 10 23 9 24 8 25 7 26 6 27 5 28 4 29 3 30 2 31 1 32
REMARK H PARENT
REMARK Flexibility Score: inf
ROOT
ATOM      1  C   UNL     1      -1.102   1.690   1.550  1.00  0.00     0.000 C 
ENDROOT
BRANCH   1   2
ATOM      2  C   UNL     1      -1.297   2.663   2.728  1.00  0.00     0.000 C 
BRANCH   2   3
ATOM      3  C   UNL     1      -2.766   3.080   2.925  1.00  0.00     0.000 C 
BRANCH   3   4
ATOM      4  C   UNL     1      -3.247   3.125   4.387  1.00  0.00     0.000 C 
BRANCH   4   5
ATOM      5  C   UNL     1      -3.061   4.506   5.038  1.00  0.00     0.000 C 
BRANCH   5   6
ATOM      6  C   UNL     1      -3.043   4.443   6.575  1.00  0.00     0.000 C 
BRANCH   6   7
ATOM      7  C   UNL     1      -3.191   5.823   7.236  1.00  0.00     0.000 C 
BRANCH   7   8
ATOM      8  C   UNL     1      -2.683   5.793   8.687  1.00  0.00     0.000 C 
BRANCH   8   9
ATOM      9  C   UNL     1      -3.792   6.072   9.721  1.00  0.00     0.000 C 
BRANCH   9  10
ATOM     10  C   UNL     1      -5.230   5.892   9.200  1.00  0.00     0.000 C 
BRANCH  10  11
ATOM     11  C   UNL     1      -6.096   5.016  10.123  1.00  0.00     0.000 C 
BRANCH  11  12
ATOM     12  C   UNL     1      -6.699   3.798   9.401  1.00  0.00     0.000 C 
BRANCH  12  13
ATOM     13  C   UNL     1      -5.694   2.942   8.608  1.00  0.00     0.006 C 
BRANCH  13  14
ATOM     14  C   UNL     1      -4.419   2.632   9.399  1.00  0.00     0.053 C 
BRANCH  14  15
ATOM     15  C   UNL     1      -3.487   1.786   8.590  1.00  0.00     0.041 C 
ATOM     16  O   UNL     1      -2.557   1.146   9.152  1.00  0.00    -0.550 OA
ATOM     17  O   UNL     1      -3.601   1.759   7.205  1.00  0.00    -0.550 OA
ENDBRANCH  14  15
ENDBRANCH  13  14
ENDBRANCH  12  13
ENDBRANCH  11  12
ENDBRANCH  10  11
ENDBRANCH   9  10
ENDBRANCH   8   9
ENDBRANCH   7   8
ENDBRANCH   6   7
ENDBRANCH   5   6
ENDBRANCH   4   5
ENDBRANCH   3   4
ENDBRANCH   2   3
ENDBRANCH   1   2
BRANCH   1  18
ATOM     18  C   UNL     1       0.109   2.059   0.671  1.00  0.00     0.000 C 
BRANCH  18  19
ATOM     19  C   UNL     1       1.169   0.944   0.531  1.00  0.00     0.000 C 
BRANCH  19  20
ATOM     20  C   UNL     1       2.112   1.093  -0.678  1.00  0.00     0.000 C 
BRANCH  20  21
ATOM     21  C   UNL     1       3.368   1.926  -0.360  1.00  0.00     0.000 C 
BRANCH  21  22
ATOM     22  C   UNL     1       3.436   3.220  -1.191  1.00  0.00     0.000 C 
BRANCH  22  23
ATOM     23  C   UNL     1       2.609   4.381  -0.595  1.00  0.00     0.000 C 
BRANCH  23  24
ATOM     24  C   UNL     1       3.086   5.775  -1.049  1.00  0.00    -0.000 C 
BRANCH  24  25
ATOM     25  C   UNL     1       2.035   6.896  -0.913  1.00  0.00    -0.000 C 
BRANCH  25  26
ATOM     26  C   UNL     1       1.506   7.425  -2.258  1.00  0.00    -0.000 C 
BRANCH  26  27
ATOM     27  C   UNL     1      -0.033   7.392  -2.346  1.00  0.00    -0.000 C 
BRANCH  27  28
ATOM     28  C   UNL     1      -0.707   7.789  -1.020  1.00  0.00    -0.000 C 
BRANCH  28  29
ATOM     29  C   UNL     1      -1.968   8.653  -1.212  1.00  0.00    -0.000 C 
BRANCH  29  30
ATOM     30  C   UNL     1      -3.088   8.305  -0.214  1.00  0.00    -0.000 C 
BRANCH  30  31
ATOM     31  C   UNL     1      -4.387   9.076  -0.502  1.00  0.00    -0.003 C 
ATOM     32  C   UNL     1      -4.756   9.082  -1.984  1.00  0.00     0.004 C 
ENDBRANCH  30  31
ENDBRANCH  29  30
ENDBRANCH  28  29
ENDBRANCH  27  28
ENDBRANCH  26  27
ENDBRANCH  25  26
ENDBRANCH  24  25
ENDBRANCH  23  24
ENDBRANCH  22  23
ENDBRANCH  21  22
ENDBRANCH  20  21
ENDBRANCH  19  20
ENDBRANCH  18  19
ENDBRANCH   1  18
TORSDOF 28
ENDMDL
MODEL 2
REMARK VINA RESULT:    10.568      3.316     10.556
REMARK INTER + INTRA:          26.800
REMARK INTER:                  27.283
REMARK INTRA:                  -0.483
REMARK UNBOUND:                -1.068
REMARK SMILES CCCCCCCCCCCCCCCCCCCCCCCCCCCCCC(=O)[O-]
REMARK SMILES IDX 16 1 17 2 18 3 19 4 20 5 21 6 22 7 23 8 24 9 25 10 26 11
REMARK SMILES IDX 27 12 28 13 29 14 30 15 31 16 32 17 15 18 14 19 13 20 12 21
REMARK SMILES IDX 11 22 10 23 9 24 8 25 7 26 6 27 5 28 4 29 3 30 2 31 1 32
REMARK H PARENT
REMARK Flexibility Score: inf
ROOT
ATOM      1  C   UNL     1      -1.072   1.004   1.688  1.00  0.00     0.000 C 
ENDROOT
BRANCH   1   2
ATOM      2  C   UNL     1       0.070   1.903   1.179  1.00  0.00     0.000 C 
BRANCH   2   3
ATOM      3  C   UNL     1       1.195   1.109   0.490  1.00  0.00     0.000 C 
BRANCH   3   4
ATOM      4  C   UNL     1       1.729   1.724  -0.817  1.00  0.00     0.000 C 
BRANCH   4   5
ATOM      5  C   UNL     1       3.201   2.159  -0.718  1.00  0.00     0.000 C 
BRANCH   5   6
ATOM      6  C   UNL     1       3.371   3.539  -0.058  1.00  0.00     0.000 C 
BRANCH   6   7
ATOM      7  C   UNL     1       3.242   4.702  -1.054  1.00  0.00     0.000 C 
BRANCH   7   8
ATOM      8  C   UNL     1       1.927   5.469  -0.832  1.00  0.00     0.000 C 
BRANCH   8   9
ATOM      9  C   UNL     1       1.908   6.847  -1.524  1.00  0.00     0.000 C 
BRANCH   9  10
ATOM     10  C   UNL     1       0.534   7.286  -2.063  1.00  0.00     0.000 C 
BRANCH  10  11
ATOM     11  C   UNL     1       0.013   8.572  -1.395  1.00  0.00     0.000 C 
BRANCH  11  12
ATOM     12  C   UNL     1      -1.523   8.681  -1.422  1.00  0.00     0.000 C 
BRANCH  12  13
ATOM     13  C   UNL     1      -2.263   7.750  -0.443  1.00  0.00     0.006 C 
BRANCH  13  14
ATOM     14  C   UNL     1      -3.742   8.115  -0.275  1.00  0.00     0.053 C 
BRANCH  14  15
ATOM     15  C   UNL     1      -4.226   8.913  -1.444  1.00  0.00     0.041 C 
ATOM     16  O   UNL     1      -5.224   9.674  -1.327  1.00  0.00    -0.550 OA
ATOM     17  O   UNL     1      -3.617   8.764  -2.685  1.00  0.00    -0.550 OA
ENDBRANCH  14  15
ENDBRANCH  13  14
ENDBRANCH  12  13
ENDBRANCH  11  12
ENDBRANCH  10  11
ENDBRANCH   9  10
ENDBRANCH   8   9
ENDBRANCH   7   8
ENDBRANCH   6   7
ENDBRANCH   5   6
ENDBRANCH   4   5
ENDBRANCH   3   4
ENDBRANCH   2   3
ENDBRANCH   1   2
BRANCH   1  18
ATOM     18  C   UNL     1      -2.295   1.813   2.166  1.00  0.00     0.000 C 
BRANCH  18  19
ATOM     19  C   UNL     1      -1.954   3.055   3.019  1.00  0.00     0.000 C 
BRANCH  19  20
ATOM     20  C   UNL     1      -2.915   3.318   4.195  1.00  0.00     0.000 C 
BRANCH  20  21
ATOM     21  C   UNL     1      -2.589   4.618   4.954  1.00  0.00     0.000 C 
BRANCH  21  22
ATOM     22  C   UNL     1      -3.420   4.766   6.241  1.00  0.00     0.000 C 
BRANCH  22  23
ATOM     23  C   UNL     1      -3.273   3.574   7.212  1.00  0.00     0.000 C 
BRANCH  23  24
ATOM     24  C   UNL     1      -4.613   2.899   7.569  1.00  0.00    -0.000 C 
BRANCH  24  25
ATOM     25  C   UNL     1      -4.813   2.608   9.070  1.00  0.00    -0.000 C 
BRANCH  25  26
ATOM     26  C   UNL     1      -6.048   3.293   9.683  1.00  0.00    -0.000 C 
BRANCH  26  27
ATOM     27  C   UNL     1      -5.983   4.830   9.590  1.00  0.00    -0.000 C 
BRANCH  27  28
ATOM     28  C   UNL     1      -4.544   5.366   9.697  1.00  0.00    -0.000 C 
BRANCH  28  29
ATOM     29  C   UNL     1      -4.449   6.896   9.530  1.00  0.00    -0.000 C 
BRANCH  29  30
ATOM     30  C   UNL     1      -3.153   7.481  10.120  1.00  0.00    -0.000 C 
BRANCH  30  31
ATOM     31  C   UNL     1      -1.901   6.729   9.638  1.00  0.00    -0.003 C 
ATOM     32  C   UNL     1      -0.708   7.654   9.404  1.00  0.00     0.004 C 
ENDBRANCH  30  31
ENDBRANCH  29  30
ENDBRANCH  28  29
ENDBRANCH  27  28
ENDBRANCH  26  27
ENDBRANCH  25  26
ENDBRANCH  24  25
ENDBRANCH  23  24
ENDBRANCH  22  23
ENDBRANCH  21  22
ENDBRANCH  20  21
ENDBRANCH  19  20
ENDBRANCH  18  19
ENDBRANCH   1  18
TORSDOF 28
ENDMDL
MODEL 3
REMARK VINA RESULT:    10.875      3.332     10.231
REMARK INTER + INTRA:          27.609
REMARK INTER:                  26.490
REMARK INTRA:                   1.120
REMARK UNBOUND:                -1.068
REMARK SMILES CCCCCCCCCCCCCCCCCCCCCCCCCCCCCC(=O)[O-]
REMARK SMILES IDX 16 1 17 2 18 3 19 4 20 5 21 6 22 7 23 8 24 9 25 10 26 11
REMARK SMILES IDX 27 12 28 13 29 14 30 15 31 16 32 17 15 18 14 19 13 20 12 21
REMARK SMILES IDX 11 22 10 23 9 24 8 25 7 26 6 27 5 28 4 29 3 30 2 31 1 32
REMARK H PARENT
REMARK Flexibility Score: inf
ROOT
ATOM      1  C   UNL     1       0.992   1.432   1.124  1.00  0.00     0.000 C 
ENDROOT
BRANCH   1   2
ATOM      2  C   UNL     1       1.614   0.911  -0.184  1.00  0.00     0.000 C 
BRANCH   2   3
ATOM      3  C   UNL     1       3.114   1.234  -0.305  1.00  0.00     0.000 C 
BRANCH   3   4
ATOM      4  C   UNL     1       3.496   2.160  -1.474  1.00  0.00     0.000 C 
BRANCH   4   5
ATOM      5  C   UNL     1       3.478   3.649  -1.091  1.00  0.00     0.000 C 
BRANCH   5   6
ATOM      6  C   UNL     1       2.057   4.240  -1.063  1.00  0.00     0.000 C 
BRANCH   6   7
ATOM      7  C   UNL     1       1.992   5.617  -0.382  1.00  0.00     0.000 C 
BRANCH   7   8
ATOM      8  C   UNL     1       2.628   6.698  -1.272  1.00  0.00     0.000 C 
BRANCH   8   9
ATOM      9  C   UNL     1       1.586   7.564  -2.007  1.00  0.00     0.000 C 
BRANCH   9  10
ATOM     10  C   UNL     1       0.117   7.191  -1.734  1.00  0.00     0.000 C 
BRANCH  10  11
ATOM     11  C   UNL     1      -0.618   8.240  -0.881  1.00  0.00     0.000 C 
BRANCH  11  12
ATOM     12  C   UNL     1      -2.110   8.368  -1.240  1.00  0.00     0.000 C 
BRANCH  12  13
ATOM     13  C   UNL     1      -3.072   8.412  -0.038  1.00  0.00     0.006 C 
BRANCH  13  14
ATOM     14  C   UNL     1      -4.183   9.455  -0.201  1.00  0.00     0.053 C 
BRANCH  14  15
ATOM     15  C   UNL     1      -4.814   9.350  -1.553  1.00  0.00     0.041 C 
ATOM     16  O   UNL     1      -6.067   9.290  -1.668  1.00  0.00    -0.550 OA
ATOM     17  O   UNL     1      -4.013   9.246  -2.685  1.00  0.00    -0.550 OA
ENDBRANCH  14  15
ENDBRANCH  13  14
ENDBRANCH  12  13
ENDBRANCH  11  12
ENDBRANCH  10  11
ENDBRANCH   9  10
ENDBRANCH   8   9
ENDBRANCH   7   8
ENDBRANCH   6   7
ENDBRANCH   5   6
ENDBRANCH   4   5
ENDBRANCH   3   4
ENDBRANCH   2   3
ENDBRANCH   1   2
BRANCH   1  18
ATOM     18  C   UNL     1      -0.440   1.969   0.927  1.00  0.00     0.000 C 
BRANCH  18  19
ATOM     19  C   UNL     1      -1.142   2.428   2.224  1.00  0.00     0.000 C 
BRANCH  19  20
ATOM     20  C   UNL     1      -2.678   2.509   2.137  1.00  0.00     0.000 C 
BRANCH  20  21
ATOM     21  C   UNL     1      -3.328   2.981   3.452  1.00  0.00     0.000 C 
BRANCH  21  22
ATOM     22  C   UNL     1      -2.346   3.762   4.342  1.00  0.00     0.000 C 
BRANCH  22  23
ATOM     23  C   UNL     1      -2.953   4.207   5.690  1.00  0.00     0.000 C 
BRANCH  23  24
ATOM     24  C   UNL     1      -3.389   5.687   5.713  1.00  0.00    -0.000 C 
BRANCH  24  25
ATOM     25  C   UNL     1      -3.732   6.241   7.111  1.00  0.00    -0.000 C 
BRANCH  25  26
ATOM     26  C   UNL     1      -2.693   5.896   8.193  1.00  0.00    -0.000 C 
BRANCH  26  27
ATOM     27  C   UNL     1      -3.270   5.983   9.620  1.00  0.00    -0.000 C 
BRANCH  27  28
ATOM     28  C   UNL     1      -4.283   4.863   9.914  1.00  0.00    -0.000 C 
BRANCH  28  29
ATOM     29  C   UNL     1      -5.720   5.381  10.125  1.00  0.00    -0.000 C 
BRANCH  29  30
ATOM     30  C   UNL     1      -6.782   4.276   9.967  1.00  0.00    -0.000 C 
BRANCH  30  31
ATOM     31  C   UNL     1      -6.355   3.198   8.958  1.00  0.00    -0.003 C 
ATOM     32  C   UNL     1      -4.839   3.026   8.878  1.00  0.00     0.004 C 
ENDBRANCH  30  31
ENDBRANCH  29  30
ENDBRANCH  28  29
ENDBRANCH  27  28
ENDBRANCH  26  27
ENDBRANCH  25  26
ENDBRANCH  24  25
ENDBRANCH  23  24
ENDBRANCH  22  23
ENDBRANCH  21  22
ENDBRANCH  20  21
ENDBRANCH  19  20
ENDBRANCH  18  19
ENDBRANCH   1  18
TORSDOF 28
ENDMDL
MODEL 4
REMARK VINA RESULT:    11.115      2.425      3.676
REMARK INTER + INTRA:          28.241
REMARK INTER:                  29.974
REMARK INTRA:                  -1.733
REMARK UNBOUND:                -1.068
REMARK SMILES CCCCCCCCCCCCCCCCCCCCCCCCCCCCCC(=O)[O-]
REMARK SMILES IDX 16 1 17 2 18 3 19 4 20 5 21 6 22 7 23 8 24 9 25 10 26 11
REMARK SMILES IDX 27 12 28 13 29 14 30 15 31 16 32 17 15 18 14 19 13 20 12 21
REMARK SMILES IDX 11 22 10 23 9 24 8 25 7 26 6 27 5 28 4 29 3 30 2 31 1 32
REMARK H PARENT
REMARK Flexibility Score: inf
ROOT
ATOM      1  C   UNL     1       1.387   0.921   0.750  1.00  0.00     0.000 C 
ENDROOT
BRANCH   1   2
ATOM      2  C   UNL     1      -0.086   1.368   0.745  1.00  0.00     0.000 C 
BRANCH   2   3
ATOM      3  C   UNL     1      -0.431   2.312   1.911  1.00  0.00     0.000 C 
BRANCH   3   4
ATOM      4  C   UNL     1      -1.904   2.753   1.988  1.00  0.00     0.000 C 
BRANCH   4   5
ATOM      5  C   UNL     1      -2.482   2.672   3.411  1.00  0.00     0.000 C 
BRANCH   5   6
ATOM      6  C   UNL     1      -2.066   3.863   4.292  1.00  0.00     0.000 C 
BRANCH   6   7
ATOM      7  C   UNL     1      -3.216   4.401   5.159  1.00  0.00     0.000 C 
BRANCH   7   8
ATOM      8  C   UNL     1      -3.498   3.457   6.341  1.00  0.00     0.000 C 
BRANCH   8   9
ATOM      9  C   UNL     1      -4.478   4.054   7.369  1.00  0.00     0.000 C 
BRANCH   9  10
ATOM     10  C   UNL     1      -3.844   4.474   8.708  1.00  0.00     0.000 C 
BRANCH  10  11
ATOM     11  C   UNL     1      -4.315   5.860   9.184  1.00  0.00     0.000 C 
BRANCH  11  12
ATOM     12  C   UNL     1      -3.306   6.547  10.122  1.00  0.00     0.000 C 
BRANCH  12  13
ATOM     13  C   UNL     1      -2.382   7.579   9.448  1.00  0.00     0.006 C 
BRANCH  13  14
ATOM     14  C   UNL     1      -0.911   7.150   9.442  1.00  0.00     0.053 C 
BRANCH  14  15
ATOM     15  C   UNL     1      -0.019   8.315   9.735  1.00  0.00     0.041 C 
ATOM     16  O   UNL     1      -0.509   9.414  10.108  1.00  0.00    -0.550 OA
ATOM     17  O   UNL     1       1.352   8.208   9.528  1.00  0.00    -0.550 OA
ENDBRANCH  14  15
ENDBRANCH  13  14
ENDBRANCH  12  13
ENDBRANCH  11  12
ENDBRANCH  10  11
ENDBRANCH   9  10
ENDBRANCH   8   9
ENDBRANCH   7   8
ENDBRANCH   6   7
ENDBRANCH   5   6
ENDBRANCH   4   5
ENDBRANCH   3   4
ENDBRANCH   2   3
ENDBRANCH   1   2
BRANCH   1  18
ATOM     18  C   UNL     1       1.990   0.852  -0.667  1.00  0.00     0.000 C 
BRANCH  18  19
ATOM     19  C   UNL     1       3.397   1.475  -0.802  1.00  0.00     0.000 C 
BRANCH  19  20
ATOM     20  C   UNL     1       3.418   2.919  -1.339  1.00  0.00     0.000 C 
BRANCH  20  21
ATOM     21  C   UNL     1       3.201   3.972  -0.236  1.00  0.00     0.000 C 
BRANCH  21  22
ATOM     22  C   UNL     1       2.988   5.384  -0.810  1.00  0.00     0.000 C 
BRANCH  22  23
ATOM     23  C   UNL     1       1.503   5.739  -1.043  1.00  0.00     0.000 C 
BRANCH  23  24
ATOM     24  C   UNL     1       1.265   7.232  -1.346  1.00  0.00    -0.000 C 
BRANCH  24  25
ATOM     25  C   UNL     1       0.422   7.512  -2.607  1.00  0.00    -0.000 C 
BRANCH  25  26
ATOM     26  C   UNL     1      -0.823   8.379  -2.350  1.00  0.00    -0.000 C 
BRANCH  26  27
ATOM     27  C   UNL     1      -1.214   8.430  -0.859  1.00  0.00    -0.000 C 
BRANCH  27  28
ATOM     28  C   UNL     1      -2.424   7.536  -0.537  1.00  0.00    -0.000 C 
BRANCH  28  29
ATOM     29  C   UNL     1      -3.584   8.299   0.133  1.00  0.00    -0.000 C 
BRANCH  29  30
ATOM     30  C   UNL     1      -3.779   9.714  -0.443  1.00  0.00    -0.000 C 
BRANCH  30  31
ATOM     31  C   UNL     1      -5.157   9.890  -1.102  1.00  0.00    -0.003 C 
ATOM     32  C   UNL     1      -5.155   9.527  -2.586  1.00  0.00     0.004 C 
ENDBRANCH  30  31
ENDBRANCH  29  30
ENDBRANCH  28  29
ENDBRANCH  27  28
ENDBRANCH  26  27
ENDBRANCH  25  26
ENDBRANCH  24  25
ENDBRANCH  23  24
ENDBRANCH  22  23
ENDBRANCH  21  22
ENDBRANCH  20  21
ENDBRANCH  19  20
ENDBRANCH  18  19
ENDBRANCH   1  18
TORSDOF 28
ENDMDL
MODEL 5
REMARK VINA RESULT:    11.162      2.043      2.865
REMARK INTER + INTRA:          28.365
REMARK INTER:                  28.997
REMARK INTRA:                  -0.632
REMARK UNBOUND:                -1.068
REMARK SMILES CCCCCCCCCCCCCCCCCCCCCCCCCCCCCC(=O)[O-]
REMARK SMILES IDX 16 1 17 2 18 3 19 4 20 5 21 6 22 7 23 8 24 9 25 10 26 11
REMARK SMILES IDX 27 12 28 13 29 14 30 15 31 16 32 17 15 18 14 19 13 20 12 21
REMARK SMILES IDX 11 22 10 23 9 24 8 25 7 26 6 27 5 28 4 29 3 30 2 31 1 32
REMARK H PARENT
REMARK Flexibility Score: inf
ROOT
ATOM      1  C   UNL     1      -1.031   2.690   2.308  1.00  0.00     0.000 C 
ENDROOT
BRANCH   1   2
ATOM      2  C   UNL     1      -2.255   2.316   3.163  1.00  0.00     0.000 C 
BRANCH   2   3
ATOM      3  C   UNL     1      -2.986   3.545   3.735  1.00  0.00     0.000 C 
BRANCH   3   4
ATOM      4  C   UNL     1      -2.231   4.303   4.843  1.00  0.00     0.000 C 
BRANCH   4   5
ATOM      5  C   UNL     1      -3.159   5.147   5.733  1.00  0.00     0.000 C 
BRANCH   5   6
ATOM      6  C   UNL     1      -4.049   4.289   6.649  1.00  0.00     0.000 C 
BRANCH   6   7
ATOM      7  C   UNL     1      -3.288   3.125   7.306  1.00  0.00     0.000 C 
BRANCH   7   8
ATOM      8  C   UNL     1      -4.227   2.290   8.194  1.00  0.00     0.000 C 
BRANCH   8   9
ATOM      9  C   UNL     1      -5.060   3.147   9.166  1.00  0.00     0.000 C 
BRANCH   9  10
ATOM     10  C   UNL     1      -5.279   4.607   8.726  1.00  0.00     0.000 C 
BRANCH  10  11
ATOM     11  C   UNL     1      -5.387   5.580   9.914  1.00  0.00     0.000 C 
BRANCH  11  12
ATOM     12  C   UNL     1      -4.130   6.450  10.093  1.00  0.00     0.000 C 
BRANCH  12  13
ATOM     13  C   UNL     1      -2.811   5.796   9.639  1.00  0.00     0.006 C 
BRANCH  13  14
ATOM     14  C   UNL     1      -1.971   6.709   8.739  1.00  0.00     0.053 C 
BRANCH  14  15
ATOM     15  C   UNL     1      -1.099   7.606   9.561  1.00  0.00     0.041 C 
ATOM     16  O   UNL     1      -1.385   8.826   9.693  1.00  0.00    -0.550 OA
ATOM     17  O   UNL     1       0.070   7.108  10.124  1.00  0.00    -0.550 OA
ENDBRANCH  14  15
ENDBRANCH  13  14
ENDBRANCH  12  13
ENDBRANCH  11  12
ENDBRANCH  10  11
ENDBRANCH   9  10
ENDBRANCH   8   9
ENDBRANCH   7   8
ENDBRANCH   6   7
ENDBRANCH   5   6
ENDBRANCH   4   5
ENDBRANCH   3   4
ENDBRANCH   2   3
ENDBRANCH   1   2
BRANCH   1  18
ATOM     18  C   UNL     1      -0.642   1.580   1.312  1.00  0.00     0.000 C 
BRANCH  18  19
ATOM     19  C   UNL     1       0.869   1.264   1.254  1.00  0.00     0.000 C 
BRANCH  19  20
ATOM     20  C   UNL     1       1.419   0.979  -0.156  1.00  0.00     0.000 C 
BRANCH  20  21
ATOM     21  C   UNL     1       2.878   1.440  -0.335  1.00  0.00     0.000 C 
BRANCH  21  22
ATOM     22  C   UNL     1       2.984   2.745  -1.143  1.00  0.00     0.000 C 
BRANCH  22  23
ATOM     23  C   UNL     1       2.615   4.006  -0.332  1.00  0.00     0.000 C 
BRANCH  23  24
ATOM     24  C   UNL     1       2.783   5.320  -1.122  1.00  0.00    -0.000 C 
BRANCH  24  25
ATOM     25  C   UNL     1       1.956   6.508  -0.588  1.00  0.00    -0.000 C 
BRANCH  25  26
ATOM     26  C   UNL     1       0.912   7.043  -1.585  1.00  0.00    -0.000 C 
BRANCH  26  27
ATOM     27  C   UNL     1       0.027   8.151  -0.981  1.00  0.00    -0.000 C 
BRANCH  27  28
ATOM     28  C   UNL     1      -1.127   8.558  -1.915  1.00  0.00    -0.000 C 
BRANCH  28  29
ATOM     29  C   UNL     1      -2.441   7.806  -1.624  1.00  0.00    -0.000 C 
BRANCH  29  30
ATOM     30  C   UNL     1      -3.155   8.320  -0.360  1.00  0.00    -0.000 C 
BRANCH  30  31
ATOM     31  C   UNL     1      -3.811   9.693  -0.579  1.00  0.00    -0.003 C 
ATOM     32  C   UNL     1      -5.262   9.589  -1.045  1.00  0.00     0.004 C 
ENDBRANCH  30  31
ENDBRANCH  29  30
ENDBRANCH  28  29
ENDBRANCH  27  28
ENDBRANCH  26  27
ENDBRANCH  25  26
ENDBRANCH  24  25
ENDBRANCH  23  24
ENDBRANCH  22  23
ENDBRANCH  21  22
ENDBRANCH  20  21
ENDBRANCH  19  20
ENDBRANCH  18  19
ENDBRANCH   1  18
TORSDOF 28
ENDMDL
MODEL 6
REMARK VINA RESULT:    11.197      3.282     10.407
REMARK INTER + INTRA:          28.458
REMARK INTER:                  29.254
REMARK INTRA:                  -0.797
REMARK UNBOUND:                -1.068
REMARK SMILES CCCCCCCCCCCCCCCCCCCCCCCCCCCCCC(=O)[O-]
REMARK SMILES IDX 16 1 17 2 18 3 19 4 20 5 21 6 22 7 23 8 24 9 25 10 26 11
REMARK SMILES IDX 27 12 28 13 29 14 30 15 31 16 32 17 15 18 14 19 13 20 12 21
REMARK SMILES IDX 11 22 10 23 9 24 8 25 7 26 6 27 5 28 4 29 3 30 2 31 1 32
REMARK H PARENT
REMARK Flexibility Score: inf
ROOT
ATOM      1  C   UNL     1      -0.355   0.156   1.467  1.00  0.00     0.000 C 
ENDROOT
BRANCH   1   2
ATOM      2  C   UNL     1       0.557   1.262   0.906  1.00  0.00     0.000 C 
BRANCH   2   3
ATOM      3  C   UNL     1       1.791   0.707   0.172  1.00  0.00     0.000 C 
BRANCH   3   4
ATOM      4  C   UNL     1       2.188   1.460  -1.111  1.00  0.00     0.000 C 
BRANCH   4   5
ATOM      5  C   UNL     1       3.585   2.099  -1.024  1.00  0.00     0.000 C 
BRANCH   5   6
ATOM      6  C   UNL     1       3.593   3.406  -0.212  1.00  0.00     0.000 C 
BRANCH   6   7
ATOM      7  C   UNL     1       3.223   4.639  -1.053  1.00  0.00     0.000 C 
BRANCH   7   8
ATOM      8  C   UNL     1       1.849   5.193  -0.638  1.00  0.00     0.000 C 
BRANCH   8   9
ATOM      9  C   UNL     1       1.709   6.707  -0.887  1.00  0.00     0.000 C 
BRANCH   9  10
ATOM     10  C   UNL     1       0.611   7.104  -1.891  1.00  0.00     0.000 C 
BRANCH  10  11
ATOM     11  C   UNL     1      -0.180   8.349  -1.451  1.00  0.00     0.000 C 
BRANCH  11  12
ATOM     12  C   UNL     1      -1.659   8.301  -1.875  1.00  0.00     0.000 C 
BRANCH  12  13
ATOM     13  C   UNL     1      -2.664   8.095  -0.725  1.00  0.00     0.006 C 
BRANCH  13  14
ATOM     14  C   UNL     1      -3.627   9.274  -0.555  1.00  0.00     0.053 C 
BRANCH  14  15
ATOM     15  C   UNL     1      -4.689   9.246  -1.610  1.00  0.00     0.041 C 
ATOM     16  O   UNL     1      -4.374   9.254  -2.831  1.00  0.00    -0.550 OA
ATOM     17  O   UNL     1      -6.030   9.282  -1.245  1.00  0.00    -0.550 OA
ENDBRANCH  14  15
ENDBRANCH  13  14
ENDBRANCH  12  13
ENDBRANCH  11  12
ENDBRANCH  10  11
ENDBRANCH   9  10
ENDBRANCH   8   9
ENDBRANCH   7   8
ENDBRANCH   6   7
ENDBRANCH   5   6
ENDBRANCH   4   5
ENDBRANCH   3   4
ENDBRANCH   2   3
ENDBRANCH   1   2
BRANCH   1  18
ATOM     18  C   UNL     1      -1.744   0.685   1.877  1.00  0.00     0.000 C 
BRANCH  18  19
ATOM     19  C   UNL     1      -1.858   2.224   1.937  1.00  0.00     0.000 C 
BRANCH  19  20
ATOM     20  C   UNL     1      -2.819   2.764   3.013  1.00  0.00     0.000 C 
BRANCH  20  21
ATOM     21  C   UNL     1      -2.157   3.798   3.943  1.00  0.00     0.000 C 
BRANCH  21  22
ATOM     22  C   UNL     1      -3.018   4.105   5.181  1.00  0.00     0.000 C 
BRANCH  22  23
ATOM     23  C   UNL     1      -2.738   5.492   5.800  1.00  0.00     0.000 C 
BRANCH  23  24
ATOM     24  C   UNL     1      -2.766   5.498   7.342  1.00  0.00    -0.000 C 
BRANCH  24  25
ATOM     25  C   UNL     1      -4.072   6.034   7.964  1.00  0.00    -0.000 C 
BRANCH  25  26
ATOM     26  C   UNL     1      -4.232   5.710   9.460  1.00  0.00    -0.000 C 
BRANCH  26  27
ATOM     27  C   UNL     1      -5.652   5.225   9.815  1.00  0.00    -0.000 C 
BRANCH  27  28
ATOM     28  C   UNL     1      -5.699   3.718  10.124  1.00  0.00    -0.000 C 
BRANCH  28  29
ATOM     29  C   UNL     1      -6.023   2.852   8.890  1.00  0.00    -0.000 C 
BRANCH  29  30
ATOM     30  C   UNL     1      -5.116   3.168   7.686  1.00  0.00    -0.000 C 
BRANCH  30  31
ATOM     31  C   UNL     1      -4.165   2.007   7.352  1.00  0.00    -0.003 C 
ATOM     32  C   UNL     1      -3.081   1.806   8.408  1.00  0.00     0.004 C 
ENDBRANCH  30  31
ENDBRANCH  29  30
ENDBRANCH  28  29
ENDBRANCH  27  28
ENDBRANCH  26  27
ENDBRANCH  25  26
ENDBRANCH  24  25
ENDBRANCH  23  24
ENDBRANCH  22  23
ENDBRANCH  21  22
ENDBRANCH  20  21
ENDBRANCH  19  20
ENDBRANCH  18  19
ENDBRANCH   1  18
TORSDOF 28
ENDMDL
MODEL 7
REMARK VINA RESULT:    11.238      1.251      3.184
REMARK INTER + INTRA:          28.567
REMARK INTER:                  29.924
REMARK INTRA:                  -1.357
REMARK UNBOUND:                -1.068
REMARK SMILES CCCCCCCCCCCCCCCCCCCCCCCCCCCCCC(=O)[O-]
REMARK SMILES IDX 16 1 17 2 18 3 19 4 20 5 21 6 22 7 23 8 24 9 25 10 26 11
REMARK SMILES IDX 27 12 28 13 29 14 30 15 31 16 32 17 15 18 14 19 13 20 12 21
REMARK SMILES IDX 11 22 10 23 9 24 8 25 7 26 6 27 5 28 4 29 3 30 2 31 1 32
REMARK H PARENT
REMARK Flexibility Score: inf
ROOT
ATOM      1  C   UNL     1       1.515   1.073  -0.172  1.00  0.00     0.000 C 
ENDROOT
BRANCH   1   2
ATOM      2  C   UNL     1       0.933  -0.028   0.733  1.00  0.00     0.000 C 
BRANCH   2   3
ATOM      3  C   UNL     1      -0.110   0.506   1.732  1.00  0.00     0.000 C 
BRANCH   3   4
ATOM      4  C   UNL     1      -0.976   1.672   1.219  1.00  0.00     0.000 C 
BRANCH   4   5
ATOM      5  C   UNL     1      -1.507   2.569   2.350  1.00  0.00     0.000 C 
BRANCH   5   6
ATOM      6  C   UNL     1      -3.041   2.538   2.465  1.00  0.00     0.000 C 
BRANCH   6   7
ATOM      7  C   UNL     1      -3.582   3.489   3.546  1.00  0.00     0.000 C 
BRANCH   7   8
ATOM      8  C   UNL     1      -2.498   3.802   4.591  1.00  0.00     0.000 C 
BRANCH   8   9
ATOM      9  C   UNL     1      -3.077   4.292   5.933  1.00  0.00     0.000 C 
BRANCH   9  10
ATOM     10  C   UNL     1      -3.305   5.812   6.029  1.00  0.00     0.000 C 
BRANCH  10  11
ATOM     11  C   UNL     1      -3.790   6.258   7.420  1.00  0.00     0.000 C 
BRANCH  11  12
ATOM     12  C   UNL     1      -2.926   5.696   8.565  1.00  0.00     0.000 C 
BRANCH  12  13
ATOM     13  C   UNL     1      -3.707   5.250   9.815  1.00  0.00     0.006 C 
BRANCH  13  14
ATOM     14  C   UNL     1      -5.217   5.151   9.574  1.00  0.00     0.053 C 
BRANCH  14  15
ATOM     15  C   UNL     1      -5.643   3.721   9.466  1.00  0.00     0.041 C 
ATOM     16  O   UNL     1      -6.863   3.413   9.533  1.00  0.00    -0.550 OA
ATOM     17  O   UNL     1      -4.686   2.718   9.361  1.00  0.00    -0.550 OA
ENDBRANCH  14  15
ENDBRANCH  13  14
ENDBRANCH  12  13
ENDBRANCH  11  12
ENDBRANCH  10  11
ENDBRANCH   9  10
ENDBRANCH   8   9
ENDBRANCH   7   8
ENDBRANCH   6   7
ENDBRANCH   5   6
ENDBRANCH   4   5
ENDBRANCH   3   4
ENDBRANCH   2   3
ENDBRANCH   1   2
BRANCH   1  18
ATOM     18  C   UNL     1       2.967   0.782  -0.601  1.00  0.00     0.000 C 
BRANCH  18  19
ATOM     19  C   UNL     1       3.438   1.554  -1.853  1.00  0.00     0.000 C 
BRANCH  19  20
ATOM     20  C   UNL     1       3.966   2.975  -1.579  1.00  0.00     0.000 C 
BRANCH  20  21
ATOM     21  C   UNL     1       3.164   3.712  -0.490  1.00  0.00     0.000 C 
BRANCH  21  22
ATOM     22  C   UNL     1       3.122   5.233  -0.724  1.00  0.00     0.000 C 
BRANCH  22  23
ATOM     23  C   UNL     1       1.690   5.805  -0.812  1.00  0.00     0.000 C 
BRANCH  23  24
ATOM     24  C   UNL     1       1.638   7.272  -1.284  1.00  0.00    -0.000 C 
BRANCH  24  25
ATOM     25  C   UNL     1       0.964   7.488  -2.655  1.00  0.00    -0.000 C 
BRANCH  25  26
ATOM     26  C   UNL     1      -0.568   7.614  -2.586  1.00  0.00    -0.000 C 
BRANCH  26  27
ATOM     27  C   UNL     1      -1.045   8.429  -1.367  1.00  0.00    -0.000 C 
BRANCH  27  28
ATOM     28  C   UNL     1      -2.528   8.184  -1.039  1.00  0.00    -0.000 C 
BRANCH  28  29
ATOM     29  C   UNL     1      -2.927   8.665   0.370  1.00  0.00    -0.000 C 
BRANCH  29  30
ATOM     30  C   UNL     1      -4.245   9.462   0.378  1.00  0.00    -0.000 C 
BRANCH  30  31
ATOM     31  C   UNL     1      -4.563  10.076  -0.996  1.00  0.00    -0.003 C 
ATOM     32  C   UNL     1      -5.734   9.388  -1.695  1.00  0.00     0.004 C 
ENDBRANCH  30  31
ENDBRANCH  29  30
ENDBRANCH  28  29
ENDBRANCH  27  28
ENDBRANCH  26  27
ENDBRANCH  25  26
ENDBRANCH  24  25
ENDBRANCH  23  24
ENDBRANCH  22  23
ENDBRANCH  21  22
ENDBRANCH  20  21
ENDBRANCH  19  20
ENDBRANCH  18  19
ENDBRANCH   1  18
TORSDOF 28
ENDMDL
MODEL 8
REMARK VINA RESULT:    11.259      1.618      2.917
REMARK INTER + INTRA:          28.621
REMARK INTER:                  30.331
REMARK INTRA:                  -1.710
REMARK UNBOUND:                -1.068
REMARK SMILES CCCCCCCCCCCCCCCCCCCCCCCCCCCCCC(=O)[O-]
REMARK SMILES IDX 16 1 17 2 18 3 19 4 20 5 21 6 22 7 23 8 24 9 25 10 26 11
REMARK SMILES IDX 27 12 28 13 29 14 30 15 31 16 32 17 15 18 14 19 13 20 12 21
REMARK SMILES IDX 11 22 10 23 9 24 8 25 7 26 6 27 5 28 4 29 3 30 2 31 1 32
REMARK H PARENT
REMARK Flexibility Score: inf
ROOT
ATOM      1  C   UNL     1      -0.432  -1.897   0.816  1.00  0.00     0.000 C 
ENDROOT
BRANCH   1   2
ATOM      2  C   UNL     1      -1.714  -1.785   1.660  1.00  0.00     0.000 C 
BRANCH   2   3
ATOM      3  C   UNL     1      -1.803  -0.462   2.443  1.00  0.00     0.000 C 
BRANCH   3   4
ATOM      4  C   UNL     1      -2.722   0.608   1.825  1.00  0.00     0.000 C 
BRANCH   4   5
ATOM      5  C   UNL     1      -2.110   2.019   1.862  1.00  0.00     0.000 C 
BRANCH   5   6
ATOM      6  C   UNL     1      -2.943   3.008   2.698  1.00  0.00     0.000 C 
BRANCH   6   7
ATOM      7  C   UNL     1      -2.650   2.917   4.204  1.00  0.00     0.000 C 
BRANCH   7   8
ATOM      8  C   UNL     1      -2.724   4.306   4.861  1.00  0.00     0.000 C 
BRANCH   8   9
ATOM      9  C   UNL     1      -3.435   4.289   6.229  1.00  0.00     0.000 C 
BRANCH   9  10
ATOM     10  C   UNL     1      -3.415   5.627   6.990  1.00  0.00     0.000 C 
BRANCH  10  11
ATOM     11  C   UNL     1      -2.749   5.518   8.374  1.00  0.00     0.000 C 
BRANCH  11  12
ATOM     12  C   UNL     1      -3.481   6.332   9.457  1.00  0.00     0.000 C 
BRANCH  12  13
ATOM     13  C   UNL     1      -4.806   5.721   9.952  1.00  0.00     0.006 C 
BRANCH  13  14
ATOM     14  C   UNL     1      -4.756   4.192  10.056  1.00  0.00     0.053 C 
BRANCH  14  15
ATOM     15  C   UNL     1      -5.896   3.574   9.309  1.00  0.00     0.041 C 
ATOM     16  O   UNL     1      -7.080   3.938   9.538  1.00  0.00    -0.550 OA
ATOM     17  O   UNL     1      -5.655   2.543   8.407  1.00  0.00    -0.550 OA
ENDBRANCH  14  15
ENDBRANCH  13  14
ENDBRANCH  12  13
ENDBRANCH  11  12
ENDBRANCH  10  11
ENDBRANCH   9  10
ENDBRANCH   8   9
ENDBRANCH   7   8
ENDBRANCH   6   7
ENDBRANCH   5   6
ENDBRANCH   4   5
ENDBRANCH   3   4
ENDBRANCH   2   3
ENDBRANCH   1   2
BRANCH   1  18
ATOM     18  C   UNL     1       0.628  -0.848   1.205  1.00  0.00     0.000 C 
BRANCH  18  19
ATOM     19  C   UNL     1       1.736  -0.628   0.152  1.00  0.00     0.000 C 
BRANCH  19  20
ATOM     20  C   UNL     1       1.909   0.831  -0.314  1.00  0.00     0.000 C 
BRANCH  20  21
ATOM     21  C   UNL     1       3.371   1.185  -0.644  1.00  0.00     0.000 C 
BRANCH  21  22
ATOM     22  C   UNL     1       3.519   2.624  -1.169  1.00  0.00     0.000 C 
BRANCH  22  23
ATOM     23  C   UNL     1       2.706   3.662  -0.363  1.00  0.00     0.000 C 
BRANCH  23  24
ATOM     24  C   UNL     1       3.030   5.123  -0.735  1.00  0.00    -0.000 C 
BRANCH  24  25
ATOM     25  C   UNL     1       1.798   6.021  -0.967  1.00  0.00    -0.000 C 
BRANCH  25  26
ATOM     26  C   UNL     1       2.090   7.283  -1.798  1.00  0.00    -0.000 C 
BRANCH  26  27
ATOM     27  C   UNL     1       0.822   8.112  -2.087  1.00  0.00    -0.000 C 
BRANCH  27  28
ATOM     28  C   UNL     1      -0.450   7.461  -1.513  1.00  0.00    -0.000 C 
BRANCH  28  29
ATOM     29  C   UNL     1      -1.408   8.474  -0.856  1.00  0.00    -0.000 C 
BRANCH  29  30
ATOM     30  C   UNL     1      -2.699   8.687  -1.668  1.00  0.00    -0.000 C 
BRANCH  30  31
ATOM     31  C   UNL     1      -3.950   8.729  -0.775  1.00  0.00    -0.003 C 
ATOM     32  C   UNL     1      -3.649   9.207   0.644  1.00  0.00     0.004 C 
ENDBRANCH  30  31
ENDBRANCH  29  30
ENDBRANCH  28  29
ENDBRANCH  27  28
ENDBRANCH  26  27
ENDBRANCH  25  26
ENDBRANCH  24  25
ENDBRANCH  23  24
ENDBRANCH  22  23
ENDBRANCH  21  22
ENDBRANCH  20  21
ENDBRANCH  19  20
ENDBRANCH  18  19
ENDBRANCH   1  18
TORSDOF 28
ENDMDL
