MODEL 1
REMARK VINA RESULT:    -3.392      0.000      0.000
REMARK INTER + INTRA:         -10.871
REMARK INTER:                  -7.359
REMARK INTRA:                  -3.512
REMARK UNBOUND:                -3.512
REMARK SMILES CCCCCCCCCCCCCCCCCCCCCC(=O)[O-]
REMARK SMILES IDX 12 1 11 2 10 3 9 4 8 5 7 6 6 7 5 8 4 9 3 10 2 11 1 12 13 13
REMARK SMILES IDX 14 14 15 15 16 16 17 17 18 18 19 19 20 20 21 21 22 22 23 23
REMARK SMILES IDX 24 24
REMARK H PARENT
REMARK Flexibility Score: inf
ROOT
ATOM      1  C   UNL     1     -13.595 -19.441   5.796  1.00  0.00     0.000 C 
ENDROOT
BRANCH   1   2
ATOM      2  C   UNL     1     -12.612 -18.377   5.280  1.00  0.00     0.000 C 
BRANCH   2   3
ATOM      3  C   UNL     1     -11.598 -18.940   4.267  1.00  0.00     0.000 C 
BRANCH   3   4
ATOM      4  C   UNL     1     -12.032 -18.853   2.792  1.00  0.00    -0.000 C 
BRANCH   4   5
ATOM      5  C   UNL     1     -13.088 -17.762   2.541  1.00  0.00    -0.000 C 
BRANCH   5   6
ATOM      6  C   UNL     1     -14.430 -18.352   2.058  1.00  0.00    -0.000 C 
BRANCH   6   7
ATOM      7  C   UNL     1     -14.374 -19.865   1.785  1.00  0.00    -0.000 C 
BRANCH   7   8
ATOM      8  C   UNL     1     -15.482 -20.645   2.504  1.00  0.00    -0.000 C 
BRANCH   8   9
ATOM      9  C   UNL     1     -15.028 -22.072   2.833  1.00  0.00    -0.000 C 
BRANCH   9  10
ATOM     10  C   UNL     1     -13.555 -22.095   3.258  1.00  0.00    -0.000 C 
BRANCH  10  11
ATOM     11  C   UNL     1     -13.363 -22.923   4.534  1.00  0.00    -0.003 C 
ATOM     12  C   UNL     1     -14.624 -22.909   5.393  1.00  0.00     0.004 C 
ENDBRANCH  10  11
ENDBRANCH   9  10
ENDBRANCH   8   9
ENDBRANCH   7   8
ENDBRANCH   6   7
ENDBRANCH   5   6
ENDBRANCH   4   5
ENDBRANCH   3   4
ENDBRANCH   2   3
ENDBRANCH   1   2
BRANCH   1  13
ATOM     13  C   UNL     1     -15.052 -18.947   5.823  1.00  0.00     0.000 C 
BRANCH  13  14
ATOM     14  C   UNL     1     -15.373 -17.906   6.915  1.00  0.00     0.000 C 
BRANCH  14  15
ATOM     15  C   UNL     1     -16.040 -16.610   6.412  1.00  0.00     0.000 C 
BRANCH  15  16
ATOM     16  C   UNL     1     -15.703 -16.234   4.959  1.00  0.00     0.000 C 
BRANCH  16  17
ATOM     17  C   UNL     1     -14.573 -15.195   4.861  1.00  0.00     0.000 C 
BRANCH  17  18
ATOM     18  C   UNL     1     -14.986 -13.822   5.414  1.00  0.00     0.000 C 
BRANCH  18  19
ATOM     19  C   UNL     1     -13.778 -12.906   5.676  1.00  0.00     0.000 C 
BRANCH  19  20
ATOM     20  C   UNL     1     -13.683 -11.734   4.681  1.00  0.00     0.006 C 
BRANCH  20  21
ATOM     21  C   UNL     1     -12.500 -11.838   3.705  1.00  0.00     0.053 C 
BRANCH  21  22
ATOM     22  C   UNL     1     -12.853 -12.576   2.450  1.00  0.00     0.041 C 
ATOM     23  O   UNL     1     -14.056 -12.674   2.091  1.00  0.00    -0.550 OA
ATOM     24  O   UNL     1     -11.854 -13.132   1.661  1.00  0.00    -0.550 OA
ENDBRANCH  21  22
ENDBRANCH  20  21
ENDBRANCH  19  20
ENDBRANCH  18  19
ENDBRANCH  17  18
ENDBRANCH  16  17
ENDBRANCH  15  16
ENDBRANCH  14  15
ENDBRANCH  13  14
ENDBRANCH   1  13
TORSDOF 20
ENDMDL
MODEL 2
REMARK VINA RESULT:    -3.353      1.458      2.108
REMARK INTER + INTRA:         -10.786
REMARK INTER:                  -7.057
REMARK INTRA:                  -3.729
REMARK UNBOUND:                -3.512
REMARK SMILES CCCCCCCCCCCCCCCCCCCCCC(=O)[O-]
REMARK SMILES IDX 12 1 11 2 10 3 9 4 8 5 7 6 6 7 5 8 4 9 3 10 2 11 1 12 13 13
REMARK SMILES IDX 14 14 15 15 16 16 17 17 18 18 19 19 20 20 21 21 22 22 23 23
REMARK SMILES IDX 24 24
REMARK H PARENT
REMARK Flexibility Score: inf
ROOT
ATOM      1  C   UNL     1     -13.451 -19.349   5.758  1.00  0.00     0.000 C 
ENDROOT
BRANCH   1   2
ATOM      2  C   UNL     1     -12.169 -18.737   5.170  1.00  0.00     0.000 C 
BRANCH   2   3
ATOM      3  C   UNL     1     -12.269 -18.477   3.656  1.00  0.00     0.000 C 
BRANCH   3   4
ATOM      4  C   UNL     1     -12.458 -19.736   2.790  1.00  0.00    -0.000 C 
BRANCH   4   5
ATOM      5  C   UNL     1     -13.565 -19.577   1.732  1.00  0.00    -0.000 C 
BRANCH   5   6
ATOM      6  C   UNL     1     -14.800 -18.838   2.289  1.00  0.00    -0.000 C 
BRANCH   6   7
ATOM      7  C   UNL     1     -15.835 -19.774   2.939  1.00  0.00    -0.000 C 
BRANCH   7   8
ATOM      8  C   UNL     1     -16.021 -21.087   2.168  1.00  0.00    -0.000 C 
BRANCH   8   9
ATOM      9  C   UNL     1     -15.674 -22.296   3.046  1.00  0.00    -0.000 C 
BRANCH   9  10
ATOM     10  C   UNL     1     -15.714 -21.923   4.533  1.00  0.00    -0.000 C 
BRANCH  10  11
ATOM     11  C   UNL     1     -14.714 -22.761   5.338  1.00  0.00    -0.003 C 
ATOM     12  C   UNL     1     -13.367 -22.842   4.626  1.00  0.00     0.004 C 
ENDBRANCH  10  11
ENDBRANCH   9  10
ENDBRANCH   8   9
ENDBRANCH   7   8
ENDBRANCH   6   7
ENDBRANCH   5   6
ENDBRANCH   4   5
ENDBRANCH   3   4
ENDBRANCH   2   3
ENDBRANCH   1   2
BRANCH   1  13
ATOM     13  C   UNL     1     -14.253 -18.353   6.615  1.00  0.00     0.000 C 
BRANCH  13  14
ATOM     14  C   UNL     1     -15.561 -17.841   5.976  1.00  0.00     0.000 C 
BRANCH  14  15
ATOM     15  C   UNL     1     -15.611 -16.323   5.707  1.00  0.00     0.000 C 
BRANCH  15  16
ATOM     16  C   UNL     1     -14.455 -15.782   4.850  1.00  0.00     0.000 C 
BRANCH  16  17
ATOM     17  C   UNL     1     -14.914 -15.327   3.454  1.00  0.00     0.000 C 
BRANCH  17  18
ATOM     18  C   UNL     1     -13.737 -14.925   2.550  1.00  0.00     0.000 C 
BRANCH  18  19
ATOM     19  C   UNL     1     -13.739 -13.422   2.217  1.00  0.00     0.000 C 
BRANCH  19  20
ATOM     20  C   UNL     1     -12.528 -12.674   2.806  1.00  0.00     0.006 C 
BRANCH  20  21
ATOM     21  C   UNL     1     -12.900 -11.608   3.850  1.00  0.00     0.053 C 
BRANCH  21  22
ATOM     22  C   UNL     1     -13.454 -12.204   5.108  1.00  0.00     0.041 C 
ATOM     23  O   UNL     1     -12.677 -12.670   5.983  1.00  0.00    -0.550 OA
ATOM     24  O   UNL     1     -14.825 -12.222   5.328  1.00  0.00    -0.550 OA
ENDBRANCH  21  22
ENDBRANCH  20  21
ENDBRANCH  19  20
ENDBRANCH  18  19
ENDBRANCH  17  18
ENDBRANCH  16  17
ENDBRANCH  15  16
ENDBRANCH  14  15
ENDBRANCH  13  14
ENDBRANCH   1  13
TORSDOF 20
ENDMDL
MODEL 3
REMARK VINA RESULT:    -3.292      2.317      4.667
REMARK INTER + INTRA:         -10.654
REMARK INTER:                  -6.846
REMARK INTRA:                  -3.808
REMARK UNBOUND:                -3.512
REMARK SMILES CCCCCCCCCCCCCCCCCCCCCC(=O)[O-]
REMARK SMILES IDX 12 1 11 2 10 3 9 4 8 5 7 6 6 7 5 8 4 9 3 10 2 11 1 12 13 13
REMARK SMILES IDX 14 14 15 15 16 16 17 17 18 18 19 19 20 20 21 21 22 22 23 23
REMARK SMILES IDX 24 24
REMARK H PARENT
REMARK Flexibility Score: inf
ROOT
ATOM      1  C   UNL     1     -15.308 -14.078   5.678  1.00  0.00     0.000 C 
ENDROOT
BRANCH   1   2
ATOM      2  C   UNL     1     -14.682 -14.998   4.618  1.00  0.00     0.000 C 
BRANCH   2   3
ATOM      3  C   UNL     1     -15.714 -15.547   3.616  1.00  0.00     0.000 C 
BRANCH   3   4
ATOM      4  C   UNL     1     -15.133 -16.008   2.267  1.00  0.00    -0.000 C 
BRANCH   4   5
ATOM      5  C   UNL     1     -13.601 -15.875   2.197  1.00  0.00    -0.000 C 
BRANCH   5   6
ATOM      6  C   UNL     1     -12.930 -17.159   1.664  1.00  0.00    -0.000 C 
BRANCH   6   7
ATOM      7  C   UNL     1     -13.154 -18.389   2.562  1.00  0.00    -0.000 C 
BRANCH   7   8
ATOM      8  C   UNL     1     -12.552 -18.224   3.963  1.00  0.00    -0.000 C 
BRANCH   8   9
ATOM      9  C   UNL     1     -12.908 -19.416   4.860  1.00  0.00    -0.000 C 
BRANCH   9  10
ATOM     10  C   UNL     1     -13.597 -18.947   6.147  1.00  0.00    -0.000 C 
BRANCH  10  11
ATOM     11  C   UNL     1     -15.033 -18.487   5.867  1.00  0.00    -0.003 C 
ATOM     12  C   UNL     1     -15.603 -17.713   7.052  1.00  0.00     0.004 C 
ENDBRANCH  10  11
ENDBRANCH   9  10
ENDBRANCH   8   9
ENDBRANCH   7   8
ENDBRANCH   6   7
ENDBRANCH   5   6
ENDBRANCH   4   5
ENDBRANCH   3   4
ENDBRANCH   2   3
ENDBRANCH   1   2
BRANCH   1  13
ATOM     13  C   UNL     1     -14.600 -12.715   5.782  1.00  0.00     0.000 C 
BRANCH  13  14
ATOM     14  C   UNL     1     -13.102 -12.723   5.413  1.00  0.00     0.000 C 
BRANCH  14  15
ATOM     15  C   UNL     1     -12.703 -11.774   4.264  1.00  0.00     0.000 C 
BRANCH  15  16
ATOM     16  C   UNL     1     -12.696 -12.419   2.868  1.00  0.00     0.000 C 
BRANCH  16  17
ATOM     17  C   UNL     1     -13.667 -11.732   1.892  1.00  0.00     0.000 C 
BRANCH  17  18
ATOM     18  C   UNL     1     -15.092 -12.299   1.983  1.00  0.00     0.000 C 
BRANCH  18  19
ATOM     19  C   UNL     1     -16.024 -11.415   2.830  1.00  0.00     0.000 C 
BRANCH  19  20
ATOM     20  C   UNL     1     -15.671  -9.918   2.751  1.00  0.00     0.006 C 
BRANCH  20  21
ATOM     21  C   UNL     1     -15.423  -9.261   4.119  1.00  0.00     0.053 C 
BRANCH  21  22
ATOM     22  C   UNL     1     -14.246  -8.335   4.108  1.00  0.00     0.041 C 
ATOM     23  O   UNL     1     -13.356  -8.454   3.225  1.00  0.00    -0.550 OA
ATOM     24  O   UNL     1     -14.143  -7.323   5.053  1.00  0.00    -0.550 OA
ENDBRANCH  21  22
ENDBRANCH  20  21
ENDBRANCH  19  20
ENDBRANCH  18  19
ENDBRANCH  17  18
ENDBRANCH  16  17
ENDBRANCH  15  16
ENDBRANCH  14  15
ENDBRANCH  13  14
ENDBRANCH   1  13
TORSDOF 20
ENDMDL
MODEL 4
REMARK VINA RESULT:    -3.281      3.350      7.788
REMARK INTER + INTRA:         -10.630
REMARK INTER:                  -7.143
REMARK INTRA:                  -3.487
REMARK UNBOUND:                -3.512
REMARK SMILES CCCCCCCCCCCCCCCCCCCCCC(=O)[O-]
REMARK SMILES IDX 12 1 11 2 10 3 9 4 8 5 7 6 6 7 5 8 4 9 3 10 2 11 1 12 13 13
REMARK SMILES IDX 14 14 15 15 16 16 17 17 18 18 19 19 20 20 21 21 22 22 23 23
REMARK SMILES IDX 24 24
REMARK H PARENT
REMARK Flexibility Score: inf
ROOT
ATOM      1  C   UNL     1     -13.471 -19.141   6.115  1.00  0.00     0.000 C 
ENDROOT
BRANCH   1   2
ATOM      2  C   UNL     1     -14.638 -18.294   6.648  1.00  0.00     0.000 C 
BRANCH   2   3
ATOM      3  C   UNL     1     -15.391 -17.542   5.535  1.00  0.00     0.000 C 
BRANCH   3   4
ATOM      4  C   UNL     1     -15.481 -16.017   5.724  1.00  0.00    -0.000 C 
BRANCH   4   5
ATOM      5  C   UNL     1     -14.580 -15.237   4.750  1.00  0.00    -0.000 C 
BRANCH   5   6
ATOM      6  C   UNL     1     -14.669 -15.784   3.310  1.00  0.00    -0.000 C 
BRANCH   6   7
ATOM      7  C   UNL     1     -13.564 -15.251   2.380  1.00  0.00    -0.000 C 
BRANCH   7   8
ATOM      8  C   UNL     1     -13.765 -13.781   1.993  1.00  0.00    -0.000 C 
BRANCH   8   9
ATOM      9  C   UNL     1     -12.492 -12.965   2.247  1.00  0.00    -0.000 C 
BRANCH   9  10
ATOM     10  C   UNL     1     -12.809 -11.682   3.025  1.00  0.00    -0.000 C 
BRANCH  10  11
ATOM     11  C   UNL     1     -12.976 -11.974   4.521  1.00  0.00    -0.003 C 
ATOM     12  C   UNL     1     -14.379 -11.611   4.998  1.00  0.00     0.004 C 
ENDBRANCH  10  11
ENDBRANCH   9  10
ENDBRANCH   8   9
ENDBRANCH   7   8
ENDBRANCH   6   7
ENDBRANCH   5   6
ENDBRANCH   4   5
ENDBRANCH   3   4
ENDBRANCH   2   3
ENDBRANCH   1   2
BRANCH   1  13
ATOM     13  C   UNL     1     -12.709 -18.455   4.967  1.00  0.00     0.000 C 
BRANCH  13  14
ATOM     14  C   UNL     1     -12.393 -19.358   3.757  1.00  0.00     0.000 C 
BRANCH  14  15
ATOM     15  C   UNL     1     -13.164 -19.020   2.465  1.00  0.00     0.000 C 
BRANCH  15  16
ATOM     16  C   UNL     1     -14.233 -20.050   2.063  1.00  0.00     0.000 C 
BRANCH  16  17
ATOM     17  C   UNL     1     -15.515 -19.933   2.905  1.00  0.00     0.000 C 
BRANCH  17  18
ATOM     18  C   UNL     1     -16.023 -21.298   3.396  1.00  0.00     0.000 C 
BRANCH  18  19
ATOM     19  C   UNL     1     -15.856 -21.475   4.916  1.00  0.00     0.000 C 
BRANCH  19  20
ATOM     20  C   UNL     1     -15.049 -22.732   5.290  1.00  0.00     0.006 C 
BRANCH  20  21
ATOM     21  C   UNL     1     -13.551 -22.635   4.959  1.00  0.00     0.053 C 
BRANCH  21  22
ATOM     22  C   UNL     1     -13.153 -23.531   3.826  1.00  0.00     0.041 C 
ATOM     23  O   UNL     1     -13.404 -24.765   3.878  1.00  0.00    -0.550 OA
ATOM     24  O   UNL     1     -12.530 -23.004   2.703  1.00  0.00    -0.550 OA
ENDBRANCH  21  22
ENDBRANCH  20  21
ENDBRANCH  19  20
ENDBRANCH  18  19
ENDBRANCH  17  18
ENDBRANCH  16  17
ENDBRANCH  15  16
ENDBRANCH  14  15
ENDBRANCH  13  14
ENDBRANCH   1  13
TORSDOF 20
ENDMDL
MODEL 5
REMARK VINA RESULT:    -3.244      2.812      5.544
REMARK INTER + INTRA:         -10.550
REMARK INTER:                  -7.380
REMARK INTRA:                  -3.170
REMARK UNBOUND:                -3.512
REMARK SMILES CCCCCCCCCCCCCCCCCCCCCC(=O)[O-]
REMARK SMILES IDX 12 1 11 2 10 3 9 4 8 5 7 6 6 7 5 8 4 9 3 10 2 11 1 12 13 13
REMARK SMILES IDX 14 14 15 15 16 16 17 17 18 18 19 19 20 20 21 21 22 22 23 23
REMARK SMILES IDX 24 24
REMARK H PARENT
REMARK Flexibility Score: inf
ROOT
ATOM      1  C   UNL     1     -13.076 -12.408   5.192  1.00  0.00     0.000 C 
ENDROOT
BRANCH   1   2
ATOM      2  C   UNL     1     -14.591 -12.293   5.426  1.00  0.00     0.000 C 
BRANCH   2   3
ATOM      3  C   UNL     1     -15.285 -13.663   5.537  1.00  0.00     0.000 C 
BRANCH   3   4
ATOM      4  C   UNL     1     -14.483 -14.848   4.970  1.00  0.00    -0.000 C 
BRANCH   4   5
ATOM      5  C   UNL     1     -15.363 -16.069   4.646  1.00  0.00    -0.000 C 
BRANCH   5   6
ATOM      6  C   UNL     1     -15.938 -16.726   5.919  1.00  0.00    -0.000 C 
BRANCH   6   7
ATOM      7  C   UNL     1     -15.592 -18.220   6.050  1.00  0.00    -0.000 C 
BRANCH   7   8
ATOM      8  C   UNL     1     -14.178 -18.462   6.593  1.00  0.00    -0.000 C 
BRANCH   8   9
ATOM      9  C   UNL     1     -13.414 -19.460   5.715  1.00  0.00    -0.000 C 
BRANCH   9  10
ATOM     10  C   UNL     1     -12.151 -18.819   5.127  1.00  0.00    -0.000 C 
BRANCH  10  11
ATOM     11  C   UNL     1     -12.057 -19.074   3.618  1.00  0.00    -0.003 C 
ATOM     12  C   UNL     1     -12.892 -18.064   2.836  1.00  0.00     0.004 C 
ENDBRANCH  10  11
ENDBRANCH   9  10
ENDBRANCH   8   9
ENDBRANCH   7   8
ENDBRANCH   6   7
ENDBRANCH   5   6
ENDBRANCH   4   5
ENDBRANCH   3   4
ENDBRANCH   2   3
ENDBRANCH   1   2
BRANCH   1  13
ATOM     13  C   UNL     1     -12.621 -11.747   3.878  1.00  0.00     0.000 C 
BRANCH  13  14
ATOM     14  C   UNL     1     -12.624 -12.670   2.643  1.00  0.00     0.000 C 
BRANCH  14  15
ATOM     15  C   UNL     1     -13.629 -12.286   1.538  1.00  0.00     0.000 C 
BRANCH  15  16
ATOM     16  C   UNL     1     -15.058 -12.812   1.755  1.00  0.00     0.000 C 
BRANCH  16  17
ATOM     17  C   UNL     1     -16.042 -11.704   2.168  1.00  0.00     0.000 C 
BRANCH  17  18
ATOM     18  C   UNL     1     -15.460 -10.296   1.965  1.00  0.00     0.000 C 
BRANCH  18  19
ATOM     19  C   UNL     1     -15.752  -9.363   3.154  1.00  0.00     0.000 C 
BRANCH  19  20
ATOM     20  C   UNL     1     -14.489  -8.672   3.701  1.00  0.00     0.006 C 
BRANCH  20  21
ATOM     21  C   UNL     1     -13.468  -8.288   2.617  1.00  0.00     0.053 C 
BRANCH  21  22
ATOM     22  C   UNL     1     -13.566  -6.847   2.219  1.00  0.00     0.041 C 
ATOM     23  O   UNL     1     -12.584  -6.272   1.679  1.00  0.00    -0.550 OA
ATOM     24  O   UNL     1     -14.747  -6.145   2.420  1.00  0.00    -0.550 OA
ENDBRANCH  21  22
ENDBRANCH  20  21
ENDBRANCH  19  20
ENDBRANCH  18  19
ENDBRANCH  17  18
ENDBRANCH  16  17
ENDBRANCH  15  16
ENDBRANCH  14  15
ENDBRANCH  13  14
ENDBRANCH   1  13
TORSDOF 20
ENDMDL
MODEL 6
REMARK VINA RESULT:    -3.234      1.564      2.547
REMARK INTER + INTRA:         -10.527
REMARK INTER:                  -7.302
REMARK INTRA:                  -3.225
REMARK UNBOUND:                -3.512
REMARK SMILES CCCCCCCCCCCCCCCCCCCCCC(=O)[O-]
REMARK SMILES IDX 12 1 11 2 10 3 9 4 8 5 7 6 6 7 5 8 4 9 3 10 2 11 1 12 13 13
REMARK SMILES IDX 14 14 15 15 16 16 17 17 18 18 19 19 20 20 21 21 22 22 23 23
REMARK SMILES IDX 24 24
REMARK H PARENT
REMARK Flexibility Score: inf
ROOT
ATOM      1  C   UNL     1     -15.358 -17.816   6.746  1.00  0.00     0.000 C 
ENDROOT
BRANCH   1   2
ATOM      2  C   UNL     1     -14.178 -18.777   6.529  1.00  0.00     0.000 C 
BRANCH   2   3
ATOM      3  C   UNL     1     -13.816 -18.954   5.043  1.00  0.00     0.000 C 
BRANCH   3   4
ATOM      4  C   UNL     1     -12.307 -18.968   4.736  1.00  0.00    -0.000 C 
BRANCH   4   5
ATOM      5  C   UNL     1     -11.999 -19.211   3.248  1.00  0.00    -0.000 C 
BRANCH   5   6
ATOM      6  C   UNL     1     -13.279 -19.246   2.387  1.00  0.00    -0.000 C 
BRANCH   6   7
ATOM      7  C   UNL     1     -13.488 -20.581   1.651  1.00  0.00    -0.000 C 
BRANCH   7   8
ATOM      8  C   UNL     1     -12.651 -21.725   2.237  1.00  0.00    -0.000 C 
BRANCH   8   9
ATOM      9  C   UNL     1     -13.534 -22.718   3.003  1.00  0.00    -0.000 C 
BRANCH   9  10
ATOM     10  C   UNL     1     -13.129 -22.786   4.480  1.00  0.00    -0.000 C 
BRANCH  10  11
ATOM     11  C   UNL     1     -14.324 -22.486   5.393  1.00  0.00    -0.003 C 
ATOM     12  C   UNL     1     -15.598 -22.279   4.579  1.00  0.00     0.004 C 
ENDBRANCH  10  11
ENDBRANCH   9  10
ENDBRANCH   8   9
ENDBRANCH   7   8
ENDBRANCH   6   7
ENDBRANCH   5   6
ENDBRANCH   4   5
ENDBRANCH   3   4
ENDBRANCH   2   3
ENDBRANCH   1   2
BRANCH   1  13
ATOM     13  C   UNL     1     -15.783 -17.088   5.458  1.00  0.00     0.000 C 
BRANCH  13  14
ATOM     14  C   UNL     1     -15.371 -15.604   5.375  1.00  0.00     0.000 C 
BRANCH  14  15
ATOM     15  C   UNL     1     -14.139 -15.312   4.494  1.00  0.00     0.000 C 
BRANCH  15  16
ATOM     16  C   UNL     1     -14.213 -15.890   3.071  1.00  0.00     0.000 C 
BRANCH  16  17
ATOM     17  C   UNL     1     -13.597 -14.954   2.017  1.00  0.00     0.000 C 
BRANCH  17  18
ATOM     18  C   UNL     1     -14.526 -13.786   1.654  1.00  0.00     0.000 C 
BRANCH  18  19
ATOM     19  C   UNL     1     -13.828 -12.419   1.773  1.00  0.00     0.000 C 
BRANCH  19  20
ATOM     20  C   UNL     1     -12.635 -12.436   2.746  1.00  0.00     0.006 C 
BRANCH  20  21
ATOM     21  C   UNL     1     -12.753 -11.423   3.898  1.00  0.00     0.053 C 
BRANCH  21  22
ATOM     22  C   UNL     1     -13.468 -11.986   5.088  1.00  0.00     0.041 C 
ATOM     23  O   UNL     1     -14.724 -11.916   5.162  1.00  0.00    -0.550 OA
ATOM     24  O   UNL     1     -12.753 -12.609   6.102  1.00  0.00    -0.550 OA
ENDBRANCH  21  22
ENDBRANCH  20  21
ENDBRANCH  19  20
ENDBRANCH  18  19
ENDBRANCH  17  18
ENDBRANCH  16  17
ENDBRANCH  15  16
ENDBRANCH  14  15
ENDBRANCH  13  14
ENDBRANCH   1  13
TORSDOF 20
ENDMDL
MODEL 7
REMARK VINA RESULT:    -3.131      2.269      4.627
REMARK INTER + INTRA:         -10.304
REMARK INTER:                  -7.135
REMARK INTRA:                  -3.169
REMARK UNBOUND:                -3.512
REMARK SMILES CCCCCCCCCCCCCCCCCCCCCC(=O)[O-]
REMARK SMILES IDX 12 1 11 2 10 3 9 4 8 5 7 6 6 7 5 8 4 9 3 10 2 11 1 12 13 13
REMARK SMILES IDX 14 14 15 15 16 16 17 17 18 18 19 19 20 20 21 21 22 22 23 23
REMARK SMILES IDX 24 24
REMARK H PARENT
REMARK Flexibility Score: inf
ROOT
ATOM      1  C   UNL     1     -14.278 -15.113   4.829  1.00  0.00     0.000 C 
ENDROOT
BRANCH   1   2
ATOM      2  C   UNL     1     -14.737 -15.720   3.493  1.00  0.00     0.000 C 
BRANCH   2   3
ATOM      3  C   UNL     1     -15.495 -17.048   3.667  1.00  0.00     0.000 C 
BRANCH   3   4
ATOM      4  C   UNL     1     -16.011 -17.322   5.092  1.00  0.00    -0.000 C 
BRANCH   4   5
ATOM      5  C   UNL     1     -15.622 -18.717   5.613  1.00  0.00    -0.000 C 
BRANCH   5   6
ATOM      6  C   UNL     1     -14.302 -18.692   6.412  1.00  0.00    -0.000 C 
BRANCH   6   7
ATOM      7  C   UNL     1     -13.149 -19.440   5.719  1.00  0.00    -0.000 C 
BRANCH   7   8
ATOM      8  C   UNL     1     -12.119 -18.497   5.085  1.00  0.00    -0.000 C 
BRANCH   8   9
ATOM      9  C   UNL     1     -12.080 -18.666   3.561  1.00  0.00    -0.000 C 
BRANCH   9  10
ATOM     10  C   UNL     1     -13.007 -19.802   3.112  1.00  0.00    -0.000 C 
BRANCH  10  11
ATOM     11  C   UNL     1     -13.456 -19.604   1.659  1.00  0.00    -0.003 C 
ATOM     12  C   UNL     1     -13.035 -18.234   1.136  1.00  0.00     0.004 C 
ENDBRANCH  10  11
ENDBRANCH   9  10
ENDBRANCH   8   9
ENDBRANCH   7   8
ENDBRANCH   6   7
ENDBRANCH   5   6
ENDBRANCH   4   5
ENDBRANCH   3   4
ENDBRANCH   2   3
ENDBRANCH   1   2
BRANCH   1  13
ATOM     13  C   UNL     1     -15.215 -14.002   5.336  1.00  0.00     0.000 C 
BRANCH  13  14
ATOM     14  C   UNL     1     -14.512 -12.707   5.791  1.00  0.00     0.000 C 
BRANCH  14  15
ATOM     15  C   UNL     1     -13.029 -12.586   5.384  1.00  0.00     0.000 C 
BRANCH  15  16
ATOM     16  C   UNL     1     -12.760 -11.637   4.203  1.00  0.00     0.000 C 
BRANCH  16  17
ATOM     17  C   UNL     1     -12.649 -12.378   2.860  1.00  0.00     0.000 C 
BRANCH  17  18
ATOM     18  C   UNL     1     -13.653 -11.859   1.818  1.00  0.00     0.000 C 
BRANCH  18  19
ATOM     19  C   UNL     1     -14.920 -11.271   2.464  1.00  0.00     0.000 C 
BRANCH  19  20
ATOM     20  C   UNL     1     -15.232  -9.841   1.984  1.00  0.00     0.006 C 
BRANCH  20  21
ATOM     21  C   UNL     1     -14.010  -9.085   1.437  1.00  0.00     0.053 C 
BRANCH  21  22
ATOM     22  C   UNL     1     -13.484  -8.067   2.402  1.00  0.00     0.041 C 
ATOM     23  O   UNL     1     -12.932  -7.018   1.977  1.00  0.00    -0.550 OA
ATOM     24  O   UNL     1     -13.624  -8.263   3.770  1.00  0.00    -0.550 OA
ENDBRANCH  21  22
ENDBRANCH  20  21
ENDBRANCH  19  20
ENDBRANCH  18  19
ENDBRANCH  17  18
ENDBRANCH  16  17
ENDBRANCH  15  16
ENDBRANCH  14  15
ENDBRANCH  13  14
ENDBRANCH   1  13
TORSDOF 20
ENDMDL
MODEL 8
REMARK VINA RESULT:    -3.128      1.479      2.064
REMARK INTER + INTRA:         -10.297
REMARK INTER:                  -6.994
REMARK INTRA:                  -3.303
REMARK UNBOUND:                -3.512
REMARK SMILES CCCCCCCCCCCCCCCCCCCCCC(=O)[O-]
REMARK SMILES IDX 12 1 11 2 10 3 9 4 8 5 7 6 6 7 5 8 4 9 3 10 2 11 1 12 13 13
REMARK SMILES IDX 14 14 15 15 16 16 17 17 18 18 19 19 20 20 21 21 22 22 23 23
REMARK SMILES IDX 24 24
REMARK H PARENT
REMARK Flexibility Score: inf
ROOT
ATOM      1  C   UNL     1     -12.576 -18.754   5.383  1.00  0.00     0.000 C 
ENDROOT
BRANCH   1   2
ATOM      2  C   UNL     1     -12.022 -19.170   4.011  1.00  0.00     0.000 C 
BRANCH   2   3
ATOM      3  C   UNL     1     -12.491 -18.248   2.871  1.00  0.00     0.000 C 
BRANCH   3   4
ATOM      4  C   UNL     1     -13.368 -18.926   1.802  1.00  0.00    -0.000 C 
BRANCH   4   5
ATOM      5  C   UNL     1     -14.839 -19.064   2.231  1.00  0.00    -0.000 C 
BRANCH   5   6
ATOM      6  C   UNL     1     -15.253 -20.538   2.425  1.00  0.00    -0.000 C 
BRANCH   6   7
ATOM      7  C   UNL     1     -14.648 -21.490   1.378  1.00  0.00    -0.000 C 
BRANCH   7   8
ATOM      8  C   UNL     1     -14.099 -22.785   1.991  1.00  0.00    -0.000 C 
BRANCH   8   9
ATOM      9  C   UNL     1     -12.876 -22.502   2.871  1.00  0.00    -0.000 C 
BRANCH   9  10
ATOM     10  C   UNL     1     -13.139 -22.913   4.325  1.00  0.00    -0.000 C 
BRANCH  10  11
ATOM     11  C   UNL     1     -14.479 -23.647   4.455  1.00  0.00    -0.003 C 
ATOM     12  C   UNL     1     -15.425 -22.903   5.393  1.00  0.00     0.004 C 
ENDBRANCH  10  11
ENDBRANCH   9  10
ENDBRANCH   8   9
ENDBRANCH   7   8
ENDBRANCH   6   7
ENDBRANCH   5   6
ENDBRANCH   4   5
ENDBRANCH   3   4
ENDBRANCH   2   3
ENDBRANCH   1   2
BRANCH   1  13
ATOM     13  C   UNL     1     -13.813 -19.569   5.802  1.00  0.00     0.000 C 
BRANCH  13  14
ATOM     14  C   UNL     1     -15.130 -18.770   5.881  1.00  0.00     0.000 C 
BRANCH  14  15
ATOM     15  C   UNL     1     -14.966 -17.251   6.096  1.00  0.00     0.000 C 
BRANCH  15  16
ATOM     16  C   UNL     1     -15.393 -16.381   4.901  1.00  0.00     0.000 C 
BRANCH  16  17
ATOM     17  C   UNL     1     -14.221 -15.596   4.289  1.00  0.00     0.000 C 
BRANCH  17  18
ATOM     18  C   UNL     1     -14.487 -14.083   4.242  1.00  0.00     0.000 C 
BRANCH  18  19
ATOM     19  C   UNL     1     -14.118 -13.380   5.561  1.00  0.00     0.000 C 
BRANCH  19  20
ATOM     20  C   UNL     1     -12.965 -12.372   5.404  1.00  0.00     0.006 C 
BRANCH  20  21
ATOM     21  C   UNL     1     -12.992 -11.593   4.077  1.00  0.00     0.053 C 
BRANCH  21  22
ATOM     22  C   UNL     1     -13.688 -10.273   4.200  1.00  0.00     0.041 C 
ATOM     23  O   UNL     1     -13.100  -9.213   3.854  1.00  0.00    -0.550 OA
ATOM     24  O   UNL     1     -14.993 -10.211   4.671  1.00  0.00    -0.550 OA
ENDBRANCH  21  22
ENDBRANCH  20  21
ENDBRANCH  19  20
ENDBRANCH  18  19
ENDBRANCH  17  18
ENDBRANCH  16  17
ENDBRANCH  15  16
ENDBRANCH  14  15
ENDBRANCH  13  14
ENDBRANCH   1  13
TORSDOF 20
ENDMDL
MODEL 9
REMARK VINA RESULT:    -3.087      2.140      4.703
REMARK INTER + INTRA:         -10.209
REMARK INTER:                  -6.787
REMARK INTRA:                  -3.423
REMARK UNBOUND:                -3.512
REMARK SMILES CCCCCCCCCCCCCCCCCCCCCC(=O)[O-]
REMARK SMILES IDX 12 1 11 2 10 3 9 4 8 5 7 6 6 7 5 8 4 9 3 10 2 11 1 12 13 13
REMARK SMILES IDX 14 14 15 15 16 16 17 17 18 18 19 19 20 20 21 21 22 22 23 23
REMARK SMILES IDX 24 24
REMARK H PARENT
REMARK Flexibility Score: inf
ROOT
ATOM      1  C   UNL     1     -13.341 -15.773   1.975  1.00  0.00     0.000 C 
ENDROOT
BRANCH   1   2
ATOM      2  C   UNL     1     -14.582 -15.646   2.873  1.00  0.00     0.000 C 
BRANCH   2   3
ATOM      3  C   UNL     1     -14.247 -15.730   4.374  1.00  0.00     0.000 C 
BRANCH   3   4
ATOM      4  C   UNL     1     -15.441 -15.514   5.321  1.00  0.00    -0.000 C 
BRANCH   4   5
ATOM      5  C   UNL     1     -15.596 -16.640   6.359  1.00  0.00    -0.000 C 
BRANCH   5   6
ATOM      6  C   UNL     1     -15.252 -18.025   5.770  1.00  0.00    -0.000 C 
BRANCH   6   7
ATOM      7  C   UNL     1     -14.099 -18.736   6.501  1.00  0.00    -0.000 C 
BRANCH   7   8
ATOM      8  C   UNL     1     -13.225 -19.578   5.564  1.00  0.00    -0.000 C 
BRANCH   8   9
ATOM      9  C   UNL     1     -12.073 -18.747   4.989  1.00  0.00    -0.000 C 
BRANCH   9  10
ATOM     10  C   UNL     1     -11.990 -18.905   3.465  1.00  0.00    -0.000 C 
BRANCH  10  11
ATOM     11  C   UNL     1     -12.917 -20.024   2.977  1.00  0.00    -0.003 C 
ATOM     12  C   UNL     1     -13.952 -19.489   1.991  1.00  0.00     0.004 C 
ENDBRANCH  10  11
ENDBRANCH   9  10
ENDBRANCH   8   9
ENDBRANCH   7   8
ENDBRANCH   6   7
ENDBRANCH   5   6
ENDBRANCH   4   5
ENDBRANCH   3   4
ENDBRANCH   2   3
ENDBRANCH   1   2
BRANCH   1  13
ATOM     13  C   UNL     1     -12.710 -14.412   1.628  1.00  0.00     0.000 C 
BRANCH  13  14
ATOM     14  C   UNL     1     -13.712 -13.302   1.251  1.00  0.00     0.000 C 
BRANCH  14  15
ATOM     15  C   UNL     1     -13.659 -12.041   2.137  1.00  0.00     0.000 C 
BRANCH  15  16
ATOM     16  C   UNL     1     -12.746 -12.156   3.369  1.00  0.00     0.000 C 
BRANCH  16  17
ATOM     17  C   UNL     1     -13.514 -12.009   4.694  1.00  0.00     0.000 C 
BRANCH  17  18
ATOM     18  C   UNL     1     -15.038 -12.029   4.495  1.00  0.00     0.000 C 
BRANCH  18  19
ATOM     19  C   UNL     1     -15.760 -10.995   5.377  1.00  0.00     0.000 C 
BRANCH  19  20
ATOM     20  C   UNL     1     -15.406  -9.541   5.013  1.00  0.00     0.006 C 
BRANCH  20  21
ATOM     21  C   UNL     1     -15.708  -9.172   3.551  1.00  0.00     0.053 C 
BRANCH  21  22
ATOM     22  C   UNL     1     -14.567  -8.462   2.890  1.00  0.00     0.041 C 
ATOM     23  O   UNL     1     -14.780  -7.695   1.913  1.00  0.00    -0.550 OA
ATOM     24  O   UNL     1     -13.273  -8.624   3.366  1.00  0.00    -0.550 OA
ENDBRANCH  21  22
ENDBRANCH  20  21
ENDBRANCH  19  20
ENDBRANCH  18  19
ENDBRANCH  17  18
ENDBRANCH  16  17
ENDBRANCH  15  16
ENDBRANCH  14  15
ENDBRANCH  13  14
ENDBRANCH   1  13
TORSDOF 20
ENDMDL
