MODEL 1
REMARK VINA RESULT:    -4.810      0.000      0.000
REMARK INTER + INTRA:          -5.306
REMARK INTER:                  -5.232
REMARK INTRA:                  -0.075
REMARK UNBOUND:                -0.075
REMARK SMILES CCc1cccc(O)c1
REMARK SMILES IDX 3 1 9 2 7 3 6 4 5 5 4 6 2 7 1 8 8 9
REMARK H PARENT 8 10
REMARK Flexibility Score: inf
ROOT
ATOM      1  C   UNL     1     -24.573 -11.555 -29.917  1.00  0.00    -0.045 A 
ATOM      2  C   UNL     1     -25.818 -11.807 -29.316  1.00  0.00     0.049 A 
ATOM      3  C   UNL     1     -26.879 -12.321 -30.075  1.00  0.00     0.115 A 
ATOM      4  C   UNL     1     -26.699 -12.577 -31.438  1.00  0.00     0.046 A 
ATOM      5  C   UNL     1     -25.467 -12.315 -32.044  1.00  0.00     0.004 A 
ATOM      6  C   UNL     1     -24.408 -11.802 -31.289  1.00  0.00     0.004 A 
ENDROOT
BRANCH   1   7
ATOM      7  C   UNL     1     -23.445 -10.971 -29.109  1.00  0.00     0.032 C 
ATOM      8  C   UNL     1     -22.132 -11.049 -29.881  1.00  0.00     0.009 C 
ENDBRANCH   1   7
BRANCH   3   9
ATOM      9  O   UNL     1     -28.114 -12.579 -29.485  1.00  0.00    -0.508 OA
ATOM     10  H   UNL     1     -28.245 -12.519 -28.482  1.00  0.00     0.293 HD
ENDBRANCH   3   9
TORSDOF 2
ENDMDL
MODEL 2
REMARK VINA RESULT:    -4.676      1.192      2.078
REMARK INTER + INTRA:          -5.161
REMARK INTER:                  -5.086
REMARK INTRA:                  -0.076
REMARK UNBOUND:                -0.075
REMARK SMILES CCc1cccc(O)c1
REMARK SMILES IDX 3 1 9 2 7 3 6 4 5 5 4 6 2 7 1 8 8 9
REMARK H PARENT 8 10
REMARK Flexibility Score: inf
ROOT
ATOM      1  C   UNL     1     -24.736 -11.722 -30.943  1.00  0.00    -0.045 A 
ATOM      2  C   UNL     1     -25.768 -11.932 -31.873  1.00  0.00     0.049 A 
ATOM      3  C   UNL     1     -27.081 -12.155 -31.435  1.00  0.00     0.115 A 
ATOM      4  C   UNL     1     -27.363 -12.176 -30.065  1.00  0.00     0.046 A 
ATOM      5  C   UNL     1     -26.337 -11.981 -29.135  1.00  0.00     0.004 A 
ATOM      6  C   UNL     1     -25.028 -11.759 -29.570  1.00  0.00     0.004 A 
ENDROOT
BRANCH   1   7
ATOM      7  C   UNL     1     -23.321 -11.516 -31.414  1.00  0.00     0.032 C 
ATOM      8  C   UNL     1     -22.383 -11.310 -30.230  1.00  0.00     0.009 C 
ENDBRANCH   1   7
BRANCH   3   9
ATOM      9  O   UNL     1     -28.111 -12.358 -32.351  1.00  0.00    -0.508 OA
ATOM     10  H   UNL     1     -28.930 -11.762 -32.366  1.00  0.00     0.293 HD
ENDBRANCH   3   9
TORSDOF 2
ENDMDL
MODEL 3
REMARK VINA RESULT:    -4.663      2.503      4.323
REMARK INTER + INTRA:          -5.147
REMARK INTER:                  -5.077
REMARK INTRA:                  -0.070
REMARK UNBOUND:                -0.075
REMARK SMILES CCc1cccc(O)c1
REMARK SMILES IDX 3 1 9 2 7 3 6 4 5 5 4 6 2 7 1 8 8 9
REMARK H PARENT 8 10
REMARK Flexibility Score: inf
ROOT
ATOM      1  C   UNL     1     -24.933 -11.670 -30.636  1.00  0.00    -0.045 A 
ATOM      2  C   UNL     1     -23.647 -11.682 -31.201  1.00  0.00     0.049 A 
ATOM      3  C   UNL     1     -22.554 -11.178 -30.483  1.00  0.00     0.115 A 
ATOM      4  C   UNL     1     -22.746 -10.655 -29.200  1.00  0.00     0.046 A 
ATOM      5  C   UNL     1     -24.025 -10.628 -28.638  1.00  0.00     0.004 A 
ATOM      6  C   UNL     1     -25.117 -11.129 -29.353  1.00  0.00     0.004 A 
ENDROOT
BRANCH   1   7
ATOM      7  C   UNL     1     -26.112 -12.180 -31.421  1.00  0.00     0.032 C 
ATOM      8  C   UNL     1     -27.103 -12.891 -30.506  1.00  0.00     0.009 C 
ENDBRANCH   1   7
BRANCH   3   9
ATOM      9  O   UNL     1     -21.274 -11.193 -31.034  1.00  0.00    -0.508 OA
ATOM     10  H   UNL     1     -20.446 -11.216 -30.450  1.00  0.00     0.293 HD
ENDBRANCH   3   9
TORSDOF 2
ENDMDL
MODEL 4
REMARK VINA RESULT:    -4.644      1.352      2.748
REMARK INTER + INTRA:          -5.126
REMARK INTER:                  -5.051
REMARK INTRA:                  -0.076
REMARK UNBOUND:                -0.075
REMARK SMILES CCc1cccc(O)c1
REMARK SMILES IDX 3 1 9 2 7 3 6 4 5 5 4 6 2 7 1 8 8 9
REMARK H PARENT 8 10
REMARK Flexibility Score: inf
ROOT
ATOM      1  C   UNL     1     -25.631 -11.894 -30.584  1.00  0.00    -0.045 A 
ATOM      2  C   UNL     1     -26.816 -12.092 -29.856  1.00  0.00     0.049 A 
ATOM      3  C   UNL     1     -26.950 -11.566 -28.564  1.00  0.00     0.115 A 
ATOM      4  C   UNL     1     -25.895 -10.846 -27.993  1.00  0.00     0.046 A 
ATOM      5  C   UNL     1     -24.708 -10.657 -28.707  1.00  0.00     0.004 A 
ATOM      6  C   UNL     1     -24.573 -11.182 -29.996  1.00  0.00     0.004 A 
ENDROOT
BRANCH   1   7
ATOM      7  C   UNL     1     -25.475 -12.488 -31.958  1.00  0.00     0.032 C 
ATOM      8  C   UNL     1     -24.086 -12.200 -32.517  1.00  0.00     0.009 C 
ENDBRANCH   1   7
BRANCH   3   9
ATOM      9  O   UNL     1     -28.125 -11.753 -27.838  1.00  0.00    -0.508 OA
ATOM     10  H   UNL     1     -28.308 -11.236 -26.986  1.00  0.00     0.293 HD
ENDBRANCH   3   9
TORSDOF 2
ENDMDL
MODEL 5
REMARK VINA RESULT:    -4.571      1.417      2.415
REMARK INTER + INTRA:          -5.046
REMARK INTER:                  -4.995
REMARK INTRA:                  -0.051
REMARK UNBOUND:                -0.075
REMARK SMILES CCc1cccc(O)c1
REMARK SMILES IDX 3 1 9 2 7 3 6 4 5 5 4 6 2 7 1 8 8 9
REMARK H PARENT 8 10
REMARK Flexibility Score: inf
ROOT
ATOM      1  C   UNL     1     -25.456 -11.001 -28.911  1.00  0.00    -0.045 A 
ATOM      2  C   UNL     1     -25.776 -11.944 -29.902  1.00  0.00     0.049 A 
ATOM      3  C   UNL     1     -27.110 -12.320 -30.116  1.00  0.00     0.115 A 
ATOM      4  C   UNL     1     -28.125 -11.759 -29.334  1.00  0.00     0.046 A 
ATOM      5  C   UNL     1     -27.810 -10.830 -28.338  1.00  0.00     0.004 A 
ATOM      6  C   UNL     1     -26.481 -10.454 -28.123  1.00  0.00     0.004 A 
ENDROOT
BRANCH   1   7
ATOM      7  C   UNL     1     -24.020 -10.623 -28.659  1.00  0.00     0.032 C 
ATOM      8  C   UNL     1     -23.093 -11.347 -29.629  1.00  0.00     0.009 C 
ENDBRANCH   1   7
BRANCH   3   9
ATOM      9  O   UNL     1     -27.437 -13.251 -31.100  1.00  0.00    -0.508 OA
ATOM     10  H   UNL     1     -26.838 -14.043 -31.299  1.00  0.00     0.293 HD
ENDBRANCH   3   9
TORSDOF 2
ENDMDL
MODEL 6
REMARK VINA RESULT:    -4.497      2.130      3.410
REMARK INTER + INTRA:          -4.966
REMARK INTER:                  -4.896
REMARK INTRA:                  -0.070
REMARK UNBOUND:                -0.075
REMARK SMILES CCc1cccc(O)c1
REMARK SMILES IDX 3 1 9 2 7 3 6 4 5 5 4 6 2 7 1 8 8 9
REMARK H PARENT 8 10
REMARK Flexibility Score: inf
ROOT
ATOM      1  C   UNL     1     -26.184 -11.705 -29.310  1.00  0.00    -0.045 A 
ATOM      2  C   UNL     1     -24.886 -11.389 -29.746  1.00  0.00     0.049 A 
ATOM      3  C   UNL     1     -24.475 -11.719 -31.045  1.00  0.00     0.115 A 
ATOM      4  C   UNL     1     -25.360 -12.372 -31.909  1.00  0.00     0.046 A 
ATOM      5  C   UNL     1     -26.648 -12.701 -31.477  1.00  0.00     0.004 A 
ATOM      6  C   UNL     1     -27.059 -12.373 -30.181  1.00  0.00     0.004 A 
ENDROOT
BRANCH   1   7
ATOM      7  C   UNL     1     -26.613 -11.381 -27.904  1.00  0.00     0.032 C 
ATOM      8  C   UNL     1     -28.088 -10.998 -27.865  1.00  0.00     0.009 C 
ENDBRANCH   1   7
BRANCH   3   9
ATOM      9  O   UNL     1     -23.192 -11.403 -31.486  1.00  0.00    -0.508 OA
ATOM     10  H   UNL     1     -22.678 -12.020 -32.104  1.00  0.00     0.293 HD
ENDBRANCH   3   9
TORSDOF 2
ENDMDL
MODEL 7
REMARK VINA RESULT:    -4.469      1.523      2.177
REMARK INTER + INTRA:          -4.936
REMARK INTER:                  -4.864
REMARK INTRA:                  -0.072
REMARK UNBOUND:                -0.075
REMARK SMILES CCc1cccc(O)c1
REMARK SMILES IDX 3 1 9 2 7 3 6 4 5 5 4 6 2 7 1 8 8 9
REMARK H PARENT 8 10
REMARK Flexibility Score: inf
ROOT
ATOM      1  C   UNL     1     -25.321 -11.881 -31.009  1.00  0.00    -0.045 A 
ATOM      2  C   UNL     1     -25.543 -11.773 -29.625  1.00  0.00     0.049 A 
ATOM      3  C   UNL     1     -26.841 -11.876 -29.107  1.00  0.00     0.115 A 
ATOM      4  C   UNL     1     -27.921 -12.079 -29.972  1.00  0.00     0.046 A 
ATOM      5  C   UNL     1     -27.708 -12.174 -31.350  1.00  0.00     0.004 A 
ATOM      6  C   UNL     1     -26.414 -12.071 -31.869  1.00  0.00     0.004 A 
ENDROOT
BRANCH   1   7
ATOM      7  C   UNL     1     -23.930 -11.738 -31.568  1.00  0.00     0.032 C 
ATOM      8  C   UNL     1     -23.812 -12.450 -32.911  1.00  0.00     0.009 C 
ENDBRANCH   1   7
BRANCH   3   9
ATOM      9  O   UNL     1     -27.069 -11.776 -27.736  1.00  0.00    -0.508 OA
ATOM     10  H   UNL     1     -27.285 -12.591 -27.175  1.00  0.00     0.293 HD
ENDBRANCH   3   9
TORSDOF 2
ENDMDL
MODEL 8
REMARK VINA RESULT:    -4.419      2.467      3.516
REMARK INTER + INTRA:          -4.882
REMARK INTER:                  -4.835
REMARK INTRA:                  -0.046
REMARK UNBOUND:                -0.075
REMARK SMILES CCc1cccc(O)c1
REMARK SMILES IDX 3 1 9 2 7 3 6 4 5 5 4 6 2 7 1 8 8 9
REMARK H PARENT 8 10
REMARK Flexibility Score: inf
ROOT
ATOM      1  C   UNL     1     -25.244 -11.749 -29.949  1.00  0.00    -0.045 A 
ATOM      2  C   UNL     1     -23.913 -11.431 -29.633  1.00  0.00     0.049 A 
ATOM      3  C   UNL     1     -22.933 -11.411 -30.636  1.00  0.00     0.115 A 
ATOM      4  C   UNL     1     -23.283 -11.716 -31.956  1.00  0.00     0.046 A 
ATOM      5  C   UNL     1     -24.603 -12.047 -32.273  1.00  0.00     0.004 A 
ATOM      6  C   UNL     1     -25.581 -12.067 -31.274  1.00  0.00     0.004 A 
ENDROOT
BRANCH   1   7
ATOM      7  C   UNL     1     -26.289 -11.803 -28.866  1.00  0.00     0.032 C 
ATOM      8  C   UNL     1     -26.323 -10.494 -28.083  1.00  0.00     0.009 C 
ENDBRANCH   1   7
BRANCH   3   9
ATOM      9  O   UNL     1     -21.611 -11.090 -30.332  1.00  0.00    -0.508 OA
ATOM     10  H   UNL     1     -21.005 -10.648 -31.013  1.00  0.00     0.293 HD
ENDBRANCH   3   9
TORSDOF 2
ENDMDL
MODEL 9
REMARK VINA RESULT:    -4.265      2.618      3.976
REMARK INTER + INTRA:          -4.713
REMARK INTER:                  -4.667
REMARK INTRA:                  -0.047
REMARK UNBOUND:                -0.075
REMARK SMILES CCc1cccc(O)c1
REMARK SMILES IDX 3 1 9 2 7 3 6 4 5 5 4 6 2 7 1 8 8 9
REMARK H PARENT 8 10
REMARK Flexibility Score: inf
ROOT
ATOM      1  C   UNL     1     -26.045 -11.194 -28.683  1.00  0.00    -0.045 A 
ATOM      2  C   UNL     1     -25.042 -10.394 -28.111  1.00  0.00     0.049 A 
ATOM      3  C   UNL     1     -23.800 -10.253 -28.746  1.00  0.00     0.115 A 
ATOM      4  C   UNL     1     -23.557 -10.919 -29.952  1.00  0.00     0.046 A 
ATOM      5  C   UNL     1     -24.547 -11.727 -30.519  1.00  0.00     0.004 A 
ATOM      6  C   UNL     1     -25.785 -11.869 -29.886  1.00  0.00     0.004 A 
ENDROOT
BRANCH   1   7
ATOM      7  C   UNL     1     -27.366 -11.371 -27.983  1.00  0.00     0.032 C 
ATOM      8  C   UNL     1     -27.959 -10.020 -27.599  1.00  0.00     0.009 C 
ENDBRANCH   1   7
BRANCH   3   9
ATOM      9  O   UNL     1     -22.802  -9.456 -28.188  1.00  0.00    -0.508 OA
ATOM     10  H   UNL     1     -21.992  -9.863 -27.737  1.00  0.00     0.293 HD
ENDBRANCH   3   9
TORSDOF 2
ENDMDL
