MODEL 1
REMARK VINA RESULT:    -4.839      0.000      0.000
REMARK INTER + INTRA:          -5.313
REMARK INTER:                  -5.264
REMARK INTRA:                  -0.050
REMARK UNBOUND:                -0.050
REMARK SMILES COc1cc2ccc(=O)oc2cc1O
REMARK SMILES IDX 3 1 13 2 12 3 11 4 5 5 4 6 6 7 7 8 8 9 9 10 10 11 2 12 1 13
REMARK SMILES IDX 14 14
REMARK H PARENT 14 15
REMARK Flexibility Score: inf
ROOT
ATOM      1  C   UNL     1       3.355 -13.338  15.187  1.00  0.00     0.161 A 
ATOM      2  C   UNL     1       2.294 -14.192  14.829  1.00  0.00     0.161 A 
ATOM      3  C   UNL     1       2.550 -15.519  14.464  1.00  0.00     0.098 A 
ATOM      4  C   UNL     1       3.858 -16.009  14.451  1.00  0.00     0.142 A 
ATOM      5  C   UNL     1       4.927 -15.161  14.807  1.00  0.00     0.022 A 
ATOM      6  C   UNL     1       4.675 -13.832  15.174  1.00  0.00     0.062 A 
ATOM      7  C   UNL     1       6.225 -15.681  14.785  1.00  0.00     0.019 A 
ATOM      8  C   UNL     1       6.424 -17.010  14.413  1.00  0.00     0.094 A 
ATOM      9  C   UNL     1       5.315 -17.792  14.073  1.00  0.00     0.336 A 
ATOM     10  O   UNL     1       5.474 -18.994  13.734  1.00  0.00    -0.246 OA
ATOM     11  O   UNL     1       4.091 -17.272  14.102  1.00  0.00    -0.423 OA
ENDROOT
BRANCH   1  12
ATOM     12  O   UNL     1       3.063 -12.012  15.548  1.00  0.00    -0.493 OA
ATOM     13  C   UNL     1       3.790 -10.874  15.098  1.00  0.00     0.278 C 
ENDBRANCH   1  12
BRANCH   2  14
ATOM     14  O   UNL     1       0.975 -13.740  14.830  1.00  0.00    -0.504 OA
ATOM     15  H   UNL     1       0.357 -13.876  15.621  1.00  0.00     0.293 HD
ENDBRANCH   2  14
TORSDOF 2
ENDMDL
MODEL 2
REMARK VINA RESULT:    -4.436      1.485      5.441
REMARK INTER + INTRA:          -4.875
REMARK INTER:                  -4.825
REMARK INTRA:                  -0.051
REMARK UNBOUND:                -0.050
REMARK SMILES COc1cc2ccc(=O)oc2cc1O
REMARK SMILES IDX 3 1 13 2 12 3 11 4 5 5 4 6 6 7 7 8 8 9 9 10 10 11 2 12 1 13
REMARK SMILES IDX 14 14
REMARK H PARENT 14 15
REMARK Flexibility Score: inf
ROOT
ATOM      1  C   UNL     1       5.949 -17.278  14.015  1.00  0.00     0.161 A 
ATOM      2  C   UNL     1       6.776 -16.140  14.085  1.00  0.00     0.161 A 
ATOM      3  C   UNL     1       6.252 -14.913  14.510  1.00  0.00     0.098 A 
ATOM      4  C   UNL     1       4.906 -14.805  14.867  1.00  0.00     0.142 A 
ATOM      5  C   UNL     1       4.070 -15.939  14.800  1.00  0.00     0.022 A 
ATOM      6  C   UNL     1       4.591 -17.168  14.376  1.00  0.00     0.062 A 
ATOM      7  C   UNL     1       2.727 -15.798  15.165  1.00  0.00     0.019 A 
ATOM      8  C   UNL     1       2.257 -14.553  15.580  1.00  0.00     0.094 A 
ATOM      9  C   UNL     1       3.145 -13.473  15.623  1.00  0.00     0.336 A 
ATOM     10  O   UNL     1       2.740 -12.341  15.994  1.00  0.00    -0.246 OA
ATOM     11  O   UNL     1       4.418 -13.634  15.269  1.00  0.00    -0.423 OA
ENDROOT
BRANCH   1  12
ATOM     12  O   UNL     1       6.507 -18.493  13.584  1.00  0.00    -0.493 OA
ATOM     13  C   UNL     1       6.314 -19.745  14.232  1.00  0.00     0.278 C 
ENDBRANCH   1  12
BRANCH   2  14
ATOM     14  O   UNL     1       8.124 -16.207  13.736  1.00  0.00    -0.504 OA
ATOM     15  H   UNL     1       8.477 -16.885  13.071  1.00  0.00     0.293 HD
ENDBRANCH   2  14
TORSDOF 2
ENDMDL
MODEL 3
REMARK VINA RESULT:    -4.409      1.883      2.105
REMARK INTER + INTRA:          -4.846
REMARK INTER:                  -4.801
REMARK INTRA:                  -0.044
REMARK UNBOUND:                -0.050
REMARK SMILES COc1cc2ccc(=O)oc2cc1O
REMARK SMILES IDX 3 1 13 2 12 3 11 4 5 5 4 6 6 7 7 8 8 9 9 10 10 11 2 12 1 13
REMARK SMILES IDX 14 14
REMARK H PARENT 14 15
REMARK Flexibility Score: inf
ROOT
ATOM      1  C   UNL     1       2.973 -14.585  16.708  1.00  0.00     0.161 A 
ATOM      2  C   UNL     1       2.531 -14.627  15.372  1.00  0.00     0.161 A 
ATOM      3  C   UNL     1       3.012 -15.613  14.501  1.00  0.00     0.098 A 
ATOM      4  C   UNL     1       3.934 -16.561  14.948  1.00  0.00     0.142 A 
ATOM      5  C   UNL     1       4.383 -16.527  16.284  1.00  0.00     0.022 A 
ATOM      6  C   UNL     1       3.904 -15.543  17.159  1.00  0.00     0.062 A 
ATOM      7  C   UNL     1       5.307 -17.491  16.702  1.00  0.00     0.019 A 
ATOM      8  C   UNL     1       5.754 -18.449  15.793  1.00  0.00     0.094 A 
ATOM      9  C   UNL     1       5.264 -18.423  14.483  1.00  0.00     0.336 A 
ATOM     10  O   UNL     1       5.655 -19.279  13.648  1.00  0.00    -0.246 OA
ATOM     11  O   UNL     1       4.386 -17.494  14.112  1.00  0.00    -0.423 OA
ENDROOT
BRANCH   1  12
ATOM     12  O   UNL     1       2.470 -13.583  17.555  1.00  0.00    -0.493 OA
ATOM     13  C   UNL     1       2.453 -13.660  18.976  1.00  0.00     0.278 C 
ENDBRANCH   1  12
BRANCH   2  14
ATOM     14  O   UNL     1       1.611 -13.698  14.888  1.00  0.00    -0.504 OA
ATOM     15  H   UNL     1       0.610 -13.835  14.969  1.00  0.00     0.293 HD
ENDBRANCH   2  14
TORSDOF 2
ENDMDL
MODEL 4
REMARK VINA RESULT:    -4.217      1.891      5.199
REMARK INTER + INTRA:          -4.636
REMARK INTER:                  -4.573
REMARK INTRA:                  -0.063
REMARK UNBOUND:                -0.050
REMARK SMILES COc1cc2ccc(=O)oc2cc1O
REMARK SMILES IDX 3 1 13 2 12 3 11 4 5 5 4 6 6 7 7 8 8 9 9 10 10 11 2 12 1 13
REMARK SMILES IDX 14 14
REMARK H PARENT 14 15
REMARK Flexibility Score: inf
ROOT
ATOM      1  C   UNL     1       4.283 -17.316  15.964  1.00  0.00     0.161 A 
ATOM      2  C   UNL     1       4.151 -16.910  14.622  1.00  0.00     0.161 A 
ATOM      3  C   UNL     1       3.782 -15.594  14.317  1.00  0.00     0.098 A 
ATOM      4  C   UNL     1       3.540 -14.673  15.338  1.00  0.00     0.142 A 
ATOM      5  C   UNL     1       3.668 -15.071  16.685  1.00  0.00     0.022 A 
ATOM      6  C   UNL     1       4.039 -16.386  16.995  1.00  0.00     0.062 A 
ATOM      7  C   UNL     1       3.420 -14.125  17.685  1.00  0.00     0.019 A 
ATOM      8  C   UNL     1       3.054 -12.829  17.326  1.00  0.00     0.094 A 
ATOM      9  C   UNL     1       2.947 -12.505  15.970  1.00  0.00     0.336 A 
ATOM     10  O   UNL     1       2.618 -11.341  15.625  1.00  0.00    -0.246 OA
ATOM     11  O   UNL     1       3.189 -13.425  15.038  1.00  0.00    -0.423 OA
ENDROOT
BRANCH   1  12
ATOM     12  O   UNL     1       4.655 -18.643  16.235  1.00  0.00    -0.493 OA
ATOM     13  C   UNL     1       5.989 -19.075  16.478  1.00  0.00     0.278 C 
ENDBRANCH   1  12
BRANCH   2  14
ATOM     14  O   UNL     1       4.384 -17.800  13.574  1.00  0.00    -0.504 OA
ATOM     15  H   UNL     1       3.723 -18.526  13.325  1.00  0.00     0.293 HD
ENDBRANCH   2  14
TORSDOF 2
ENDMDL
MODEL 5
REMARK VINA RESULT:    -4.212     17.600     19.810
REMARK INTER + INTRA:          -4.631
REMARK INTER:                  -4.587
REMARK INTRA:                  -0.044
REMARK UNBOUND:                -0.050
REMARK SMILES COc1cc2ccc(=O)oc2cc1O
REMARK SMILES IDX 3 1 13 2 12 3 11 4 5 5 4 6 6 7 7 8 8 9 9 10 10 11 2 12 1 13
REMARK SMILES IDX 14 14
REMARK H PARENT 14 15
REMARK Flexibility Score: inf
ROOT
ATOM      1  C   UNL     1     -10.607  -8.525   6.658  1.00  0.00     0.161 A 
ATOM      2  C   UNL     1      -9.924  -7.294   6.603  1.00  0.00     0.161 A 
ATOM      3  C   UNL     1      -9.947  -6.527   5.431  1.00  0.00     0.098 A 
ATOM      4  C   UNL     1     -10.646  -6.974   4.308  1.00  0.00     0.142 A 
ATOM      5  C   UNL     1     -11.332  -8.206   4.353  1.00  0.00     0.022 A 
ATOM      6  C   UNL     1     -11.311  -8.976   5.524  1.00  0.00     0.062 A 
ATOM      7  C   UNL     1     -12.023  -8.626   3.212  1.00  0.00     0.019 A 
ATOM      8  C   UNL     1     -12.013  -7.823   2.072  1.00  0.00     0.094 A 
ATOM      9  C   UNL     1     -11.311  -6.614   2.100  1.00  0.00     0.336 A 
ATOM     10  O   UNL     1     -11.290  -5.876   1.081  1.00  0.00    -0.246 OA
ATOM     11  O   UNL     1     -10.662  -6.238   3.199  1.00  0.00    -0.423 OA
ENDROOT
BRANCH   1  12
ATOM     12  O   UNL     1     -10.562  -9.269   7.849  1.00  0.00    -0.493 OA
ATOM     13  C   UNL     1     -10.880 -10.653   7.949  1.00  0.00     0.278 C 
ENDBRANCH   1  12
BRANCH   2  14
ATOM     14  O   UNL     1      -9.215  -6.814   7.703  1.00  0.00    -0.504 OA
ATOM     15  H   UNL     1      -9.315  -5.864   8.038  1.00  0.00     0.293 HD
ENDBRANCH   2  14
TORSDOF 2
ENDMDL
MODEL 6
REMARK VINA RESULT:    -4.082      2.461      5.445
REMARK INTER + INTRA:          -4.490
REMARK INTER:                  -4.435
REMARK INTRA:                  -0.055
REMARK UNBOUND:                -0.050
REMARK SMILES COc1cc2ccc(=O)oc2cc1O
REMARK SMILES IDX 3 1 13 2 12 3 11 4 5 5 4 6 6 7 7 8 8 9 9 10 10 11 2 12 1 13
REMARK SMILES IDX 14 14
REMARK H PARENT 14 15
REMARK Flexibility Score: inf
ROOT
ATOM      1  C   UNL     1       5.825 -18.359  16.769  1.00  0.00     0.161 A 
ATOM      2  C   UNL     1       5.611 -18.739  15.430  1.00  0.00     0.161 A 
ATOM      3  C   UNL     1       4.741 -18.002  14.618  1.00  0.00     0.098 A 
ATOM      4  C   UNL     1       4.076 -16.884  15.127  1.00  0.00     0.142 A 
ATOM      5  C   UNL     1       4.283 -16.496  16.467  1.00  0.00     0.022 A 
ATOM      6  C   UNL     1       5.154 -17.231  17.283  1.00  0.00     0.062 A 
ATOM      7  C   UNL     1       3.604 -15.371  16.947  1.00  0.00     0.019 A 
ATOM      8  C   UNL     1       2.749 -14.673  16.096  1.00  0.00     0.094 A 
ATOM      9  C   UNL     1       2.593 -15.116  14.779  1.00  0.00     0.336 A 
ATOM     10  O   UNL     1       1.825 -14.499  13.995  1.00  0.00    -0.246 OA
ATOM     11  O   UNL     1       3.251 -16.189  14.347  1.00  0.00    -0.423 OA
ENDROOT
BRANCH   1  12
ATOM     12  O   UNL     1       6.704 -19.122  17.556  1.00  0.00    -0.493 OA
ATOM     13  C   UNL     1       6.361 -19.722  18.800  1.00  0.00     0.278 C 
ENDBRANCH   1  12
BRANCH   2  14
ATOM     14  O   UNL     1       6.256 -19.850  14.885  1.00  0.00    -0.504 OA
ATOM     15  H   UNL     1       6.797 -20.492  15.451  1.00  0.00     0.293 HD
ENDBRANCH   2  14
TORSDOF 2
ENDMDL
MODEL 7
REMARK VINA RESULT:    -4.040      2.099      3.374
REMARK INTER + INTRA:          -4.444
REMARK INTER:                  -4.385
REMARK INTRA:                  -0.059
REMARK UNBOUND:                -0.050
REMARK SMILES COc1cc2ccc(=O)oc2cc1O
REMARK SMILES IDX 3 1 13 2 12 3 11 4 5 5 4 6 6 7 7 8 8 9 9 10 10 11 2 12 1 13
REMARK SMILES IDX 14 14
REMARK H PARENT 14 15
REMARK Flexibility Score: inf
ROOT
ATOM      1  C   UNL     1       4.924 -11.641  14.148  1.00  0.00     0.161 A 
ATOM      2  C   UNL     1       6.160 -12.272  14.393  1.00  0.00     0.161 A 
ATOM      3  C   UNL     1       6.202 -13.627  14.743  1.00  0.00     0.098 A 
ATOM      4  C   UNL     1       5.022 -14.365  14.853  1.00  0.00     0.142 A 
ATOM      5  C   UNL     1       3.780 -13.742  14.610  1.00  0.00     0.022 A 
ATOM      6  C   UNL     1       3.734 -12.387  14.260  1.00  0.00     0.062 A 
ATOM      7  C   UNL     1       2.616 -14.509  14.728  1.00  0.00     0.019 A 
ATOM      8  C   UNL     1       2.715 -15.854  15.079  1.00  0.00     0.094 A 
ATOM      9  C   UNL     1       3.981 -16.405  15.305  1.00  0.00     0.336 A 
ATOM     10  O   UNL     1       4.091 -17.618  15.623  1.00  0.00    -0.246 OA
ATOM     11  O   UNL     1       5.072 -15.653  15.186  1.00  0.00    -0.423 OA
ENDROOT
BRANCH   1  12
ATOM     12  O   UNL     1       4.918 -10.280  13.800  1.00  0.00    -0.493 OA
ATOM     13  C   UNL     1       4.297  -9.253  14.566  1.00  0.00     0.278 C 
ENDBRANCH   1  12
BRANCH   2  14
ATOM     14  O   UNL     1       7.360 -11.568  14.294  1.00  0.00    -0.504 OA
ATOM     15  H   UNL     1       8.162 -11.936  13.798  1.00  0.00     0.293 HD
ENDBRANCH   2  14
TORSDOF 2
ENDMDL
MODEL 8
REMARK VINA RESULT:    -3.902     12.649     14.775
REMARK INTER + INTRA:          -4.294
REMARK INTER:                  -4.244
REMARK INTRA:                  -0.050
REMARK UNBOUND:                -0.050
REMARK SMILES COc1cc2ccc(=O)oc2cc1O
REMARK SMILES IDX 3 1 13 2 12 3 11 4 5 5 4 6 6 7 7 8 8 9 9 10 10 11 2 12 1 13
REMARK SMILES IDX 14 14
REMARK H PARENT 14 15
REMARK Flexibility Score: inf
ROOT
ATOM      1  C   UNL     1       3.744 -23.722   4.379  1.00  0.00     0.161 A 
ATOM      2  C   UNL     1       3.067 -23.871   5.605  1.00  0.00     0.161 A 
ATOM      3  C   UNL     1       1.770 -24.397   5.635  1.00  0.00     0.098 A 
ATOM      4  C   UNL     1       1.135 -24.779   4.452  1.00  0.00     0.142 A 
ATOM      5  C   UNL     1       1.804 -24.634   3.219  1.00  0.00     0.022 A 
ATOM      6  C   UNL     1       3.102 -24.108   3.184  1.00  0.00     0.062 A 
ATOM      7  C   UNL     1       1.141 -25.026   2.051  1.00  0.00     0.019 A 
ATOM      8  C   UNL     1      -0.150 -25.544   2.139  1.00  0.00     0.094 A 
ATOM      9  C   UNL     1      -0.751 -25.660   3.396  1.00  0.00     0.336 A 
ATOM     10  O   UNL     1      -1.917 -26.125   3.496  1.00  0.00    -0.246 OA
ATOM     11  O   UNL     1      -0.098 -25.279   4.491  1.00  0.00    -0.423 OA
ENDROOT
BRANCH   1  12
ATOM     12  O   UNL     1       5.044 -23.190   4.384  1.00  0.00    -0.493 OA
ATOM     13  C   UNL     1       5.507 -22.179   3.495  1.00  0.00     0.278 C 
ENDBRANCH   1  12
BRANCH   2  14
ATOM     14  O   UNL     1       3.668 -23.500   6.808  1.00  0.00    -0.504 OA
ATOM     15  H   UNL     1       3.434 -23.944   7.688  1.00  0.00     0.293 HD
ENDBRANCH   2  14
TORSDOF 2
ENDMDL
