MODEL 1
REMARK VINA RESULT:    -4.404      0.000      0.000
REMARK INTER + INTRA:          -4.722
REMARK INTER:                  -4.662
REMARK INTRA:                  -0.060
REMARK UNBOUND:                -0.060
REMARK SMILES CC(=O)c1ccccc1
REMARK SMILES IDX 4 1 5 2 6 3 7 4 8 5 9 6 2 7 1 8 3 9
REMARK H PARENT
REMARK Flexibility Score: inf
ROOT
ATOM      1  C   UNL     1      16.757 -51.779   7.957  1.00  0.00     0.017 A 
ATOM      2  C   UNL     1      17.818 -51.668   7.034  1.00  0.00     0.012 A 
ATOM      3  C   UNL     1      18.798 -50.683   7.194  1.00  0.00     0.001 A 
ATOM      4  C   UNL     1      18.737 -49.801   8.274  1.00  0.00     0.000 A 
ATOM      5  C   UNL     1      17.695 -49.899   9.196  1.00  0.00     0.001 A 
ATOM      6  C   UNL     1      16.710 -50.880   9.041  1.00  0.00     0.012 A 
ENDROOT
BRANCH   1   7
ATOM      7  C   UNL     1      15.705 -52.818   7.805  1.00  0.00     0.159 C 
ATOM      8  C   UNL     1      14.278 -52.465   7.510  1.00  0.00     0.093 C 
ATOM      9  O   UNL     1      16.006 -54.037   7.926  1.00  0.00    -0.295 OA
ENDBRANCH   1   7
TORSDOF 1
ENDMDL
MODEL 2
REMARK VINA RESULT:    -4.384      0.964      1.971
REMARK INTER + INTRA:          -4.701
REMARK INTER:                  -4.641
REMARK INTRA:                  -0.059
REMARK UNBOUND:                -0.060
REMARK SMILES CC(=O)c1ccccc1
REMARK SMILES IDX 4 1 5 2 6 3 7 4 8 5 9 6 2 7 1 8 3 9
REMARK H PARENT
REMARK Flexibility Score: inf
ROOT
ATOM      1  C   UNL     1      16.635 -51.600   7.987  1.00  0.00     0.017 A 
ATOM      2  C   UNL     1      16.623 -50.792   9.142  1.00  0.00     0.012 A 
ATOM      3  C   UNL     1      17.655 -49.878   9.380  1.00  0.00     0.001 A 
ATOM      4  C   UNL     1      18.707 -49.756   8.472  1.00  0.00     0.000 A 
ATOM      5  C   UNL     1      18.732 -50.547   7.323  1.00  0.00     0.001 A 
ATOM      6  C   UNL     1      17.705 -51.465   7.080  1.00  0.00     0.012 A 
ENDROOT
BRANCH   1   7
ATOM      7  C   UNL     1      15.548 -52.578   7.715  1.00  0.00     0.159 C 
ATOM      8  C   UNL     1      15.756 -54.056   7.862  1.00  0.00     0.093 C 
ATOM      9  O   UNL     1      14.413 -52.168   7.349  1.00  0.00    -0.295 OA
ENDBRANCH   1   7
TORSDOF 1
ENDMDL
MODEL 3
REMARK VINA RESULT:    -4.352      2.466      3.368
REMARK INTER + INTRA:          -4.667
REMARK INTER:                  -4.608
REMARK INTRA:                  -0.059
REMARK UNBOUND:                -0.060
REMARK SMILES CC(=O)c1ccccc1
REMARK SMILES IDX 4 1 5 2 6 3 7 4 8 5 9 6 2 7 1 8 3 9
REMARK H PARENT
REMARK Flexibility Score: inf
ROOT
ATOM      1  C   UNL     1      16.965 -50.138   7.017  1.00  0.00     0.017 A 
ATOM      2  C   UNL     1      15.720 -49.808   6.443  1.00  0.00     0.012 A 
ATOM      3  C   UNL     1      15.659 -49.071   5.256  1.00  0.00     0.001 A 
ATOM      4  C   UNL     1      16.834 -48.656   4.626  1.00  0.00     0.000 A 
ATOM      5  C   UNL     1      18.073 -48.976   5.182  1.00  0.00     0.001 A 
ATOM      6  C   UNL     1      18.142 -49.711   6.369  1.00  0.00     0.012 A 
ENDROOT
BRANCH   1   7
ATOM      7  C   UNL     1      17.052 -50.921   8.279  1.00  0.00     0.159 C 
ATOM      8  C   UNL     1      17.228 -50.259   9.612  1.00  0.00     0.093 C 
ATOM      9  O   UNL     1      16.978 -52.180   8.241  1.00  0.00    -0.295 OA
ENDBRANCH   1   7
TORSDOF 1
ENDMDL
MODEL 4
REMARK VINA RESULT:    -4.351      2.213      3.931
REMARK INTER + INTRA:          -4.666
REMARK INTER:                  -4.604
REMARK INTRA:                  -0.062
REMARK UNBOUND:                -0.060
REMARK SMILES CC(=O)c1ccccc1
REMARK SMILES IDX 4 1 5 2 6 3 7 4 8 5 9 6 2 7 1 8 3 9
REMARK H PARENT
REMARK Flexibility Score: inf
ROOT
ATOM      1  C   UNL     1      17.149 -50.960   7.174  1.00  0.00     0.017 A 
ATOM      2  C   UNL     1      15.770 -50.668   7.184  1.00  0.00     0.012 A 
ATOM      3  C   UNL     1      14.834 -51.667   7.471  1.00  0.00     0.001 A 
ATOM      4  C   UNL     1      15.259 -52.966   7.753  1.00  0.00     0.000 A 
ATOM      5  C   UNL     1      16.621 -53.271   7.749  1.00  0.00     0.001 A 
ATOM      6  C   UNL     1      17.562 -52.277   7.461  1.00  0.00     0.012 A 
ENDROOT
BRANCH   1   7
ATOM      7  C   UNL     1      18.160 -49.913   6.871  1.00  0.00     0.159 C 
ATOM      8  C   UNL     1      18.112 -49.106   5.608  1.00  0.00     0.093 C 
ATOM      9  O   UNL     1      19.091 -49.685   7.690  1.00  0.00    -0.295 OA
ENDBRANCH   1   7
TORSDOF 1
ENDMDL
MODEL 5
REMARK VINA RESULT:    -4.325      2.480      3.211
REMARK INTER + INTRA:          -4.639
REMARK INTER:                  -4.580
REMARK INTRA:                  -0.058
REMARK UNBOUND:                -0.060
REMARK SMILES CC(=O)c1ccccc1
REMARK SMILES IDX 4 1 5 2 6 3 7 4 8 5 9 6 2 7 1 8 3 9
REMARK H PARENT
REMARK Flexibility Score: inf
ROOT
ATOM      1  C   UNL     1      17.005 -50.086   7.042  1.00  0.00     0.017 A 
ATOM      2  C   UNL     1      18.165 -49.673   6.357  1.00  0.00     0.012 A 
ATOM      3  C   UNL     1      18.065 -48.956   5.160  1.00  0.00     0.001 A 
ATOM      4  C   UNL     1      16.812 -48.641   4.633  1.00  0.00     0.000 A 
ATOM      5  C   UNL     1      15.654 -49.043   5.301  1.00  0.00     0.001 A 
ATOM      6  C   UNL     1      15.747 -49.761   6.497  1.00  0.00     0.012 A 
ENDROOT
BRANCH   1   7
ATOM      7  C   UNL     1      17.090 -50.850   8.316  1.00  0.00     0.159 C 
ATOM      8  C   UNL     1      17.295 -50.170   9.636  1.00  0.00     0.093 C 
ATOM      9  O   UNL     1      16.988 -52.107   8.300  1.00  0.00    -0.295 OA
ENDBRANCH   1   7
TORSDOF 1
ENDMDL
MODEL 6
REMARK VINA RESULT:    -4.311      2.985      3.741
REMARK INTER + INTRA:          -4.624
REMARK INTER:                  -4.554
REMARK INTRA:                  -0.070
REMARK UNBOUND:                -0.060
REMARK SMILES CC(=O)c1ccccc1
REMARK SMILES IDX 4 1 5 2 6 3 7 4 8 5 9 6 2 7 1 8 3 9
REMARK H PARENT
REMARK Flexibility Score: inf
ROOT
ATOM      1  C   UNL     1      17.174 -49.376   6.805  1.00  0.00     0.017 A 
ATOM      2  C   UNL     1      16.016 -49.563   7.588  1.00  0.00     0.012 A 
ATOM      3  C   UNL     1      16.120 -49.930   8.933  1.00  0.00     0.001 A 
ATOM      4  C   UNL     1      17.375 -50.114   9.516  1.00  0.00     0.000 A 
ATOM      5  C   UNL     1      18.531 -49.932   8.755  1.00  0.00     0.001 A 
ATOM      6  C   UNL     1      18.434 -49.566   7.408  1.00  0.00     0.012 A 
ENDROOT
BRANCH   1   7
ATOM      7  C   UNL     1      17.086 -48.985   5.373  1.00  0.00     0.159 C 
ATOM      8  C   UNL     1      15.789 -48.579   4.740  1.00  0.00     0.093 C 
ATOM      9  O   UNL     1      18.124 -48.991   4.657  1.00  0.00    -0.295 OA
ENDBRANCH   1   7
TORSDOF 1
ENDMDL
MODEL 7
REMARK VINA RESULT:    -4.038     11.552     12.405
REMARK INTER + INTRA:          -4.335
REMARK INTER:                  -4.274
REMARK INTRA:                  -0.061
REMARK UNBOUND:                -0.060
REMARK SMILES CC(=O)c1ccccc1
REMARK SMILES IDX 4 1 5 2 6 3 7 4 8 5 9 6 2 7 1 8 3 9
REMARK H PARENT
REMARK Flexibility Score: inf
ROOT
ATOM      1  C   UNL     1      16.663 -54.324  -4.137  1.00  0.00     0.017 A 
ATOM      2  C   UNL     1      17.729 -53.986  -3.278  1.00  0.00     0.012 A 
ATOM      3  C   UNL     1      17.514 -53.161  -2.170  1.00  0.00     0.001 A 
ATOM      4  C   UNL     1      16.237 -52.664  -1.902  1.00  0.00     0.000 A 
ATOM      5  C   UNL     1      15.172 -52.990  -2.742  1.00  0.00     0.001 A 
ATOM      6  C   UNL     1      15.380 -53.813  -3.853  1.00  0.00     0.012 A 
ENDROOT
BRANCH   1   7
ATOM      7  C   UNL     1      16.870 -55.199  -5.321  1.00  0.00     0.159 C 
ATOM      8  C   UNL     1      16.202 -56.535  -5.447  1.00  0.00     0.093 C 
ATOM      9  O   UNL     1      17.629 -54.820  -6.255  1.00  0.00    -0.295 OA
ENDBRANCH   1   7
TORSDOF 1
ENDMDL
MODEL 8
REMARK VINA RESULT:    -4.001      9.693     10.723
REMARK INTER + INTRA:          -4.295
REMARK INTER:                  -4.235
REMARK INTRA:                  -0.060
REMARK UNBOUND:                -0.060
REMARK SMILES CC(=O)c1ccccc1
REMARK SMILES IDX 4 1 5 2 6 3 7 4 8 5 9 6 2 7 1 8 3 9
REMARK H PARENT
REMARK Flexibility Score: inf
ROOT
ATOM      1  C   UNL     1      15.982 -52.829  -1.915  1.00  0.00     0.017 A 
ATOM      2  C   UNL     1      17.352 -53.143  -2.028  1.00  0.00     0.012 A 
ATOM      3  C   UNL     1      17.835 -53.824  -3.150  1.00  0.00     0.001 A 
ATOM      4  C   UNL     1      16.963 -54.199  -4.172  1.00  0.00     0.000 A 
ATOM      5  C   UNL     1      15.604 -53.895  -4.076  1.00  0.00     0.001 A 
ATOM      6  C   UNL     1      15.114 -53.216  -2.956  1.00  0.00     0.012 A 
ENDROOT
BRANCH   1   7
ATOM      7  C   UNL     1      15.448 -52.106  -0.731  1.00  0.00     0.159 C 
ATOM      8  C   UNL     1      15.798 -50.676  -0.451  1.00  0.00     0.093 C 
ATOM      9  O   UNL     1      14.677 -52.701   0.071  1.00  0.00    -0.295 OA
ENDBRANCH   1   7
TORSDOF 1
ENDMDL
MODEL 9
REMARK VINA RESULT:    -3.988     11.087     12.004
REMARK INTER + INTRA:          -4.281
REMARK INTER:                  -4.212
REMARK INTRA:                  -0.070
REMARK UNBOUND:                -0.060
REMARK SMILES CC(=O)c1ccccc1
REMARK SMILES IDX 4 1 5 2 6 3 7 4 8 5 9 6 2 7 1 8 3 9
REMARK H PARENT
REMARK Flexibility Score: inf
ROOT
ATOM      1  C   UNL     1      16.180 -53.862  -3.765  1.00  0.00     0.017 A 
ATOM      2  C   UNL     1      15.035 -53.204  -3.271  1.00  0.00     0.012 A 
ATOM      3  C   UNL     1      15.084 -52.505  -2.060  1.00  0.00     0.001 A 
ATOM      4  C   UNL     1      16.272 -52.450  -1.330  1.00  0.00     0.000 A 
ATOM      5  C   UNL     1      17.415 -53.095  -1.807  1.00  0.00     0.001 A 
ATOM      6  C   UNL     1      17.371 -53.797  -3.015  1.00  0.00     0.012 A 
ENDROOT
BRANCH   1   7
ATOM      7  C   UNL     1      16.148 -54.611  -5.049  1.00  0.00     0.159 C 
ATOM      8  C   UNL     1      17.396 -54.909  -5.825  1.00  0.00     0.093 C 
ATOM      9  O   UNL     1      15.046 -55.013  -5.512  1.00  0.00    -0.295 OA
ENDBRANCH   1   7
TORSDOF 1
ENDMDL
