MODEL 1
REMARK VINA RESULT:     6.506      0.000      0.000
REMARK INTER + INTRA:           7.317
REMARK INTER:                   6.886
REMARK INTRA:                   0.430
REMARK UNBOUND:                 0.430
REMARK SMILES CC1=CC[C@@]23[C@@H]([C@H](C(C)C)CC[C@@H]2C)[C@H]13
REMARK SMILES IDX 14 1 13 2 12 3 11 4 7 5 6 6 5 7 15 8 2 9 3 10 4 11 1 12 8 13
REMARK SMILES IDX 9 14 10 15
REMARK H PARENT
REMARK Flexibility Score: inf
ROOT
ATOM      1  C   UNL     1     136.779 141.237 161.834  1.00  0.00     0.008 C 
ATOM      2  C   UNL     1     135.648 140.199 161.928  1.00  0.00    -0.007 C 
ATOM      3  C   UNL     1     135.860 139.093 160.881  1.00  0.00     0.004 C 
ATOM      4  C   UNL     1     134.876 137.949 161.102  1.00  0.00     0.004 C 
ATOM      5  C   UNL     1     135.167 137.185 162.413  1.00  0.00    -0.004 C 
ATOM      6  C   UNL     1     135.248 138.152 163.629  1.00  0.00     0.007 C 
ATOM      7  C   UNL     1     135.477 139.653 163.374  1.00  0.00    -0.013 C 
ATOM      8  C   UNL     1     136.615 138.796 163.919  1.00  0.00     0.025 C 
ATOM      9  C   UNL     1     136.813 139.312 165.305  1.00  0.00    -0.073 C 
ATOM     10  C   UNL     1     135.979 140.297 165.616  1.00  0.00    -0.027 C 
ATOM     11  C   UNL     1     135.038 140.601 164.503  1.00  0.00     0.035 C 
ATOM     12  C   UNL     1     137.841 138.770 166.249  1.00  0.00     0.039 C 
ENDROOT
BRANCH   5  13
ATOM     13  C   UNL     1     136.367 136.180 162.337  1.00  0.00    -0.014 C 
ATOM     14  C   UNL     1     135.951 134.876 161.631  1.00  0.00     0.007 C 
ATOM     15  C   UNL     1     137.581 136.772 161.598  1.00  0.00     0.007 C 
ENDBRANCH   5  13
TORSDOF 1
ENDMDL
