MODEL 1
REMARK VINA RESULT:     1.643      0.000      0.000
REMARK INTER + INTRA:           2.222
REMARK INTER:                   2.316
REMARK INTRA:                  -0.094
REMARK UNBOUND:                -0.094
REMARK SMILES CCCCCCCCC(=O)[O-]
REMARK SMILES IDX 6 1 7 2 8 3 9 4 10 5 11 6 5 7 4 8 3 9 2 10 1 11
REMARK H PARENT
REMARK Flexibility Score: inf
ROOT
ATOM      1  C   UNL     1      34.482  13.287  40.325  1.00  0.00     0.000 C 
ENDROOT
BRANCH   1   2
ATOM      2  C   UNL     1      35.386  12.690  41.413  1.00  0.00     0.006 C 
BRANCH   2   3
ATOM      3  C   UNL     1      35.010  13.182  42.817  1.00  0.00     0.053 C 
BRANCH   3   4
ATOM      4  C   UNL     1      35.843  14.354  43.235  1.00  0.00     0.041 C 
ATOM      5  O   UNL     1      37.089  14.231  43.368  1.00  0.00    -0.550 OA
ATOM      6  O   UNL     1      35.239  15.574  43.509  1.00  0.00    -0.550 OA
ENDBRANCH   3   4
ENDBRANCH   2   3
ENDBRANCH   1   2
BRANCH   1   7
ATOM      7  C   UNL     1      33.318  12.345  39.997  1.00  0.00     0.000 C 
BRANCH   7   8
ATOM      8  C   UNL     1      33.288  11.152  40.961  1.00  0.00    -0.000 C 
BRANCH   8   9
ATOM      9  C   UNL     1      32.634   9.930  40.305  1.00  0.00    -0.000 C 
BRANCH   9  10
ATOM     10  C   UNL     1      33.680   9.058  39.602  1.00  0.00    -0.003 C 
ATOM     11  C   UNL     1      35.093   9.426  40.044  1.00  0.00     0.004 C 
ENDBRANCH   9  10
ENDBRANCH   8   9
ENDBRANCH   7   8
ENDBRANCH   1   7
TORSDOF 7
ENDMDL
MODEL 2
REMARK VINA RESULT:     1.801      0.271      1.012
REMARK INTER + INTRA:           2.444
REMARK INTER:                   2.635
REMARK INTRA:                  -0.191
REMARK UNBOUND:                -0.094
REMARK SMILES CCCCCCCCC(=O)[O-]
REMARK SMILES IDX 6 1 7 2 8 3 9 4 10 5 11 6 5 7 4 8 3 9 2 10 1 11
REMARK H PARENT
REMARK Flexibility Score: inf
ROOT
ATOM      1  C   UNL     1      34.768  12.901  40.154  1.00  0.00     0.000 C 
ENDROOT
BRANCH   1   2
ATOM      2  C   UNL     1      35.551  12.824  41.473  1.00  0.00     0.006 C 
BRANCH   2   3
ATOM      3  C   UNL     1      34.828  13.541  42.621  1.00  0.00     0.053 C 
BRANCH   3   4
ATOM      4  C   UNL     1      35.720  14.530  43.307  1.00  0.00     0.041 C 
ATOM      5  O   UNL     1      35.254  15.622  43.725  1.00  0.00    -0.550 OA
ATOM      6  O   UNL     1      37.073  14.257  43.456  1.00  0.00    -0.550 OA
ENDBRANCH   3   4
ENDBRANCH   2   3
ENDBRANCH   1   2
BRANCH   1   7
ATOM      7  C   UNL     1      33.333  12.393  40.336  1.00  0.00     0.000 C 
BRANCH   7   8
ATOM      8  C   UNL     1      33.316  11.028  41.036  1.00  0.00    -0.000 C 
BRANCH   8   9
ATOM      9  C   UNL     1      32.688   9.957  40.137  1.00  0.00    -0.000 C 
BRANCH   9  10
ATOM     10  C   UNL     1      33.754   8.998  39.596  1.00  0.00    -0.003 C 
ATOM     11  C   UNL     1      35.145   9.386  40.087  1.00  0.00     0.004 C 
ENDBRANCH   9  10
ENDBRANCH   8   9
ENDBRANCH   7   8
ENDBRANCH   1   7
TORSDOF 7
ENDMDL
MODEL 3
REMARK VINA RESULT:     1.903      3.226      5.801
REMARK INTER + INTRA:           2.589
REMARK INTER:                   2.932
REMARK INTRA:                  -0.344
REMARK UNBOUND:                -0.094
REMARK SMILES CCCCCCCCC(=O)[O-]
REMARK SMILES IDX 6 1 7 2 8 3 9 4 10 5 11 6 5 7 4 8 3 9 2 10 1 11
REMARK H PARENT
REMARK Flexibility Score: inf
ROOT
ATOM      1  C   UNL     1      35.182  12.853  40.882  1.00  0.00     0.000 C 
ENDROOT
BRANCH   1   2
ATOM      2  C   UNL     1      33.826  12.459  40.278  1.00  0.00     0.006 C 
BRANCH   2   3
ATOM      3  C   UNL     1      33.183  11.276  41.014  1.00  0.00     0.053 C 
BRANCH   3   4
ATOM      4  C   UNL     1      33.254  10.016  40.207  1.00  0.00     0.041 C 
ATOM      5  O   UNL     1      32.198   9.449  39.822  1.00  0.00    -0.550 OA
ATOM      6  O   UNL     1      34.486   9.452  39.906  1.00  0.00    -0.550 OA
ENDBRANCH   3   4
ENDBRANCH   2   3
ENDBRANCH   1   2
BRANCH   1   7
ATOM      7  C   UNL     1      35.034  13.241  42.358  1.00  0.00     0.000 C 
BRANCH   7   8
ATOM      8  C   UNL     1      36.396  13.579  42.978  1.00  0.00    -0.000 C 
BRANCH   8   9
ATOM      9  C   UNL     1      36.317  14.863  43.812  1.00  0.00    -0.000 C 
BRANCH   9  10
ATOM     10  C   UNL     1      34.968  15.564  43.616  1.00  0.00    -0.003 C 
ATOM     11  C   UNL     1      35.137  17.078  43.552  1.00  0.00     0.004 C 
ENDBRANCH   9  10
ENDBRANCH   8   9
ENDBRANCH   7   8
ENDBRANCH   1   7
TORSDOF 7
ENDMDL
MODEL 4
REMARK VINA RESULT:     2.493     14.829     16.363
REMARK INTER + INTRA:           3.420
REMARK INTER:                   3.750
REMARK INTRA:                  -0.331
REMARK UNBOUND:                -0.094
REMARK SMILES CCCCCCCCC(=O)[O-]
REMARK SMILES IDX 6 1 7 2 8 3 9 4 10 5 11 6 5 7 4 8 3 9 2 10 1 11
REMARK H PARENT
REMARK Flexibility Score: inf
ROOT
ATOM      1  C   UNL     1      29.978  23.452  31.066  1.00  0.00     0.000 C 
ENDROOT
BRANCH   1   2
ATOM      2  C   UNL     1      30.887  23.864  29.899  1.00  0.00     0.006 C 
BRANCH   2   3
ATOM      3  C   UNL     1      31.599  22.661  29.264  1.00  0.00     0.053 C 
BRANCH   3   4
ATOM      4  C   UNL     1      31.098  22.388  27.879  1.00  0.00     0.041 C 
ATOM      5  O   UNL     1      31.896  22.023  26.976  1.00  0.00    -0.550 OA
ATOM      6  O   UNL     1      29.755  22.568  27.578  1.00  0.00    -0.550 OA
ENDBRANCH   3   4
ENDBRANCH   2   3
ENDBRANCH   1   2
BRANCH   1   7
ATOM      7  C   UNL     1      30.424  24.119  32.372  1.00  0.00     0.000 C 
BRANCH   7   8
ATOM      8  C   UNL     1      31.550  23.321  33.041  1.00  0.00    -0.000 C 
BRANCH   8   9
ATOM      9  C   UNL     1      32.855  24.124  33.064  1.00  0.00    -0.000 C 
BRANCH   9  10
ATOM     10  C   UNL     1      33.495  24.095  34.457  1.00  0.00    -0.003 C 
ATOM     11  C   UNL     1      34.962  23.688  34.382  1.00  0.00     0.004 C 
ENDBRANCH   9  10
ENDBRANCH   8   9
ENDBRANCH   7   8
ENDBRANCH   1   7
TORSDOF 7
ENDMDL
MODEL 5
REMARK VINA RESULT:     3.791      1.097      2.180
REMARK INTER + INTRA:           5.248
REMARK INTER:                   5.168
REMARK INTRA:                   0.080
REMARK UNBOUND:                -0.094
REMARK SMILES CCCCCCCCC(=O)[O-]
REMARK SMILES IDX 6 1 7 2 8 3 9 4 10 5 11 6 5 7 4 8 3 9 2 10 1 11
REMARK H PARENT
REMARK Flexibility Score: inf
ROOT
ATOM      1  C   UNL     1      34.582  12.357  40.128  1.00  0.00     0.000 C 
ENDROOT
BRANCH   1   2
ATOM      2  C   UNL     1      34.586  13.229  41.393  1.00  0.00     0.006 C 
BRANCH   2   3
ATOM      3  C   UNL     1      35.968  13.282  42.058  1.00  0.00     0.053 C 
BRANCH   3   4
ATOM      4  C   UNL     1      35.991  14.232  43.215  1.00  0.00     0.041 C 
ATOM      5  O   UNL     1      35.071  15.079  43.359  1.00  0.00    -0.550 OA
ATOM      6  O   UNL     1      37.045  14.203  44.118  1.00  0.00    -0.550 OA
ENDBRANCH   3   4
ENDBRANCH   2   3
ENDBRANCH   1   2
BRANCH   1   7
ATOM      7  C   UNL     1      34.936  10.903  40.461  1.00  0.00     0.000 C 
BRANCH   7   8
ATOM      8  C   UNL     1      33.947   9.931  39.806  1.00  0.00    -0.000 C 
BRANCH   8   9
ATOM      9  C   UNL     1      32.523  10.164  40.324  1.00  0.00    -0.000 C 
BRANCH   9  10
ATOM     10  C   UNL     1      32.537  10.603  41.793  1.00  0.00    -0.003 C 
ATOM     11  C   UNL     1      31.554  11.744  42.036  1.00  0.00     0.004 C 
ENDBRANCH   9  10
ENDBRANCH   8   9
ENDBRANCH   7   8
ENDBRANCH   1   7
TORSDOF 7
ENDMDL
