MODEL 1
REMARK VINA RESULT:    71.467      0.000      0.000
REMARK INTER + INTRA:         105.726
REMARK INTER:                 104.891
REMARK INTRA:                   0.835
REMARK UNBOUND:                 0.835
REMARK SMILES O=c1c(O[C@H]2O[C@H](CO)[C@H](O)[C@H](O)[C@H]2O)c(-c2ccc(O)c(O)c2)oc2cc(O)cc(O)c12
REMARK SMILES IDX 4 1 3 2 16 3 25 4 2 5 26 6 1 7 33 8 27 9 31 10 28 11 30 12
REMARK SMILES IDX 17 13 18 14 19 15 20 16 24 17 22 18 21 19 23 21 32 23 29 25
REMARK SMILES IDX 5 27 14 28 6 29 12 30 7 31 10 32 15 33 13 35 8 37 9 38 11 40
REMARK H PARENT 21 20 23 22 32 24 29 26 15 34 13 36 9 39 11 41
REMARK Flexibility Score: inf
ROOT
ATOM      1  O   UNL     1     -39.383  29.500 -22.235  1.00  0.00    -0.454 OA
ENDROOT
BRANCH   1   2
ATOM      2  C   UNL     1     -40.458  30.369 -22.475  1.00  0.00     0.214 A 
ATOM      3  C   UNL     1     -40.394  31.412 -23.423  1.00  0.00     0.180 A 
ATOM      4  O   UNL     1     -41.472  32.147 -23.667  1.00  0.00    -0.452 OA
ATOM      5  C   UNL     1     -41.638  30.199 -21.743  1.00  0.00     0.239 A 
ATOM      6  C   UNL     1     -42.629  31.981 -23.038  1.00  0.00     0.146 A 
ATOM      7  O   UNL     1     -41.644  29.352 -20.810  1.00  0.00    -0.285 OA
ATOM      8  C   UNL     1     -42.780  30.978 -22.044  1.00  0.00     0.111 A 
ATOM      9  C   UNL     1     -43.691  32.830 -23.359  1.00  0.00     0.094 A 
ATOM     10  C   UNL     1     -44.052  30.836 -21.410  1.00  0.00     0.134 A 
ATOM     11  C   UNL     1     -44.911  32.717 -22.698  1.00  0.00     0.123 A 
ATOM     12  C   UNL     1     -45.084  31.728 -21.726  1.00  0.00     0.093 A 
BRANCH   3  13
ATOM     13  C   UNL     1     -39.149  31.761 -24.135  1.00  0.00     0.025 A 
ATOM     14  C   UNL     1     -39.093  32.931 -24.906  1.00  0.00     0.016 A 
ATOM     15  C   UNL     1     -37.916  33.281 -25.571  1.00  0.00     0.051 A 
ATOM     16  C   UNL     1     -36.773  32.478 -25.456  1.00  0.00     0.157 A 
ATOM     17  C   UNL     1     -37.997  30.970 -24.001  1.00  0.00     0.062 A 
ATOM     18  C   UNL     1     -36.814  31.319 -24.662  1.00  0.00     0.158 A 
BRANCH  16  19
ATOM     19  O   UNL     1     -35.600  32.827 -26.124  1.00  0.00    -0.504 OA
ATOM     20  H   UNL     1     -34.760  33.088 -25.620  1.00  0.00     0.293 HD
ENDBRANCH  16  19
BRANCH  18  21
ATOM     21  O   UNL     1     -35.690  30.506 -24.516  1.00  0.00    -0.504 OA
ATOM     22  H   UNL     1     -35.032  30.357 -25.271  1.00  0.00     0.293 HD
ENDBRANCH  18  21
ENDBRANCH   3  13
BRANCH  10  23
ATOM     23  O   UNL     1     -44.361  29.829 -20.491  1.00  0.00    -0.507 OA
ATOM     24  H   UNL     1     -43.939  28.913 -20.473  1.00  0.00     0.293 HD
ENDBRANCH  10  23
BRANCH  11  25
ATOM     25  O   UNL     1     -45.949  33.589 -23.017  1.00  0.00    -0.508 OA
ATOM     26  H   UNL     1     -46.496  34.049 -22.299  1.00  0.00     0.293 HD
ENDBRANCH  11  25
ENDBRANCH   1   2
BRANCH   1  27
ATOM     27  C   UNL     1     -39.352  28.536 -21.171  1.00  0.00     0.339 C 
ATOM     28  C   UNL     1     -37.914  28.320 -20.651  1.00  0.00     0.214 C 
ATOM     29  O   UNL     1     -39.928  27.309 -21.593  1.00  0.00    -0.332 OA
ATOM     30  C   UNL     1     -37.047  27.623 -21.715  1.00  0.00     0.180 C 
ATOM     31  C   UNL     1     -39.196  26.732 -22.665  1.00  0.00     0.179 C 
ATOM     32  C   UNL     1     -37.764  26.355 -22.219  1.00  0.00     0.177 C 
BRANCH  28  33
ATOM     33  O   UNL     1     -37.338  29.532 -20.226  1.00  0.00    -0.384 OA
ATOM     34  H   UNL     1     -37.744  30.265 -20.756  1.00  0.00     0.211 HD
ENDBRANCH  28  33
BRANCH  30  35
ATOM     35  O   UNL     1     -35.797  27.298 -21.163  1.00  0.00    -0.387 OA
ATOM     36  H   UNL     1     -35.495  28.096 -20.654  1.00  0.00     0.211 HD
ENDBRANCH  30  35
BRANCH  31  37
ATOM     37  C   UNL     1     -39.964  25.518 -23.205  1.00  0.00     0.191 C 
BRANCH  37  38
ATOM     38  O   UNL     1     -41.329  25.812 -23.330  1.00  0.00    -0.394 OA
ATOM     39  H   UNL     1     -41.538  26.459 -22.608  1.00  0.00     0.210 HD
ENDBRANCH  37  38
ENDBRANCH  31  37
BRANCH  32  40
ATOM     40  O   UNL     1     -37.816  25.389 -21.199  1.00  0.00    -0.387 OA
ATOM     41  H   UNL     1     -37.852  25.879 -20.337  1.00  0.00     0.211 HD
ENDBRANCH  32  40
ENDBRANCH   1  27
TORSDOF 12
ENDMDL
