MODEL 1
REMARK VINA RESULT:    -5.323      0.000      0.000
REMARK INTER + INTRA:          -6.445
REMARK INTER:                  -6.256
REMARK INTRA:                  -0.189
REMARK UNBOUND:                -0.189
REMARK SMILES O=c1c(O)c(-c2ccc(O)cc2)oc2cc(O)cc(O)c12
REMARK SMILES IDX 5 1 3 2 2 3 1 4 21 5 19 6 18 7 16 8 15 9 14 10 13 11 6 12
REMARK SMILES IDX 7 13 8 14 9 15 12 16 11 17 10 18 4 20 20 22 17 24
REMARK H PARENT 10 19 4 21 20 23 17 25
REMARK Flexibility Score: inf
ROOT
ATOM      1  C   UNL     1      -5.509  -4.777   1.356  1.00  0.00     0.180 A 
ATOM      2  C   UNL     1      -5.828  -5.793   2.275  1.00  0.00     0.208 A 
ATOM      3  C   UNL     1      -7.133  -6.310   2.293  1.00  0.00     0.238 A 
ATOM      4  O   UNL     1      -7.427  -7.180   3.153  1.00  0.00    -0.285 OA
ATOM      5  C   UNL     1      -8.099  -5.818   1.382  1.00  0.00     0.111 A 
ATOM      6  C   UNL     1      -9.439  -6.297   1.284  1.00  0.00     0.134 A 
ATOM      7  C   UNL     1     -10.346  -5.647   0.436  1.00  0.00     0.093 A 
ATOM      8  C   UNL     1      -9.941  -4.577  -0.366  1.00  0.00     0.123 A 
ATOM      9  C   UNL     1      -8.619  -4.141  -0.322  1.00  0.00     0.094 A 
ATOM     10  C   UNL     1      -7.701  -4.745   0.540  1.00  0.00     0.146 A 
ATOM     11  O   UNL     1      -6.454  -4.291   0.559  1.00  0.00    -0.452 OA
ENDROOT
BRANCH   1  12
ATOM     12  C   UNL     1      -4.150  -4.200   1.261  1.00  0.00     0.021 A 
ATOM     13  C   UNL     1      -3.948  -2.847   1.582  1.00  0.00     0.016 A 
ATOM     14  C   UNL     1      -2.677  -2.276   1.477  1.00  0.00     0.047 A 
ATOM     15  C   UNL     1      -1.594  -3.045   1.035  1.00  0.00     0.115 A 
ATOM     16  C   UNL     1      -3.060  -4.961   0.799  1.00  0.00     0.016 A 
ATOM     17  C   UNL     1      -1.790  -4.387   0.694  1.00  0.00     0.047 A 
BRANCH  15  18
ATOM     18  O   UNL     1      -0.321  -2.487   0.927  1.00  0.00    -0.508 OA
ATOM     19  H   UNL     1       0.282  -2.386   1.734  1.00  0.00     0.293 HD
ENDBRANCH  15  18
ENDBRANCH   1  12
BRANCH   2  20
ATOM     20  O   UNL     1      -4.867  -6.249   3.180  1.00  0.00    -0.502 OA
ATOM     21  H   UNL     1      -3.962  -5.805   3.284  1.00  0.00     0.293 HD
ENDBRANCH   2  20
BRANCH   6  22
ATOM     22  O   UNL     1      -9.921  -7.415   1.971  1.00  0.00    -0.507 OA
ATOM     23  H   UNL     1      -9.651  -8.368   1.778  1.00  0.00     0.293 HD
ENDBRANCH   6  22
BRANCH   8  24
ATOM     24  O   UNL     1     -10.845  -3.947  -1.219  1.00  0.00    -0.508 OA
ATOM     25  H   UNL     1     -10.734  -2.976  -1.483  1.00  0.00     0.293 HD
ENDBRANCH   8  24
TORSDOF 5
ENDMDL
MODEL 2
REMARK VINA RESULT:    -4.986     13.353     15.349
REMARK INTER + INTRA:          -6.050
REMARK INTER:                  -5.768
REMARK INTRA:                  -0.282
REMARK UNBOUND:                -0.189
REMARK SMILES O=c1c(O)c(-c2ccc(O)cc2)oc2cc(O)cc(O)c12
REMARK SMILES IDX 5 1 3 2 2 3 1 4 21 5 19 6 18 7 16 8 15 9 14 10 13 11 6 12
REMARK SMILES IDX 7 13 8 14 9 15 12 16 11 17 10 18 4 20 20 22 17 24
REMARK H PARENT 10 19 4 21 20 23 17 25
REMARK Flexibility Score: inf
ROOT
ATOM      1  C   UNL     1       5.970   0.751  -4.264  1.00  0.00     0.180 A 
ATOM      2  C   UNL     1       6.989   1.210  -5.117  1.00  0.00     0.208 A 
ATOM      3  C   UNL     1       6.828   2.444  -5.767  1.00  0.00     0.238 A 
ATOM      4  O   UNL     1       7.718   2.825  -6.572  1.00  0.00    -0.285 OA
ATOM      5  C   UNL     1       5.659   3.211  -5.544  1.00  0.00     0.111 A 
ATOM      6  C   UNL     1       5.409   4.493  -6.118  1.00  0.00     0.134 A 
ATOM      7  C   UNL     1       4.161   5.102  -5.932  1.00  0.00     0.093 A 
ATOM      8  C   UNL     1       3.179   4.505  -5.137  1.00  0.00     0.123 A 
ATOM      9  C   UNL     1       3.437   3.281  -4.523  1.00  0.00     0.094 A 
ATOM     10  C   UNL     1       4.658   2.632  -4.720  1.00  0.00     0.146 A 
ATOM     11  O   UNL     1       4.857   1.462  -4.126  1.00  0.00    -0.452 OA
ENDROOT
BRANCH   1  12
ATOM     12  C   UNL     1       6.079  -0.527  -3.525  1.00  0.00     0.021 A 
ATOM     13  C   UNL     1       6.608  -0.531  -2.223  1.00  0.00     0.016 A 
ATOM     14  C   UNL     1       6.742  -1.729  -1.516  1.00  0.00     0.047 A 
ATOM     15  C   UNL     1       6.362  -2.941  -2.106  1.00  0.00     0.115 A 
ATOM     16  C   UNL     1       5.719  -1.752  -4.118  1.00  0.00     0.016 A 
ATOM     17  C   UNL     1       5.854  -2.949  -3.409  1.00  0.00     0.047 A 
BRANCH  15  18
ATOM     18  O   UNL     1       6.489  -4.142  -1.411  1.00  0.00    -0.508 OA
ATOM     19  H   UNL     1       6.331  -5.034  -1.863  1.00  0.00     0.293 HD
ENDBRANCH  15  18
ENDBRANCH   1  12
BRANCH   2  20
ATOM     20  O   UNL     1       8.125   0.428  -5.341  1.00  0.00    -0.502 OA
ATOM     21  H   UNL     1       8.582   0.377  -6.243  1.00  0.00     0.293 HD
ENDBRANCH   2  20
BRANCH   6  22
ATOM     22  O   UNL     1       6.352   5.218  -6.851  1.00  0.00    -0.507 OA
ATOM     23  H   UNL     1       7.300   4.916  -7.024  1.00  0.00     0.293 HD
ENDBRANCH   6  22
BRANCH   8  24
ATOM     24  O   UNL     1       1.947   5.125  -4.944  1.00  0.00    -0.508 OA
ATOM     25  H   UNL     1       1.722   5.597  -4.077  1.00  0.00     0.293 HD
ENDBRANCH   8  24
TORSDOF 5
ENDMDL
MODEL 3
REMARK VINA RESULT:    -4.971     13.341     15.338
REMARK INTER + INTRA:          -6.033
REMARK INTER:                  -5.747
REMARK INTRA:                  -0.286
REMARK UNBOUND:                -0.189
REMARK SMILES O=c1c(O)c(-c2ccc(O)cc2)oc2cc(O)cc(O)c12
REMARK SMILES IDX 5 1 3 2 2 3 1 4 21 5 19 6 18 7 16 8 15 9 14 10 13 11 6 12
REMARK SMILES IDX 7 13 8 14 9 15 12 16 11 17 10 18 4 20 20 22 17 24
REMARK H PARENT 10 19 4 21 20 23 17 25
REMARK Flexibility Score: inf
ROOT
ATOM      1  C   UNL     1       5.974   0.815  -4.251  1.00  0.00     0.180 A 
ATOM      2  C   UNL     1       6.969   1.310  -5.112  1.00  0.00     0.208 A 
ATOM      3  C   UNL     1       6.765   2.543  -5.751  1.00  0.00     0.238 A 
ATOM      4  O   UNL     1       7.634   2.955  -6.563  1.00  0.00    -0.285 OA
ATOM      5  C   UNL     1       5.576   3.274  -5.510  1.00  0.00     0.111 A 
ATOM      6  C   UNL     1       5.282   4.552  -6.072  1.00  0.00     0.134 A 
ATOM      7  C   UNL     1       4.019   5.123  -5.868  1.00  0.00     0.093 A 
ATOM      8  C   UNL     1       3.064   4.491  -5.067  1.00  0.00     0.123 A 
ATOM      9  C   UNL     1       3.365   3.272  -4.464  1.00  0.00     0.094 A 
ATOM     10  C   UNL     1       4.602   2.660  -4.679  1.00  0.00     0.146 A 
ATOM     11  O   UNL     1       4.842   1.493  -4.096  1.00  0.00    -0.452 OA
ENDROOT
BRANCH   1  12
ATOM     12  C   UNL     1       6.128  -0.464  -3.522  1.00  0.00     0.021 A 
ATOM     13  C   UNL     1       5.729  -1.663  -4.137  1.00  0.00     0.016 A 
ATOM     14  C   UNL     1       5.844  -2.879  -3.458  1.00  0.00     0.047 A 
ATOM     15  C   UNL     1       6.347  -2.912  -2.151  1.00  0.00     0.115 A 
ATOM     16  C   UNL     1       6.613  -0.503  -2.201  1.00  0.00     0.016 A 
ATOM     17  C   UNL     1       6.727  -1.721  -1.525  1.00  0.00     0.047 A 
BRANCH  15  18
ATOM     18  O   UNL     1       6.467  -4.118  -1.465  1.00  0.00    -0.508 OA
ATOM     19  H   UNL     1       6.830  -4.949  -1.916  1.00  0.00     0.293 HD
ENDBRANCH  15  18
ENDBRANCH   1  12
BRANCH   2  20
ATOM     20  O   UNL     1       8.125   0.563  -5.354  1.00  0.00    -0.502 OA
ATOM     21  H   UNL     1       8.910   0.929  -5.878  1.00  0.00     0.293 HD
ENDBRANCH   2  20
BRANCH   6  22
ATOM     22  O   UNL     1       6.196   5.309  -6.810  1.00  0.00    -0.507 OA
ATOM     23  H   UNL     1       5.999   5.740  -7.701  1.00  0.00     0.293 HD
ENDBRANCH   6  22
BRANCH   8  24
ATOM     24  O   UNL     1       1.817   5.074  -4.856  1.00  0.00    -0.508 OA
ATOM     25  H   UNL     1       1.007   4.803  -5.400  1.00  0.00     0.293 HD
ENDBRANCH   8  24
TORSDOF 5
ENDMDL
MODEL 4
REMARK VINA RESULT:    -4.939     10.774     13.681
REMARK INTER + INTRA:          -5.994
REMARK INTER:                  -5.697
REMARK INTRA:                  -0.297
REMARK UNBOUND:                -0.189
REMARK SMILES O=c1c(O)c(-c2ccc(O)cc2)oc2cc(O)cc(O)c12
REMARK SMILES IDX 5 1 3 2 2 3 1 4 21 5 19 6 18 7 16 8 15 9 14 10 13 11 6 12
REMARK SMILES IDX 7 13 8 14 9 15 12 16 11 17 10 18 4 20 20 22 17 24
REMARK H PARENT 10 19 4 21 20 23 17 25
REMARK Flexibility Score: inf
ROOT
ATOM      1  C   UNL     1       2.835   0.557   7.246  1.00  0.00     0.180 A 
ATOM      2  C   UNL     1       3.706   0.949   8.278  1.00  0.00     0.208 A 
ATOM      3  C   UNL     1       4.921   0.265   8.441  1.00  0.00     0.238 A 
ATOM      4  O   UNL     1       5.671   0.584   9.399  1.00  0.00    -0.285 OA
ATOM      5  C   UNL     1       5.258  -0.793   7.561  1.00  0.00     0.111 A 
ATOM      6  C   UNL     1       6.480  -1.528   7.609  1.00  0.00     0.134 A 
ATOM      7  C   UNL     1       6.650  -2.640   6.773  1.00  0.00     0.093 A 
ATOM      8  C   UNL     1       5.669  -3.001   5.845  1.00  0.00     0.123 A 
ATOM      9  C   UNL     1       4.498  -2.251   5.750  1.00  0.00     0.094 A 
ATOM     10  C   UNL     1       4.284  -1.160   6.595  1.00  0.00     0.146 A 
ATOM     11  O   UNL     1       3.150  -0.481   6.479  1.00  0.00    -0.452 OA
ENDROOT
BRANCH   1  12
ATOM     12  C   UNL     1       1.549   1.246   6.996  1.00  0.00     0.021 A 
ATOM     13  C   UNL     1       0.364   0.715   7.533  1.00  0.00     0.016 A 
ATOM     14  C   UNL     1      -0.864   1.337   7.290  1.00  0.00     0.047 A 
ATOM     15  C   UNL     1      -0.925   2.489   6.496  1.00  0.00     0.115 A 
ATOM     16  C   UNL     1       1.477   2.392   6.183  1.00  0.00     0.016 A 
ATOM     17  C   UNL     1       0.247   3.012   5.942  1.00  0.00     0.047 A 
BRANCH  15  18
ATOM     18  O   UNL     1      -2.143   3.118   6.248  1.00  0.00    -0.508 OA
ATOM     19  H   UNL     1      -3.024   2.636   6.382  1.00  0.00     0.293 HD
ENDBRANCH  15  18
ENDBRANCH   1  12
BRANCH   2  20
ATOM     20  O   UNL     1       3.345   1.981   9.148  1.00  0.00    -0.502 OA
ATOM     21  H   UNL     1       2.522   2.552   9.004  1.00  0.00     0.293 HD
ENDBRANCH   2  20
BRANCH   6  22
ATOM     22  O   UNL     1       7.559  -1.197   8.432  1.00  0.00    -0.507 OA
ATOM     23  H   UNL     1       8.497  -1.553   8.321  1.00  0.00     0.293 HD
ENDBRANCH   6  22
BRANCH   8  24
ATOM     24  O   UNL     1       5.853  -4.097   5.006  1.00  0.00    -0.508 OA
ATOM     25  H   UNL     1       6.139  -3.984   4.042  1.00  0.00     0.293 HD
ENDBRANCH   8  24
TORSDOF 5
ENDMDL
MODEL 5
REMARK VINA RESULT:    -4.866      5.240     10.044
REMARK INTER + INTRA:          -5.908
REMARK INTER:                  -5.612
REMARK INTRA:                  -0.297
REMARK UNBOUND:                -0.189
REMARK SMILES O=c1c(O)c(-c2ccc(O)cc2)oc2cc(O)cc(O)c12
REMARK SMILES IDX 5 1 3 2 2 3 1 4 21 5 19 6 18 7 16 8 15 9 14 10 13 11 6 12
REMARK SMILES IDX 7 13 8 14 9 15 12 16 11 17 10 18 4 20 20 22 17 24
REMARK H PARENT 10 19 4 21 20 23 17 25
REMARK Flexibility Score: inf
ROOT
ATOM      1  C   UNL     1       0.889  -4.620   1.094  1.00  0.00     0.180 A 
ATOM      2  C   UNL     1       1.052  -5.677   0.181  1.00  0.00     0.208 A 
ATOM      3  C   UNL     1       2.277  -6.361   0.142  1.00  0.00     0.238 A 
ATOM      4  O   UNL     1       2.436  -7.269  -0.714  1.00  0.00    -0.285 OA
ATOM      5  C   UNL     1       3.319  -5.990   1.027  1.00  0.00     0.111 A 
ATOM      6  C   UNL     1       4.587  -6.640   1.102  1.00  0.00     0.134 A 
ATOM      7  C   UNL     1       5.590  -6.106   1.922  1.00  0.00     0.093 A 
ATOM      8  C   UNL     1       5.346  -4.985   2.720  1.00  0.00     0.123 A 
ATOM      9  C   UNL     1       4.091  -4.380   2.699  1.00  0.00     0.094 A 
ATOM     10  C   UNL     1       3.084  -4.867   1.863  1.00  0.00     0.146 A 
ATOM     11  O   UNL     1       1.907  -4.255   1.865  1.00  0.00    -0.452 OA
ENDROOT
BRANCH   1  12
ATOM     12  C   UNL     1      -0.382  -3.870   1.211  1.00  0.00     0.021 A 
ATOM     13  C   UNL     1      -0.528  -2.648   0.534  1.00  0.00     0.016 A 
ATOM     14  C   UNL     1      -1.711  -1.911   0.649  1.00  0.00     0.047 A 
ATOM     15  C   UNL     1      -2.756  -2.380   1.454  1.00  0.00     0.115 A 
ATOM     16  C   UNL     1      -1.429  -4.323   2.035  1.00  0.00     0.016 A 
ATOM     17  C   UNL     1      -2.610  -3.584   2.148  1.00  0.00     0.047 A 
BRANCH  15  18
ATOM     18  O   UNL     1      -3.940  -1.654   1.576  1.00  0.00    -0.508 OA
ATOM     19  H   UNL     1      -4.465  -1.357   0.762  1.00  0.00     0.293 HD
ENDBRANCH  15  18
ENDBRANCH   1  12
BRANCH   2  20
ATOM     20  O   UNL     1       0.019  -6.012  -0.698  1.00  0.00    -0.502 OA
ATOM     21  H   UNL     1      -0.950  -6.063  -0.407  1.00  0.00     0.293 HD
ENDBRANCH   2  20
BRANCH   6  22
ATOM     22  O   UNL     1       4.904  -7.817   0.418  1.00  0.00    -0.507 OA
ATOM     23  H   UNL     1       5.562  -7.880  -0.343  1.00  0.00     0.293 HD
ENDBRANCH   6  22
BRANCH   8  24
ATOM     24  O   UNL     1       6.343  -4.470   3.546  1.00  0.00    -0.508 OA
ATOM     25  H   UNL     1       7.219  -4.130   3.169  1.00  0.00     0.293 HD
ENDBRANCH   8  24
TORSDOF 5
ENDMDL
MODEL 6
REMARK VINA RESULT:    -4.789      1.524      2.339
REMARK INTER + INTRA:          -5.818
REMARK INTER:                  -5.538
REMARK INTRA:                  -0.280
REMARK UNBOUND:                -0.189
REMARK SMILES O=c1c(O)c(-c2ccc(O)cc2)oc2cc(O)cc(O)c12
REMARK SMILES IDX 5 1 3 2 2 3 1 4 21 5 19 6 18 7 16 8 15 9 14 10 13 11 6 12
REMARK SMILES IDX 7 13 8 14 9 15 12 16 11 17 10 18 4 20 20 22 17 24
REMARK H PARENT 10 19 4 21 20 23 17 25
REMARK Flexibility Score: inf
ROOT
ATOM      1  C   UNL     1      -4.569  -4.935   2.047  1.00  0.00     0.180 A 
ATOM      2  C   UNL     1      -4.444  -5.487   3.334  1.00  0.00     0.208 A 
ATOM      3  C   UNL     1      -5.514  -6.224   3.866  1.00  0.00     0.238 A 
ATOM      4  O   UNL     1      -5.418  -6.669   5.039  1.00  0.00    -0.285 OA
ATOM      5  C   UNL     1      -6.689  -6.414   3.098  1.00  0.00     0.111 A 
ATOM      6  C   UNL     1      -7.819  -7.176   3.522  1.00  0.00     0.134 A 
ATOM      7  C   UNL     1      -8.978  -7.188   2.736  1.00  0.00     0.093 A 
ATOM      8  C   UNL     1      -9.024  -6.518   1.510  1.00  0.00     0.123 A 
ATOM      9  C   UNL     1      -7.905  -5.821   1.060  1.00  0.00     0.094 A 
ATOM     10  C   UNL     1      -6.747  -5.761   1.839  1.00  0.00     0.146 A 
ATOM     11  O   UNL     1      -5.708  -5.076   1.379  1.00  0.00    -0.452 OA
ENDROOT
BRANCH   1  12
ATOM     12  C   UNL     1      -3.475  -4.168   1.410  1.00  0.00     0.021 A 
ATOM     13  C   UNL     1      -2.557  -4.833   0.579  1.00  0.00     0.016 A 
ATOM     14  C   UNL     1      -1.502  -4.132  -0.014  1.00  0.00     0.047 A 
ATOM     15  C   UNL     1      -1.344  -2.762   0.227  1.00  0.00     0.115 A 
ATOM     16  C   UNL     1      -3.296  -2.796   1.663  1.00  0.00     0.016 A 
ATOM     17  C   UNL     1      -2.240  -2.098   1.070  1.00  0.00     0.047 A 
BRANCH  15  18
ATOM     18  O   UNL     1      -0.297  -2.053  -0.359  1.00  0.00    -0.508 OA
ATOM     19  H   UNL     1       0.131  -2.360  -1.224  1.00  0.00     0.293 HD
ENDBRANCH  15  18
ENDBRANCH   1  12
BRANCH   2  20
ATOM     20  O   UNL     1      -3.285  -5.270   4.083  1.00  0.00    -0.502 OA
ATOM     21  H   UNL     1      -2.749  -6.026   4.490  1.00  0.00     0.293 HD
ENDBRANCH   2  20
BRANCH   6  22
ATOM     22  O   UNL     1      -7.845  -7.955   4.682  1.00  0.00    -0.507 OA
ATOM     23  H   UNL     1      -8.150  -8.916   4.721  1.00  0.00     0.293 HD
ENDBRANCH   6  22
BRANCH   8  24
ATOM     24  O   UNL     1     -10.176  -6.548   0.727  1.00  0.00    -0.508 OA
ATOM     25  H   UNL     1     -10.281  -7.207  -0.035  1.00  0.00     0.293 HD
ENDBRANCH   8  24
TORSDOF 5
ENDMDL
MODEL 7
REMARK VINA RESULT:    -4.788     11.216     13.121
REMARK INTER + INTRA:          -5.817
REMARK INTER:                  -5.528
REMARK INTRA:                  -0.289
REMARK UNBOUND:                -0.189
REMARK SMILES O=c1c(O)c(-c2ccc(O)cc2)oc2cc(O)cc(O)c12
REMARK SMILES IDX 5 1 3 2 2 3 1 4 21 5 19 6 18 7 16 8 15 9 14 10 13 11 6 12
REMARK SMILES IDX 7 13 8 14 9 15 12 16 11 17 10 18 4 20 20 22 17 24
REMARK H PARENT 10 19 4 21 20 23 17 25
REMARK Flexibility Score: inf
ROOT
ATOM      1  C   UNL     1      -4.886   8.116   0.910  1.00  0.00     0.180 A 
ATOM      2  C   UNL     1      -5.902   8.985   0.476  1.00  0.00     0.208 A 
ATOM      3  C   UNL     1      -7.198   8.832   0.995  1.00  0.00     0.238 A 
ATOM      4  O   UNL     1      -8.115   9.578   0.563  1.00  0.00    -0.285 OA
ATOM      5  C   UNL     1      -7.458   7.823   1.954  1.00  0.00     0.111 A 
ATOM      6  C   UNL     1      -8.723   7.604   2.577  1.00  0.00     0.134 A 
ATOM      7  C   UNL     1      -8.898   6.493   3.413  1.00  0.00     0.093 A 
ATOM      8  C   UNL     1      -7.835   5.633   3.700  1.00  0.00     0.123 A 
ATOM      9  C   UNL     1      -6.581   5.874   3.144  1.00  0.00     0.094 A 
ATOM     10  C   UNL     1      -6.384   6.951   2.277  1.00  0.00     0.146 A 
ATOM     11  O   UNL     1      -5.176   7.138   1.760  1.00  0.00    -0.452 OA
ENDROOT
BRANCH   1  12
ATOM     12  C   UNL     1      -3.492   8.231   0.426  1.00  0.00     0.021 A 
ATOM     13  C   UNL     1      -2.597   9.085   1.093  1.00  0.00     0.016 A 
ATOM     14  C   UNL     1      -1.282   9.226   0.640  1.00  0.00     0.047 A 
ATOM     15  C   UNL     1      -0.850   8.528  -0.494  1.00  0.00     0.115 A 
ATOM     16  C   UNL     1      -3.055   7.549  -0.725  1.00  0.00     0.016 A 
ATOM     17  C   UNL     1      -1.740   7.693  -1.176  1.00  0.00     0.047 A 
BRANCH  15  18
ATOM     18  O   UNL     1       0.459   8.661  -0.955  1.00  0.00    -0.508 OA
ATOM     19  H   UNL     1       0.790   9.525  -1.366  1.00  0.00     0.293 HD
ENDBRANCH  15  18
ENDBRANCH   1  12
BRANCH   2  20
ATOM     20  O   UNL     1      -5.630   9.961  -0.487  1.00  0.00    -0.502 OA
ATOM     21  H   UNL     1      -5.261   9.734  -1.402  1.00  0.00     0.293 HD
ENDBRANCH   2  20
BRANCH   6  22
ATOM     22  O   UNL     1      -9.822   8.454   2.432  1.00  0.00    -0.507 OA
ATOM     23  H   UNL     1      -9.820   9.439   2.652  1.00  0.00     0.293 HD
ENDBRANCH   6  22
BRANCH   8  24
ATOM     24  O   UNL     1      -8.014   4.540   4.545  1.00  0.00    -0.508 OA
ATOM     25  H   UNL     1      -8.442   3.683   4.219  1.00  0.00     0.293 HD
ENDBRANCH   8  24
TORSDOF 5
ENDMDL
MODEL 8
REMARK VINA RESULT:    -4.747      4.360      6.813
REMARK INTER + INTRA:          -5.769
REMARK INTER:                  -5.598
REMARK INTRA:                  -0.171
REMARK UNBOUND:                -0.189
REMARK SMILES O=c1c(O)c(-c2ccc(O)cc2)oc2cc(O)cc(O)c12
REMARK SMILES IDX 5 1 3 2 2 3 1 4 21 5 19 6 18 7 16 8 15 9 14 10 13 11 6 12
REMARK SMILES IDX 7 13 8 14 9 15 12 16 11 17 10 18 4 20 20 22 17 24
REMARK H PARENT 10 19 4 21 20 23 17 25
REMARK Flexibility Score: inf
ROOT
ATOM      1  C   UNL     1       1.025  -4.957   1.840  1.00  0.00     0.180 A 
ATOM      2  C   UNL     1       0.493  -6.014   2.599  1.00  0.00     0.208 A 
ATOM      3  C   UNL     1      -0.865  -5.983   2.953  1.00  0.00     0.238 A 
ATOM      4  O   UNL     1      -1.323  -6.904   3.678  1.00  0.00    -0.285 OA
ATOM      5  C   UNL     1      -1.678  -4.903   2.531  1.00  0.00     0.111 A 
ATOM      6  C   UNL     1      -3.075  -4.788   2.798  1.00  0.00     0.134 A 
ATOM      7  C   UNL     1      -3.752  -3.613   2.446  1.00  0.00     0.093 A 
ATOM      8  C   UNL     1      -3.096  -2.577   1.776  1.00  0.00     0.123 A 
ATOM      9  C   UNL     1      -1.746  -2.706   1.457  1.00  0.00     0.094 A 
ATOM     10  C   UNL     1      -1.035  -3.850   1.829  1.00  0.00     0.146 A 
ATOM     11  O   UNL     1       0.252  -3.927   1.515  1.00  0.00    -0.452 OA
ENDROOT
BRANCH   1  12
ATOM     12  C   UNL     1       2.440  -4.933   1.407  1.00  0.00     0.021 A 
ATOM     13  C   UNL     1       3.287  -3.911   1.868  1.00  0.00     0.016 A 
ATOM     14  C   UNL     1       4.621  -3.855   1.454  1.00  0.00     0.047 A 
ATOM     15  C   UNL     1       5.122  -4.812   0.563  1.00  0.00     0.115 A 
ATOM     16  C   UNL     1       2.946  -5.878   0.496  1.00  0.00     0.016 A 
ATOM     17  C   UNL     1       4.280  -5.820   0.083  1.00  0.00     0.047 A 
BRANCH  15  18
ATOM     18  O   UNL     1       6.450  -4.768   0.143  1.00  0.00    -0.508 OA
ATOM     19  H   UNL     1       7.055  -5.577   0.215  1.00  0.00     0.293 HD
ENDBRANCH  15  18
ENDBRANCH   1  12
BRANCH   2  20
ATOM     20  O   UNL     1       1.318  -7.059   3.024  1.00  0.00    -0.502 OA
ATOM     21  H   UNL     1       2.144  -7.343   2.512  1.00  0.00     0.293 HD
ENDBRANCH   2  20
BRANCH   6  22
ATOM     22  O   UNL     1      -3.845  -5.800   3.378  1.00  0.00    -0.507 OA
ATOM     23  H   UNL     1      -3.627  -6.260   4.250  1.00  0.00     0.293 HD
ENDBRANCH   6  22
BRANCH   8  24
ATOM     24  O   UNL     1      -3.780  -1.419   1.414  1.00  0.00    -0.508 OA
ATOM     25  H   UNL     1      -4.768  -1.435   1.194  1.00  0.00     0.293 HD
ENDBRANCH   8  24
TORSDOF 5
ENDMDL
MODEL 9
REMARK VINA RESULT:    -4.732     10.615     11.864
REMARK INTER + INTRA:          -5.751
REMARK INTER:                  -5.462
REMARK INTRA:                  -0.289
REMARK UNBOUND:                -0.189
REMARK SMILES O=c1c(O)c(-c2ccc(O)cc2)oc2cc(O)cc(O)c12
REMARK SMILES IDX 5 1 3 2 2 3 1 4 21 5 19 6 18 7 16 8 15 9 14 10 13 11 6 12
REMARK SMILES IDX 7 13 8 14 9 15 12 16 11 17 10 18 4 20 20 22 17 24
REMARK H PARENT 10 19 4 21 20 23 17 25
REMARK Flexibility Score: inf
ROOT
ATOM      1  C   UNL     1       2.975  -0.939   7.287  1.00  0.00     0.180 A 
ATOM      2  C   UNL     1       1.923  -1.594   7.952  1.00  0.00     0.208 A 
ATOM      3  C   UNL     1       0.683  -0.947   8.068  1.00  0.00     0.238 A 
ATOM      4  O   UNL     1      -0.237  -1.516   8.712  1.00  0.00    -0.285 OA
ATOM      5  C   UNL     1       0.503   0.339   7.505  1.00  0.00     0.111 A 
ATOM      6  C   UNL     1      -0.722   1.070   7.528  1.00  0.00     0.134 A 
ATOM      7  C   UNL     1      -0.749   2.388   7.055  1.00  0.00     0.093 A 
ATOM      8  C   UNL     1       0.389   2.978   6.499  1.00  0.00     0.123 A 
ATOM      9  C   UNL     1       1.574   2.250   6.417  1.00  0.00     0.094 A 
ATOM     10  C   UNL     1       1.642   0.947   6.914  1.00  0.00     0.146 A 
ATOM     11  O   UNL     1       2.794   0.294   6.826  1.00  0.00    -0.452 OA
ENDROOT
BRANCH   1  12
ATOM     12  C   UNL     1       4.303  -1.566   7.103  1.00  0.00     0.021 A 
ATOM     13  C   UNL     1       4.533  -2.382   5.982  1.00  0.00     0.016 A 
ATOM     14  C   UNL     1       5.772  -3.003   5.800  1.00  0.00     0.047 A 
ATOM     15  C   UNL     1       6.791  -2.829   6.744  1.00  0.00     0.115 A 
ATOM     16  C   UNL     1       5.326  -1.414   8.057  1.00  0.00     0.016 A 
ATOM     17  C   UNL     1       6.564  -2.037   7.873  1.00  0.00     0.047 A 
BRANCH  15  18
ATOM     18  O   UNL     1       8.031  -3.443   6.573  1.00  0.00    -0.508 OA
ATOM     19  H   UNL     1       8.282  -3.895   5.702  1.00  0.00     0.293 HD
ENDBRANCH  15  18
ENDBRANCH   1  12
BRANCH   2  20
ATOM     20  O   UNL     1       2.128  -2.854   8.520  1.00  0.00    -0.502 OA
ATOM     21  H   UNL     1       2.995  -3.366   8.412  1.00  0.00     0.293 HD
ENDBRANCH   2  20
BRANCH   6  22
ATOM     22  O   UNL     1      -1.937   0.544   7.976  1.00  0.00    -0.507 OA
ATOM     23  H   UNL     1      -2.789   1.074   8.078  1.00  0.00     0.293 HD
ENDBRANCH   6  22
BRANCH   8  24
ATOM     24  O   UNL     1       0.349   4.284   6.016  1.00  0.00    -0.508 OA
ATOM     25  H   UNL     1      -0.285   4.555   5.274  1.00  0.00     0.293 HD
ENDBRANCH   8  24
TORSDOF 5
ENDMDL
