MODEL 1
REMARK VINA RESULT:    -4.008      0.000      0.000
REMARK INTER + INTRA:          -5.559
REMARK INTER:                  -5.179
REMARK INTRA:                  -0.380
REMARK UNBOUND:                -0.380
REMARK SMILES CCCCCCC(=O)[O-]
REMARK SMILES IDX 5 1 6 2 7 3 8 4 9 5 4 6 3 7 2 8 1 9
REMARK H PARENT
REMARK Flexibility Score: inf
ROOT
ATOM      1  C   UNL     1      44.790 -46.356 162.897  1.00  0.00     0.006 C 
ENDROOT
BRANCH   1   2
ATOM      2  C   UNL     1      44.998 -47.636 162.080  1.00  0.00     0.053 C 
BRANCH   2   3
ATOM      3  C   UNL     1      43.775 -47.949 161.278  1.00  0.00     0.041 C 
ATOM      4  O   UNL     1      43.869 -48.184 160.044  1.00  0.00    -0.550 OA
ATOM      5  O   UNL     1      42.536 -48.032 161.902  1.00  0.00    -0.550 OA
ENDBRANCH   2   3
ENDBRANCH   1   2
BRANCH   1   6
ATOM      6  C   UNL     1      44.776 -46.660 164.403  1.00  0.00     0.000 C 
BRANCH   6   7
ATOM      7  C   UNL     1      45.086 -48.142 164.702  1.00  0.00    -0.000 C 
BRANCH   7   8
ATOM      8  C   UNL     1      43.966 -48.862 165.472  1.00  0.00    -0.003 C 
ATOM      9  C   UNL     1      42.667 -48.062 165.526  1.00  0.00     0.004 C 
ENDBRANCH   7   8
ENDBRANCH   6   7
ENDBRANCH   1   6
TORSDOF 5
ENDMDL
MODEL 2
REMARK VINA RESULT:    -3.989      2.655      3.472
REMARK INTER + INTRA:          -5.535
REMARK INTER:                  -5.163
REMARK INTRA:                  -0.372
REMARK UNBOUND:                -0.380
REMARK SMILES CCCCCCC(=O)[O-]
REMARK SMILES IDX 5 1 6 2 7 3 8 4 9 5 4 6 3 7 2 8 1 9
REMARK H PARENT
REMARK Flexibility Score: inf
ROOT
ATOM      1  C   UNL     1      44.320 -47.150 162.943  1.00  0.00     0.006 C 
ENDROOT
BRANCH   1   2
ATOM      2  C   UNL     1      45.025 -48.300 162.218  1.00  0.00     0.053 C 
BRANCH   2   3
ATOM      3  C   UNL     1      45.832 -49.110 163.182  1.00  0.00     0.041 C 
ATOM      4  O   UNL     1      45.324 -49.496 164.268  1.00  0.00    -0.550 OA
ATOM      5  O   UNL     1      47.132 -49.482 162.861  1.00  0.00    -0.550 OA
ENDBRANCH   2   3
ENDBRANCH   1   2
BRANCH   1   6
ATOM      6  C   UNL     1      45.335 -46.120 163.461  1.00  0.00     0.000 C 
BRANCH   6   7
ATOM      7  C   UNL     1      45.220 -45.900 164.984  1.00  0.00    -0.000 C 
BRANCH   7   8
ATOM      8  C   UNL     1      46.574 -45.694 165.681  1.00  0.00    -0.003 C 
ATOM      9  C   UNL     1      47.727 -46.401 164.971  1.00  0.00     0.004 C 
ENDBRANCH   7   8
ENDBRANCH   6   7
ENDBRANCH   1   6
TORSDOF 5
ENDMDL
MODEL 3
REMARK VINA RESULT:    -3.987      1.816      2.519
REMARK INTER + INTRA:          -5.532
REMARK INTER:                  -5.098
REMARK INTRA:                  -0.435
REMARK UNBOUND:                -0.380
REMARK SMILES CCCCCCC(=O)[O-]
REMARK SMILES IDX 5 1 6 2 7 3 8 4 9 5 4 6 3 7 2 8 1 9
REMARK H PARENT
REMARK Flexibility Score: inf
ROOT
ATOM      1  C   UNL     1      44.524 -49.494 164.159  1.00  0.00     0.006 C 
ENDROOT
BRANCH   1   2
ATOM      2  C   UNL     1      45.626 -48.795 163.357  1.00  0.00     0.053 C 
BRANCH   2   3
ATOM      3  C   UNL     1      45.034 -47.809 162.402  1.00  0.00     0.041 C 
ATOM      4  O   UNL     1      44.510 -48.204 161.326  1.00  0.00    -0.550 OA
ATOM      5  O   UNL     1      45.014 -46.456 162.721  1.00  0.00    -0.550 OA
ENDBRANCH   2   3
ENDBRANCH   1   2
BRANCH   1   6
ATOM      6  C   UNL     1      43.983 -48.578 165.267  1.00  0.00     0.000 C 
BRANCH   6   7
ATOM      7  C   UNL     1      42.462 -48.347 165.144  1.00  0.00    -0.000 C 
BRANCH   7   8
ATOM      8  C   UNL     1      41.825 -49.068 163.944  1.00  0.00    -0.003 C 
ATOM      9  C   UNL     1      41.316 -48.108 162.871  1.00  0.00     0.004 C 
ENDBRANCH   7   8
ENDBRANCH   6   7
ENDBRANCH   1   6
TORSDOF 5
ENDMDL
MODEL 4
REMARK VINA RESULT:    -3.969      1.407      2.051
REMARK INTER + INTRA:          -5.508
REMARK INTER:                  -5.118
REMARK INTRA:                  -0.391
REMARK UNBOUND:                -0.380
REMARK SMILES CCCCCCC(=O)[O-]
REMARK SMILES IDX 5 1 6 2 7 3 8 4 9 5 4 6 3 7 2 8 1 9
REMARK H PARENT
REMARK Flexibility Score: inf
ROOT
ATOM      1  C   UNL     1      45.657 -48.627 164.097  1.00  0.00     0.006 C 
ENDROOT
BRANCH   1   2
ATOM      2  C   UNL     1      45.669 -48.762 162.571  1.00  0.00     0.053 C 
BRANCH   2   3
ATOM      3  C   UNL     1      44.835 -47.691 161.944  1.00  0.00     0.041 C 
ATOM      4  O   UNL     1      44.243 -47.905 160.852  1.00  0.00    -0.550 OA
ATOM      5  O   UNL     1      44.669 -46.471 162.588  1.00  0.00    -0.550 OA
ENDBRANCH   2   3
ENDBRANCH   1   2
BRANCH   1   6
ATOM      6  C   UNL     1      44.403 -49.281 164.698  1.00  0.00     0.000 C 
BRANCH   6   7
ATOM      7  C   UNL     1      43.541 -48.275 165.488  1.00  0.00    -0.000 C 
BRANCH   7   8
ATOM      8  C   UNL     1      42.035 -48.394 165.199  1.00  0.00    -0.003 C 
ATOM      9  C   UNL     1      41.724 -48.606 163.720  1.00  0.00     0.004 C 
ENDBRANCH   7   8
ENDBRANCH   6   7
ENDBRANCH   1   6
TORSDOF 5
ENDMDL
MODEL 5
REMARK VINA RESULT:    -3.961      3.141      4.074
REMARK INTER + INTRA:          -5.499
REMARK INTER:                  -5.110
REMARK INTRA:                  -0.389
REMARK UNBOUND:                -0.380
REMARK SMILES CCCCCCC(=O)[O-]
REMARK SMILES IDX 5 1 6 2 7 3 8 4 9 5 4 6 3 7 2 8 1 9
REMARK H PARENT
REMARK Flexibility Score: inf
ROOT
ATOM      1  C   UNL     1      45.133 -46.148 163.130  1.00  0.00     0.006 C 
ENDROOT
BRANCH   1   2
ATOM      2  C   UNL     1      45.047 -45.962 164.648  1.00  0.00     0.053 C 
BRANCH   2   3
ATOM      3  C   UNL     1      46.407 -46.044 165.264  1.00  0.00     0.041 C 
ATOM      4  O   UNL     1      46.670 -45.394 166.310  1.00  0.00    -0.550 OA
ATOM      5  O   UNL     1      47.372 -46.878 164.711  1.00  0.00    -0.550 OA
ENDBRANCH   2   3
ENDBRANCH   1   2
BRANCH   1   6
ATOM      6  C   UNL     1      44.311 -47.365 162.677  1.00  0.00     0.000 C 
BRANCH   6   7
ATOM      7  C   UNL     1      45.203 -48.511 162.156  1.00  0.00    -0.000 C 
BRANCH   7   8
ATOM      8  C   UNL     1      45.613 -49.517 163.245  1.00  0.00    -0.003 C 
ATOM      9  C   UNL     1      44.623 -49.577 164.407  1.00  0.00     0.004 C 
ENDBRANCH   7   8
ENDBRANCH   6   7
ENDBRANCH   1   6
TORSDOF 5
ENDMDL
MODEL 6
REMARK VINA RESULT:    -3.958      9.817     10.708
REMARK INTER + INTRA:          -5.495
REMARK INTER:                  -5.322
REMARK INTRA:                  -0.173
REMARK UNBOUND:                -0.380
REMARK SMILES CCCCCCC(=O)[O-]
REMARK SMILES IDX 5 1 6 2 7 3 8 4 9 5 4 6 3 7 2 8 1 9
REMARK H PARENT
REMARK Flexibility Score: inf
ROOT
ATOM      1  C   UNL     1      54.755 -48.978 166.700  1.00  0.00     0.006 C 
ENDROOT
BRANCH   1   2
ATOM      2  C   UNL     1      53.679 -49.768 167.452  1.00  0.00     0.053 C 
BRANCH   2   3
ATOM      3  C   UNL     1      54.077 -51.204 167.579  1.00  0.00     0.041 C 
ATOM      4  O   UNL     1      54.776 -51.750 166.684  1.00  0.00    -0.550 OA
ATOM      5  O   UNL     1      53.718 -51.929 168.708  1.00  0.00    -0.550 OA
ENDBRANCH   2   3
ENDBRANCH   1   2
BRANCH   1   6
ATOM      6  C   UNL     1      54.120 -47.969 165.730  1.00  0.00     0.000 C 
BRANCH   6   7
ATOM      7  C   UNL     1      52.584 -47.913 165.869  1.00  0.00    -0.000 C 
BRANCH   7   8
ATOM      8  C   UNL     1      52.001 -46.501 165.692  1.00  0.00    -0.003 C 
ATOM      9  C   UNL     1      50.584 -46.506 165.123  1.00  0.00     0.004 C 
ENDBRANCH   7   8
ENDBRANCH   6   7
ENDBRANCH   1   6
TORSDOF 5
ENDMDL
MODEL 7
REMARK VINA RESULT:    -3.948      1.731      3.509
REMARK INTER + INTRA:          -5.481
REMARK INTER:                  -5.071
REMARK INTRA:                  -0.410
REMARK UNBOUND:                -0.380
REMARK SMILES CCCCCCC(=O)[O-]
REMARK SMILES IDX 5 1 6 2 7 3 8 4 9 5 4 6 3 7 2 8 1 9
REMARK H PARENT
REMARK Flexibility Score: inf
ROOT
ATOM      1  C   UNL     1      43.656 -48.040 164.816  1.00  0.00     0.006 C 
ENDROOT
BRANCH   1   2
ATOM      2  C   UNL     1      42.199 -48.390 165.134  1.00  0.00     0.053 C 
BRANCH   2   3
ATOM      3  C   UNL     1      41.472 -48.790 163.890  1.00  0.00     0.041 C 
ATOM      4  O   UNL     1      41.010 -49.956 163.771  1.00  0.00    -0.550 OA
ATOM      5  O   UNL     1      41.261 -47.861 162.878  1.00  0.00    -0.550 OA
ENDBRANCH   2   3
ENDBRANCH   1   2
BRANCH   1   6
ATOM      6  C   UNL     1      44.440 -49.289 164.382  1.00  0.00     0.000 C 
BRANCH   6   7
ATOM      7  C   UNL     1      45.299 -49.031 163.127  1.00  0.00    -0.000 C 
BRANCH   7   8
ATOM      8  C   UNL     1      44.937 -47.731 162.388  1.00  0.00    -0.003 C 
ATOM      9  C   UNL     1      44.251 -47.977 161.047  1.00  0.00     0.004 C 
ENDBRANCH   7   8
ENDBRANCH   6   7
ENDBRANCH   1   6
TORSDOF 5
ENDMDL
MODEL 8
REMARK VINA RESULT:    -3.887      9.737     10.394
REMARK INTER + INTRA:          -5.404
REMARK INTER:                  -5.129
REMARK INTRA:                  -0.274
REMARK UNBOUND:                -0.380
REMARK SMILES CCCCCCC(=O)[O-]
REMARK SMILES IDX 5 1 6 2 7 3 8 4 9 5 4 6 3 7 2 8 1 9
REMARK H PARENT
REMARK Flexibility Score: inf
ROOT
ATOM      1  C   UNL     1      54.357 -44.739 166.183  1.00  0.00     0.006 C 
ENDROOT
BRANCH   1   2
ATOM      2  C   UNL     1      54.016 -44.157 164.808  1.00  0.00     0.053 C 
BRANCH   2   3
ATOM      3  C   UNL     1      54.016 -42.663 164.857  1.00  0.00     0.041 C 
ATOM      4  O   UNL     1      54.177 -41.993 163.802  1.00  0.00    -0.550 OA
ATOM      5  O   UNL     1      53.790 -42.006 166.061  1.00  0.00    -0.550 OA
ENDBRANCH   2   3
ENDBRANCH   1   2
BRANCH   1   6
ATOM      6  C   UNL     1      53.235 -45.661 166.685  1.00  0.00     0.000 C 
BRANCH   6   7
ATOM      7  C   UNL     1      53.229 -47.022 165.960  1.00  0.00    -0.000 C 
BRANCH   7   8
ATOM      8  C   UNL     1      51.830 -47.473 165.507  1.00  0.00    -0.003 C 
ATOM      9  C   UNL     1      50.913 -46.307 165.145  1.00  0.00     0.004 C 
ENDBRANCH   7   8
ENDBRANCH   6   7
ENDBRANCH   1   6
TORSDOF 5
ENDMDL
MODEL 9
REMARK VINA RESULT:    -3.882      2.222      3.676
REMARK INTER + INTRA:          -5.397
REMARK INTER:                  -4.998
REMARK INTRA:                  -0.399
REMARK UNBOUND:                -0.380
REMARK SMILES CCCCCCC(=O)[O-]
REMARK SMILES IDX 5 1 6 2 7 3 8 4 9 5 4 6 3 7 2 8 1 9
REMARK H PARENT
REMARK Flexibility Score: inf
ROOT
ATOM      1  C   UNL     1      45.612 -46.798 163.988  1.00  0.00     0.006 C 
ENDROOT
BRANCH   1   2
ATOM      2  C   UNL     1      44.729 -46.906 165.236  1.00  0.00     0.053 C 
BRANCH   2   3
ATOM      3  C   UNL     1      44.044 -48.234 165.279  1.00  0.00     0.041 C 
ATOM      4  O   UNL     1      42.852 -48.320 165.680  1.00  0.00    -0.550 OA
ATOM      5  O   UNL     1      44.702 -49.373 164.830  1.00  0.00    -0.550 OA
ENDBRANCH   2   3
ENDBRANCH   1   2
BRANCH   1   6
ATOM      6  C   UNL     1      44.766 -46.507 162.739  1.00  0.00     0.000 C 
BRANCH   6   7
ATOM      7  C   UNL     1      44.843 -47.647 161.702  1.00  0.00    -0.000 C 
BRANCH   7   8
ATOM      8  C   UNL     1      43.482 -48.014 161.087  1.00  0.00    -0.003 C 
ATOM      9  C   UNL     1      42.304 -47.687 162.002  1.00  0.00     0.004 C 
ENDBRANCH   7   8
ENDBRANCH   6   7
ENDBRANCH   1   6
TORSDOF 5
ENDMDL
