MODEL 1
REMARK VINA RESULT:    -3.243      0.000      0.000
REMARK INTER + INTRA:          -4.681
REMARK INTER:                  -4.381
REMARK INTRA:                  -0.300
REMARK UNBOUND:                -0.300
REMARK SMILES CCCCCCCC=O
REMARK SMILES IDX 5 1 4 2 3 3 2 4 1 5 6 6 7 7 8 8 9 9
REMARK H PARENT
REMARK Flexibility Score: inf
ROOT
ATOM      1  C   UNL     1     166.743 161.722 168.421  1.00  0.00     0.000 C 
ENDROOT
BRANCH   1   2
ATOM      2  C   UNL     1     166.342 163.205 168.452  1.00  0.00     0.000 C 
BRANCH   2   3
ATOM      3  C   UNL     1     166.021 163.715 167.039  1.00  0.00    -0.000 C 
BRANCH   3   4
ATOM      4  C   UNL     1     166.377 165.197 166.850  1.00  0.00    -0.003 C 
ATOM      5  C   UNL     1     167.314 165.724 167.936  1.00  0.00     0.004 C 
ENDBRANCH   3   4
ENDBRANCH   2   3
ENDBRANCH   1   2
BRANCH   1   6
ATOM      6  C   UNL     1     166.692 161.124 167.005  1.00  0.00     0.008 C 
BRANCH   6   7
ATOM      7  C   UNL     1     166.355 159.626 167.008  1.00  0.00     0.072 C 
BRANCH   7   8
ATOM      8  C   UNL     1     166.366 159.079 168.405  1.00  0.00     0.224 C 
ATOM      9  O   UNL     1     165.666 158.122 168.700  1.00  0.00    -0.303 OA
ENDBRANCH   7   8
ENDBRANCH   6   7
ENDBRANCH   1   6
TORSDOF 6
ENDMDL
MODEL 2
REMARK VINA RESULT:    -3.226      6.607      9.134
REMARK INTER + INTRA:          -4.658
REMARK INTER:                  -4.364
REMARK INTRA:                  -0.293
REMARK UNBOUND:                -0.300
REMARK SMILES CCCCCCCC=O
REMARK SMILES IDX 5 1 4 2 3 3 2 4 1 5 6 6 7 7 8 8 9 9
REMARK H PARENT
REMARK Flexibility Score: inf
ROOT
ATOM      1  C   UNL     1     164.520 169.528 168.297  1.00  0.00     0.000 C 
ENDROOT
BRANCH   1   2
ATOM      2  C   UNL     1     164.799 168.018 168.323  1.00  0.00     0.000 C 
BRANCH   2   3
ATOM      3  C   UNL     1     165.160 167.503 166.921  1.00  0.00    -0.000 C 
BRANCH   3   4
ATOM      4  C   UNL     1     164.798 166.023 166.724  1.00  0.00    -0.003 C 
ATOM      5  C   UNL     1     163.945 165.465 167.862  1.00  0.00     0.004 C 
ENDBRANCH   3   4
ENDBRANCH   2   3
ENDBRANCH   1   2
BRANCH   1   6
ATOM      6  C   UNL     1     164.502 170.103 166.870  1.00  0.00     0.008 C 
BRANCH   6   7
ATOM      7  C   UNL     1     164.900 171.585 166.826  1.00  0.00     0.072 C 
BRANCH   7   8
ATOM      8  C   UNL     1     164.849 172.194 168.196  1.00  0.00     0.224 C 
ATOM      9  O   UNL     1     165.599 173.111 168.494  1.00  0.00    -0.303 OA
ENDBRANCH   7   8
ENDBRANCH   6   7
ENDBRANCH   1   6
TORSDOF 6
ENDMDL
MODEL 3
REMARK VINA RESULT:    -3.218      5.461      6.427
REMARK INTER + INTRA:          -4.646
REMARK INTER:                  -4.344
REMARK INTRA:                  -0.302
REMARK UNBOUND:                -0.300
REMARK SMILES CCCCCCCC=O
REMARK SMILES IDX 5 1 4 2 3 3 2 4 1 5 6 6 7 7 8 8 9 9
REMARK H PARENT
REMARK Flexibility Score: inf
ROOT
ATOM      1  C   UNL     1     169.460 166.741 168.460  1.00  0.00     0.000 C 
ENDROOT
BRANCH   1   2
ATOM      2  C   UNL     1     167.979 166.339 168.519  1.00  0.00     0.000 C 
BRANCH   2   3
ATOM      3  C   UNL     1     167.459 165.960 167.124  1.00  0.00    -0.000 C 
BRANCH   3   4
ATOM      4  C   UNL     1     166.053 166.514 166.846  1.00  0.00    -0.003 C 
ATOM      5  C   UNL     1     165.396 167.112 168.090  1.00  0.00     0.004 C 
ENDBRANCH   3   4
ENDBRANCH   2   3
ENDBRANCH   1   2
BRANCH   1   6
ATOM      6  C   UNL     1     170.025 166.713 167.030  1.00  0.00     0.008 C 
BRANCH   6   7
ATOM      7  C   UNL     1     171.524 166.383 166.993  1.00  0.00     0.072 C 
BRANCH   7   8
ATOM      8  C   UNL     1     172.088 166.302 168.381  1.00  0.00     0.224 C 
ATOM      9  O   UNL     1     173.113 165.674 168.597  1.00  0.00    -0.303 OA
ENDBRANCH   7   8
ENDBRANCH   6   7
ENDBRANCH   1   6
TORSDOF 6
ENDMDL
MODEL 4
REMARK VINA RESULT:    -3.186      5.527      6.415
REMARK INTER + INTRA:          -4.604
REMARK INTER:                  -4.316
REMARK INTRA:                  -0.288
REMARK UNBOUND:                -0.300
REMARK SMILES CCCCCCCC=O
REMARK SMILES IDX 5 1 4 2 3 3 2 4 1 5 6 6 7 7 8 8 9 9
REMARK H PARENT
REMARK Flexibility Score: inf
ROOT
ATOM      1  C   UNL     1     161.842 164.511 168.510  1.00  0.00     0.000 C 
ENDROOT
BRANCH   1   2
ATOM      2  C   UNL     1     163.321 164.926 168.495  1.00  0.00     0.000 C 
BRANCH   2   3
ATOM      3  C   UNL     1     163.801 165.189 167.059  1.00  0.00    -0.000 C 
BRANCH   3   4
ATOM      4  C   UNL     1     165.010 166.136 167.004  1.00  0.00    -0.003 C 
ATOM      5  C   UNL     1     164.889 167.307 167.978  1.00  0.00     0.004 C 
ENDBRANCH   3   4
ENDBRANCH   2   3
ENDBRANCH   1   2
BRANCH   1   6
ATOM      6  C   UNL     1     161.203 164.546 167.112  1.00  0.00     0.008 C 
BRANCH   6   7
ATOM      7  C   UNL     1     159.671 164.638 167.166  1.00  0.00     0.072 C 
BRANCH   7   8
ATOM      8  C   UNL     1     159.201 164.921 168.562  1.00  0.00     0.224 C 
ATOM      9  O   UNL     1     158.142 165.499 168.753  1.00  0.00    -0.303 OA
ENDBRANCH   7   8
ENDBRANCH   6   7
ENDBRANCH   1   6
TORSDOF 6
ENDMDL
MODEL 5
REMARK VINA RESULT:    -3.049      6.096      7.052
REMARK INTER + INTRA:          -4.418
REMARK INTER:                  -4.190
REMARK INTRA:                  -0.228
REMARK UNBOUND:                -0.300
REMARK SMILES CCCCCCCC=O
REMARK SMILES IDX 5 1 4 2 3 3 2 4 1 5 6 6 7 7 8 8 9 9
REMARK H PARENT
REMARK Flexibility Score: inf
ROOT
ATOM      1  C   UNL     1     161.454 164.455 167.994  1.00  0.00     0.000 C 
ENDROOT
BRANCH   1   2
ATOM      2  C   UNL     1     162.896 164.880 167.680  1.00  0.00     0.000 C 
BRANCH   2   3
ATOM      3  C   UNL     1     163.698 165.095 168.972  1.00  0.00    -0.000 C 
BRANCH   3   4
ATOM      4  C   UNL     1     162.929 164.651 170.226  1.00  0.00    -0.003 C 
ATOM      5  C   UNL     1     162.961 165.695 171.341  1.00  0.00     0.004 C 
ENDBRANCH   3   4
ENDBRANCH   2   3
ENDBRANCH   1   2
BRANCH   1   6
ATOM      6  C   UNL     1     160.573 164.372 166.736  1.00  0.00     0.008 C 
BRANCH   6   7
ATOM      7  C   UNL     1     159.230 165.094 166.908  1.00  0.00     0.072 C 
BRANCH   7   8
ATOM      8  C   UNL     1     158.534 164.640 168.158  1.00  0.00     0.224 C 
ATOM      9  O   UNL     1     158.140 165.456 168.978  1.00  0.00    -0.303 OA
ENDBRANCH   7   8
ENDBRANCH   6   7
ENDBRANCH   1   6
TORSDOF 6
ENDMDL
MODEL 6
REMARK VINA RESULT:    -3.026      5.730      6.868
REMARK INTER + INTRA:          -4.388
REMARK INTER:                  -4.159
REMARK INTRA:                  -0.229
REMARK UNBOUND:                -0.300
REMARK SMILES CCCCCCCC=O
REMARK SMILES IDX 5 1 4 2 3 3 2 4 1 5 6 6 7 7 8 8 9 9
REMARK H PARENT
REMARK Flexibility Score: inf
ROOT
ATOM      1  C   UNL     1     169.744 166.742 168.108  1.00  0.00     0.000 C 
ENDROOT
BRANCH   1   2
ATOM      2  C   UNL     1     168.304 166.341 167.756  1.00  0.00     0.000 C 
BRANCH   2   3
ATOM      3  C   UNL     1     167.446 166.211 169.024  1.00  0.00    -0.000 C 
BRANCH   3   4
ATOM      4  C   UNL     1     168.255 166.431 170.311  1.00  0.00    -0.003 C 
ATOM      5  C   UNL     1     167.564 167.379 171.290  1.00  0.00     0.004 C 
ENDBRANCH   3   4
ENDBRANCH   2   3
ENDBRANCH   1   2
BRANCH   1   6
ATOM      6  C   UNL     1     170.638 166.891 166.866  1.00  0.00     0.008 C 
BRANCH   6   7
ATOM      7  C   UNL     1     171.994 166.189 167.027  1.00  0.00     0.072 C 
BRANCH   7   8
ATOM      8  C   UNL     1     172.654 166.589 168.313  1.00  0.00     0.224 C 
ATOM      9  O   UNL     1     173.079 165.739 169.081  1.00  0.00    -0.303 OA
ENDBRANCH   7   8
ENDBRANCH   6   7
ENDBRANCH   1   6
TORSDOF 6
ENDMDL
MODEL 7
REMARK VINA RESULT:    -2.876      9.567     11.370
REMARK INTER + INTRA:          -4.185
REMARK INTER:                  -3.708
REMARK INTRA:                  -0.477
REMARK UNBOUND:                -0.300
REMARK SMILES CCCCCCCC=O
REMARK SMILES IDX 5 1 4 2 3 3 2 4 1 5 6 6 7 7 8 8 9 9
REMARK H PARENT
REMARK Flexibility Score: inf
ROOT
ATOM      1  C   UNL     1     163.044 171.005 170.033  1.00  0.00     0.000 C 
ENDROOT
BRANCH   1   2
ATOM      2  C   UNL     1     164.393 170.927 169.304  1.00  0.00     0.000 C 
BRANCH   2   3
ATOM      3  C   UNL     1     164.307 169.987 168.091  1.00  0.00    -0.000 C 
BRANCH   3   4
ATOM      4  C   UNL     1     164.484 170.727 166.756  1.00  0.00    -0.003 C 
ATOM      5  C   UNL     1     165.149 172.092 166.920  1.00  0.00     0.004 C 
ENDBRANCH   3   4
ENDBRANCH   2   3
ENDBRANCH   1   2
BRANCH   1   6
ATOM      6  C   UNL     1     162.093 172.040 169.410  1.00  0.00     0.008 C 
BRANCH   6   7
ATOM      7  C   UNL     1     162.712 173.442 169.336  1.00  0.00     0.072 C 
BRANCH   7   8
ATOM      8  C   UNL     1     162.966 173.988 170.710  1.00  0.00     0.224 C 
ATOM      9  O   UNL     1     164.012 174.567 170.962  1.00  0.00    -0.303 OA
ENDBRANCH   7   8
ENDBRANCH   6   7
ENDBRANCH   1   6
TORSDOF 6
ENDMDL
MODEL 8
REMARK VINA RESULT:    -2.860      7.477      9.828
REMARK INTER + INTRA:          -4.163
REMARK INTER:                  -3.754
REMARK INTRA:                  -0.409
REMARK UNBOUND:                -0.300
REMARK SMILES CCCCCCCC=O
REMARK SMILES IDX 5 1 4 2 3 3 2 4 1 5 6 6 7 7 8 8 9 9
REMARK H PARENT
REMARK Flexibility Score: inf
ROOT
ATOM      1  C   UNL     1     163.290 170.525 169.782  1.00  0.00     0.000 C 
ENDROOT
BRANCH   1   2
ATOM      2  C   UNL     1     164.656 169.848 169.969  1.00  0.00     0.000 C 
BRANCH   2   3
ATOM      3  C   UNL     1     164.487 168.369 170.349  1.00  0.00    -0.000 C 
BRANCH   3   4
ATOM      4  C   UNL     1     165.274 167.428 169.424  1.00  0.00    -0.003 C 
ATOM      5  C   UNL     1     165.032 167.716 167.942  1.00  0.00     0.004 C 
ENDBRANCH   3   4
ENDBRANCH   2   3
ENDBRANCH   1   2
BRANCH   1   6
ATOM      6  C   UNL     1     163.326 171.653 168.736  1.00  0.00     0.008 C 
BRANCH   6   7
ATOM      7  C   UNL     1     164.177 171.294 167.511  1.00  0.00     0.072 C 
BRANCH   7   8
ATOM      8  C   UNL     1     165.107 172.418 167.158  1.00  0.00     0.224 C 
ATOM      9  O   UNL     1     165.632 173.085 168.036  1.00  0.00    -0.303 OA
ENDBRANCH   7   8
ENDBRANCH   6   7
ENDBRANCH   1   6
TORSDOF 6
ENDMDL
MODEL 9
REMARK VINA RESULT:    -2.856      2.888      4.395
REMARK INTER + INTRA:          -4.158
REMARK INTER:                  -3.718
REMARK INTRA:                  -0.440
REMARK UNBOUND:                -0.300
REMARK SMILES CCCCCCCC=O
REMARK SMILES IDX 5 1 4 2 3 3 2 4 1 5 6 6 7 7 8 8 9 9
REMARK H PARENT
REMARK Flexibility Score: inf
ROOT
ATOM      1  C   UNL     1     168.099 159.781 168.754  1.00  0.00     0.000 C 
ENDROOT
BRANCH   1   2
ATOM      2  C   UNL     1     167.842 159.906 170.263  1.00  0.00     0.000 C 
BRANCH   2   3
ATOM      3  C   UNL     1     166.453 160.504 170.534  1.00  0.00    -0.000 C 
BRANCH   3   4
ATOM      4  C   UNL     1     165.459 159.467 171.079  1.00  0.00    -0.003 C 
ATOM      5  C   UNL     1     166.029 158.049 171.087  1.00  0.00     0.004 C 
ENDBRANCH   3   4
ENDBRANCH   2   3
ENDBRANCH   1   2
BRANCH   1   6
ATOM      6  C   UNL     1     167.161 160.668 167.918  1.00  0.00     0.008 C 
BRANCH   6   7
ATOM      7  C   UNL     1     166.371 159.870 166.871  1.00  0.00     0.072 C 
BRANCH   7   8
ATOM      8  C   UNL     1     166.079 158.484 167.365  1.00  0.00     0.224 C 
ATOM      9  O   UNL     1     165.326 157.751 166.741  1.00  0.00    -0.303 OA
ENDBRANCH   7   8
ENDBRANCH   6   7
ENDBRANCH   1   6
TORSDOF 6
ENDMDL
