MODEL 1
REMARK VINA RESULT:    -4.599      0.000      0.000
REMARK INTER + INTRA:         -17.594
REMARK INTER:                 -12.127
REMARK INTRA:                  -5.467
REMARK UNBOUND:                -5.467
REMARK SMILES CCCCCCCCCCCCCCCCCCCCCCCCCCCCCC(=O)[O-]
REMARK SMILES IDX 16 1 17 2 18 3 19 4 20 5 21 6 22 7 23 8 24 9 25 10 26 11
REMARK SMILES IDX 27 12 28 13 29 14 30 15 31 16 32 17 15 18 14 19 13 20 12 21
REMARK SMILES IDX 11 22 10 23 9 24 8 25 7 26 6 27 5 28 4 29 3 30 2 31 1 32
REMARK H PARENT
REMARK Flexibility Score: inf
ROOT
ATOM      1  C   UNL     1      41.964  20.576 223.563  1.00  0.00     0.000 C 
ENDROOT
BRANCH   1   2
ATOM      2  C   UNL     1      41.108  19.292 223.553  1.00  0.00     0.000 C 
BRANCH   2   3
ATOM      3  C   UNL     1      40.192  19.128 224.779  1.00  0.00     0.000 C 
BRANCH   3   4
ATOM      4  C   UNL     1      40.723  19.868 226.015  1.00  0.00     0.000 C 
BRANCH   4   5
ATOM      5  C   UNL     1      39.621  20.732 226.645  1.00  0.00     0.000 C 
BRANCH   5   6
ATOM      6  C   UNL     1      39.903  21.068 228.119  1.00  0.00     0.000 C 
BRANCH   6   7
ATOM      7  C   UNL     1      38.621  21.099 228.965  1.00  0.00     0.000 C 
BRANCH   7   8
ATOM      8  C   UNL     1      38.704  20.106 230.136  1.00  0.00     0.000 C 
BRANCH   8   9
ATOM      9  C   UNL     1      40.025  19.318 230.150  1.00  0.00     0.000 C 
BRANCH   9  10
ATOM     10  C   UNL     1      39.811  17.801 230.013  1.00  0.00     0.000 C 
BRANCH  10  11
ATOM     11  C   UNL     1      39.896  17.324 228.554  1.00  0.00     0.000 C 
BRANCH  11  12
ATOM     12  C   UNL     1      38.597  16.653 228.077  1.00  0.00     0.000 C 
BRANCH  12  13
ATOM     13  C   UNL     1      37.868  17.464 226.988  1.00  0.00     0.006 C 
BRANCH  13  14
ATOM     14  C   UNL     1      36.720  18.342 227.518  1.00  0.00     0.053 C 
BRANCH  14  15
ATOM     15  C   UNL     1      35.906  18.964 226.422  1.00  0.00     0.041 C 
ATOM     16  O   UNL     1      35.759  18.369 225.319  1.00  0.00    -0.550 OA
ATOM     17  O   UNL     1      35.295  20.194 226.624  1.00  0.00    -0.550 OA
ENDBRANCH  14  15
ENDBRANCH  13  14
ENDBRANCH  12  13
ENDBRANCH  11  12
ENDBRANCH  10  11
ENDBRANCH   9  10
ENDBRANCH   8   9
ENDBRANCH   7   8
ENDBRANCH   6   7
ENDBRANCH   5   6
ENDBRANCH   4   5
ENDBRANCH   3   4
ENDBRANCH   2   3
ENDBRANCH   1   2
BRANCH   1  18
ATOM     18  C   UNL     1      41.376  21.708 222.696  1.00  0.00     0.000 C 
BRANCH  18  19
ATOM     19  C   UNL     1      40.306  22.521 223.444  1.00  0.00     0.000 C 
BRANCH  19  20
ATOM     20  C   UNL     1      40.733  23.987 223.588  1.00  0.00     0.000 C 
BRANCH  20  21
ATOM     21  C   UNL     1      41.812  24.154 224.670  1.00  0.00     0.000 C 
BRANCH  21  22
ATOM     22  C   UNL     1      41.251  24.047 226.100  1.00  0.00     0.000 C 
BRANCH  22  23
ATOM     23  C   UNL     1      40.145  25.060 226.446  1.00  0.00     0.000 C 
BRANCH  23  24
ATOM     24  C   UNL     1      38.844  24.387 226.922  1.00  0.00    -0.000 C 
BRANCH  24  25
ATOM     25  C   UNL     1      37.710  24.472 225.886  1.00  0.00    -0.000 C 
BRANCH  25  26
ATOM     26  C   UNL     1      37.802  25.642 224.886  1.00  0.00    -0.000 C 
BRANCH  26  27
ATOM     27  C   UNL     1      36.971  25.455 223.599  1.00  0.00    -0.000 C 
BRANCH  27  28
ATOM     28  C   UNL     1      36.103  24.185 223.626  1.00  0.00    -0.000 C 
BRANCH  28  29
ATOM     29  C   UNL     1      35.997  23.506 222.247  1.00  0.00    -0.000 C 
BRANCH  29  30
ATOM     30  C   UNL     1      37.285  23.555 221.397  1.00  0.00    -0.000 C 
BRANCH  30  31
ATOM     31  C   UNL     1      37.074  23.387 219.878  1.00  0.00    -0.003 C 
ATOM     32  C   UNL     1      35.878  24.178 219.348  1.00  0.00     0.004 C 
ENDBRANCH  30  31
ENDBRANCH  29  30
ENDBRANCH  28  29
ENDBRANCH  27  28
ENDBRANCH  26  27
ENDBRANCH  25  26
ENDBRANCH  24  25
ENDBRANCH  23  24
ENDBRANCH  22  23
ENDBRANCH  21  22
ENDBRANCH  20  21
ENDBRANCH  19  20
ENDBRANCH  18  19
ENDBRANCH   1  18
TORSDOF 28
ENDMDL
MODEL 2
REMARK VINA RESULT:    -4.500      2.126      5.379
REMARK INTER + INTRA:         -17.332
REMARK INTER:                 -11.300
REMARK INTRA:                  -6.032
REMARK UNBOUND:                -5.467
REMARK SMILES CCCCCCCCCCCCCCCCCCCCCCCCCCCCCC(=O)[O-]
REMARK SMILES IDX 16 1 17 2 18 3 19 4 20 5 21 6 22 7 23 8 24 9 25 10 26 11
REMARK SMILES IDX 27 12 28 13 29 14 30 15 31 16 32 17 15 18 14 19 13 20 12 21
REMARK SMILES IDX 11 22 10 23 9 24 8 25 7 26 6 27 5 28 4 29 3 30 2 31 1 32
REMARK H PARENT
REMARK Flexibility Score: inf
ROOT
ATOM      1  C   UNL     1      40.986  22.956 222.996  1.00  0.00     0.000 C 
ENDROOT
BRANCH   1   2
ATOM      2  C   UNL     1      42.036  21.830 223.093  1.00  0.00     0.000 C 
BRANCH   2   3
ATOM      3  C   UNL     1      41.635  20.521 222.390  1.00  0.00     0.000 C 
BRANCH   3   4
ATOM      4  C   UNL     1      40.982  19.514 223.347  1.00  0.00     0.000 C 
BRANCH   4   5
ATOM      5  C   UNL     1      41.623  19.594 224.741  1.00  0.00     0.000 C 
BRANCH   5   6
ATOM      6  C   UNL     1      40.580  19.611 225.870  1.00  0.00     0.000 C 
BRANCH   6   7
ATOM      7  C   UNL     1      40.177  18.195 226.312  1.00  0.00     0.000 C 
BRANCH   7   8
ATOM      8  C   UNL     1      38.651  18.073 226.460  1.00  0.00     0.000 C 
BRANCH   8   9
ATOM      9  C   UNL     1      37.891  19.127 225.637  1.00  0.00     0.000 C 
BRANCH   9  10
ATOM     10  C   UNL     1      36.715  19.747 226.411  1.00  0.00     0.000 C 
BRANCH  10  11
ATOM     11  C   UNL     1      36.846  21.271 226.561  1.00  0.00     0.000 C 
BRANCH  11  12
ATOM     12  C   UNL     1      37.637  21.910 225.408  1.00  0.00     0.000 C 
BRANCH  12  13
ATOM     13  C   UNL     1      36.762  22.216 224.177  1.00  0.00     0.006 C 
BRANCH  13  14
ATOM     14  C   UNL     1      37.119  23.532 223.460  1.00  0.00     0.053 C 
BRANCH  14  15
ATOM     15  C   UNL     1      36.355  24.710 223.985  1.00  0.00     0.041 C 
ATOM     16  O   UNL     1      35.347  24.539 224.726  1.00  0.00    -0.550 OA
ATOM     17  O   UNL     1      36.764  25.998 223.670  1.00  0.00    -0.550 OA
ENDBRANCH  14  15
ENDBRANCH  13  14
ENDBRANCH  12  13
ENDBRANCH  11  12
ENDBRANCH  10  11
ENDBRANCH   9  10
ENDBRANCH   8   9
ENDBRANCH   7   8
ENDBRANCH   6   7
ENDBRANCH   5   6
ENDBRANCH   4   5
ENDBRANCH   3   4
ENDBRANCH   2   3
ENDBRANCH   1   2
BRANCH   1  18
ATOM     18  C   UNL     1      40.683  23.627 224.352  1.00  0.00     0.000 C 
BRANCH  18  19
ATOM     19  C   UNL     1      41.862  23.516 225.334  1.00  0.00     0.000 C 
BRANCH  19  20
ATOM     20  C   UNL     1      42.531  24.880 225.542  1.00  0.00     0.000 C 
BRANCH  20  21
ATOM     21  C   UNL     1      42.769  25.166 227.033  1.00  0.00     0.000 C 
BRANCH  21  22
ATOM     22  C   UNL     1      42.196  26.523 227.484  1.00  0.00     0.000 C 
BRANCH  22  23
ATOM     23  C   UNL     1      41.377  27.273 226.419  1.00  0.00     0.000 C 
BRANCH  23  24
ATOM     24  C   UNL     1      39.869  27.300 226.733  1.00  0.00    -0.000 C 
BRANCH  24  25
ATOM     25  C   UNL     1      39.113  26.093 226.152  1.00  0.00    -0.000 C 
BRANCH  25  26
ATOM     26  C   UNL     1      38.182  25.350 227.130  1.00  0.00    -0.000 C 
BRANCH  26  27
ATOM     27  C   UNL     1      38.877  24.816 228.401  1.00  0.00    -0.000 C 
BRANCH  27  28
ATOM     28  C   UNL     1      39.589  23.471 228.174  1.00  0.00    -0.000 C 
BRANCH  28  29
ATOM     29  C   UNL     1      39.504  22.539 229.397  1.00  0.00    -0.000 C 
BRANCH  29  30
ATOM     30  C   UNL     1      39.688  21.038 229.086  1.00  0.00    -0.000 C 
BRANCH  30  31
ATOM     31  C   UNL     1      38.531  20.127 229.546  1.00  0.00    -0.003 C 
ATOM     32  C   UNL     1      38.941  19.148 230.646  1.00  0.00     0.004 C 
ENDBRANCH  30  31
ENDBRANCH  29  30
ENDBRANCH  28  29
ENDBRANCH  27  28
ENDBRANCH  26  27
ENDBRANCH  25  26
ENDBRANCH  24  25
ENDBRANCH  23  24
ENDBRANCH  22  23
ENDBRANCH  21  22
ENDBRANCH  20  21
ENDBRANCH  19  20
ENDBRANCH  18  19
ENDBRANCH   1  18
TORSDOF 28
ENDMDL
MODEL 3
REMARK VINA RESULT:    -4.462      2.236      4.676
REMARK INTER + INTRA:         -17.232
REMARK INTER:                 -10.780
REMARK INTRA:                  -6.452
REMARK UNBOUND:                -5.467
REMARK SMILES CCCCCCCCCCCCCCCCCCCCCCCCCCCCCC(=O)[O-]
REMARK SMILES IDX 16 1 17 2 18 3 19 4 20 5 21 6 22 7 23 8 24 9 25 10 26 11
REMARK SMILES IDX 27 12 28 13 29 14 30 15 31 16 32 17 15 18 14 19 13 20 12 21
REMARK SMILES IDX 11 22 10 23 9 24 8 25 7 26 6 27 5 28 4 29 3 30 2 31 1 32
REMARK H PARENT
REMARK Flexibility Score: inf
ROOT
ATOM      1  C   UNL     1      41.181  23.919 228.648  1.00  0.00     0.000 C 
ENDROOT
BRANCH   1   2
ATOM      2  C   UNL     1      40.293  22.732 229.079  1.00  0.00     0.000 C 
BRANCH   2   3
ATOM      3  C   UNL     1      40.055  21.683 227.979  1.00  0.00     0.000 C 
BRANCH   3   4
ATOM      4  C   UNL     1      38.629  21.736 227.412  1.00  0.00     0.000 C 
BRANCH   4   5
ATOM      5  C   UNL     1      38.635  21.456 225.902  1.00  0.00     0.000 C 
BRANCH   5   6
ATOM      6  C   UNL     1      37.504  20.506 225.473  1.00  0.00     0.000 C 
BRANCH   6   7
ATOM      7  C   UNL     1      36.262  20.638 226.368  1.00  0.00     0.000 C 
BRANCH   7   8
ATOM      8  C   UNL     1      35.621  19.266 226.635  1.00  0.00     0.000 C 
BRANCH   8   9
ATOM      9  C   UNL     1      36.647  18.120 226.608  1.00  0.00     0.000 C 
BRANCH   9  10
ATOM     10  C   UNL     1      37.284  17.864 227.985  1.00  0.00     0.000 C 
BRANCH  10  11
ATOM     11  C   UNL     1      38.804  18.098 227.982  1.00  0.00     0.000 C 
BRANCH  11  12
ATOM     12  C   UNL     1      39.545  17.135 227.040  1.00  0.00     0.000 C 
BRANCH  12  13
ATOM     13  C   UNL     1      40.071  17.827 225.768  1.00  0.00     0.006 C 
BRANCH  13  14
ATOM     14  C   UNL     1      41.219  18.822 226.019  1.00  0.00     0.053 C 
BRANCH  14  15
ATOM     15  C   UNL     1      41.664  19.528 224.773  1.00  0.00     0.041 C 
ATOM     16  O   UNL     1      42.835  19.991 224.683  1.00  0.00    -0.550 OA
ATOM     17  O   UNL     1      40.791  19.661 223.702  1.00  0.00    -0.550 OA
ENDBRANCH  14  15
ENDBRANCH  13  14
ENDBRANCH  12  13
ENDBRANCH  11  12
ENDBRANCH  10  11
ENDBRANCH   9  10
ENDBRANCH   8   9
ENDBRANCH   7   8
ENDBRANCH   6   7
ENDBRANCH   5   6
ENDBRANCH   4   5
ENDBRANCH   3   4
ENDBRANCH   2   3
ENDBRANCH   1   2
BRANCH   1  18
ATOM     18  C   UNL     1      42.179  23.559 227.528  1.00  0.00     0.000 C 
BRANCH  18  19
ATOM     19  C   UNL     1      42.655  24.798 226.751  1.00  0.00     0.000 C 
BRANCH  19  20
ATOM     20  C   UNL     1      42.429  24.620 225.245  1.00  0.00     0.000 C 
BRANCH  20  21
ATOM     21  C   UNL     1      41.689  23.307 224.939  1.00  0.00     0.000 C 
BRANCH  21  22
ATOM     22  C   UNL     1      41.211  23.212 223.479  1.00  0.00     0.000 C 
BRANCH  22  23
ATOM     23  C   UNL     1      39.996  24.089 223.129  1.00  0.00     0.000 C 
BRANCH  23  24
ATOM     24  C   UNL     1      38.897  23.317 222.376  1.00  0.00    -0.000 C 
BRANCH  24  25
ATOM     25  C   UNL     1      37.477  23.716 222.813  1.00  0.00    -0.000 C 
BRANCH  25  26
ATOM     26  C   UNL     1      37.383  24.922 223.770  1.00  0.00    -0.000 C 
BRANCH  26  27
ATOM     27  C   UNL     1      36.405  24.733 224.949  1.00  0.00    -0.000 C 
BRANCH  27  28
ATOM     28  C   UNL     1      37.089  24.861 226.321  1.00  0.00    -0.000 C 
BRANCH  28  29
ATOM     29  C   UNL     1      38.599  25.145 226.210  1.00  0.00    -0.000 C 
BRANCH  29  30
ATOM     30  C   UNL     1      39.069  26.448 226.891  1.00  0.00    -0.000 C 
BRANCH  30  31
ATOM     31  C   UNL     1      40.056  27.300 226.066  1.00  0.00    -0.003 C 
ATOM     32  C   UNL     1      40.379  28.644 226.721  1.00  0.00     0.004 C 
ENDBRANCH  30  31
ENDBRANCH  29  30
ENDBRANCH  28  29
ENDBRANCH  27  28
ENDBRANCH  26  27
ENDBRANCH  25  26
ENDBRANCH  24  25
ENDBRANCH  23  24
ENDBRANCH  22  23
ENDBRANCH  21  22
ENDBRANCH  20  21
ENDBRANCH  19  20
ENDBRANCH  18  19
ENDBRANCH   1  18
TORSDOF 28
ENDMDL
MODEL 4
REMARK VINA RESULT:    -4.415      2.390      6.811
REMARK INTER + INTRA:         -17.108
REMARK INTER:                 -10.903
REMARK INTRA:                  -6.205
REMARK UNBOUND:                -5.467
REMARK SMILES CCCCCCCCCCCCCCCCCCCCCCCCCCCCCC(=O)[O-]
REMARK SMILES IDX 16 1 17 2 18 3 19 4 20 5 21 6 22 7 23 8 24 9 25 10 26 11
REMARK SMILES IDX 27 12 28 13 29 14 30 15 31 16 32 17 15 18 14 19 13 20 12 21
REMARK SMILES IDX 11 22 10 23 9 24 8 25 7 26 6 27 5 28 4 29 3 30 2 31 1 32
REMARK H PARENT
REMARK Flexibility Score: inf
ROOT
ATOM      1  C   UNL     1      39.407  26.612 225.929  1.00  0.00     0.000 C 
ENDROOT
BRANCH   1   2
ATOM      2  C   UNL     1      39.949  27.876 226.629  1.00  0.00     0.000 C 
BRANCH   2   3
ATOM      3  C   UNL     1      41.455  28.118 226.429  1.00  0.00     0.000 C 
BRANCH   3   4
ATOM      4  C   UNL     1      42.309  27.450 227.517  1.00  0.00     0.000 C 
BRANCH   4   5
ATOM      5  C   UNL     1      43.037  26.219 226.957  1.00  0.00     0.000 C 
BRANCH   5   6
ATOM      6  C   UNL     1      42.597  24.912 227.637  1.00  0.00     0.000 C 
BRANCH   6   7
ATOM      7  C   UNL     1      42.334  23.788 226.623  1.00  0.00     0.000 C 
BRANCH   7   8
ATOM      8  C   UNL     1      42.105  24.356 225.212  1.00  0.00     0.000 C 
BRANCH   8   9
ATOM      9  C   UNL     1      41.015  23.595 224.438  1.00  0.00     0.000 C 
BRANCH   9  10
ATOM     10  C   UNL     1      40.680  22.234 225.073  1.00  0.00     0.000 C 
BRANCH  10  11
ATOM     11  C   UNL     1      39.200  21.855 224.906  1.00  0.00     0.000 C 
BRANCH  11  12
ATOM     12  C   UNL     1      38.377  22.973 224.244  1.00  0.00     0.000 C 
BRANCH  12  13
ATOM     13  C   UNL     1      36.910  22.573 223.999  1.00  0.00     0.006 C 
BRANCH  13  14
ATOM     14  C   UNL     1      36.047  23.688 223.381  1.00  0.00     0.053 C 
BRANCH  14  15
ATOM     15  C   UNL     1      36.081  24.961 224.173  1.00  0.00     0.041 C 
ATOM     16  O   UNL     1      35.437  25.059 225.254  1.00  0.00    -0.550 OA
ATOM     17  O   UNL     1      36.838  26.036 223.727  1.00  0.00    -0.550 OA
ENDBRANCH  14  15
ENDBRANCH  13  14
ENDBRANCH  12  13
ENDBRANCH  11  12
ENDBRANCH  10  11
ENDBRANCH   9  10
ENDBRANCH   8   9
ENDBRANCH   7   8
ENDBRANCH   6   7
ENDBRANCH   5   6
ENDBRANCH   4   5
ENDBRANCH   3   4
ENDBRANCH   2   3
ENDBRANCH   1   2
BRANCH   1  18
ATOM     18  C   UNL     1      38.588  25.700 226.867  1.00  0.00     0.000 C 
BRANCH  18  19
ATOM     19  C   UNL     1      38.939  25.919 228.348  1.00  0.00     0.000 C 
BRANCH  19  20
ATOM     20  C   UNL     1      39.319  24.595 229.023  1.00  0.00     0.000 C 
BRANCH  20  21
ATOM     21  C   UNL     1      38.929  23.390 228.153  1.00  0.00     0.000 C 
BRANCH  21  22
ATOM     22  C   UNL     1      39.223  22.039 228.830  1.00  0.00     0.000 C 
BRANCH  22  23
ATOM     23  C   UNL     1      40.681  21.836 229.279  1.00  0.00     0.000 C 
BRANCH  23  24
ATOM     24  C   UNL     1      41.272  20.494 228.807  1.00  0.00    -0.000 C 
BRANCH  24  25
ATOM     25  C   UNL     1      40.296  19.681 227.939  1.00  0.00    -0.000 C 
BRANCH  25  26
ATOM     26  C   UNL     1      39.749  18.388 228.576  1.00  0.00    -0.000 C 
BRANCH  26  27
ATOM     27  C   UNL     1      38.988  17.463 227.603  1.00  0.00    -0.000 C 
BRANCH  27  28
ATOM     28  C   UNL     1      39.152  17.878 226.130  1.00  0.00    -0.000 C 
BRANCH  28  29
ATOM     29  C   UNL     1      37.913  18.604 225.575  1.00  0.00    -0.000 C 
BRANCH  29  30
ATOM     30  C   UNL     1      36.566  18.150 226.179  1.00  0.00    -0.000 C 
BRANCH  30  31
ATOM     31  C   UNL     1      35.626  19.292 226.618  1.00  0.00    -0.003 C 
ATOM     32  C   UNL     1      36.373  20.574 226.989  1.00  0.00     0.004 C 
ENDBRANCH  30  31
ENDBRANCH  29  30
ENDBRANCH  28  29
ENDBRANCH  27  28
ENDBRANCH  26  27
ENDBRANCH  25  26
ENDBRANCH  24  25
ENDBRANCH  23  24
ENDBRANCH  22  23
ENDBRANCH  21  22
ENDBRANCH  20  21
ENDBRANCH  19  20
ENDBRANCH  18  19
ENDBRANCH   1  18
TORSDOF 28
ENDMDL
MODEL 5
REMARK VINA RESULT:    -4.326      2.299      5.104
REMARK INTER + INTRA:         -16.874
REMARK INTER:                 -11.440
REMARK INTRA:                  -5.434
REMARK UNBOUND:                -5.467
REMARK SMILES CCCCCCCCCCCCCCCCCCCCCCCCCCCCCC(=O)[O-]
REMARK SMILES IDX 16 1 17 2 18 3 19 4 20 5 21 6 22 7 23 8 24 9 25 10 26 11
REMARK SMILES IDX 27 12 28 13 29 14 30 15 31 16 32 17 15 18 14 19 13 20 12 21
REMARK SMILES IDX 11 22 10 23 9 24 8 25 7 26 6 27 5 28 4 29 3 30 2 31 1 32
REMARK H PARENT
REMARK Flexibility Score: inf
ROOT
ATOM      1  C   UNL     1      41.089  19.583 224.660  1.00  0.00     0.000 C 
ENDROOT
BRANCH   1   2
ATOM      2  C   UNL     1      41.626  19.773 226.093  1.00  0.00     0.000 C 
BRANCH   2   3
ATOM      3  C   UNL     1      40.656  20.491 227.047  1.00  0.00     0.000 C 
BRANCH   3   4
ATOM      4  C   UNL     1      40.527  19.781 228.402  1.00  0.00     0.000 C 
BRANCH   4   5
ATOM      5  C   UNL     1      39.117  19.199 228.579  1.00  0.00     0.000 C 
BRANCH   5   6
ATOM      6  C   UNL     1      38.818  18.063 227.586  1.00  0.00     0.000 C 
BRANCH   6   7
ATOM      7  C   UNL     1      37.489  17.356 227.893  1.00  0.00     0.000 C 
BRANCH   7   8
ATOM      8  C   UNL     1      36.328  17.993 227.110  1.00  0.00     0.000 C 
BRANCH   8   9
ATOM      9  C   UNL     1      36.780  18.597 225.770  1.00  0.00     0.000 C 
BRANCH   9  10
ATOM     10  C   UNL     1      36.211  20.007 225.534  1.00  0.00     0.000 C 
BRANCH  10  11
ATOM     11  C   UNL     1      37.089  21.107 226.150  1.00  0.00     0.000 C 
BRANCH  11  12
ATOM     12  C   UNL     1      38.009  21.775 225.114  1.00  0.00     0.000 C 
BRANCH  12  13
ATOM     13  C   UNL     1      37.246  22.681 224.129  1.00  0.00     0.006 C 
BRANCH  13  14
ATOM     14  C   UNL     1      37.455  24.188 224.367  1.00  0.00     0.053 C 
BRANCH  14  15
ATOM     15  C   UNL     1      36.168  24.932 224.563  1.00  0.00     0.041 C 
ATOM     16  O   UNL     1      36.140  25.992 225.249  1.00  0.00    -0.550 OA
ATOM     17  O   UNL     1      35.000  24.466 223.976  1.00  0.00    -0.550 OA
ENDBRANCH  14  15
ENDBRANCH  13  14
ENDBRANCH  12  13
ENDBRANCH  11  12
ENDBRANCH  10  11
ENDBRANCH   9  10
ENDBRANCH   8   9
ENDBRANCH   7   8
ENDBRANCH   6   7
ENDBRANCH   5   6
ENDBRANCH   4   5
ENDBRANCH   3   4
ENDBRANCH   2   3
ENDBRANCH   1   2
BRANCH   1  18
ATOM     18  C   UNL     1      42.192  19.642 223.582  1.00  0.00     0.000 C 
BRANCH  18  19
ATOM     19  C   UNL     1      42.470  21.080 223.110  1.00  0.00     0.000 C 
BRANCH  19  20
ATOM     20  C   UNL     1      41.194  21.734 222.565  1.00  0.00     0.000 C 
BRANCH  20  21
ATOM     21  C   UNL     1      40.992  23.142 223.148  1.00  0.00     0.000 C 
BRANCH  21  22
ATOM     22  C   UNL     1      41.726  23.350 224.486  1.00  0.00     0.000 C 
BRANCH  22  23
ATOM     23  C   UNL     1      40.874  23.970 225.608  1.00  0.00     0.000 C 
BRANCH  23  24
ATOM     24  C   UNL     1      41.660  24.164 226.918  1.00  0.00    -0.000 C 
BRANCH  24  25
ATOM     25  C   UNL     1      40.814  23.887 228.173  1.00  0.00    -0.000 C 
BRANCH  25  26
ATOM     26  C   UNL     1      39.295  23.753 227.941  1.00  0.00    -0.000 C 
BRANCH  26  27
ATOM     27  C   UNL     1      38.551  25.093 227.757  1.00  0.00    -0.000 C 
BRANCH  27  28
ATOM     28  C   UNL     1      39.134  26.225 228.621  1.00  0.00    -0.000 C 
BRANCH  28  29
ATOM     29  C   UNL     1      39.210  27.567 227.870  1.00  0.00    -0.000 C 
BRANCH  29  30
ATOM     30  C   UNL     1      39.854  27.494 226.469  1.00  0.00    -0.000 C 
BRANCH  30  31
ATOM     31  C   UNL     1      41.236  28.169 226.346  1.00  0.00    -0.003 C 
ATOM     32  C   UNL     1      41.182  29.685 226.537  1.00  0.00     0.004 C 
ENDBRANCH  30  31
ENDBRANCH  29  30
ENDBRANCH  28  29
ENDBRANCH  27  28
ENDBRANCH  26  27
ENDBRANCH  25  26
ENDBRANCH  24  25
ENDBRANCH  23  24
ENDBRANCH  22  23
ENDBRANCH  21  22
ENDBRANCH  20  21
ENDBRANCH  19  20
ENDBRANCH  18  19
ENDBRANCH   1  18
TORSDOF 28
ENDMDL
MODEL 6
REMARK VINA RESULT:    -4.319      1.687      6.099
REMARK INTER + INTRA:         -16.856
REMARK INTER:                 -10.456
REMARK INTRA:                  -6.400
REMARK UNBOUND:                -5.467
REMARK SMILES CCCCCCCCCCCCCCCCCCCCCCCCCCCCCC(=O)[O-]
REMARK SMILES IDX 16 1 17 2 18 3 19 4 20 5 21 6 22 7 23 8 24 9 25 10 26 11
REMARK SMILES IDX 27 12 28 13 29 14 30 15 31 16 32 17 15 18 14 19 13 20 12 21
REMARK SMILES IDX 11 22 10 23 9 24 8 25 7 26 6 27 5 28 4 29 3 30 2 31 1 32
REMARK H PARENT
REMARK Flexibility Score: inf
ROOT
ATOM      1  C   UNL     1      36.996  21.704 226.412  1.00  0.00     0.000 C 
ENDROOT
BRANCH   1   2
ATOM      2  C   UNL     1      37.207  21.915 224.898  1.00  0.00     0.000 C 
BRANCH   2   3
ATOM      3  C   UNL     1      36.471  23.135 224.317  1.00  0.00     0.000 C 
BRANCH   3   4
ATOM      4  C   UNL     1      37.222  23.772 223.139  1.00  0.00     0.000 C 
BRANCH   4   5
ATOM      5  C   UNL     1      38.054  24.973 223.611  1.00  0.00     0.000 C 
BRANCH   5   6
ATOM      6  C   UNL     1      39.550  24.643 223.737  1.00  0.00     0.000 C 
BRANCH   6   7
ATOM      7  C   UNL     1      39.980  23.518 222.784  1.00  0.00     0.000 C 
BRANCH   7   8
ATOM      8  C   UNL     1      41.152  22.711 223.369  1.00  0.00     0.000 C 
BRANCH   8   9
ATOM      9  C   UNL     1      41.426  21.415 222.589  1.00  0.00     0.000 C 
BRANCH   9  10
ATOM     10  C   UNL     1      41.340  20.161 223.476  1.00  0.00     0.000 C 
BRANCH  10  11
ATOM     11  C   UNL     1      40.773  20.465 224.872  1.00  0.00     0.000 C 
BRANCH  11  12
ATOM     12  C   UNL     1      40.399  19.190 225.646  1.00  0.00     0.000 C 
BRANCH  12  13
ATOM     13  C   UNL     1      38.958  18.721 225.369  1.00  0.00     0.006 C 
BRANCH  13  14
ATOM     14  C   UNL     1      38.267  18.058 226.575  1.00  0.00     0.053 C 
BRANCH  14  15
ATOM     15  C   UNL     1      36.771  18.119 226.497  1.00  0.00     0.041 C 
ATOM     16  O   UNL     1      36.077  18.166 227.551  1.00  0.00    -0.550 OA
ATOM     17  O   UNL     1      36.141  18.141 225.260  1.00  0.00    -0.550 OA
ENDBRANCH  14  15
ENDBRANCH  13  14
ENDBRANCH  12  13
ENDBRANCH  11  12
ENDBRANCH  10  11
ENDBRANCH   9  10
ENDBRANCH   8   9
ENDBRANCH   7   8
ENDBRANCH   6   7
ENDBRANCH   5   6
ENDBRANCH   4   5
ENDBRANCH   3   4
ENDBRANCH   2   3
ENDBRANCH   1   2
BRANCH   1  18
ATOM     18  C   UNL     1      38.283  21.899 227.240  1.00  0.00     0.000 C 
BRANCH  18  19
ATOM     19  C   UNL     1      39.039  23.181 226.850  1.00  0.00     0.000 C 
BRANCH  19  20
ATOM     20  C   UNL     1      38.784  24.299 227.869  1.00  0.00     0.000 C 
BRANCH  20  21
ATOM     21  C   UNL     1      38.314  25.590 227.179  1.00  0.00     0.000 C 
BRANCH  21  22
ATOM     22  C   UNL     1      39.238  26.790 227.457  1.00  0.00     0.000 C 
BRANCH  22  23
ATOM     23  C   UNL     1      40.184  27.167 226.303  1.00  0.00     0.000 C 
BRANCH  23  24
ATOM     24  C   UNL     1      41.663  26.886 226.626  1.00  0.00    -0.000 C 
BRANCH  24  25
ATOM     25  C   UNL     1      42.208  25.640 225.906  1.00  0.00    -0.000 C 
BRANCH  25  26
ATOM     26  C   UNL     1      43.019  24.661 226.780  1.00  0.00    -0.000 C 
BRANCH  26  27
ATOM     27  C   UNL     1      42.446  23.231 226.846  1.00  0.00    -0.000 C 
BRANCH  27  28
ATOM     28  C   UNL     1      42.323  22.700 228.285  1.00  0.00    -0.000 C 
BRANCH  28  29
ATOM     29  C   UNL     1      41.988  21.198 228.339  1.00  0.00    -0.000 C 
BRANCH  29  30
ATOM     30  C   UNL     1      41.214  20.748 229.596  1.00  0.00    -0.000 C 
BRANCH  30  31
ATOM     31  C   UNL     1      40.259  19.554 229.387  1.00  0.00    -0.003 C 
ATOM     32  C   UNL     1      40.990  18.218 229.255  1.00  0.00     0.004 C 
ENDBRANCH  30  31
ENDBRANCH  29  30
ENDBRANCH  28  29
ENDBRANCH  27  28
ENDBRANCH  26  27
ENDBRANCH  25  26
ENDBRANCH  24  25
ENDBRANCH  23  24
ENDBRANCH  22  23
ENDBRANCH  21  22
ENDBRANCH  20  21
ENDBRANCH  19  20
ENDBRANCH  18  19
ENDBRANCH   1  18
TORSDOF 28
ENDMDL
MODEL 7
REMARK VINA RESULT:    -4.311      1.926      5.915
REMARK INTER + INTRA:         -16.835
REMARK INTER:                 -11.091
REMARK INTRA:                  -5.745
REMARK UNBOUND:                -5.467
REMARK SMILES CCCCCCCCCCCCCCCCCCCCCCCCCCCCCC(=O)[O-]
REMARK SMILES IDX 16 1 17 2 18 3 19 4 20 5 21 6 22 7 23 8 24 9 25 10 26 11
REMARK SMILES IDX 27 12 28 13 29 14 30 15 31 16 32 17 15 18 14 19 13 20 12 21
REMARK SMILES IDX 11 22 10 23 9 24 8 25 7 26 6 27 5 28 4 29 3 30 2 31 1 32
REMARK H PARENT
REMARK Flexibility Score: inf
ROOT
ATOM      1  C   UNL     1      36.309  24.061 223.608  1.00  0.00     0.000 C 
ENDROOT
BRANCH   1   2
ATOM      2  C   UNL     1      36.675  25.271 224.493  1.00  0.00     0.000 C 
BRANCH   2   3
ATOM      3  C   UNL     1      36.595  25.002 226.005  1.00  0.00     0.000 C 
BRANCH   3   4
ATOM      4  C   UNL     1      37.960  24.654 226.616  1.00  0.00     0.000 C 
BRANCH   4   5
ATOM      5  C   UNL     1      38.525  25.848 227.399  1.00  0.00     0.000 C 
BRANCH   5   6
ATOM      6  C   UNL     1      39.496  26.697 226.561  1.00  0.00     0.000 C 
BRANCH   6   7
ATOM      7  C   UNL     1      40.559  25.841 225.856  1.00  0.00     0.000 C 
BRANCH   7   8
ATOM      8  C   UNL     1      41.885  25.851 226.635  1.00  0.00     0.000 C 
BRANCH   8   9
ATOM      9  C   UNL     1      42.638  24.513 226.537  1.00  0.00     0.000 C 
BRANCH   9  10
ATOM     10  C   UNL     1      41.761  23.311 226.929  1.00  0.00     0.000 C 
BRANCH  10  11
ATOM     11  C   UNL     1      41.419  23.295 228.427  1.00  0.00     0.000 C 
BRANCH  11  12
ATOM     12  C   UNL     1      40.051  22.654 228.712  1.00  0.00     0.000 C 
BRANCH  12  13
ATOM     13  C   UNL     1      40.136  21.469 229.693  1.00  0.00     0.006 C 
BRANCH  13  14
ATOM     14  C   UNL     1      38.769  20.886 230.099  1.00  0.00     0.053 C 
BRANCH  14  15
ATOM     15  C   UNL     1      38.685  19.402 229.902  1.00  0.00     0.041 C 
ATOM     16  O   UNL     1      37.998  18.691 230.686  1.00  0.00    -0.550 OA
ATOM     17  O   UNL     1      39.352  18.804 228.842  1.00  0.00    -0.550 OA
ENDBRANCH  14  15
ENDBRANCH  13  14
ENDBRANCH  12  13
ENDBRANCH  11  12
ENDBRANCH  10  11
ENDBRANCH   9  10
ENDBRANCH   8   9
ENDBRANCH   7   8
ENDBRANCH   6   7
ENDBRANCH   5   6
ENDBRANCH   4   5
ENDBRANCH   3   4
ENDBRANCH   2   3
ENDBRANCH   1   2
BRANCH   1  18
ATOM     18  C   UNL     1      37.424  23.672 222.615  1.00  0.00     0.000 C 
BRANCH  18  19
ATOM     19  C   UNL     1      38.828  23.977 223.164  1.00  0.00     0.000 C 
BRANCH  19  20
ATOM     20  C   UNL     1      39.846  22.941 222.674  1.00  0.00     0.000 C 
BRANCH  20  21
ATOM     21  C   UNL     1      41.217  23.143 223.338  1.00  0.00     0.000 C 
BRANCH  21  22
ATOM     22  C   UNL     1      42.079  21.867 223.339  1.00  0.00     0.000 C 
BRANCH  22  23
ATOM     23  C   UNL     1      41.813  20.897 222.174  1.00  0.00     0.000 C 
BRANCH  23  24
ATOM     24  C   UNL     1      41.279  19.531 222.642  1.00  0.00    -0.000 C 
BRANCH  24  25
ATOM     25  C   UNL     1      41.211  19.405 224.174  1.00  0.00    -0.000 C 
BRANCH  25  26
ATOM     26  C   UNL     1      39.797  19.443 224.789  1.00  0.00    -0.000 C 
BRANCH  26  27
ATOM     27  C   UNL     1      39.596  20.523 225.872  1.00  0.00    -0.000 C 
BRANCH  27  28
ATOM     28  C   UNL     1      38.337  21.377 225.640  1.00  0.00    -0.000 C 
BRANCH  28  29
ATOM     29  C   UNL     1      37.120  20.873 226.437  1.00  0.00    -0.000 C 
BRANCH  29  30
ATOM     30  C   UNL     1      36.235  19.848 225.696  1.00  0.00    -0.000 C 
BRANCH  30  31
ATOM     31  C   UNL     1      35.503  18.837 226.602  1.00  0.00    -0.003 C 
ATOM     32  C   UNL     1      36.428  17.758 227.166  1.00  0.00     0.004 C 
ENDBRANCH  30  31
ENDBRANCH  29  30
ENDBRANCH  28  29
ENDBRANCH  27  28
ENDBRANCH  26  27
ENDBRANCH  25  26
ENDBRANCH  24  25
ENDBRANCH  23  24
ENDBRANCH  22  23
ENDBRANCH  21  22
ENDBRANCH  20  21
ENDBRANCH  19  20
ENDBRANCH  18  19
ENDBRANCH   1  18
TORSDOF 28
ENDMDL
MODEL 8
REMARK VINA RESULT:    -4.245      2.193      5.834
REMARK INTER + INTRA:         -16.660
REMARK INTER:                  -9.990
REMARK INTRA:                  -6.670
REMARK UNBOUND:                -5.467
REMARK SMILES CCCCCCCCCCCCCCCCCCCCCCCCCCCCCC(=O)[O-]
REMARK SMILES IDX 16 1 17 2 18 3 19 4 20 5 21 6 22 7 23 8 24 9 25 10 26 11
REMARK SMILES IDX 27 12 28 13 29 14 30 15 31 16 32 17 15 18 14 19 13 20 12 21
REMARK SMILES IDX 11 22 10 23 9 24 8 25 7 26 6 27 5 28 4 29 3 30 2 31 1 32
REMARK H PARENT
REMARK Flexibility Score: inf
ROOT
ATOM      1  C   UNL     1      36.664  24.890 223.389  1.00  0.00     0.000 C 
ENDROOT
BRANCH   1   2
ATOM      2  C   UNL     1      37.203  23.461 223.168  1.00  0.00     0.000 C 
BRANCH   2   3
ATOM      3  C   UNL     1      38.554  23.396 222.436  1.00  0.00     0.000 C 
BRANCH   3   4
ATOM      4  C   UNL     1      39.665  24.151 223.180  1.00  0.00     0.000 C 
BRANCH   4   5
ATOM      5  C   UNL     1      41.005  23.412 223.049  1.00  0.00     0.000 C 
BRANCH   5   6
ATOM      6  C   UNL     1      40.831  21.889 222.933  1.00  0.00     0.000 C 
BRANCH   6   7
ATOM      7  C   UNL     1      41.322  21.149 224.187  1.00  0.00     0.000 C 
BRANCH   7   8
ATOM      8  C   UNL     1      40.193  20.317 224.817  1.00  0.00     0.000 C 
BRANCH   8   9
ATOM      9  C   UNL     1      39.112  21.189 225.478  1.00  0.00     0.000 C 
BRANCH   9  10
ATOM     10  C   UNL     1      37.754  20.474 225.580  1.00  0.00     0.000 C 
BRANCH  10  11
ATOM     11  C   UNL     1      37.089  20.666 226.952  1.00  0.00     0.000 C 
BRANCH  11  12
ATOM     12  C   UNL     1      38.111  20.931 228.069  1.00  0.00     0.000 C 
BRANCH  12  13
ATOM     13  C   UNL     1      38.513  19.654 228.831  1.00  0.00     0.006 C 
BRANCH  13  14
ATOM     14  C   UNL     1      39.973  19.218 228.606  1.00  0.00     0.053 C 
BRANCH  14  15
ATOM     15  C   UNL     1      40.101  18.077 227.642  1.00  0.00     0.041 C 
ATOM     16  O   UNL     1      39.071  17.545 227.140  1.00  0.00    -0.550 OA
ATOM     17  O   UNL     1      41.357  17.608 227.283  1.00  0.00    -0.550 OA
ENDBRANCH  14  15
ENDBRANCH  13  14
ENDBRANCH  12  13
ENDBRANCH  11  12
ENDBRANCH  10  11
ENDBRANCH   9  10
ENDBRANCH   8   9
ENDBRANCH   7   8
ENDBRANCH   6   7
ENDBRANCH   5   6
ENDBRANCH   4   5
ENDBRANCH   3   4
ENDBRANCH   2   3
ENDBRANCH   1   2
BRANCH   1  18
ATOM     18  C   UNL     1      36.524  25.265 224.879  1.00  0.00     0.000 C 
BRANCH  18  19
ATOM     19  C   UNL     1      36.848  24.085 225.811  1.00  0.00     0.000 C 
BRANCH  19  20
ATOM     20  C   UNL     1      37.845  24.503 226.898  1.00  0.00     0.000 C 
BRANCH  20  21
ATOM     21  C   UNL     1      38.952  25.404 226.328  1.00  0.00     0.000 C 
BRANCH  21  22
ATOM     22  C   UNL     1      39.258  26.620 227.222  1.00  0.00     0.000 C 
BRANCH  22  23
ATOM     23  C   UNL     1      39.898  27.819 226.500  1.00  0.00     0.000 C 
BRANCH  23  24
ATOM     24  C   UNL     1      41.437  27.773 226.510  1.00  0.00    -0.000 C 
BRANCH  24  25
ATOM     25  C   UNL     1      42.005  26.921 227.658  1.00  0.00    -0.000 C 
BRANCH  25  26
ATOM     26  C   UNL     1      43.156  25.967 227.280  1.00  0.00    -0.000 C 
BRANCH  26  27
ATOM     27  C   UNL     1      42.891  25.103 226.029  1.00  0.00    -0.000 C 
BRANCH  27  28
ATOM     28  C   UNL     1      41.985  23.893 226.317  1.00  0.00    -0.000 C 
BRANCH  28  29
ATOM     29  C   UNL     1      42.405  23.122 227.581  1.00  0.00    -0.000 C 
BRANCH  29  30
ATOM     30  C   UNL     1      41.251  22.769 228.543  1.00  0.00    -0.000 C 
BRANCH  30  31
ATOM     31  C   UNL     1      40.763  23.929 229.436  1.00  0.00    -0.003 C 
ATOM     32  C   UNL     1      39.433  23.632 230.130  1.00  0.00     0.004 C 
ENDBRANCH  30  31
ENDBRANCH  29  30
ENDBRANCH  28  29
ENDBRANCH  27  28
ENDBRANCH  26  27
ENDBRANCH  25  26
ENDBRANCH  24  25
ENDBRANCH  23  24
ENDBRANCH  22  23
ENDBRANCH  21  22
ENDBRANCH  20  21
ENDBRANCH  19  20
ENDBRANCH  18  19
ENDBRANCH   1  18
TORSDOF 28
ENDMDL
MODEL 9
REMARK VINA RESULT:    -4.228      2.359      3.873
REMARK INTER + INTRA:         -16.616
REMARK INTER:                 -10.556
REMARK INTRA:                  -6.060
REMARK UNBOUND:                -5.467
REMARK SMILES CCCCCCCCCCCCCCCCCCCCCCCCCCCCCC(=O)[O-]
REMARK SMILES IDX 16 1 17 2 18 3 19 4 20 5 21 6 22 7 23 8 24 9 25 10 26 11
REMARK SMILES IDX 27 12 28 13 29 14 30 15 31 16 32 17 15 18 14 19 13 20 12 21
REMARK SMILES IDX 11 22 10 23 9 24 8 25 7 26 6 27 5 28 4 29 3 30 2 31 1 32
REMARK H PARENT
REMARK Flexibility Score: inf
ROOT
ATOM      1  C   UNL     1      40.635  19.688 224.087  1.00  0.00     0.000 C 
ENDROOT
BRANCH   1   2
ATOM      2  C   UNL     1      39.914  20.002 225.414  1.00  0.00     0.000 C 
BRANCH   2   3
ATOM      3  C   UNL     1      38.727  20.972 225.280  1.00  0.00     0.000 C 
BRANCH   3   4
ATOM      4  C   UNL     1      38.301  21.573 226.627  1.00  0.00     0.000 C 
BRANCH   4   5
ATOM      5  C   UNL     1      36.838  21.225 226.939  1.00  0.00     0.000 C 
BRANCH   5   6
ATOM      6  C   UNL     1      36.311  20.064 226.078  1.00  0.00     0.000 C 
BRANCH   6   7
ATOM      7  C   UNL     1      36.117  18.776 226.893  1.00  0.00     0.000 C 
BRANCH   7   8
ATOM      8  C   UNL     1      37.221  17.751 226.581  1.00  0.00     0.000 C 
BRANCH   8   9
ATOM      9  C   UNL     1      37.930  17.242 227.847  1.00  0.00     0.000 C 
BRANCH   9  10
ATOM     10  C   UNL     1      38.878  18.290 228.456  1.00  0.00     0.000 C 
BRANCH  10  11
ATOM     11  C   UNL     1      38.351  18.861 229.782  1.00  0.00     0.000 C 
BRANCH  11  12
ATOM     12  C   UNL     1      38.906  20.263 230.081  1.00  0.00     0.000 C 
BRANCH  12  13
ATOM     13  C   UNL     1      40.276  20.519 229.424  1.00  0.00     0.006 C 
BRANCH  13  14
ATOM     14  C   UNL     1      40.862  21.915 229.708  1.00  0.00     0.053 C 
BRANCH  14  15
ATOM     15  C   UNL     1      42.208  22.122 229.081  1.00  0.00     0.041 C 
ATOM     16  O   UNL     1      42.751  23.262 229.095  1.00  0.00    -0.550 OA
ATOM     17  O   UNL     1      42.872  21.054 228.494  1.00  0.00    -0.550 OA
ENDBRANCH  14  15
ENDBRANCH  13  14
ENDBRANCH  12  13
ENDBRANCH  11  12
ENDBRANCH  10  11
ENDBRANCH   9  10
ENDBRANCH   8   9
ENDBRANCH   7   8
ENDBRANCH   6   7
ENDBRANCH   5   6
ENDBRANCH   4   5
ENDBRANCH   3   4
ENDBRANCH   2   3
ENDBRANCH   1   2
BRANCH   1  18
ATOM     18  C   UNL     1      42.123  20.097 224.089  1.00  0.00     0.000 C 
BRANCH  18  19
ATOM     19  C   UNL     1      42.396  21.309 223.182  1.00  0.00     0.000 C 
BRANCH  19  20
ATOM     20  C   UNL     1      41.087  21.889 222.632  1.00  0.00     0.000 C 
BRANCH  20  21
ATOM     21  C   UNL     1      40.819  23.296 223.190  1.00  0.00     0.000 C 
BRANCH  21  22
ATOM     22  C   UNL     1      41.802  23.699 224.304  1.00  0.00     0.000 C 
BRANCH  22  23
ATOM     23  C   UNL     1      41.242  23.606 225.735  1.00  0.00     0.000 C 
BRANCH  23  24
ATOM     24  C   UNL     1      41.280  24.953 226.481  1.00  0.00    -0.000 C 
BRANCH  24  25
ATOM     25  C   UNL     1      40.084  25.148 227.429  1.00  0.00    -0.000 C 
BRANCH  25  26
ATOM     26  C   UNL     1      38.736  25.469 226.751  1.00  0.00    -0.000 C 
BRANCH  26  27
ATOM     27  C   UNL     1      38.841  26.379 225.509  1.00  0.00    -0.000 C 
BRANCH  27  28
ATOM     28  C   UNL     1      38.207  25.755 224.254  1.00  0.00    -0.000 C 
BRANCH  28  29
ATOM     29  C   UNL     1      37.509  24.414 224.544  1.00  0.00    -0.000 C 
BRANCH  29  30
ATOM     30  C   UNL     1      36.141  24.228 223.853  1.00  0.00    -0.000 C 
BRANCH  30  31
ATOM     31  C   UNL     1      36.106  23.153 222.747  1.00  0.00    -0.003 C 
ATOM     32  C   UNL     1      36.166  23.742 221.337  1.00  0.00     0.004 C 
ENDBRANCH  30  31
ENDBRANCH  29  30
ENDBRANCH  28  29
ENDBRANCH  27  28
ENDBRANCH  26  27
ENDBRANCH  25  26
ENDBRANCH  24  25
ENDBRANCH  23  24
ENDBRANCH  22  23
ENDBRANCH  21  22
ENDBRANCH  20  21
ENDBRANCH  19  20
ENDBRANCH  18  19
ENDBRANCH   1  18
TORSDOF 28
ENDMDL
