MODEL 1
REMARK VINA RESULT:    -3.773      0.000      0.000
REMARK INTER + INTRA:         -11.899
REMARK INTER:                  -8.184
REMARK INTRA:                  -3.715
REMARK UNBOUND:                -3.715
REMARK SMILES CCCCCCCCCCCCCCCCCCCCCC(=O)[O-]
REMARK SMILES IDX 12 1 11 2 10 3 9 4 8 5 7 6 6 7 5 8 4 9 3 10 2 11 1 12 13 13
REMARK SMILES IDX 14 14 15 15 16 16 17 17 18 18 19 19 20 20 21 21 22 22 23 23
REMARK SMILES IDX 24 24
REMARK H PARENT
REMARK Flexibility Score: inf
ROOT
ATOM      1  C   UNL     1     182.574 194.385 178.203  1.00  0.00     0.000 C 
ENDROOT
BRANCH   1   2
ATOM      2  C   UNL     1     181.070 194.215 177.922  1.00  0.00     0.000 C 
BRANCH   2   3
ATOM      3  C   UNL     1     180.136 194.643 179.073  1.00  0.00     0.000 C 
BRANCH   3   4
ATOM      4  C   UNL     1     180.009 193.633 180.228  1.00  0.00    -0.000 C 
BRANCH   4   5
ATOM      5  C   UNL     1     180.694 194.112 181.519  1.00  0.00    -0.000 C 
BRANCH   5   6
ATOM      6  C   UNL     1     181.155 195.576 181.434  1.00  0.00    -0.000 C 
BRANCH   6   7
ATOM      7  C   UNL     1     182.243 195.919 182.461  1.00  0.00    -0.000 C 
BRANCH   7   8
ATOM      8  C   UNL     1     183.307 194.812 182.524  1.00  0.00    -0.000 C 
BRANCH   8   9
ATOM      9  C   UNL     1     184.395 194.961 181.445  1.00  0.00    -0.000 C 
BRANCH   9  10
ATOM     10  C   UNL     1     184.916 193.636 180.861  1.00  0.00    -0.000 C 
BRANCH  10  11
ATOM     11  C   UNL     1     184.526 192.415 181.707  1.00  0.00    -0.003 C 
ATOM     12  C   UNL     1     185.725 191.880 182.485  1.00  0.00     0.004 C 
ENDBRANCH  10  11
ENDBRANCH   9  10
ENDBRANCH   8   9
ENDBRANCH   7   8
ENDBRANCH   6   7
ENDBRANCH   5   6
ENDBRANCH   4   5
ENDBRANCH   3   4
ENDBRANCH   2   3
ENDBRANCH   1   2
BRANCH   1  13
ATOM     13  C   UNL     1     183.152 195.676 177.603  1.00  0.00     0.000 C 
BRANCH  13  14
ATOM     14  C   UNL     1     183.050 196.837 178.602  1.00  0.00     0.000 C 
BRANCH  14  15
ATOM     15  C   UNL     1     182.302 198.054 178.028  1.00  0.00     0.000 C 
BRANCH  15  16
ATOM     16  C   UNL     1     180.806 198.125 178.389  1.00  0.00     0.000 C 
BRANCH  16  17
ATOM     17  C   UNL     1     179.834 197.879 177.217  1.00  0.00     0.000 C 
BRANCH  17  18
ATOM     18  C   UNL     1     180.503 197.611 175.856  1.00  0.00     0.000 C 
BRANCH  18  19
ATOM     19  C   UNL     1     179.909 196.394 175.128  1.00  0.00     0.000 C 
BRANCH  19  20
ATOM     20  C   UNL     1     180.332 196.320 173.650  1.00  0.00     0.006 C 
BRANCH  20  21
ATOM     21  C   UNL     1     181.069 195.028 173.263  1.00  0.00     0.053 C 
BRANCH  21  22
ATOM     22  C   UNL     1     182.321 194.833 174.061  1.00  0.00     0.041 C 
ATOM     23  O   UNL     1     182.564 193.718 174.594  1.00  0.00    -0.550 OA
ATOM     24  O   UNL     1     183.232 195.873 174.192  1.00  0.00    -0.550 OA
ENDBRANCH  21  22
ENDBRANCH  20  21
ENDBRANCH  19  20
ENDBRANCH  18  19
ENDBRANCH  17  18
ENDBRANCH  16  17
ENDBRANCH  15  16
ENDBRANCH  14  15
ENDBRANCH  13  14
ENDBRANCH   1  13
TORSDOF 20
ENDMDL
MODEL 2
REMARK VINA RESULT:    -3.609      9.129     12.541
REMARK INTER + INTRA:         -11.543
REMARK INTER:                  -8.793
REMARK INTRA:                  -2.750
REMARK UNBOUND:                -3.715
REMARK SMILES CCCCCCCCCCCCCCCCCCCCCC(=O)[O-]
REMARK SMILES IDX 12 1 11 2 10 3 9 4 8 5 7 6 6 7 5 8 4 9 3 10 2 11 1 12 13 13
REMARK SMILES IDX 14 14 15 15 16 16 17 17 18 18 19 19 20 20 21 21 22 22 23 23
REMARK SMILES IDX 24 24
REMARK H PARENT
REMARK Flexibility Score: inf
ROOT
ATOM      1  C   UNL     1     184.401 186.970 170.408  1.00  0.00     0.000 C 
ENDROOT
BRANCH   1   2
ATOM      2  C   UNL     1     184.883 187.755 169.174  1.00  0.00     0.000 C 
BRANCH   2   3
ATOM      3  C   UNL     1     185.705 186.938 168.157  1.00  0.00     0.000 C 
BRANCH   3   4
ATOM      4  C   UNL     1     185.936 185.462 168.532  1.00  0.00    -0.000 C 
BRANCH   4   5
ATOM      5  C   UNL     1     187.404 185.029 168.375  1.00  0.00    -0.000 C 
BRANCH   5   6
ATOM      6  C   UNL     1     188.241 186.053 167.592  1.00  0.00    -0.000 C 
BRANCH   6   7
ATOM      7  C   UNL     1     189.394 186.639 168.421  1.00  0.00    -0.000 C 
BRANCH   7   8
ATOM      8  C   UNL     1     189.043 188.045 168.931  1.00  0.00    -0.000 C 
BRANCH   8   9
ATOM      9  C   UNL     1     189.015 188.139 170.467  1.00  0.00    -0.000 C 
BRANCH   9  10
ATOM     10  C   UNL     1     187.991 187.219 171.155  1.00  0.00    -0.000 C 
BRANCH  10  11
ATOM     11  C   UNL     1     188.647 186.163 172.056  1.00  0.00    -0.003 C 
ATOM     12  C   UNL     1     190.131 186.459 172.259  1.00  0.00     0.004 C 
ENDBRANCH  10  11
ENDBRANCH   9  10
ENDBRANCH   8   9
ENDBRANCH   7   8
ENDBRANCH   6   7
ENDBRANCH   5   6
ENDBRANCH   4   5
ENDBRANCH   3   4
ENDBRANCH   2   3
ENDBRANCH   1   2
BRANCH   1  13
ATOM     13  C   UNL     1     182.955 187.304 170.802  1.00  0.00     0.000 C 
BRANCH  13  14
ATOM     14  C   UNL     1     182.400 188.442 169.934  1.00  0.00     0.000 C 
BRANCH  14  15
ATOM     15  C   UNL     1     181.276 187.979 168.990  1.00  0.00     0.000 C 
BRANCH  15  16
ATOM     16  C   UNL     1     181.650 187.967 167.494  1.00  0.00     0.000 C 
BRANCH  16  17
ATOM     17  C   UNL     1     180.857 188.952 166.611  1.00  0.00     0.000 C 
BRANCH  17  18
ATOM     18  C   UNL     1     180.988 190.436 167.003  1.00  0.00     0.000 C 
BRANCH  18  19
ATOM     19  C   UNL     1     179.652 191.055 167.449  1.00  0.00     0.000 C 
BRANCH  19  20
ATOM     20  C   UNL     1     179.816 192.041 168.620  1.00  0.00     0.006 C 
BRANCH  20  21
ATOM     21  C   UNL     1     179.993 191.374 169.993  1.00  0.00     0.053 C 
BRANCH  21  22
ATOM     22  C   UNL     1     180.931 192.141 170.874  1.00  0.00     0.041 C 
ATOM     23  O   UNL     1     182.174 191.967 170.776  1.00  0.00    -0.550 OA
ATOM     24  O   UNL     1     180.433 193.068 171.781  1.00  0.00    -0.550 OA
ENDBRANCH  21  22
ENDBRANCH  20  21
ENDBRANCH  19  20
ENDBRANCH  18  19
ENDBRANCH  17  18
ENDBRANCH  16  17
ENDBRANCH  15  16
ENDBRANCH  14  15
ENDBRANCH  13  14
ENDBRANCH   1  13
TORSDOF 20
ENDMDL
MODEL 3
REMARK VINA RESULT:    -3.580     13.000     15.971
REMARK INTER + INTRA:         -11.480
REMARK INTER:                  -7.441
REMARK INTRA:                  -4.038
REMARK UNBOUND:                -3.715
REMARK SMILES CCCCCCCCCCCCCCCCCCCCCC(=O)[O-]
REMARK SMILES IDX 12 1 11 2 10 3 9 4 8 5 7 6 6 7 5 8 4 9 3 10 2 11 1 12 13 13
REMARK SMILES IDX 14 14 15 15 16 16 17 17 18 18 19 19 20 20 21 21 22 22 23 23
REMARK SMILES IDX 24 24
REMARK H PARENT
REMARK Flexibility Score: inf
ROOT
ATOM      1  C   UNL     1     185.933 187.451 170.530  1.00  0.00     0.000 C 
ENDROOT
BRANCH   1   2
ATOM      2  C   UNL     1     185.151 187.537 169.206  1.00  0.00     0.000 C 
BRANCH   2   3
ATOM      3  C   UNL     1     185.687 186.642 168.069  1.00  0.00     0.000 C 
BRANCH   3   4
ATOM      4  C   UNL     1     186.123 185.228 168.495  1.00  0.00    -0.000 C 
BRANCH   4   5
ATOM      5  C   UNL     1     187.628 184.980 168.294  1.00  0.00    -0.000 C 
BRANCH   5   6
ATOM      6  C   UNL     1     188.135 185.499 166.939  1.00  0.00    -0.000 C 
BRANCH   6   7
ATOM      7  C   UNL     1     189.462 186.262 167.051  1.00  0.00    -0.000 C 
BRANCH   7   8
ATOM      8  C   UNL     1     189.217 187.742 167.387  1.00  0.00    -0.000 C 
BRANCH   8   9
ATOM      9  C   UNL     1     190.409 188.402 168.104  1.00  0.00    -0.000 C 
BRANCH   9  10
ATOM     10  C   UNL     1     191.469 187.423 168.638  1.00  0.00    -0.000 C 
BRANCH  10  11
ATOM     11  C   UNL     1     192.224 187.967 169.860  1.00  0.00    -0.003 C 
ATOM     12  C   UNL     1     191.548 189.220 170.409  1.00  0.00     0.004 C 
ENDBRANCH  10  11
ENDBRANCH   9  10
ENDBRANCH   8   9
ENDBRANCH   7   8
ENDBRANCH   6   7
ENDBRANCH   5   6
ENDBRANCH   4   5
ENDBRANCH   3   4
ENDBRANCH   2   3
ENDBRANCH   1   2
BRANCH   1  13
ATOM     13  C   UNL     1     187.279 188.189 170.478  1.00  0.00     0.000 C 
BRANCH  13  14
ATOM     14  C   UNL     1     188.406 187.310 171.039  1.00  0.00     0.000 C 
BRANCH  14  15
ATOM     15  C   UNL     1     187.889 186.197 171.968  1.00  0.00     0.000 C 
BRANCH  15  16
ATOM     16  C   UNL     1     188.979 185.477 172.785  1.00  0.00     0.000 C 
BRANCH  16  17
ATOM     17  C   UNL     1     190.430 185.798 172.373  1.00  0.00     0.000 C 
BRANCH  17  18
ATOM     18  C   UNL     1     191.200 184.633 171.725  1.00  0.00     0.000 C 
BRANCH  18  19
ATOM     19  C   UNL     1     190.694 184.296 170.311  1.00  0.00     0.000 C 
BRANCH  19  20
ATOM     20  C   UNL     1     191.634 183.338 169.556  1.00  0.00     0.006 C 
BRANCH  20  21
ATOM     21  C   UNL     1     191.901 183.731 168.094  1.00  0.00     0.053 C 
BRANCH  21  22
ATOM     22  C   UNL     1     192.328 182.559 167.266  1.00  0.00     0.041 C 
ATOM     23  O   UNL     1     191.762 182.322 166.167  1.00  0.00    -0.550 OA
ATOM     24  O   UNL     1     193.371 181.747 167.694  1.00  0.00    -0.550 OA
ENDBRANCH  21  22
ENDBRANCH  20  21
ENDBRANCH  19  20
ENDBRANCH  18  19
ENDBRANCH  17  18
ENDBRANCH  16  17
ENDBRANCH  15  16
ENDBRANCH  14  15
ENDBRANCH  13  14
ENDBRANCH   1  13
TORSDOF 20
ENDMDL
MODEL 4
REMARK VINA RESULT:    -3.556     12.601     15.714
REMARK INTER + INTRA:         -11.430
REMARK INTER:                  -7.357
REMARK INTRA:                  -4.073
REMARK UNBOUND:                -3.715
REMARK SMILES CCCCCCCCCCCCCCCCCCCCCC(=O)[O-]
REMARK SMILES IDX 12 1 11 2 10 3 9 4 8 5 7 6 6 7 5 8 4 9 3 10 2 11 1 12 13 13
REMARK SMILES IDX 14 14 15 15 16 16 17 17 18 18 19 19 20 20 21 21 22 22 23 23
REMARK SMILES IDX 24 24
REMARK H PARENT
REMARK Flexibility Score: inf
ROOT
ATOM      1  C   UNL     1     190.153 186.289 170.197  1.00  0.00     0.000 C 
ENDROOT
BRANCH   1   2
ATOM      2  C   UNL     1     189.847 187.758 170.538  1.00  0.00     0.000 C 
BRANCH   2   3
ATOM      3  C   UNL     1     189.636 188.684 169.322  1.00  0.00     0.000 C 
BRANCH   3   4
ATOM      4  C   UNL     1     188.167 188.990 168.976  1.00  0.00    -0.000 C 
BRANCH   4   5
ATOM      5  C   UNL     1     187.236 188.912 170.198  1.00  0.00    -0.000 C 
BRANCH   5   6
ATOM      6  C   UNL     1     186.061 187.946 169.983  1.00  0.00    -0.000 C 
BRANCH   6   7
ATOM      7  C   UNL     1     186.133 187.210 168.637  1.00  0.00    -0.000 C 
BRANCH   7   8
ATOM      8  C   UNL     1     186.199 185.689 168.846  1.00  0.00    -0.000 C 
BRANCH   8   9
ATOM      9  C   UNL     1     187.117 184.981 167.834  1.00  0.00    -0.000 C 
BRANCH   9  10
ATOM     10  C   UNL     1     187.660 185.880 166.709  1.00  0.00    -0.000 C 
BRANCH  10  11
ATOM     11  C   UNL     1     189.191 185.996 166.724  1.00  0.00    -0.003 C 
ATOM     12  C   UNL     1     189.762 185.905 165.311  1.00  0.00     0.004 C 
ENDBRANCH  10  11
ENDBRANCH   9  10
ENDBRANCH   8   9
ENDBRANCH   7   8
ENDBRANCH   6   7
ENDBRANCH   5   6
ENDBRANCH   4   5
ENDBRANCH   3   4
ENDBRANCH   2   3
ENDBRANCH   1   2
BRANCH   1  13
ATOM     13  C   UNL     1     189.235 185.301 170.932  1.00  0.00     0.000 C 
BRANCH  13  14
ATOM     14  C   UNL     1     188.412 186.018 172.012  1.00  0.00     0.000 C 
BRANCH  14  15
ATOM     15  C   UNL     1     188.518 185.340 173.390  1.00  0.00     0.000 C 
BRANCH  15  16
ATOM     16  C   UNL     1     189.701 184.364 173.543  1.00  0.00     0.000 C 
BRANCH  16  17
ATOM     17  C   UNL     1     190.918 184.922 174.309  1.00  0.00     0.000 C 
BRANCH  17  18
ATOM     18  C   UNL     1     191.143 186.439 174.168  1.00  0.00     0.000 C 
BRANCH  18  19
ATOM     19  C   UNL     1     192.263 186.786 173.172  1.00  0.00     0.000 C 
BRANCH  19  20
ATOM     20  C   UNL     1     193.358 185.705 173.109  1.00  0.00     0.006 C 
BRANCH  20  21
ATOM     21  C   UNL     1     193.592 185.117 171.708  1.00  0.00     0.053 C 
BRANCH  21  22
ATOM     22  C   UNL     1     193.139 183.694 171.612  1.00  0.00     0.041 C 
ATOM     23  O   UNL     1     193.720 182.799 172.280  1.00  0.00    -0.550 OA
ATOM     24  O   UNL     1     192.057 183.360 170.806  1.00  0.00    -0.550 OA
ENDBRANCH  21  22
ENDBRANCH  20  21
ENDBRANCH  19  20
ENDBRANCH  18  19
ENDBRANCH  17  18
ENDBRANCH  16  17
ENDBRANCH  15  16
ENDBRANCH  14  15
ENDBRANCH  13  14
ENDBRANCH   1  13
TORSDOF 20
ENDMDL
MODEL 5
REMARK VINA RESULT:    -3.536     12.423     14.654
REMARK INTER + INTRA:         -11.385
REMARK INTER:                  -7.242
REMARK INTRA:                  -4.143
REMARK UNBOUND:                -3.715
REMARK SMILES CCCCCCCCCCCCCCCCCCCCCC(=O)[O-]
REMARK SMILES IDX 12 1 11 2 10 3 9 4 8 5 7 6 6 7 5 8 4 9 3 10 2 11 1 12 13 13
REMARK SMILES IDX 14 14 15 15 16 16 17 17 18 18 19 19 20 20 21 21 22 22 23 23
REMARK SMILES IDX 24 24
REMARK H PARENT
REMARK Flexibility Score: inf
ROOT
ATOM      1  C   UNL     1     187.746 188.278 170.434  1.00  0.00     0.000 C 
ENDROOT
BRANCH   1   2
ATOM      2  C   UNL     1     188.815 187.378 171.078  1.00  0.00     0.000 C 
BRANCH   2   3
ATOM      3  C   UNL     1     188.271 186.135 171.812  1.00  0.00     0.000 C 
BRANCH   3   4
ATOM      4  C   UNL     1     189.333 185.263 172.507  1.00  0.00    -0.000 C 
BRANCH   4   5
ATOM      5  C   UNL     1     189.594 185.686 173.963  1.00  0.00    -0.000 C 
BRANCH   5   6
ATOM      6  C   UNL     1     190.975 186.335 174.150  1.00  0.00    -0.000 C 
BRANCH   6   7
ATOM      7  C   UNL     1     192.001 185.864 173.108  1.00  0.00    -0.000 C 
BRANCH   7   8
ATOM      8  C   UNL     1     192.421 187.023 172.191  1.00  0.00    -0.000 C 
BRANCH   8   9
ATOM      9  C   UNL     1     193.010 186.547 170.851  1.00  0.00    -0.000 C 
BRANCH   9  10
ATOM     10  C   UNL     1     192.011 185.841 169.917  1.00  0.00    -0.000 C 
BRANCH  10  11
ATOM     11  C   UNL     1     192.372 184.371 169.657  1.00  0.00    -0.003 C 
ATOM     12  C   UNL     1     191.172 183.459 169.901  1.00  0.00     0.004 C 
ENDBRANCH  10  11
ENDBRANCH   9  10
ENDBRANCH   8   9
ENDBRANCH   7   8
ENDBRANCH   6   7
ENDBRANCH   5   6
ENDBRANCH   4   5
ENDBRANCH   3   4
ENDBRANCH   2   3
ENDBRANCH   1   2
BRANCH   1  13
ATOM     13  C   UNL     1     186.355 187.628 170.406  1.00  0.00     0.000 C 
BRANCH  13  14
ATOM     14  C   UNL     1     185.660 187.878 169.059  1.00  0.00     0.000 C 
BRANCH  14  15
ATOM     15  C   UNL     1     185.865 186.725 168.060  1.00  0.00     0.000 C 
BRANCH  15  16
ATOM     16  C   UNL     1     186.164 185.356 168.703  1.00  0.00     0.000 C 
BRANCH  16  17
ATOM     17  C   UNL     1     187.556 184.772 168.387  1.00  0.00     0.000 C 
BRANCH  17  18
ATOM     18  C   UNL     1     188.273 185.402 167.178  1.00  0.00     0.000 C 
BRANCH  18  19
ATOM     19  C   UNL     1     189.351 186.420 167.588  1.00  0.00     0.000 C 
BRANCH  19  20
ATOM     20  C   UNL     1     189.325 187.694 166.724  1.00  0.00     0.006 C 
BRANCH  20  21
ATOM     21  C   UNL     1     189.700 188.981 167.477  1.00  0.00     0.053 C 
BRANCH  21  22
ATOM     22  C   UNL     1     191.079 188.912 168.056  1.00  0.00     0.041 C 
ATOM     23  O   UNL     1     191.274 189.214 169.263  1.00  0.00    -0.550 OA
ATOM     24  O   UNL     1     192.144 188.487 167.271  1.00  0.00    -0.550 OA
ENDBRANCH  21  22
ENDBRANCH  20  21
ENDBRANCH  19  20
ENDBRANCH  18  19
ENDBRANCH  17  18
ENDBRANCH  16  17
ENDBRANCH  15  16
ENDBRANCH  14  15
ENDBRANCH  13  14
ENDBRANCH   1  13
TORSDOF 20
ENDMDL
MODEL 6
REMARK VINA RESULT:    -3.434     12.352     15.360
REMARK INTER + INTRA:         -11.165
REMARK INTER:                  -7.192
REMARK INTRA:                  -3.973
REMARK UNBOUND:                -3.715
REMARK SMILES CCCCCCCCCCCCCCCCCCCCCC(=O)[O-]
REMARK SMILES IDX 12 1 11 2 10 3 9 4 8 5 7 6 6 7 5 8 4 9 3 10 2 11 1 12 13 13
REMARK SMILES IDX 14 14 15 15 16 16 17 17 18 18 19 19 20 20 21 21 22 22 23 23
REMARK SMILES IDX 24 24
REMARK H PARENT
REMARK Flexibility Score: inf
ROOT
ATOM      1  C   UNL     1     186.023 185.679 168.159  1.00  0.00     0.000 C 
ENDROOT
BRANCH   1   2
ATOM      2  C   UNL     1     185.227 186.975 168.399  1.00  0.00     0.000 C 
BRANCH   2   3
ATOM      3  C   UNL     1     185.309 187.538 169.833  1.00  0.00     0.000 C 
BRANCH   3   4
ATOM      4  C   UNL     1     186.453 186.974 170.697  1.00  0.00    -0.000 C 
BRANCH   4   5
ATOM      5  C   UNL     1     187.567 188.002 170.959  1.00  0.00    -0.000 C 
BRANCH   5   6
ATOM      6  C   UNL     1     187.609 189.109 169.894  1.00  0.00    -0.000 C 
BRANCH   6   7
ATOM      7  C   UNL     1     188.641 188.835 168.790  1.00  0.00    -0.000 C 
BRANCH   7   8
ATOM      8  C   UNL     1     190.035 188.596 169.389  1.00  0.00    -0.000 C 
BRANCH   8   9
ATOM      9  C   UNL     1     191.158 188.644 168.338  1.00  0.00    -0.000 C 
BRANCH   9  10
ATOM     10  C   UNL     1     190.702 188.403 166.888  1.00  0.00    -0.000 C 
BRANCH  10  11
ATOM     11  C   UNL     1     190.832 189.653 166.005  1.00  0.00    -0.003 C 
ATOM     12  C   UNL     1     191.918 190.587 166.532  1.00  0.00     0.004 C 
ENDBRANCH  10  11
ENDBRANCH   9  10
ENDBRANCH   8   9
ENDBRANCH   7   8
ENDBRANCH   6   7
ENDBRANCH   5   6
ENDBRANCH   4   5
ENDBRANCH   3   4
ENDBRANCH   2   3
ENDBRANCH   1   2
BRANCH   1  13
ATOM     13  C   UNL     1     187.083 185.825 167.056  1.00  0.00     0.000 C 
BRANCH  13  14
ATOM     14  C   UNL     1     188.475 185.445 167.581  1.00  0.00     0.000 C 
BRANCH  14  15
ATOM     15  C   UNL     1     188.422 184.710 168.933  1.00  0.00     0.000 C 
BRANCH  15  16
ATOM     16  C   UNL     1     189.738 184.735 169.736  1.00  0.00     0.000 C 
BRANCH  16  17
ATOM     17  C   UNL     1     191.003 185.054 168.914  1.00  0.00     0.000 C 
BRANCH  17  18
ATOM     18  C   UNL     1     192.272 185.328 169.743  1.00  0.00     0.000 C 
BRANCH  18  19
ATOM     19  C   UNL     1     192.072 185.058 171.245  1.00  0.00     0.000 C 
BRANCH  19  20
ATOM     20  C   UNL     1     192.143 186.341 172.094  1.00  0.00     0.006 C 
BRANCH  20  21
ATOM     21  C   UNL     1     190.775 186.892 172.528  1.00  0.00     0.053 C 
BRANCH  21  22
ATOM     22  C   UNL     1     190.087 185.987 173.501  1.00  0.00     0.041 C 
ATOM     23  O   UNL     1     190.562 185.821 174.655  1.00  0.00    -0.550 OA
ATOM     24  O   UNL     1     188.904 185.350 173.144  1.00  0.00    -0.550 OA
ENDBRANCH  21  22
ENDBRANCH  20  21
ENDBRANCH  19  20
ENDBRANCH  18  19
ENDBRANCH  17  18
ENDBRANCH  16  17
ENDBRANCH  15  16
ENDBRANCH  14  15
ENDBRANCH  13  14
ENDBRANCH   1  13
TORSDOF 20
ENDMDL
MODEL 7
REMARK VINA RESULT:    -3.434     11.608     15.041
REMARK INTER + INTRA:         -11.165
REMARK INTER:                  -7.985
REMARK INTRA:                  -3.180
REMARK UNBOUND:                -3.715
REMARK SMILES CCCCCCCCCCCCCCCCCCCCCC(=O)[O-]
REMARK SMILES IDX 12 1 11 2 10 3 9 4 8 5 7 6 6 7 5 8 4 9 3 10 2 11 1 12 13 13
REMARK SMILES IDX 14 14 15 15 16 16 17 17 18 18 19 19 20 20 21 21 22 22 23 23
REMARK SMILES IDX 24 24
REMARK H PARENT
REMARK Flexibility Score: inf
ROOT
ATOM      1  C   UNL     1     190.256 186.428 170.324  1.00  0.00     0.000 C 
ENDROOT
BRANCH   1   2
ATOM      2  C   UNL     1     189.791 187.875 170.566  1.00  0.00     0.000 C 
BRANCH   2   3
ATOM      3  C   UNL     1     189.584 188.720 169.292  1.00  0.00     0.000 C 
BRANCH   3   4
ATOM      4  C   UNL     1     188.116 188.992 168.914  1.00  0.00    -0.000 C 
BRANCH   4   5
ATOM      5  C   UNL     1     187.167 188.931 170.123  1.00  0.00    -0.000 C 
BRANCH   5   6
ATOM      6  C   UNL     1     186.007 187.946 169.913  1.00  0.00    -0.000 C 
BRANCH   6   7
ATOM      7  C   UNL     1     186.082 187.215 168.564  1.00  0.00    -0.000 C 
BRANCH   7   8
ATOM      8  C   UNL     1     186.471 185.741 168.760  1.00  0.00    -0.000 C 
BRANCH   8   9
ATOM      9  C   UNL     1     186.744 185.009 167.434  1.00  0.00    -0.000 C 
BRANCH   9  10
ATOM     10  C   UNL     1     187.878 185.607 166.582  1.00  0.00    -0.000 C 
BRANCH  10  11
ATOM     11  C   UNL     1     189.275 185.222 167.091  1.00  0.00    -0.003 C 
ATOM     12  C   UNL     1     190.321 186.239 166.645  1.00  0.00     0.004 C 
ENDBRANCH  10  11
ENDBRANCH   9  10
ENDBRANCH   8   9
ENDBRANCH   7   8
ENDBRANCH   6   7
ENDBRANCH   5   6
ENDBRANCH   4   5
ENDBRANCH   3   4
ENDBRANCH   2   3
ENDBRANCH   1   2
BRANCH   1  13
ATOM     13  C   UNL     1     189.301 185.384 170.922  1.00  0.00     0.000 C 
BRANCH  13  14
ATOM     14  C   UNL     1     188.379 186.023 171.971  1.00  0.00     0.000 C 
BRANCH  14  15
ATOM     15  C   UNL     1     188.502 185.360 173.355  1.00  0.00     0.000 C 
BRANCH  15  16
ATOM     16  C   UNL     1     189.694 184.395 173.508  1.00  0.00     0.000 C 
BRANCH  16  17
ATOM     17  C   UNL     1     190.916 184.972 174.250  1.00  0.00     0.000 C 
BRANCH  17  18
ATOM     18  C   UNL     1     190.891 186.497 174.469  1.00  0.00     0.000 C 
BRANCH  18  19
ATOM     19  C   UNL     1     192.292 187.090 174.695  1.00  0.00     0.000 C 
BRANCH  19  20
ATOM     20  C   UNL     1     192.308 188.175 175.788  1.00  0.00     0.006 C 
BRANCH  20  21
ATOM     21  C   UNL     1     191.238 187.996 176.876  1.00  0.00     0.053 C 
BRANCH  21  22
ATOM     22  C   UNL     1     191.804 188.151 178.253  1.00  0.00     0.041 C 
ATOM     23  O   UNL     1     191.213 187.642 179.242  1.00  0.00    -0.550 OA
ATOM     24  O   UNL     1     193.001 188.832 178.442  1.00  0.00    -0.550 OA
ENDBRANCH  21  22
ENDBRANCH  20  21
ENDBRANCH  19  20
ENDBRANCH  18  19
ENDBRANCH  17  18
ENDBRANCH  16  17
ENDBRANCH  15  16
ENDBRANCH  14  15
ENDBRANCH  13  14
ENDBRANCH   1  13
TORSDOF 20
ENDMDL
MODEL 8
REMARK VINA RESULT:    -3.426     12.799     15.833
REMARK INTER + INTRA:         -11.147
REMARK INTER:                  -7.179
REMARK INTRA:                  -3.969
REMARK UNBOUND:                -3.715
REMARK SMILES CCCCCCCCCCCCCCCCCCCCCC(=O)[O-]
REMARK SMILES IDX 12 1 11 2 10 3 9 4 8 5 7 6 6 7 5 8 4 9 3 10 2 11 1 12 13 13
REMARK SMILES IDX 14 14 15 15 16 16 17 17 18 18 19 19 20 20 21 21 22 22 23 23
REMARK SMILES IDX 24 24
REMARK H PARENT
REMARK Flexibility Score: inf
ROOT
ATOM      1  C   UNL     1     189.797 185.011 167.920  1.00  0.00     0.000 C 
ENDROOT
BRANCH   1   2
ATOM      2  C   UNL     1     188.709 185.273 166.864  1.00  0.00     0.000 C 
BRANCH   2   3
ATOM      3  C   UNL     1     187.258 185.187 167.381  1.00  0.00     0.000 C 
BRANCH   3   4
ATOM      4  C   UNL     1     186.359 186.382 167.016  1.00  0.00    -0.000 C 
BRANCH   4   5
ATOM      5  C   UNL     1     185.595 186.947 168.226  1.00  0.00    -0.000 C 
BRANCH   5   6
ATOM      6  C   UNL     1     185.874 186.162 169.518  1.00  0.00    -0.000 C 
BRANCH   6   7
ATOM      7  C   UNL     1     186.501 187.029 170.619  1.00  0.00    -0.000 C 
BRANCH   7   8
ATOM      8  C   UNL     1     186.868 188.420 170.080  1.00  0.00    -0.000 C 
BRANCH   8   9
ATOM      9  C   UNL     1     188.388 188.640 169.969  1.00  0.00    -0.000 C 
BRANCH   9  10
ATOM     10  C   UNL     1     188.936 188.675 168.531  1.00  0.00    -0.000 C 
BRANCH  10  11
ATOM     11  C   UNL     1     190.464 188.828 168.478  1.00  0.00    -0.003 C 
ATOM     12  C   UNL     1     191.022 188.307 167.157  1.00  0.00     0.004 C 
ENDBRANCH  10  11
ENDBRANCH   9  10
ENDBRANCH   8   9
ENDBRANCH   7   8
ENDBRANCH   6   7
ENDBRANCH   5   6
ENDBRANCH   4   5
ENDBRANCH   3   4
ENDBRANCH   2   3
ENDBRANCH   1   2
BRANCH   1  13
ATOM     13  C   UNL     1     189.230 184.868 169.340  1.00  0.00     0.000 C 
BRANCH  13  14
ATOM     14  C   UNL     1     190.361 184.756 170.373  1.00  0.00     0.000 C 
BRANCH  14  15
ATOM     15  C   UNL     1     190.716 186.108 171.017  1.00  0.00     0.000 C 
BRANCH  15  16
ATOM     16  C   UNL     1     190.065 186.362 172.391  1.00  0.00     0.000 C 
BRANCH  16  17
ATOM     17  C   UNL     1     189.267 185.176 172.970  1.00  0.00     0.000 C 
BRANCH  17  18
ATOM     18  C   UNL     1     190.075 184.217 173.864  1.00  0.00     0.000 C 
BRANCH  18  19
ATOM     19  C   UNL     1     191.318 184.881 174.481  1.00  0.00     0.000 C 
BRANCH  19  20
ATOM     20  C   UNL     1     192.600 184.054 174.271  1.00  0.00     0.006 C 
BRANCH  20  21
ATOM     21  C   UNL     1     192.668 183.318 172.923  1.00  0.00     0.053 C 
BRANCH  21  22
ATOM     22  C   UNL     1     193.685 183.920 172.005  1.00  0.00     0.041 C 
ATOM     23  O   UNL     1     194.268 183.204 171.149  1.00  0.00    -0.550 OA
ATOM     24  O   UNL     1     193.968 185.279 172.074  1.00  0.00    -0.550 OA
ENDBRANCH  21  22
ENDBRANCH  20  21
ENDBRANCH  19  20
ENDBRANCH  18  19
ENDBRANCH  17  18
ENDBRANCH  16  17
ENDBRANCH  15  16
ENDBRANCH  14  15
ENDBRANCH  13  14
ENDBRANCH   1  13
TORSDOF 20
ENDMDL
MODEL 9
REMARK VINA RESULT:    -3.401     12.510     15.331
REMARK INTER + INTRA:         -11.092
REMARK INTER:                  -7.462
REMARK INTRA:                  -3.630
REMARK UNBOUND:                -3.715
REMARK SMILES CCCCCCCCCCCCCCCCCCCCCC(=O)[O-]
REMARK SMILES IDX 12 1 11 2 10 3 9 4 8 5 7 6 6 7 5 8 4 9 3 10 2 11 1 12 13 13
REMARK SMILES IDX 14 14 15 15 16 16 17 17 18 18 19 19 20 20 21 21 22 22 23 23
REMARK SMILES IDX 24 24
REMARK H PARENT
REMARK Flexibility Score: inf
ROOT
ATOM      1  C   UNL     1     187.899 187.806 170.876  1.00  0.00     0.000 C 
ENDROOT
BRANCH   1   2
ATOM      2  C   UNL     1     186.731 188.368 170.046  1.00  0.00     0.000 C 
BRANCH   2   3
ATOM      3  C   UNL     1     185.490 187.456 169.959  1.00  0.00     0.000 C 
BRANCH   3   4
ATOM      4  C   UNL     1     184.946 187.219 168.538  1.00  0.00    -0.000 C 
BRANCH   4   5
ATOM      5  C   UNL     1     185.930 186.447 167.642  1.00  0.00    -0.000 C 
BRANCH   5   6
ATOM      6  C   UNL     1     186.392 185.126 168.276  1.00  0.00    -0.000 C 
BRANCH   6   7
ATOM      7  C   UNL     1     187.920 184.967 168.279  1.00  0.00    -0.000 C 
BRANCH   7   8
ATOM      8  C   UNL     1     188.573 185.932 167.277  1.00  0.00    -0.000 C 
BRANCH   8   9
ATOM      9  C   UNL     1     189.458 186.994 167.952  1.00  0.00    -0.000 C 
BRANCH   9  10
ATOM     10  C   UNL     1     190.942 186.960 167.543  1.00  0.00    -0.000 C 
BRANCH  10  11
ATOM     11  C   UNL     1     191.568 188.358 167.449  1.00  0.00    -0.003 C 
ATOM     12  C   UNL     1     191.593 189.041 168.814  1.00  0.00     0.004 C 
ENDBRANCH  10  11
ENDBRANCH   9  10
ENDBRANCH   8   9
ENDBRANCH   7   8
ENDBRANCH   6   7
ENDBRANCH   5   6
ENDBRANCH   4   5
ENDBRANCH   3   4
ENDBRANCH   2   3
ENDBRANCH   1   2
BRANCH   1  13
ATOM     13  C   UNL     1     187.551 186.487 171.582  1.00  0.00     0.000 C 
BRANCH  13  14
ATOM     14  C   UNL     1     188.772 185.925 172.324  1.00  0.00     0.000 C 
BRANCH  14  15
ATOM     15  C   UNL     1     189.770 185.223 171.384  1.00  0.00     0.000 C 
BRANCH  15  16
ATOM     16  C   UNL     1     191.111 185.959 171.196  1.00  0.00     0.000 C 
BRANCH  16  17
ATOM     17  C   UNL     1     191.259 187.270 171.995  1.00  0.00     0.000 C 
BRANCH  17  18
ATOM     18  C   UNL     1     192.577 187.416 172.777  1.00  0.00     0.000 C 
BRANCH  18  19
ATOM     19  C   UNL     1     192.357 187.598 174.289  1.00  0.00     0.000 C 
BRANCH  19  20
ATOM     20  C   UNL     1     191.353 186.585 174.869  1.00  0.00     0.006 C 
BRANCH  20  21
ATOM     21  C   UNL     1     191.986 185.276 175.367  1.00  0.00     0.053 C 
BRANCH  21  22
ATOM     22  C   UNL     1     191.803 184.155 174.391  1.00  0.00     0.041 C 
ATOM     23  O   UNL     1     190.722 183.511 174.363  1.00  0.00    -0.550 OA
ATOM     24  O   UNL     1     192.816 183.841 173.493  1.00  0.00    -0.550 OA
ENDBRANCH  21  22
ENDBRANCH  20  21
ENDBRANCH  19  20
ENDBRANCH  18  19
ENDBRANCH  17  18
ENDBRANCH  16  17
ENDBRANCH  15  16
ENDBRANCH  14  15
ENDBRANCH  13  14
ENDBRANCH   1  13
TORSDOF 20
ENDMDL
