MODEL 1
REMARK VINA RESULT:    35.601      0.000      0.000
REMARK INTER + INTRA:          42.705
REMARK INTER:                  42.885
REMARK INTRA:                  -0.179
REMARK UNBOUND:                -0.179
REMARK SMILES Oc1cc(O)c2cc(O)c(-c3ccc(O)c(O)c3)[o+]c2c1.[Cl-]
REMARK SMILES IDX 10 1 19 2 20 3 21 4 2 5 3 6 4 7 6 8 7 9 8 10 11 11 12 12
REMARK SMILES IDX 13 13 14 14 18 15 16 16 15 17 17 19 9 21 1 23 5 25
REMARK H PARENT 15 18 17 20 9 22 1 24 5 26
REMARK Flexibility Score: inf
ROOT
ATOM      1  C   UNL     1      -2.894  16.468 -19.398  1.00  0.00     0.402 A 
ATOM      2  O   UNL     1      -2.508  15.774 -20.465  1.00  0.00    -0.202 OA
ATOM      3  C   UNL     1      -1.260  15.360 -20.653  1.00  0.00     0.368 A 
ATOM      4  C   UNL     1      -0.951  14.634 -21.807  1.00  0.00     0.162 A 
ATOM      5  C   UNL     1       0.351  14.183 -22.030  1.00  0.00     0.128 A 
ATOM      6  C   UNL     1       1.353  14.460 -21.093  1.00  0.00     0.093 A 
ATOM      7  C   UNL     1       1.070  15.185 -19.930  1.00  0.00     0.136 A 
ATOM      8  C   UNL     1      -0.252  15.647 -19.701  1.00  0.00     0.125 A 
ATOM      9  C   UNL     1      -0.626  16.393 -18.571  1.00  0.00     0.078 A 
ATOM     10  C   UNL     1      -1.948  16.818 -18.416  1.00  0.00     0.223 A 
ENDROOT
BRANCH   1  11
ATOM     11  C   UNL     1      -4.317  16.864 -19.298  1.00  0.00     0.087 A 
ATOM     12  C   UNL     1      -5.091  16.396 -18.224  1.00  0.00     0.022 A 
ATOM     13  C   UNL     1      -6.430  16.772 -18.099  1.00  0.00     0.051 A 
ATOM     14  C   UNL     1      -7.013  17.633 -19.033  1.00  0.00     0.157 A 
ATOM     15  C   UNL     1      -4.900  17.747 -20.226  1.00  0.00     0.068 A 
ATOM     16  C   UNL     1      -6.245  18.128 -20.100  1.00  0.00     0.158 A 
BRANCH  14  17
ATOM     17  O   UNL     1      -8.353  17.989 -18.884  1.00  0.00    -0.504 OA
ATOM     18  H   UNL     1      -8.707  18.410 -18.033  1.00  0.00     0.293 HD
ENDBRANCH  14  17
BRANCH  16  19
ATOM     19  O   UNL     1      -6.815  18.998 -21.028  1.00  0.00    -0.504 OA
ATOM     20  H   UNL     1      -6.279  19.743 -21.457  1.00  0.00     0.293 HD
ENDBRANCH  16  19
ENDBRANCH   1  11
BRANCH  10  21
ATOM     21  O   UNL     1      -2.308  17.601 -17.319  1.00  0.00    -0.500 OA
ATOM     22  H   UNL     1      -3.215  18.049 -17.260  1.00  0.00     0.294 HD
ENDBRANCH  10  21
BRANCH   5  23
ATOM     23  O   UNL     1       0.638  13.460 -23.186  1.00  0.00    -0.507 OA
ATOM     24  H   UNL     1      -0.081  12.952 -23.686  1.00  0.00     0.293 HD
ENDBRANCH   5  23
BRANCH   7  25
ATOM     25  O   UNL     1       2.125  15.417 -19.043  1.00  0.00    -0.507 OA
ATOM     26  H   UNL     1       2.220  14.974 -18.141  1.00  0.00     0.293 HD
ENDBRANCH   7  25
TORSDOF 6
ENDMDL
MODEL 2
REMARK VINA RESULT:    37.540      7.705     12.370
REMARK INTER + INTRA:          45.042
REMARK INTER:                  45.394
REMARK INTRA:                  -0.353
REMARK UNBOUND:                -0.179
REMARK SMILES Oc1cc(O)c2cc(O)c(-c3ccc(O)c(O)c3)[o+]c2c1.[Cl-]
REMARK SMILES IDX 10 1 19 2 20 3 21 4 2 5 3 6 4 7 6 8 7 9 8 10 11 11 12 12
REMARK SMILES IDX 13 13 14 14 18 15 16 16 15 17 17 19 9 21 1 23 5 25
REMARK H PARENT 15 18 17 20 9 22 1 24 5 26
REMARK Flexibility Score: inf
ROOT
ATOM      1  C   UNL     1      -9.674  23.494 -22.434  1.00  0.00     0.402 A 
ATOM      2  O   UNL     1      -9.102  24.399 -23.225  1.00  0.00    -0.202 OA
ATOM      3  C   UNL     1      -9.735  25.476 -23.675  1.00  0.00     0.368 A 
ATOM      4  C   UNL     1      -9.049  26.373 -24.500  1.00  0.00     0.162 A 
ATOM      5  C   UNL     1      -9.687  27.515 -24.985  1.00  0.00     0.128 A 
ATOM      6  C   UNL     1     -11.021  27.766 -24.643  1.00  0.00     0.093 A 
ATOM      7  C   UNL     1     -11.730  26.884 -23.819  1.00  0.00     0.136 A 
ATOM      8  C   UNL     1     -11.085  25.720 -23.326  1.00  0.00     0.125 A 
ATOM      9  C   UNL     1     -11.721  24.773 -22.505  1.00  0.00     0.078 A 
ATOM     10  C   UNL     1     -11.022  23.648 -22.062  1.00  0.00     0.223 A 
ENDROOT
BRANCH   1  11
ATOM     11  C   UNL     1      -8.860  22.339 -21.991  1.00  0.00     0.087 A 
ATOM     12  C   UNL     1      -8.750  21.212 -22.820  1.00  0.00     0.022 A 
ATOM     13  C   UNL     1      -7.973  20.119 -22.430  1.00  0.00     0.051 A 
ATOM     14  C   UNL     1      -7.280  20.141 -21.216  1.00  0.00     0.157 A 
ATOM     15  C   UNL     1      -8.146  22.368 -20.778  1.00  0.00     0.068 A 
ATOM     16  C   UNL     1      -7.362  21.271 -20.387  1.00  0.00     0.158 A 
BRANCH  14  17
ATOM     17  O   UNL     1      -6.513  19.034 -20.852  1.00  0.00    -0.504 OA
ATOM     18  H   UNL     1      -5.767  19.096 -20.170  1.00  0.00     0.293 HD
ENDBRANCH  14  17
BRANCH  16  19
ATOM     19  O   UNL     1      -6.663  21.306 -19.181  1.00  0.00    -0.504 OA
ATOM     20  H   UNL     1      -7.133  21.187 -18.290  1.00  0.00     0.293 HD
ENDBRANCH  16  19
ENDBRANCH   1  11
BRANCH  10  21
ATOM     21  O   UNL     1     -11.667  22.683 -21.288  1.00  0.00    -0.500 OA
ATOM     22  H   UNL     1     -12.556  22.284 -21.566  1.00  0.00     0.294 HD
ENDBRANCH  10  21
BRANCH   5  23
ATOM     23  O   UNL     1      -8.986  28.396 -25.806  1.00  0.00    -0.507 OA
ATOM     24  H   UNL     1      -8.297  29.037 -25.430  1.00  0.00     0.293 HD
ENDBRANCH   5  23
BRANCH   7  25
ATOM     25  O   UNL     1     -13.057  27.207 -23.522  1.00  0.00    -0.507 OA
ATOM     26  H   UNL     1     -13.615  27.865 -24.045  1.00  0.00     0.293 HD
ENDBRANCH   7  25
TORSDOF 6
ENDMDL
