MODEL 1
REMARK VINA RESULT:    -5.139      0.000      0.000
REMARK INTER + INTRA:         -11.137
REMARK INTER:                  -9.344
REMARK INTRA:                  -1.792
REMARK UNBOUND:                -1.792
REMARK SMILES CCCCCCCCCCCCCCCC(=O)[O-]
REMARK SMILES IDX 9 1 10 2 11 3 12 4 13 5 14 6 15 7 16 8 17 9 18 10 8 11 7 12
REMARK SMILES IDX 6 13 5 14 4 15 3 16 2 17 1 18
REMARK H PARENT
REMARK Flexibility Score: inf
ROOT
ATOM      1  C   UNL     1       0.386  44.948   8.049  1.00  0.00     0.000 C 
ENDROOT
BRANCH   1   2
ATOM      2  C   UNL     1       1.235  44.266   9.133  1.00  0.00     0.000 C 
BRANCH   2   3
ATOM      3  C   UNL     1       0.907  44.771  10.548  1.00  0.00     0.000 C 
BRANCH   3   4
ATOM      4  C   UNL     1       1.478  43.863  11.649  1.00  0.00     0.000 C 
BRANCH   4   5
ATOM      5  C   UNL     1       2.943  44.210  11.939  1.00  0.00     0.000 C 
BRANCH   5   6
ATOM      6  C   UNL     1       3.850  42.988  11.728  1.00  0.00     0.006 C 
BRANCH   6   7
ATOM      7  C   UNL     1       3.048  41.710  11.449  1.00  0.00     0.053 C 
BRANCH   7   8
ATOM      8  C   UNL     1       3.479  40.578  12.331  1.00  0.00     0.041 C 
ATOM      9  O   UNL     1       2.631  39.753  12.761  1.00  0.00    -0.550 OA
ATOM     10  O   UNL     1       4.812  40.455  12.703  1.00  0.00    -0.550 OA
ENDBRANCH   7   8
ENDBRANCH   6   7
ENDBRANCH   5   6
ENDBRANCH   4   5
ENDBRANCH   3   4
ENDBRANCH   2   3
ENDBRANCH   1   2
BRANCH   1  11
ATOM     11  C   UNL     1      -0.381  46.146   8.628  1.00  0.00     0.000 C 
BRANCH  11  12
ATOM     12  C   UNL     1       0.094  47.491   8.054  1.00  0.00    -0.000 C 
BRANCH  12  13
ATOM     13  C   UNL     1       1.406  47.976   8.695  1.00  0.00    -0.000 C 
BRANCH  13  14
ATOM     14  C   UNL     1       2.514  48.222   7.658  1.00  0.00    -0.000 C 
BRANCH  14  15
ATOM     15  C   UNL     1       3.893  47.742   8.135  1.00  0.00    -0.000 C 
BRANCH  15  16
ATOM     16  C   UNL     1       3.764  46.853   9.378  1.00  0.00    -0.000 C 
BRANCH  16  17
ATOM     17  C   UNL     1       5.131  46.611  10.027  1.00  0.00    -0.003 C 
ATOM     18  C   UNL     1       6.213  47.463   9.369  1.00  0.00     0.004 C 
ENDBRANCH  16  17
ENDBRANCH  15  16
ENDBRANCH  14  15
ENDBRANCH  13  14
ENDBRANCH  12  13
ENDBRANCH  11  12
ENDBRANCH   1  11
TORSDOF 14
ENDMDL
MODEL 2
REMARK VINA RESULT:    -4.943      1.000      3.398
REMARK INTER + INTRA:         -10.781
REMARK INTER:                  -8.607
REMARK INTRA:                  -2.174
REMARK UNBOUND:                -1.792
REMARK SMILES CCCCCCCCCCCCCCCC(=O)[O-]
REMARK SMILES IDX 9 1 10 2 11 3 12 4 13 5 14 6 15 7 16 8 17 9 18 10 8 11 7 12
REMARK SMILES IDX 6 13 5 14 4 15 3 16 2 17 1 18
REMARK H PARENT
REMARK Flexibility Score: inf
ROOT
ATOM      1  C   UNL     1       5.163  47.364   9.203  1.00  0.00     0.000 C 
ENDROOT
BRANCH   1   2
ATOM      2  C   UNL     1       4.491  45.999   9.416  1.00  0.00     0.000 C 
BRANCH   2   3
ATOM      3  C   UNL     1       4.089  45.757  10.881  1.00  0.00     0.000 C 
BRANCH   3   4
ATOM      4  C   UNL     1       4.092  44.268  11.258  1.00  0.00     0.000 C 
BRANCH   4   5
ATOM      5  C   UNL     1       3.884  43.388  10.021  1.00  0.00     0.000 C 
BRANCH   5   6
ATOM      6  C   UNL     1       3.030  42.156  10.359  1.00  0.00     0.006 C 
BRANCH   6   7
ATOM      7  C   UNL     1       2.849  41.972  11.871  1.00  0.00     0.053 C 
BRANCH   7   8
ATOM      8  C   UNL     1       3.447  40.684  12.350  1.00  0.00     0.041 C 
ATOM      9  O   UNL     1       2.713  39.681  12.548  1.00  0.00    -0.550 OA
ATOM     10  O   UNL     1       4.809  40.603  12.610  1.00  0.00    -0.550 OA
ENDBRANCH   7   8
ENDBRANCH   6   7
ENDBRANCH   5   6
ENDBRANCH   4   5
ENDBRANCH   3   4
ENDBRANCH   2   3
ENDBRANCH   1   2
BRANCH   1  11
ATOM     11  C   UNL     1       4.349  48.228   8.227  1.00  0.00     0.000 C 
BRANCH  11  12
ATOM     12  C   UNL     1       3.069  47.530   7.741  1.00  0.00    -0.000 C 
BRANCH  12  13
ATOM     13  C   UNL     1       1.807  48.377   7.984  1.00  0.00    -0.000 C 
BRANCH  13  14
ATOM     14  C   UNL     1       0.611  47.533   8.455  1.00  0.00    -0.000 C 
BRANCH  14  15
ATOM     15  C   UNL     1       0.580  46.135   7.817  1.00  0.00    -0.000 C 
BRANCH  15  16
ATOM     16  C   UNL     1       0.719  45.042   8.884  1.00  0.00    -0.000 C 
BRANCH  16  17
ATOM     17  C   UNL     1       0.520  45.616  10.291  1.00  0.00    -0.003 C 
ATOM     18  C   UNL     1       0.366  44.504  11.324  1.00  0.00     0.004 C 
ENDBRANCH  16  17
ENDBRANCH  15  16
ENDBRANCH  14  15
ENDBRANCH  13  14
ENDBRANCH  12  13
ENDBRANCH  11  12
ENDBRANCH   1  11
TORSDOF 14
ENDMDL
MODEL 3
REMARK VINA RESULT:    -4.907      3.050      5.967
REMARK INTER + INTRA:         -10.716
REMARK INTER:                  -9.005
REMARK INTRA:                  -1.711
REMARK UNBOUND:                -1.792
REMARK SMILES CCCCCCCCCCCCCCCC(=O)[O-]
REMARK SMILES IDX 9 1 10 2 11 3 12 4 13 5 14 6 15 7 16 8 17 9 18 10 8 11 7 12
REMARK SMILES IDX 6 13 5 14 4 15 3 16 2 17 1 18
REMARK H PARENT
REMARK Flexibility Score: inf
ROOT
ATOM      1  C   UNL     1       0.163  45.802   9.827  1.00  0.00     0.000 C 
ENDROOT
BRANCH   1   2
ATOM      2  C   UNL     1       0.083  45.907   8.296  1.00  0.00     0.000 C 
BRANCH   2   3
ATOM      3  C   UNL     1       0.524  47.283   7.771  1.00  0.00     0.000 C 
BRANCH   3   4
ATOM      4  C   UNL     1       1.601  47.936   8.650  1.00  0.00     0.000 C 
BRANCH   4   5
ATOM      5  C   UNL     1       2.994  47.401   8.300  1.00  0.00     0.000 C 
BRANCH   5   6
ATOM      6  C   UNL     1       3.842  47.203   9.566  1.00  0.00     0.006 C 
BRANCH   6   7
ATOM      7  C   UNL     1       5.221  46.608   9.254  1.00  0.00     0.053 C 
BRANCH   7   8
ATOM      8  C   UNL     1       6.297  47.651   9.287  1.00  0.00     0.041 C 
ATOM      9  O   UNL     1       6.034  48.841   8.970  1.00  0.00    -0.550 OA
ATOM     10  O   UNL     1       7.595  47.300   9.633  1.00  0.00    -0.550 OA
ENDBRANCH   7   8
ENDBRANCH   6   7
ENDBRANCH   5   6
ENDBRANCH   4   5
ENDBRANCH   3   4
ENDBRANCH   2   3
ENDBRANCH   1   2
BRANCH   1  11
ATOM     11  C   UNL     1       1.140  44.695  10.248  1.00  0.00     0.000 C 
BRANCH  11  12
ATOM     12  C   UNL     1       1.752  43.953   9.050  1.00  0.00    -0.000 C 
BRANCH  12  13
ATOM     13  C   UNL     1       2.659  42.785   9.478  1.00  0.00    -0.000 C 
BRANCH  13  14
ATOM     14  C   UNL     1       3.842  43.244  10.347  1.00  0.00    -0.000 C 
BRANCH  14  15
ATOM     15  C   UNL     1       3.790  42.672  11.772  1.00  0.00    -0.000 C 
BRANCH  15  16
ATOM     16  C   UNL     1       2.619  41.695  11.929  1.00  0.00    -0.000 C 
BRANCH  16  17
ATOM     17  C   UNL     1       3.092  40.355  12.502  1.00  0.00    -0.003 C 
ATOM     18  C   UNL     1       4.606  40.342  12.697  1.00  0.00     0.004 C 
ENDBRANCH  16  17
ENDBRANCH  15  16
ENDBRANCH  14  15
ENDBRANCH  13  14
ENDBRANCH  12  13
ENDBRANCH  11  12
ENDBRANCH   1  11
TORSDOF 14
ENDMDL
MODEL 4
REMARK VINA RESULT:    -4.888      0.996      1.574
REMARK INTER + INTRA:         -10.681
REMARK INTER:                  -9.382
REMARK INTRA:                  -1.299
REMARK UNBOUND:                -1.792
REMARK SMILES CCCCCCCCCCCCCCCC(=O)[O-]
REMARK SMILES IDX 9 1 10 2 11 3 12 4 13 5 14 6 15 7 16 8 17 9 18 10 8 11 7 12
REMARK SMILES IDX 6 13 5 14 4 15 3 16 2 17 1 18
REMARK H PARENT
REMARK Flexibility Score: inf
ROOT
ATOM      1  C   UNL     1       0.252  45.118  10.627  1.00  0.00     0.000 C 
ENDROOT
BRANCH   1   2
ATOM      2  C   UNL     1       1.247  44.214  11.372  1.00  0.00     0.000 C 
BRANCH   2   3
ATOM      3  C   UNL     1       2.708  44.648  11.172  1.00  0.00     0.000 C 
BRANCH   3   4
ATOM      4  C   UNL     1       3.521  43.636  10.351  1.00  0.00     0.000 C 
BRANCH   4   5
ATOM      5  C   UNL     1       3.014  42.208  10.584  1.00  0.00     0.000 C 
BRANCH   5   6
ATOM      6  C   UNL     1       3.625  41.610  11.861  1.00  0.00     0.006 C 
BRANCH   6   7
ATOM      7  C   UNL     1       2.719  40.545  12.494  1.00  0.00     0.053 C 
BRANCH   7   8
ATOM      8  C   UNL     1       3.477  39.296  12.826  1.00  0.00     0.041 C 
ATOM      9  O   UNL     1       3.009  38.170  12.512  1.00  0.00    -0.550 OA
ATOM     10  O   UNL     1       4.683  39.375  13.511  1.00  0.00    -0.550 OA
ENDBRANCH   7   8
ENDBRANCH   6   7
ENDBRANCH   5   6
ENDBRANCH   4   5
ENDBRANCH   3   4
ENDBRANCH   2   3
ENDBRANCH   1   2
BRANCH   1  11
ATOM     11  C   UNL     1       0.736  45.402   9.197  1.00  0.00     0.000 C 
BRANCH  11  12
ATOM     12  C   UNL     1       0.511  46.861   8.772  1.00  0.00    -0.000 C 
BRANCH  12  13
ATOM     13  C   UNL     1       1.736  47.752   9.049  1.00  0.00    -0.000 C 
BRANCH  13  14
ATOM     14  C   UNL     1       2.549  48.050   7.778  1.00  0.00    -0.000 C 
BRANCH  14  15
ATOM     15  C   UNL     1       4.065  48.031   8.024  1.00  0.00    -0.000 C 
BRANCH  15  16
ATOM     16  C   UNL     1       4.443  46.945   9.038  1.00  0.00    -0.000 C 
BRANCH  16  17
ATOM     17  C   UNL     1       5.829  47.207   9.636  1.00  0.00    -0.003 C 
ATOM     18  C   UNL     1       6.372  48.563   9.196  1.00  0.00     0.004 C 
ENDBRANCH  16  17
ENDBRANCH  15  16
ENDBRANCH  14  15
ENDBRANCH  13  14
ENDBRANCH  12  13
ENDBRANCH  11  12
ENDBRANCH   1  11
TORSDOF 14
ENDMDL
MODEL 5
REMARK VINA RESULT:    -4.879      3.738      5.961
REMARK INTER + INTRA:         -10.664
REMARK INTER:                  -9.035
REMARK INTRA:                  -1.630
REMARK UNBOUND:                -1.792
REMARK SMILES CCCCCCCCCCCCCCCC(=O)[O-]
REMARK SMILES IDX 9 1 10 2 11 3 12 4 13 5 14 6 15 7 16 8 17 9 18 10 8 11 7 12
REMARK SMILES IDX 6 13 5 14 4 15 3 16 2 17 1 18
REMARK H PARENT
REMARK Flexibility Score: inf
ROOT
ATOM      1  C   UNL     1       2.737  42.479   9.711  1.00  0.00     0.000 C 
ENDROOT
BRANCH   1   2
ATOM      2  C   UNL     1       1.890  43.609   9.105  1.00  0.00     0.000 C 
BRANCH   2   3
ATOM      3  C   UNL     1       1.087  44.383  10.164  1.00  0.00     0.000 C 
BRANCH   3   4
ATOM      4  C   UNL     1       0.361  45.605   9.581  1.00  0.00     0.000 C 
BRANCH   4   5
ATOM      5  C   UNL     1       0.268  45.511   8.054  1.00  0.00     0.000 C 
BRANCH   5   6
ATOM      6  C   UNL     1      -0.330  46.796   7.459  1.00  0.00     0.006 C 
BRANCH   6   7
ATOM      7  C   UNL     1      -0.177  47.997   8.401  1.00  0.00     0.053 C 
BRANCH   7   8
ATOM      8  C   UNL     1       0.909  48.925   7.946  1.00  0.00     0.041 C 
ATOM      9  O   UNL     1       0.690  50.162   7.861  1.00  0.00    -0.550 OA
ATOM     10  O   UNL     1       2.151  48.419   7.586  1.00  0.00    -0.550 OA
ENDBRANCH   7   8
ENDBRANCH   6   7
ENDBRANCH   5   6
ENDBRANCH   4   5
ENDBRANCH   3   4
ENDBRANCH   2   3
ENDBRANCH   1   2
BRANCH   1  11
ATOM     11  C   UNL     1       2.677  42.514  11.245  1.00  0.00     0.000 C 
BRANCH  11  12
ATOM     12  C   UNL     1       4.037  42.831  11.887  1.00  0.00    -0.000 C 
BRANCH  12  13
ATOM     13  C   UNL     1       4.183  44.318  12.254  1.00  0.00    -0.000 C 
BRANCH  13  14
ATOM     14  C   UNL     1       4.842  45.141  11.134  1.00  0.00    -0.000 C 
BRANCH  14  15
ATOM     15  C   UNL     1       3.952  46.291  10.638  1.00  0.00    -0.000 C 
BRANCH  15  16
ATOM     16  C   UNL     1       4.525  46.915   9.360  1.00  0.00    -0.000 C 
BRANCH  16  17
ATOM     17  C   UNL     1       6.034  47.148   9.488  1.00  0.00    -0.003 C 
ATOM     18  C   UNL     1       6.383  48.621   9.294  1.00  0.00     0.004 C 
ENDBRANCH  16  17
ENDBRANCH  15  16
ENDBRANCH  14  15
ENDBRANCH  13  14
ENDBRANCH  12  13
ENDBRANCH  11  12
ENDBRANCH   1  11
TORSDOF 14
ENDMDL
MODEL 6
REMARK VINA RESULT:    -4.755      1.106      1.716
REMARK INTER + INTRA:         -10.440
REMARK INTER:                  -8.751
REMARK INTRA:                  -1.689
REMARK UNBOUND:                -1.792
REMARK SMILES CCCCCCCCCCCCCCCC(=O)[O-]
REMARK SMILES IDX 9 1 10 2 11 3 12 4 13 5 14 6 15 7 16 8 17 9 18 10 8 11 7 12
REMARK SMILES IDX 6 13 5 14 4 15 3 16 2 17 1 18
REMARK H PARENT
REMARK Flexibility Score: inf
ROOT
ATOM      1  C   UNL     1       0.172  45.610   8.157  1.00  0.00     0.000 C 
ENDROOT
BRANCH   1   2
ATOM      2  C   UNL     1       0.329  45.563   9.685  1.00  0.00     0.000 C 
BRANCH   2   3
ATOM      3  C   UNL     1       1.185  44.376  10.158  1.00  0.00     0.000 C 
BRANCH   3   4
ATOM      4  C   UNL     1       1.812  43.596   8.992  1.00  0.00     0.000 C 
BRANCH   4   5
ATOM      5  C   UNL     1       3.040  42.806   9.459  1.00  0.00     0.000 C 
BRANCH   5   6
ATOM      6  C   UNL     1       3.723  43.501  10.646  1.00  0.00     0.006 C 
BRANCH   6   7
ATOM      7  C   UNL     1       4.087  42.517  11.765  1.00  0.00     0.053 C 
BRANCH   7   8
ATOM      8  C   UNL     1       2.934  41.628  12.121  1.00  0.00     0.041 C 
ATOM      9  O   UNL     1       3.055  40.377  12.052  1.00  0.00    -0.550 OA
ATOM     10  O   UNL     1       1.718  42.183  12.498  1.00  0.00    -0.550 OA
ENDBRANCH   7   8
ENDBRANCH   6   7
ENDBRANCH   5   6
ENDBRANCH   4   5
ENDBRANCH   3   4
ENDBRANCH   2   3
ENDBRANCH   1   2
BRANCH   1  11
ATOM     11  C   UNL     1       0.331  47.045   7.634  1.00  0.00     0.000 C 
BRANCH  11  12
ATOM     12  C   UNL     1       1.276  47.893   8.501  1.00  0.00    -0.000 C 
BRANCH  12  13
ATOM     13  C   UNL     1       2.379  48.578   7.675  1.00  0.00    -0.000 C 
BRANCH  13  14
ATOM     14  C   UNL     1       3.744  47.885   7.823  1.00  0.00    -0.000 C 
BRANCH  14  15
ATOM     15  C   UNL     1       3.748  46.805   8.915  1.00  0.00    -0.000 C 
BRANCH  15  16
ATOM     16  C   UNL     1       4.860  47.066   9.939  1.00  0.00    -0.000 C 
BRANCH  16  17
ATOM     17  C   UNL     1       6.182  47.405   9.243  1.00  0.00    -0.003 C 
ATOM     18  C   UNL     1       6.647  48.814   9.600  1.00  0.00     0.004 C 
ENDBRANCH  16  17
ENDBRANCH  15  16
ENDBRANCH  14  15
ENDBRANCH  13  14
ENDBRANCH  12  13
ENDBRANCH  11  12
ENDBRANCH   1  11
TORSDOF 14
ENDMDL
MODEL 7
REMARK VINA RESULT:    -4.752      1.183      3.422
REMARK INTER + INTRA:         -10.433
REMARK INTER:                  -8.929
REMARK INTRA:                  -1.505
REMARK UNBOUND:                -1.792
REMARK SMILES CCCCCCCCCCCCCCCC(=O)[O-]
REMARK SMILES IDX 9 1 10 2 11 3 12 4 13 5 14 6 15 7 16 8 17 9 18 10 8 11 7 12
REMARK SMILES IDX 6 13 5 14 4 15 3 16 2 17 1 18
REMARK H PARENT
REMARK Flexibility Score: inf
ROOT
ATOM      1  C   UNL     1       4.290  45.012  10.861  1.00  0.00     0.000 C 
ENDROOT
BRANCH   1   2
ATOM      2  C   UNL     1       3.879  44.219   9.611  1.00  0.00     0.000 C 
BRANCH   2   3
ATOM      3  C   UNL     1       2.589  43.409   9.819  1.00  0.00     0.000 C 
BRANCH   3   4
ATOM      4  C   UNL     1       1.768  43.901  11.021  1.00  0.00     0.000 C 
BRANCH   4   5
ATOM      5  C   UNL     1       1.614  42.795  12.071  1.00  0.00     0.000 C 
BRANCH   5   6
ATOM      6  C   UNL     1       2.737  41.754  11.941  1.00  0.00     0.006 C 
BRANCH   6   7
ATOM      7  C   UNL     1       2.433  40.471  12.726  1.00  0.00     0.053 C 
BRANCH   7   8
ATOM      8  C   UNL     1       3.602  39.532  12.731  1.00  0.00     0.041 C 
ATOM      9  O   UNL     1       3.414  38.288  12.684  1.00  0.00    -0.550 OA
ATOM     10  O   UNL     1       4.895  40.031  12.822  1.00  0.00    -0.550 OA
ENDBRANCH   7   8
ENDBRANCH   6   7
ENDBRANCH   5   6
ENDBRANCH   4   5
ENDBRANCH   3   4
ENDBRANCH   2   3
ENDBRANCH   1   2
BRANCH   1  11
ATOM     11  C   UNL     1       4.490  46.498  10.526  1.00  0.00     0.000 C 
BRANCH  11  12
ATOM     12  C   UNL     1       4.851  46.731   9.051  1.00  0.00    -0.000 C 
BRANCH  12  13
ATOM     13  C   UNL     1       3.851  47.659   8.338  1.00  0.00    -0.000 C 
BRANCH  13  14
ATOM     14  C   UNL     1       2.402  47.433   8.800  1.00  0.00    -0.000 C 
BRANCH  14  15
ATOM     15  C   UNL     1       1.373  48.134   7.900  1.00  0.00    -0.000 C 
BRANCH  15  16
ATOM     16  C   UNL     1      -0.016  47.507   8.063  1.00  0.00    -0.000 C 
BRANCH  16  17
ATOM     17  C   UNL     1       0.088  46.032   8.465  1.00  0.00    -0.003 C 
ATOM     18  C   UNL     1      -0.062  45.118   7.253  1.00  0.00     0.004 C 
ENDBRANCH  16  17
ENDBRANCH  15  16
ENDBRANCH  14  15
ENDBRANCH  13  14
ENDBRANCH  12  13
ENDBRANCH  11  12
ENDBRANCH   1  11
TORSDOF 14
ENDMDL
MODEL 8
REMARK VINA RESULT:    -4.739      3.146      5.583
REMARK INTER + INTRA:         -10.410
REMARK INTER:                  -8.524
REMARK INTRA:                  -1.886
REMARK UNBOUND:                -1.792
REMARK SMILES CCCCCCCCCCCCCCCC(=O)[O-]
REMARK SMILES IDX 9 1 10 2 11 3 12 4 13 5 14 6 15 7 16 8 17 9 18 10 8 11 7 12
REMARK SMILES IDX 6 13 5 14 4 15 3 16 2 17 1 18
REMARK H PARENT
REMARK Flexibility Score: inf
ROOT
ATOM      1  C   UNL     1       0.057  46.507   7.459  1.00  0.00     0.000 C 
ENDROOT
BRANCH   1   2
ATOM      2  C   UNL     1      -0.164  47.779   8.292  1.00  0.00     0.000 C 
BRANCH   2   3
ATOM      3  C   UNL     1       1.084  48.674   8.351  1.00  0.00     0.000 C 
BRANCH   3   4
ATOM      4  C   UNL     1       2.363  47.938   7.920  1.00  0.00     0.000 C 
BRANCH   4   5
ATOM      5  C   UNL     1       3.134  47.420   9.139  1.00  0.00     0.000 C 
BRANCH   5   6
ATOM      6  C   UNL     1       4.477  46.804   8.719  1.00  0.00     0.006 C 
BRANCH   6   7
ATOM      7  C   UNL     1       5.537  46.913   9.823  1.00  0.00     0.053 C 
BRANCH   7   8
ATOM      8  C   UNL     1       6.671  47.806   9.419  1.00  0.00     0.041 C 
ATOM      9  O   UNL     1       7.857  47.386   9.472  1.00  0.00    -0.550 OA
ATOM     10  O   UNL     1       6.420  49.111   9.017  1.00  0.00    -0.550 OA
ENDBRANCH   7   8
ENDBRANCH   6   7
ENDBRANCH   5   6
ENDBRANCH   4   5
ENDBRANCH   3   4
ENDBRANCH   2   3
ENDBRANCH   1   2
BRANCH   1  11
ATOM     11  C   UNL     1      -0.185  45.249   8.306  1.00  0.00     0.000 C 
BRANCH  11  12
ATOM     12  C   UNL     1       0.206  45.440   9.780  1.00  0.00    -0.000 C 
BRANCH  12  13
ATOM     13  C   UNL     1       1.362  44.519  10.209  1.00  0.00    -0.000 C 
BRANCH  13  14
ATOM     14  C   UNL     1       1.896  43.662   9.049  1.00  0.00    -0.000 C 
BRANCH  14  15
ATOM     15  C   UNL     1       3.181  42.903   9.412  1.00  0.00    -0.000 C 
BRANCH  15  16
ATOM     16  C   UNL     1       3.892  43.565  10.599  1.00  0.00    -0.000 C 
BRANCH  16  17
ATOM     17  C   UNL     1       4.106  42.566  11.741  1.00  0.00    -0.003 C 
ATOM     18  C   UNL     1       3.039  41.474  11.726  1.00  0.00     0.004 C 
ENDBRANCH  16  17
ENDBRANCH  15  16
ENDBRANCH  14  15
ENDBRANCH  13  14
ENDBRANCH  12  13
ENDBRANCH  11  12
ENDBRANCH   1  11
TORSDOF 14
ENDMDL
MODEL 9
REMARK VINA RESULT:    -4.623      3.220      5.936
REMARK INTER + INTRA:         -10.200
REMARK INTER:                  -8.230
REMARK INTRA:                  -1.970
REMARK UNBOUND:                -1.792
REMARK SMILES CCCCCCCCCCCCCCCC(=O)[O-]
REMARK SMILES IDX 9 1 10 2 11 3 12 4 13 5 14 6 15 7 16 8 17 9 18 10 8 11 7 12
REMARK SMILES IDX 6 13 5 14 4 15 3 16 2 17 1 18
REMARK H PARENT
REMARK Flexibility Score: inf
ROOT
ATOM      1  C   UNL     1       3.781  42.757  11.390  1.00  0.00     0.000 C 
ENDROOT
BRANCH   1   2
ATOM      2  C   UNL     1       4.209  44.076  12.053  1.00  0.00     0.000 C 
BRANCH   2   3
ATOM      3  C   UNL     1       4.636  45.142  11.031  1.00  0.00     0.000 C 
BRANCH   3   4
ATOM      4  C   UNL     1       3.734  46.385  11.059  1.00  0.00     0.000 C 
BRANCH   4   5
ATOM      5  C   UNL     1       3.508  46.931   9.644  1.00  0.00     0.000 C 
BRANCH   5   6
ATOM      6  C   UNL     1       4.804  46.875   8.820  1.00  0.00     0.006 C 
BRANCH   6   7
ATOM      7  C   UNL     1       5.423  48.264   8.617  1.00  0.00     0.053 C 
BRANCH   7   8
ATOM      8  C   UNL     1       6.622  48.472   9.491  1.00  0.00     0.041 C 
ATOM      9  O   UNL     1       6.773  49.558  10.110  1.00  0.00    -0.550 OA
ATOM     10  O   UNL     1       7.589  47.480   9.593  1.00  0.00    -0.550 OA
ENDBRANCH   7   8
ENDBRANCH   6   7
ENDBRANCH   5   6
ENDBRANCH   4   5
ENDBRANCH   3   4
ENDBRANCH   2   3
ENDBRANCH   1   2
BRANCH   1  11
ATOM     11  C   UNL     1       3.687  42.916   9.866  1.00  0.00     0.000 C 
BRANCH  11  12
ATOM     12  C   UNL     1       2.257  42.731   9.335  1.00  0.00    -0.000 C 
BRANCH  12  13
ATOM     13  C   UNL     1       1.587  44.066   8.962  1.00  0.00    -0.000 C 
BRANCH  13  14
ATOM     14  C   UNL     1       0.814  44.687  10.137  1.00  0.00    -0.000 C 
BRANCH  14  15
ATOM     15  C   UNL     1      -0.042  45.891   9.715  1.00  0.00    -0.000 C 
BRANCH  15  16
ATOM     16  C   UNL     1       0.071  46.143   8.207  1.00  0.00    -0.000 C 
BRANCH  16  17
ATOM     17  C   UNL     1      -0.420  47.549   7.844  1.00  0.00    -0.003 C 
ATOM     18  C   UNL     1       0.606  48.609   8.232  1.00  0.00     0.004 C 
ENDBRANCH  16  17
ENDBRANCH  15  16
ENDBRANCH  14  15
ENDBRANCH  13  14
ENDBRANCH  12  13
ENDBRANCH  11  12
ENDBRANCH   1  11
TORSDOF 14
ENDMDL
