MODEL 1
REMARK VINA RESULT:    -6.044      0.000      0.000
REMARK INTER + INTRA:          -7.603
REMARK INTER:                  -7.280
REMARK INTRA:                  -0.323
REMARK UNBOUND:                -0.323
REMARK SMILES O=c1c(O)c(-c2ccc(O)c(O)c2)oc2cc(O)cc(O)c12
REMARK SMILES IDX 5 1 3 2 2 3 1 4 22 5 20 6 19 7 17 8 16 9 15 10 14 11 6 12
REMARK SMILES IDX 7 13 8 14 9 15 13 16 11 17 10 18 12 20 4 22 21 24 18 26
REMARK H PARENT 10 19 12 21 4 23 21 25 18 27
REMARK Flexibility Score: inf
ROOT
ATOM      1  C   UNL     1       1.073  78.924 -29.250  1.00  0.00     0.180 A 
ATOM      2  C   UNL     1       0.615  77.911 -28.390  1.00  0.00     0.208 A 
ATOM      3  C   UNL     1       1.383  76.745 -28.243  1.00  0.00     0.238 A 
ATOM      4  O   UNL     1       0.941  75.818 -27.512  1.00  0.00    -0.285 OA
ATOM      5  C   UNL     1       2.606  76.613 -28.944  1.00  0.00     0.111 A 
ATOM      6  C   UNL     1       3.483  75.492 -28.837  1.00  0.00     0.134 A 
ATOM      7  C   UNL     1       4.602  75.410 -29.677  1.00  0.00     0.093 A 
ATOM      8  C   UNL     1       4.909  76.436 -30.570  1.00  0.00     0.123 A 
ATOM      9  C   UNL     1       4.091  77.563 -30.639  1.00  0.00     0.094 A 
ATOM     10  C   UNL     1       2.949  77.658 -29.840  1.00  0.00     0.146 A 
ATOM     11  O   UNL     1       2.190  78.742 -29.944  1.00  0.00    -0.452 OA
ENDROOT
BRANCH   1  12
ATOM     12  C   UNL     1       0.331  80.191 -29.438  1.00  0.00     0.025 A 
ATOM     13  C   UNL     1      -0.657  80.273 -30.433  1.00  0.00     0.016 A 
ATOM     14  C   UNL     1      -1.354  81.465 -30.642  1.00  0.00     0.051 A 
ATOM     15  C   UNL     1      -1.064  82.598 -29.870  1.00  0.00     0.157 A 
ATOM     16  C   UNL     1       0.634  81.338 -28.681  1.00  0.00     0.062 A 
ATOM     17  C   UNL     1      -0.065  82.535 -28.892  1.00  0.00     0.158 A 
BRANCH  15  18
ATOM     18  O   UNL     1      -1.758  83.789 -30.075  1.00  0.00    -0.504 OA
ATOM     19  H   UNL     1      -1.338  84.689 -29.873  1.00  0.00     0.293 HD
ENDBRANCH  15  18
BRANCH  17  20
ATOM     20  O   UNL     1       0.233  83.668 -28.136  1.00  0.00    -0.504 OA
ATOM     21  H   UNL     1       0.901  83.637 -27.374  1.00  0.00     0.293 HD
ENDBRANCH  17  20
ENDBRANCH   1  12
BRANCH   2  22
ATOM     22  O   UNL     1      -0.606  78.053 -27.723  1.00  0.00    -0.502 OA
ATOM     23  H   UNL     1      -1.231  78.831 -27.894  1.00  0.00     0.293 HD
ENDBRANCH   2  22
BRANCH   6  24
ATOM     24  O   UNL     1       3.319  74.456 -27.914  1.00  0.00    -0.507 OA
ATOM     25  H   UNL     1       3.563  73.492 -28.083  1.00  0.00     0.293 HD
ENDBRANCH   6  24
BRANCH   8  26
ATOM     26  O   UNL     1       6.038  76.328 -31.379  1.00  0.00    -0.508 OA
ATOM     27  H   UNL     1       6.659  75.528 -31.320  1.00  0.00     0.293 HD
ENDBRANCH   8  26
TORSDOF 6
ENDMDL
MODEL 2
REMARK VINA RESULT:    -5.900      1.794      3.631
REMARK INTER + INTRA:          -7.430
REMARK INTER:                  -7.137
REMARK INTRA:                  -0.294
REMARK UNBOUND:                -0.323
REMARK SMILES O=c1c(O)c(-c2ccc(O)c(O)c2)oc2cc(O)cc(O)c12
REMARK SMILES IDX 5 1 3 2 2 3 1 4 22 5 20 6 19 7 17 8 16 9 15 10 14 11 6 12
REMARK SMILES IDX 7 13 8 14 9 15 13 16 11 17 10 18 12 20 4 22 21 24 18 26
REMARK H PARENT 10 19 12 21 4 23 21 25 18 27
REMARK Flexibility Score: inf
ROOT
ATOM      1  C   UNL     1       2.892  78.273 -29.934  1.00  0.00     0.180 A 
ATOM      2  C   UNL     1       4.167  78.593 -30.431  1.00  0.00     0.208 A 
ATOM      3  C   UNL     1       5.161  77.601 -30.445  1.00  0.00     0.238 A 
ATOM      4  O   UNL     1       6.316  77.909 -30.840  1.00  0.00    -0.285 OA
ATOM      5  C   UNL     1       4.862  76.298 -29.978  1.00  0.00     0.111 A 
ATOM      6  C   UNL     1       5.781  75.206 -29.985  1.00  0.00     0.134 A 
ATOM      7  C   UNL     1       5.418  73.996 -29.379  1.00  0.00     0.093 A 
ATOM      8  C   UNL     1       4.150  73.819 -28.827  1.00  0.00     0.123 A 
ATOM      9  C   UNL     1       3.224  74.861 -28.868  1.00  0.00     0.094 A 
ATOM     10  C   UNL     1       3.569  76.091 -29.434  1.00  0.00     0.146 A 
ATOM     11  O   UNL     1       2.662  77.061 -29.444  1.00  0.00    -0.452 OA
ENDROOT
BRANCH   1  12
ATOM     12  C   UNL     1       1.787  79.258 -29.910  1.00  0.00     0.025 A 
ATOM     13  C   UNL     1       1.719  80.196 -28.867  1.00  0.00     0.016 A 
ATOM     14  C   UNL     1       0.673  81.120 -28.812  1.00  0.00     0.051 A 
ATOM     15  C   UNL     1      -0.329  81.112 -29.791  1.00  0.00     0.157 A 
ATOM     16  C   UNL     1       0.766  79.239 -30.879  1.00  0.00     0.062 A 
ATOM     17  C   UNL     1      -0.284  80.166 -30.823  1.00  0.00     0.158 A 
BRANCH  15  18
ATOM     18  O   UNL     1      -1.373  82.033 -29.742  1.00  0.00    -0.504 OA
ATOM     19  H   UNL     1      -1.941  82.235 -30.556  1.00  0.00     0.293 HD
ENDBRANCH  15  18
BRANCH  17  20
ATOM     20  O   UNL     1      -1.291  80.150 -31.788  1.00  0.00    -0.504 OA
ATOM     21  H   UNL     1      -1.085  79.988 -32.767  1.00  0.00     0.293 HD
ENDBRANCH  17  20
ENDBRANCH   1  12
BRANCH   2  22
ATOM     22  O   UNL     1       4.447  79.892 -30.866  1.00  0.00    -0.502 OA
ATOM     23  H   UNL     1       3.792  80.433 -31.418  1.00  0.00     0.293 HD
ENDBRANCH   2  22
BRANCH   6  24
ATOM     24  O   UNL     1       7.039  75.247 -30.592  1.00  0.00    -0.507 OA
ATOM     25  H   UNL     1       7.264  74.823 -31.479  1.00  0.00     0.293 HD
ENDBRANCH   6  24
BRANCH   8  26
ATOM     26  O   UNL     1       3.818  72.597 -28.246  1.00  0.00    -0.508 OA
ATOM     27  H   UNL     1       4.023  72.399 -27.273  1.00  0.00     0.293 HD
ENDBRANCH   8  26
TORSDOF 6
ENDMDL
MODEL 3
REMARK VINA RESULT:    -5.847      1.089      1.736
REMARK INTER + INTRA:          -7.366
REMARK INTER:                  -7.058
REMARK INTRA:                  -0.308
REMARK UNBOUND:                -0.323
REMARK SMILES O=c1c(O)c(-c2ccc(O)c(O)c2)oc2cc(O)cc(O)c12
REMARK SMILES IDX 5 1 3 2 2 3 1 4 22 5 20 6 19 7 17 8 16 9 15 10 14 11 6 12
REMARK SMILES IDX 7 13 8 14 9 15 13 16 11 17 10 18 12 20 4 22 21 24 18 26
REMARK H PARENT 10 19 12 21 4 23 21 25 18 27
REMARK Flexibility Score: inf
ROOT
ATOM      1  C   UNL     1       1.821  78.357 -29.353  1.00  0.00     0.180 A 
ATOM      2  C   UNL     1       1.406  77.257 -28.583  1.00  0.00     0.208 A 
ATOM      3  C   UNL     1       2.240  76.131 -28.499  1.00  0.00     0.238 A 
ATOM      4  O   UNL     1       1.839  75.128 -27.853  1.00  0.00    -0.285 OA
ATOM      5  C   UNL     1       3.486  76.126 -29.173  1.00  0.00     0.111 A 
ATOM      6  C   UNL     1       4.428  75.055 -29.123  1.00  0.00     0.134 A 
ATOM      7  C   UNL     1       5.570  75.103 -29.933  1.00  0.00     0.093 A 
ATOM      8  C   UNL     1       5.835  76.210 -30.739  1.00  0.00     0.123 A 
ATOM      9  C   UNL     1       4.951  77.288 -30.749  1.00  0.00     0.094 A 
ATOM     10  C   UNL     1       3.785  77.254 -29.979  1.00  0.00     0.146 A 
ATOM     11  O   UNL     1       2.964  78.295 -30.025  1.00  0.00    -0.452 OA
ENDROOT
BRANCH   1  12
ATOM     12  C   UNL     1       1.007  79.588 -29.468  1.00  0.00     0.025 A 
ATOM     13  C   UNL     1       1.252  80.664 -28.600  1.00  0.00     0.016 A 
ATOM     14  C   UNL     1       0.482  81.827 -28.676  1.00  0.00     0.051 A 
ATOM     15  C   UNL     1      -0.555  81.926 -29.613  1.00  0.00     0.157 A 
ATOM     16  C   UNL     1      -0.050  79.684 -30.392  1.00  0.00     0.062 A 
ATOM     17  C   UNL     1      -0.824  80.851 -30.468  1.00  0.00     0.158 A 
BRANCH  15  18
ATOM     18  O   UNL     1      -1.325  83.085 -29.694  1.00  0.00    -0.504 OA
ATOM     19  H   UNL     1      -1.535  83.520 -30.584  1.00  0.00     0.293 HD
ENDBRANCH  15  18
BRANCH  17  20
ATOM     20  O   UNL     1      -1.867  80.947 -31.389  1.00  0.00    -0.504 OA
ATOM     21  H   UNL     1      -2.516  81.725 -31.376  1.00  0.00     0.293 HD
ENDBRANCH  17  20
ENDBRANCH   1  12
BRANCH   2  22
ATOM     22  O   UNL     1       0.162  77.275 -27.944  1.00  0.00    -0.502 OA
ATOM     23  H   UNL     1      -0.703  77.443 -28.443  1.00  0.00     0.293 HD
ENDBRANCH   2  22
BRANCH   6  24
ATOM     24  O   UNL     1       4.305  73.944 -28.284  1.00  0.00    -0.507 OA
ATOM     25  H   UNL     1       4.205  72.992 -28.602  1.00  0.00     0.293 HD
ENDBRANCH   6  24
BRANCH   8  26
ATOM     26  O   UNL     1       6.989  76.230 -31.521  1.00  0.00    -0.508 OA
ATOM     27  H   UNL     1       7.856  76.623 -31.175  1.00  0.00     0.293 HD
ENDBRANCH   8  26
TORSDOF 6
ENDMDL
MODEL 4
REMARK VINA RESULT:    -5.778     12.846     14.349
REMARK INTER + INTRA:          -7.283
REMARK INTER:                  -6.987
REMARK INTRA:                  -0.296
REMARK UNBOUND:                -0.323
REMARK SMILES O=c1c(O)c(-c2ccc(O)c(O)c2)oc2cc(O)cc(O)c12
REMARK SMILES IDX 5 1 3 2 2 3 1 4 22 5 20 6 19 7 17 8 16 9 15 10 14 11 6 12
REMARK SMILES IDX 7 13 8 14 9 15 13 16 11 17 10 18 12 20 4 22 21 24 18 26
REMARK H PARENT 10 19 12 21 4 23 21 25 18 27
REMARK Flexibility Score: inf
ROOT
ATOM      1  C   UNL     1      13.047  71.578 -27.066  1.00  0.00     0.180 A 
ATOM      2  C   UNL     1      11.719  71.206 -27.335  1.00  0.00     0.208 A 
ATOM      3  C   UNL     1      11.475  70.016 -28.040  1.00  0.00     0.238 A 
ATOM      4  O   UNL     1      10.285  69.716 -28.325  1.00  0.00    -0.285 OA
ATOM      5  C   UNL     1      12.560  69.207 -28.453  1.00  0.00     0.111 A 
ATOM      6  C   UNL     1      12.427  67.961 -29.137  1.00  0.00     0.134 A 
ATOM      7  C   UNL     1      13.572  67.309 -29.613  1.00  0.00     0.093 A 
ATOM      8  C   UNL     1      14.845  67.823 -29.372  1.00  0.00     0.123 A 
ATOM      9  C   UNL     1      14.990  69.009 -28.652  1.00  0.00     0.094 A 
ATOM     10  C   UNL     1      13.865  69.701 -28.196  1.00  0.00     0.146 A 
ATOM     11  O   UNL     1      14.044  70.831 -27.524  1.00  0.00    -0.452 OA
ENDROOT
BRANCH   1  12
ATOM     12  C   UNL     1      13.382  72.805 -26.308  1.00  0.00     0.025 A 
ATOM     13  C   UNL     1      13.637  72.717 -24.930  1.00  0.00     0.016 A 
ATOM     14  C   UNL     1      13.934  73.864 -24.190  1.00  0.00     0.051 A 
ATOM     15  C   UNL     1      13.965  75.118 -24.813  1.00  0.00     0.157 A 
ATOM     16  C   UNL     1      13.393  74.069 -26.925  1.00  0.00     0.062 A 
ATOM     17  C   UNL     1      13.689  75.221 -26.182  1.00  0.00     0.158 A 
BRANCH  15  18
ATOM     18  O   UNL     1      14.262  76.265 -24.080  1.00  0.00    -0.504 OA
ATOM     19  H   UNL     1      14.692  76.211 -23.164  1.00  0.00     0.293 HD
ENDBRANCH  15  18
BRANCH  17  20
ATOM     20  O   UNL     1      13.706  76.472 -26.798  1.00  0.00    -0.504 OA
ATOM     21  H   UNL     1      14.450  76.741 -27.431  1.00  0.00     0.293 HD
ENDBRANCH  17  20
ENDBRANCH   1  12
BRANCH   2  22
ATOM     22  O   UNL     1      10.662  72.031 -26.937  1.00  0.00    -0.502 OA
ATOM     23  H   UNL     1      10.192  71.920 -26.047  1.00  0.00     0.293 HD
ENDBRANCH   2  22
BRANCH   6  24
ATOM     24  O   UNL     1      11.206  67.314 -29.351  1.00  0.00    -0.507 OA
ATOM     25  H   UNL     1      11.022  66.348 -29.128  1.00  0.00     0.293 HD
ENDBRANCH   6  24
BRANCH   8  26
ATOM     26  O   UNL     1      15.963  67.140 -29.846  1.00  0.00    -0.508 OA
ATOM     27  H   UNL     1      16.586  67.553 -30.531  1.00  0.00     0.293 HD
ENDBRANCH   8  26
TORSDOF 6
ENDMDL
MODEL 5
REMARK VINA RESULT:    -5.752     13.693     14.959
REMARK INTER + INTRA:          -7.252
REMARK INTER:                  -7.153
REMARK INTRA:                  -0.099
REMARK UNBOUND:                -0.323
REMARK SMILES O=c1c(O)c(-c2ccc(O)c(O)c2)oc2cc(O)cc(O)c12
REMARK SMILES IDX 5 1 3 2 2 3 1 4 22 5 20 6 19 7 17 8 16 9 15 10 14 11 6 12
REMARK SMILES IDX 7 13 8 14 9 15 13 16 11 17 10 18 12 20 4 22 21 24 18 26
REMARK H PARENT 10 19 12 21 4 23 21 25 18 27
REMARK Flexibility Score: inf
ROOT
ATOM      1  C   UNL     1       9.485  81.952 -18.485  1.00  0.00     0.180 A 
ATOM      2  C   UNL     1       8.455  82.692 -19.092  1.00  0.00     0.208 A 
ATOM      3  C   UNL     1       7.124  82.288 -18.901  1.00  0.00     0.238 A 
ATOM      4  O   UNL     1       6.209  82.922 -19.490  1.00  0.00    -0.285 OA
ATOM      5  C   UNL     1       6.839  81.161 -18.093  1.00  0.00     0.111 A 
ATOM      6  C   UNL     1       5.525  80.688 -17.798  1.00  0.00     0.134 A 
ATOM      7  C   UNL     1       5.365  79.486 -17.095  1.00  0.00     0.093 A 
ATOM      8  C   UNL     1       6.469  78.778 -16.621  1.00  0.00     0.123 A 
ATOM      9  C   UNL     1       7.756  79.263 -16.852  1.00  0.00     0.094 A 
ATOM     10  C   UNL     1       7.948  80.440 -17.581  1.00  0.00     0.146 A 
ATOM     11  O   UNL     1       9.189  80.862 -17.788  1.00  0.00    -0.452 OA
ENDROOT
BRANCH   1  12
ATOM     12  C   UNL     1      10.910  82.330 -18.621  1.00  0.00     0.025 A 
ATOM     13  C   UNL     1      11.504  82.344 -19.893  1.00  0.00     0.016 A 
ATOM     14  C   UNL     1      12.852  82.677 -20.042  1.00  0.00     0.051 A 
ATOM     15  C   UNL     1      13.632  82.986 -18.920  1.00  0.00     0.157 A 
ATOM     16  C   UNL     1      11.702  82.620 -17.495  1.00  0.00     0.062 A 
ATOM     17  C   UNL     1      13.056  82.953 -17.644  1.00  0.00     0.158 A 
BRANCH  15  18
ATOM     18  O   UNL     1      14.977  83.320 -19.064  1.00  0.00    -0.504 OA
ATOM     19  H   UNL     1      15.344  83.673 -19.940  1.00  0.00     0.293 HD
ENDBRANCH  15  18
BRANCH  17  20
ATOM     20  O   UNL     1      13.838  83.246 -16.527  1.00  0.00    -0.504 OA
ATOM     21  H   UNL     1      14.559  83.957 -16.557  1.00  0.00     0.293 HD
ENDBRANCH  17  20
ENDBRANCH   1  12
BRANCH   2  22
ATOM     22  O   UNL     1       8.760  83.789 -19.903  1.00  0.00    -0.502 OA
ATOM     23  H   UNL     1       9.598  83.828 -20.471  1.00  0.00     0.293 HD
ENDBRANCH   2  22
BRANCH   6  24
ATOM     24  O   UNL     1       4.354  81.367 -18.146  1.00  0.00    -0.507 OA
ATOM     25  H   UNL     1       4.133  81.693 -19.075  1.00  0.00     0.293 HD
ENDBRANCH   6  24
BRANCH   8  26
ATOM     26  O   UNL     1       6.273  77.595 -15.912  1.00  0.00    -0.508 OA
ATOM     27  H   UNL     1       5.744  77.575 -15.048  1.00  0.00     0.293 HD
ENDBRANCH   8  26
TORSDOF 6
ENDMDL
MODEL 6
REMARK VINA RESULT:    -5.687     13.864     14.962
REMARK INTER + INTRA:          -7.174
REMARK INTER:                  -6.853
REMARK INTRA:                  -0.321
REMARK UNBOUND:                -0.323
REMARK SMILES O=c1c(O)c(-c2ccc(O)c(O)c2)oc2cc(O)cc(O)c12
REMARK SMILES IDX 5 1 3 2 2 3 1 4 22 5 20 6 19 7 17 8 16 9 15 10 14 11 6 12
REMARK SMILES IDX 7 13 8 14 9 15 13 16 11 17 10 18 12 20 4 22 21 24 18 26
REMARK H PARENT 10 19 12 21 4 23 21 25 18 27
REMARK Flexibility Score: inf
ROOT
ATOM      1  C   UNL     1      10.305  80.945 -18.162  1.00  0.00     0.180 A 
ATOM      2  C   UNL     1       9.009  81.434 -17.924  1.00  0.00     0.208 A 
ATOM      3  C   UNL     1       7.999  80.532 -17.552  1.00  0.00     0.238 A 
ATOM      4  O   UNL     1       6.828  80.968 -17.394  1.00  0.00    -0.285 OA
ATOM      5  C   UNL     1       8.301  79.157 -17.405  1.00  0.00     0.111 A 
ATOM      6  C   UNL     1       7.365  78.162 -16.992  1.00  0.00     0.134 A 
ATOM      7  C   UNL     1       7.741  76.812 -17.007  1.00  0.00     0.093 A 
ATOM      8  C   UNL     1       9.036  76.430 -17.357  1.00  0.00     0.123 A 
ATOM      9  C   UNL     1       9.976  77.400 -17.704  1.00  0.00     0.094 A 
ATOM     10  C   UNL     1       9.621  78.750 -17.733  1.00  0.00     0.146 A 
ATOM     11  O   UNL     1      10.541  79.642 -18.079  1.00  0.00    -0.452 OA
ENDROOT
BRANCH   1  12
ATOM     12  C   UNL     1      11.427  81.837 -18.533  1.00  0.00     0.025 A 
ATOM     13  C   UNL     1      12.220  82.408 -17.525  1.00  0.00     0.016 A 
ATOM     14  C   UNL     1      13.270  83.270 -17.852  1.00  0.00     0.051 A 
ATOM     15  C   UNL     1      13.533  83.586 -19.191  1.00  0.00     0.157 A 
ATOM     16  C   UNL     1      11.680  82.176 -19.876  1.00  0.00     0.062 A 
ATOM     17  C   UNL     1      12.733  83.042 -20.204  1.00  0.00     0.158 A 
BRANCH  15  18
ATOM     18  O   UNL     1      14.580  84.444 -19.522  1.00  0.00    -0.504 OA
ATOM     19  H   UNL     1      15.455  84.433 -19.012  1.00  0.00     0.293 HD
ENDBRANCH  15  18
BRANCH  17  20
ATOM     20  O   UNL     1      12.987  83.370 -21.535  1.00  0.00    -0.504 OA
ATOM     21  H   UNL     1      12.595  82.831 -22.298  1.00  0.00     0.293 HD
ENDBRANCH  17  20
ENDBRANCH   1  12
BRANCH   2  22
ATOM     22  O   UNL     1       8.727  82.793 -18.096  1.00  0.00    -0.502 OA
ATOM     23  H   UNL     1       9.215  83.368 -18.772  1.00  0.00     0.293 HD
ENDBRANCH   2  22
BRANCH   6  24
ATOM     24  O   UNL     1       6.074  78.445 -16.537  1.00  0.00    -0.507 OA
ATOM     25  H   UNL     1       5.718  79.372 -16.359  1.00  0.00     0.293 HD
ENDBRANCH   6  24
BRANCH   8  26
ATOM     26  O   UNL     1       9.380  75.079 -17.346  1.00  0.00    -0.508 OA
ATOM     27  H   UNL     1       9.525  74.576 -16.479  1.00  0.00     0.293 HD
ENDBRANCH   8  26
TORSDOF 6
ENDMDL
MODEL 7
REMARK VINA RESULT:    -5.642      2.207      4.247
REMARK INTER + INTRA:          -7.119
REMARK INTER:                  -7.237
REMARK INTRA:                   0.118
REMARK UNBOUND:                -0.323
REMARK SMILES O=c1c(O)c(-c2ccc(O)c(O)c2)oc2cc(O)cc(O)c12
REMARK SMILES IDX 5 1 3 2 2 3 1 4 22 5 20 6 19 7 17 8 16 9 15 10 14 11 6 12
REMARK SMILES IDX 7 13 8 14 9 15 13 16 11 17 10 18 12 20 4 22 21 24 18 26
REMARK H PARENT 10 19 12 21 4 23 21 25 18 27
REMARK Flexibility Score: inf
ROOT
ATOM      1  C   UNL     1       3.753  77.861 -30.101  1.00  0.00     0.180 A 
ATOM      2  C   UNL     1       4.887  78.647 -30.371  1.00  0.00     0.208 A 
ATOM      3  C   UNL     1       6.138  78.020 -30.483  1.00  0.00     0.238 A 
ATOM      4  O   UNL     1       7.158  78.736 -30.672  1.00  0.00    -0.285 OA
ATOM      5  C   UNL     1       6.238  76.615 -30.340  1.00  0.00     0.111 A 
ATOM      6  C   UNL     1       7.449  75.872 -30.475  1.00  0.00     0.134 A 
ATOM      7  C   UNL     1       7.454  74.502 -30.183  1.00  0.00     0.093 A 
ATOM      8  C   UNL     1       6.281  73.838 -29.826  1.00  0.00     0.123 A 
ATOM      9  C   UNL     1       5.080  74.544 -29.750  1.00  0.00     0.094 A 
ATOM     10  C   UNL     1       5.051  75.918 -30.000  1.00  0.00     0.146 A 
ATOM     11  O   UNL     1       3.890  76.555 -29.907  1.00  0.00    -0.452 OA
ENDROOT
BRANCH   1  12
ATOM     12  C   UNL     1       2.398  78.447 -29.993  1.00  0.00     0.025 A 
ATOM     13  C   UNL     1       1.988  79.417 -30.921  1.00  0.00     0.016 A 
ATOM     14  C   UNL     1       0.721  79.999 -30.826  1.00  0.00     0.051 A 
ATOM     15  C   UNL     1      -0.149  79.630 -29.791  1.00  0.00     0.157 A 
ATOM     16  C   UNL     1       1.529  78.097 -28.942  1.00  0.00     0.062 A 
ATOM     17  C   UNL     1       0.258  78.681 -28.846  1.00  0.00     0.158 A 
BRANCH  15  18
ATOM     18  O   UNL     1      -1.413  80.207 -29.693  1.00  0.00    -0.504 OA
ATOM     19  H   UNL     1      -1.538  81.161 -29.375  1.00  0.00     0.293 HD
ENDBRANCH  15  18
BRANCH  17  20
ATOM     20  O   UNL     1      -0.603  78.328 -27.808  1.00  0.00    -0.504 OA
ATOM     21  H   UNL     1      -0.541  77.425 -27.351  1.00  0.00     0.293 HD
ENDBRANCH  17  20
ENDBRANCH   1  12
BRANCH   2  22
ATOM     22  O   UNL     1       4.769  80.035 -30.488  1.00  0.00    -0.502 OA
ATOM     23  H   UNL     1       5.068  80.538 -31.315  1.00  0.00     0.293 HD
ENDBRANCH   2  22
BRANCH   6  24
ATOM     24  O   UNL     1       8.658  76.420 -30.913  1.00  0.00    -0.507 OA
ATOM     25  H   UNL     1       8.742  77.273 -31.446  1.00  0.00     0.293 HD
ENDBRANCH   6  24
BRANCH   8  26
ATOM     26  O   UNL     1       6.319  72.471 -29.557  1.00  0.00    -0.508 OA
ATOM     27  H   UNL     1       6.895  71.840 -30.101  1.00  0.00     0.293 HD
ENDBRANCH   8  26
TORSDOF 6
ENDMDL
MODEL 8
REMARK VINA RESULT:    -5.579     13.787     15.093
REMARK INTER + INTRA:          -7.044
REMARK INTER:                  -6.711
REMARK INTRA:                  -0.333
REMARK UNBOUND:                -0.323
REMARK SMILES O=c1c(O)c(-c2ccc(O)c(O)c2)oc2cc(O)cc(O)c12
REMARK SMILES IDX 5 1 3 2 2 3 1 4 22 5 20 6 19 7 17 8 16 9 15 10 14 11 6 12
REMARK SMILES IDX 7 13 8 14 9 15 13 16 11 17 10 18 12 20 4 22 21 24 18 26
REMARK H PARENT 10 19 12 21 4 23 21 25 18 27
REMARK Flexibility Score: inf
ROOT
ATOM      1  C   UNL     1      10.604  80.483 -18.225  1.00  0.00     0.180 A 
ATOM      2  C   UNL     1      10.961  79.129 -18.105  1.00  0.00     0.208 A 
ATOM      3  C   UNL     1       9.997  78.206 -17.668  1.00  0.00     0.238 A 
ATOM      4  O   UNL     1      10.338  77.004 -17.511  1.00  0.00    -0.285 OA
ATOM      5  C   UNL     1       8.684  78.646 -17.373  1.00  0.00     0.111 A 
ATOM      6  C   UNL     1       7.617  77.792 -16.962  1.00  0.00     0.134 A 
ATOM      7  C   UNL     1       6.395  78.353 -16.570  1.00  0.00     0.093 A 
ATOM      8  C   UNL     1       6.181  79.729 -16.637  1.00  0.00     0.123 A 
ATOM      9  C   UNL     1       7.197  80.568 -17.095  1.00  0.00     0.094 A 
ATOM     10  C   UNL     1       8.439  80.041 -17.458  1.00  0.00     0.146 A 
ATOM     11  O   UNL     1       9.384  80.874 -17.878  1.00  0.00    -0.452 OA
ENDROOT
BRANCH   1  12
ATOM     12  C   UNL     1      11.558  81.509 -18.702  1.00  0.00     0.025 A 
ATOM     13  C   UNL     1      12.281  82.269 -17.768  1.00  0.00     0.016 A 
ATOM     14  C   UNL     1      13.170  83.258 -18.196  1.00  0.00     0.051 A 
ATOM     15  C   UNL     1      13.340  83.512 -19.563  1.00  0.00     0.157 A 
ATOM     16  C   UNL     1      11.715  81.783 -20.074  1.00  0.00     0.062 A 
ATOM     17  C   UNL     1      12.607  82.776 -20.503  1.00  0.00     0.158 A 
BRANCH  15  18
ATOM     18  O   UNL     1      14.227  84.496 -19.994  1.00  0.00    -0.504 OA
ATOM     19  H   UNL     1      15.157  84.264 -20.323  1.00  0.00     0.293 HD
ENDBRANCH  15  18
BRANCH  17  20
ATOM     20  O   UNL     1      12.766  83.042 -21.862  1.00  0.00    -0.504 OA
ATOM     21  H   UNL     1      12.806  82.296 -22.547  1.00  0.00     0.293 HD
ENDBRANCH  17  20
ENDBRANCH   1  12
BRANCH   2  22
ATOM     22  O   UNL     1      12.269  78.719 -18.381  1.00  0.00    -0.502 OA
ATOM     23  H   UNL     1      13.049  79.366 -18.398  1.00  0.00     0.293 HD
ENDBRANCH   2  22
BRANCH   6  24
ATOM     24  O   UNL     1       7.696  76.396 -16.946  1.00  0.00    -0.507 OA
ATOM     25  H   UNL     1       8.534  75.866 -17.132  1.00  0.00     0.293 HD
ENDBRANCH   6  24
BRANCH   8  26
ATOM     26  O   UNL     1       4.947  80.253 -16.255  1.00  0.00    -0.508 OA
ATOM     27  H   UNL     1       4.795  81.251 -16.179  1.00  0.00     0.293 HD
ENDBRANCH   8  26
TORSDOF 6
ENDMDL
MODEL 9
REMARK VINA RESULT:    -5.556     13.464     14.873
REMARK INTER + INTRA:          -7.015
REMARK INTER:                  -7.159
REMARK INTRA:                   0.143
REMARK UNBOUND:                -0.323
REMARK SMILES O=c1c(O)c(-c2ccc(O)c(O)c2)oc2cc(O)cc(O)c12
REMARK SMILES IDX 5 1 3 2 2 3 1 4 22 5 20 6 19 7 17 8 16 9 15 10 14 11 6 12
REMARK SMILES IDX 7 13 8 14 9 15 13 16 11 17 10 18 12 20 4 22 21 24 18 26
REMARK H PARENT 10 19 12 21 4 23 21 25 18 27
REMARK Flexibility Score: inf
ROOT
ATOM      1  C   UNL     1       9.090  80.657 -17.840  1.00  0.00     0.180 A 
ATOM      2  C   UNL     1       7.947  81.470 -17.935  1.00  0.00     0.208 A 
ATOM      3  C   UNL     1       6.705  80.947 -17.539  1.00  0.00     0.238 A 
ATOM      4  O   UNL     1       5.677  81.661 -17.678  1.00  0.00    -0.285 OA
ATOM      5  C   UNL     1       6.624  79.625 -17.038  1.00  0.00     0.111 A 
ATOM      6  C   UNL     1       5.425  79.008 -16.571  1.00  0.00     0.134 A 
ATOM      7  C   UNL     1       5.438  77.652 -16.219  1.00  0.00     0.093 A 
ATOM      8  C   UNL     1       6.619  76.911 -16.256  1.00  0.00     0.123 A 
ATOM      9  C   UNL     1       7.809  77.520 -16.654  1.00  0.00     0.094 A 
ATOM     10  C   UNL     1       7.820  78.861 -17.045  1.00  0.00     0.146 A 
ATOM     11  O   UNL     1       8.971  79.401 -17.428  1.00  0.00    -0.452 OA
ENDROOT
BRANCH   1  12
ATOM     12  C   UNL     1      10.436  81.146 -18.214  1.00  0.00     0.025 A 
ATOM     13  C   UNL     1      10.822  82.449 -17.859  1.00  0.00     0.016 A 
ATOM     14  C   UNL     1      12.079  82.938 -18.221  1.00  0.00     0.051 A 
ATOM     15  C   UNL     1      12.964  82.139 -18.957  1.00  0.00     0.157 A 
ATOM     16  C   UNL     1      11.319  80.355 -18.972  1.00  0.00     0.062 A 
ATOM     17  C   UNL     1      12.580  80.847 -19.337  1.00  0.00     0.158 A 
BRANCH  15  18
ATOM     18  O   UNL     1      14.219  82.623 -19.319  1.00  0.00    -0.504 OA
ATOM     19  H   UNL     1      14.513  82.662 -20.287  1.00  0.00     0.293 HD
ENDBRANCH  15  18
BRANCH  17  20
ATOM     20  O   UNL     1      13.456  80.058 -20.082  1.00  0.00    -0.504 OA
ATOM     21  H   UNL     1      13.924  80.419 -20.905  1.00  0.00     0.293 HD
ENDBRANCH  17  20
ENDBRANCH   1  12
BRANCH   2  22
ATOM     22  O   UNL     1       8.045  82.765 -18.452  1.00  0.00    -0.502 OA
ATOM     23  H   UNL     1       8.327  82.948 -19.408  1.00  0.00     0.293 HD
ENDBRANCH   2  22
BRANCH   6  24
ATOM     24  O   UNL     1       4.212  79.683 -16.409  1.00  0.00    -0.507 OA
ATOM     25  H   UNL     1       4.017  80.608 -16.761  1.00  0.00     0.293 HD
ENDBRANCH   6  24
BRANCH   8  26
ATOM     26  O   UNL     1       6.598  75.567 -15.885  1.00  0.00    -0.508 OA
ATOM     27  H   UNL     1       7.452  75.028 -15.800  1.00  0.00     0.293 HD
ENDBRANCH   8  26
TORSDOF 6
ENDMDL
