MODEL 1
REMARK VINA RESULT:    -4.042      0.000      0.000
REMARK INTER + INTRA:          -8.319
REMARK INTER:                  -7.350
REMARK INTRA:                  -0.969
REMARK UNBOUND:                -0.969
REMARK SMILES CCCCCCCCCCCCCCCC(=O)[O-]
REMARK SMILES IDX 9 1 10 2 11 3 12 4 13 5 14 6 15 7 16 8 17 9 18 10 8 11 7 12
REMARK SMILES IDX 6 13 5 14 4 15 3 16 2 17 1 18
REMARK H PARENT
REMARK Flexibility Score: inf
ROOT
ATOM      1  C   UNL     1     -98.696 -61.944 -68.742  1.00  0.00     0.000 C 
ENDROOT
BRANCH   1   2
ATOM      2  C   UNL     1     -98.010 -62.980 -69.651  1.00  0.00     0.000 C 
BRANCH   2   3
ATOM      3  C   UNL     1     -96.615 -62.534 -70.123  1.00  0.00     0.000 C 
BRANCH   3   4
ATOM      4  C   UNL     1     -96.675 -61.597 -71.339  1.00  0.00     0.000 C 
BRANCH   4   5
ATOM      5  C   UNL     1     -95.574 -60.522 -71.309  1.00  0.00     0.000 C 
BRANCH   5   6
ATOM      6  C   UNL     1     -94.176 -61.102 -71.573  1.00  0.00     0.006 C 
BRANCH   6   7
ATOM      7  C   UNL     1     -93.323 -61.189 -70.300  1.00  0.00     0.053 C 
BRANCH   7   8
ATOM      8  C   UNL     1     -93.131 -62.615 -69.896  1.00  0.00     0.041 C 
ATOM      9  O   UNL     1     -93.159 -63.529 -70.762  1.00  0.00    -0.550 OA
ATOM     10  O   UNL     1     -92.876 -62.934 -68.567  1.00  0.00    -0.550 OA
ENDBRANCH   7   8
ENDBRANCH   6   7
ENDBRANCH   5   6
ENDBRANCH   4   5
ENDBRANCH   3   4
ENDBRANCH   2   3
ENDBRANCH   1   2
BRANCH   1  11
ATOM     11  C   UNL     1     -99.805 -62.505 -67.833  1.00  0.00     0.000 C 
BRANCH  11  12
ATOM     12  C   UNL     1     -99.886 -61.791 -66.474  1.00  0.00    -0.000 C 
BRANCH  12  13
ATOM     13  C   UNL     1    -100.618 -60.440 -66.550  1.00  0.00    -0.000 C 
BRANCH  13  14
ATOM     14  C   UNL     1     -99.733 -59.234 -66.171  1.00  0.00    -0.000 C 
BRANCH  14  15
ATOM     15  C   UNL     1     -98.835 -58.788 -67.338  1.00  0.00    -0.000 C 
BRANCH  15  16
ATOM     16  C   UNL     1     -97.341 -58.764 -66.965  1.00  0.00    -0.000 C 
BRANCH  16  17
ATOM     17  C   UNL     1     -96.992 -57.822 -65.798  1.00  0.00    -0.003 C 
ATOM     18  C   UNL     1     -96.456 -58.562 -64.573  1.00  0.00     0.004 C 
ENDBRANCH  16  17
ENDBRANCH  15  16
ENDBRANCH  14  15
ENDBRANCH  13  14
ENDBRANCH  12  13
ENDBRANCH  11  12
ENDBRANCH   1  11
TORSDOF 14
ENDMDL
MODEL 2
REMARK VINA RESULT:    -3.829     14.191     15.871
REMARK INTER + INTRA:          -7.932
REMARK INTER:                  -5.762
REMARK INTRA:                  -2.170
REMARK UNBOUND:                -0.969
REMARK SMILES CCCCCCCCCCCCCCCC(=O)[O-]
REMARK SMILES IDX 9 1 10 2 11 3 12 4 13 5 14 6 15 7 16 8 17 9 18 10 8 11 7 12
REMARK SMILES IDX 6 13 5 14 4 15 3 16 2 17 1 18
REMARK H PARENT
REMARK Flexibility Score: inf
ROOT
ATOM      1  C   UNL     1     -97.758 -45.772 -68.777  1.00  0.00     0.000 C 
ENDROOT
BRANCH   1   2
ATOM      2  C   UNL     1     -98.420 -46.893 -69.598  1.00  0.00     0.000 C 
BRANCH   2   3
ATOM      3  C   UNL     1     -98.082 -46.817 -71.097  1.00  0.00     0.000 C 
BRANCH   3   4
ATOM      4  C   UNL     1     -98.549 -48.059 -71.871  1.00  0.00     0.000 C 
BRANCH   4   5
ATOM      5  C   UNL     1     -99.340 -47.698 -73.141  1.00  0.00     0.000 C 
BRANCH   5   6
ATOM      6  C   UNL     1    -100.860 -47.705 -72.912  1.00  0.00     0.006 C 
BRANCH   6   7
ATOM      7  C   UNL     1    -101.422 -46.303 -72.642  1.00  0.00     0.053 C 
BRANCH   7   8
ATOM      8  C   UNL     1    -101.813 -46.165 -71.205  1.00  0.00     0.041 C 
ATOM      9  O   UNL     1    -102.522 -47.048 -70.653  1.00  0.00    -0.550 OA
ATOM     10  O   UNL     1    -101.357 -45.084 -70.460  1.00  0.00    -0.550 OA
ENDBRANCH   7   8
ENDBRANCH   6   7
ENDBRANCH   5   6
ENDBRANCH   4   5
ENDBRANCH   3   4
ENDBRANCH   2   3
ENDBRANCH   1   2
BRANCH   1  11
ATOM     11  C   UNL     1     -96.919 -44.772 -69.593  1.00  0.00     0.000 C 
BRANCH  11  12
ATOM     12  C   UNL     1     -95.420 -44.829 -69.256  1.00  0.00    -0.000 C 
BRANCH  12  13
ATOM     13  C   UNL     1     -95.078 -45.926 -68.233  1.00  0.00    -0.000 C 
BRANCH  13  14
ATOM     14  C   UNL     1     -94.030 -46.941 -68.739  1.00  0.00    -0.000 C 
BRANCH  14  15
ATOM     15  C   UNL     1     -93.791 -46.814 -70.254  1.00  0.00    -0.000 C 
BRANCH  15  16
ATOM     16  C   UNL     1     -94.421 -47.969 -71.054  1.00  0.00    -0.000 C 
BRANCH  16  17
ATOM     17  C   UNL     1     -94.786 -47.611 -72.507  1.00  0.00    -0.003 C 
ATOM     18  C   UNL     1     -94.862 -46.103 -72.748  1.00  0.00     0.004 C 
ENDBRANCH  16  17
ENDBRANCH  15  16
ENDBRANCH  14  15
ENDBRANCH  13  14
ENDBRANCH  12  13
ENDBRANCH  11  12
ENDBRANCH   1  11
TORSDOF 14
ENDMDL
MODEL 3
REMARK VINA RESULT:    -3.739     13.759     15.249
REMARK INTER + INTRA:          -7.768
REMARK INTER:                  -5.754
REMARK INTRA:                  -2.015
REMARK UNBOUND:                -0.969
REMARK SMILES CCCCCCCCCCCCCCCC(=O)[O-]
REMARK SMILES IDX 9 1 10 2 11 3 12 4 13 5 14 6 15 7 16 8 17 9 18 10 8 11 7 12
REMARK SMILES IDX 6 13 5 14 4 15 3 16 2 17 1 18
REMARK H PARENT
REMARK Flexibility Score: inf
ROOT
ATOM      1  C   UNL     1     -97.713 -45.919 -68.714  1.00  0.00     0.000 C 
ENDROOT
BRANCH   1   2
ATOM      2  C   UNL     1     -97.005 -44.774 -69.462  1.00  0.00     0.000 C 
BRANCH   2   3
ATOM      3  C   UNL     1     -95.478 -44.789 -69.273  1.00  0.00     0.000 C 
BRANCH   3   4
ATOM      4  C   UNL     1     -95.022 -45.837 -68.246  1.00  0.00     0.000 C 
BRANCH   4   5
ATOM      5  C   UNL     1     -94.074 -46.885 -68.856  1.00  0.00     0.000 C 
BRANCH   5   6
ATOM      6  C   UNL     1     -93.902 -46.713 -70.373  1.00  0.00     0.006 C 
BRANCH   6   7
ATOM      7  C   UNL     1     -94.377 -47.940 -71.163  1.00  0.00     0.053 C 
BRANCH   7   8
ATOM      8  C   UNL     1     -94.739 -47.553 -72.561  1.00  0.00     0.041 C 
ATOM      9  O   UNL     1     -94.374 -46.442 -73.026  1.00  0.00    -0.550 OA
ATOM     10  O   UNL     1     -95.442 -48.440 -73.369  1.00  0.00    -0.550 OA
ENDBRANCH   7   8
ENDBRANCH   6   7
ENDBRANCH   5   6
ENDBRANCH   4   5
ENDBRANCH   3   4
ENDBRANCH   2   3
ENDBRANCH   1   2
BRANCH   1  11
ATOM     11  C   UNL     1     -98.488 -46.904 -69.609  1.00  0.00     0.000 C 
BRANCH  11  12
ATOM     12  C   UNL     1     -98.000 -46.902 -71.067  1.00  0.00    -0.000 C 
BRANCH  12  13
ATOM     13  C   UNL     1     -98.601 -48.048 -71.900  1.00  0.00    -0.000 C 
BRANCH  13  14
ATOM     14  C   UNL     1     -99.477 -47.565 -73.076  1.00  0.00    -0.000 C 
BRANCH  14  15
ATOM     15  C   UNL     1    -100.978 -47.744 -72.789  1.00  0.00    -0.000 C 
BRANCH  15  16
ATOM     16  C   UNL     1    -101.692 -46.411 -72.500  1.00  0.00    -0.000 C 
BRANCH  16  17
ATOM     17  C   UNL     1    -101.829 -46.074 -71.003  1.00  0.00    -0.003 C 
ATOM     18  C   UNL     1    -101.217 -44.721 -70.638  1.00  0.00     0.004 C 
ENDBRANCH  16  17
ENDBRANCH  15  16
ENDBRANCH  14  15
ENDBRANCH  13  14
ENDBRANCH  12  13
ENDBRANCH  11  12
ENDBRANCH   1  11
TORSDOF 14
ENDMDL
MODEL 4
REMARK VINA RESULT:    -3.636     14.335     16.083
REMARK INTER + INTRA:          -7.581
REMARK INTER:                  -5.505
REMARK INTRA:                  -2.076
REMARK UNBOUND:                -0.969
REMARK SMILES CCCCCCCCCCCCCCCC(=O)[O-]
REMARK SMILES IDX 9 1 10 2 11 3 12 4 13 5 14 6 15 7 16 8 17 9 18 10 8 11 7 12
REMARK SMILES IDX 6 13 5 14 4 15 3 16 2 17 1 18
REMARK H PARENT
REMARK Flexibility Score: inf
ROOT
ATOM      1  C   UNL     1     -98.657 -47.996 -71.946  1.00  0.00     0.000 C 
ENDROOT
BRANCH   1   2
ATOM      2  C   UNL     1     -99.102 -47.533 -73.346  1.00  0.00     0.000 C 
BRANCH   2   3
ATOM      3  C   UNL     1     -99.384 -46.022 -73.416  1.00  0.00     0.000 C 
BRANCH   3   4
ATOM      4  C   UNL     1    -100.855 -45.683 -73.135  1.00  0.00     0.000 C 
BRANCH   4   5
ATOM      5  C   UNL     1    -101.017 -44.687 -71.972  1.00  0.00     0.000 C 
BRANCH   5   6
ATOM      6  C   UNL     1    -101.597 -45.343 -70.709  1.00  0.00     0.006 C 
BRANCH   6   7
ATOM      7  C   UNL     1    -102.083 -46.777 -70.960  1.00  0.00     0.053 C 
BRANCH   7   8
ATOM      8  C   UNL     1    -103.471 -46.957 -70.435  1.00  0.00     0.041 C 
ATOM      9  O   UNL     1    -103.730 -47.895 -69.635  1.00  0.00    -0.550 OA
ATOM     10  O   UNL     1    -104.473 -46.062 -70.793  1.00  0.00    -0.550 OA
ENDBRANCH   7   8
ENDBRANCH   6   7
ENDBRANCH   5   6
ENDBRANCH   4   5
ENDBRANCH   3   4
ENDBRANCH   2   3
ENDBRANCH   1   2
BRANCH   1  11
ATOM     11  C   UNL     1     -97.988 -46.912 -71.082  1.00  0.00     0.000 C 
BRANCH  11  12
ATOM     12  C   UNL     1     -98.460 -46.933 -69.619  1.00  0.00    -0.000 C 
BRANCH  12  13
ATOM     13  C   UNL     1     -97.826 -45.817 -68.770  1.00  0.00    -0.000 C 
BRANCH  13  14
ATOM     14  C   UNL     1     -96.989 -44.814 -69.592  1.00  0.00    -0.000 C 
BRANCH  14  15
ATOM     15  C   UNL     1     -95.543 -44.709 -69.074  1.00  0.00    -0.000 C 
BRANCH  15  16
ATOM     16  C   UNL     1     -95.099 -45.959 -68.293  1.00  0.00    -0.000 C 
BRANCH  16  17
ATOM     17  C   UNL     1     -93.958 -46.752 -68.956  1.00  0.00    -0.003 C 
ATOM     18  C   UNL     1     -94.381 -47.430 -70.260  1.00  0.00     0.004 C 
ENDBRANCH  16  17
ENDBRANCH  15  16
ENDBRANCH  14  15
ENDBRANCH  13  14
ENDBRANCH  12  13
ENDBRANCH  11  12
ENDBRANCH   1  11
TORSDOF 14
ENDMDL
MODEL 5
REMARK VINA RESULT:    -3.584      3.292      7.454
REMARK INTER + INTRA:          -7.486
REMARK INTER:                  -6.494
REMARK INTRA:                  -0.992
REMARK UNBOUND:                -0.969
REMARK SMILES CCCCCCCCCCCCCCCC(=O)[O-]
REMARK SMILES IDX 9 1 10 2 11 3 12 4 13 5 14 6 15 7 16 8 17 9 18 10 8 11 7 12
REMARK SMILES IDX 6 13 5 14 4 15 3 16 2 17 1 18
REMARK H PARENT
REMARK Flexibility Score: inf
ROOT
ATOM      1  C   UNL     1     -97.088 -60.436 -68.856  1.00  0.00     0.000 C 
ENDROOT
BRANCH   1   2
ATOM      2  C   UNL     1     -97.328 -59.092 -68.142  1.00  0.00     0.000 C 
BRANCH   2   3
ATOM      3  C   UNL     1     -98.159 -59.237 -66.856  1.00  0.00     0.000 C 
BRANCH   3   4
ATOM      4  C   UNL     1     -99.520 -59.905 -67.105  1.00  0.00     0.000 C 
BRANCH   4   5
ATOM      5  C   UNL     1    -100.123 -60.508 -65.823  1.00  0.00     0.000 C 
BRANCH   5   6
ATOM      6  C   UNL     1     -99.631 -61.938 -65.554  1.00  0.00     0.006 C 
BRANCH   6   7
ATOM      7  C   UNL     1     -98.586 -62.001 -64.432  1.00  0.00     0.053 C 
BRANCH   7   8
ATOM      8  C   UNL     1     -98.696 -63.293 -63.688  1.00  0.00     0.041 C 
ATOM      9  O   UNL     1     -97.658 -63.925 -63.359  1.00  0.00    -0.550 OA
ATOM     10  O   UNL     1     -99.944 -63.779 -63.316  1.00  0.00    -0.550 OA
ENDBRANCH   7   8
ENDBRANCH   6   7
ENDBRANCH   5   6
ENDBRANCH   4   5
ENDBRANCH   3   4
ENDBRANCH   2   3
ENDBRANCH   1   2
BRANCH   1  11
ATOM     11  C   UNL     1     -96.244 -60.352 -70.140  1.00  0.00     0.000 C 
BRANCH  11  12
ATOM     12  C   UNL     1     -94.902 -61.093 -70.027  1.00  0.00    -0.000 C 
BRANCH  12  13
ATOM     13  C   UNL     1     -95.048 -62.619 -70.162  1.00  0.00    -0.000 C 
BRANCH  13  14
ATOM     14  C   UNL     1     -93.715 -63.346 -70.441  1.00  0.00    -0.000 C 
BRANCH  14  15
ATOM     15  C   UNL     1     -93.707 -64.027 -71.821  1.00  0.00    -0.000 C 
BRANCH  15  16
ATOM     16  C   UNL     1     -94.971 -63.717 -72.644  1.00  0.00    -0.000 C 
BRANCH  16  17
ATOM     17  C   UNL     1     -94.703 -62.973 -73.966  1.00  0.00    -0.003 C 
ATOM     18  C   UNL     1     -93.608 -61.913 -73.842  1.00  0.00     0.004 C 
ENDBRANCH  16  17
ENDBRANCH  15  16
ENDBRANCH  14  15
ENDBRANCH  13  14
ENDBRANCH  12  13
ENDBRANCH  11  12
ENDBRANCH   1  11
TORSDOF 14
ENDMDL
MODEL 6
REMARK VINA RESULT:    -3.546     14.294     15.748
REMARK INTER + INTRA:          -7.417
REMARK INTER:                  -5.411
REMARK INTRA:                  -2.005
REMARK UNBOUND:                -0.969
REMARK SMILES CCCCCCCCCCCCCCCC(=O)[O-]
REMARK SMILES IDX 9 1 10 2 11 3 12 4 13 5 14 6 15 7 16 8 17 9 18 10 8 11 7 12
REMARK SMILES IDX 6 13 5 14 4 15 3 16 2 17 1 18
REMARK H PARENT
REMARK Flexibility Score: inf
ROOT
ATOM      1  C   UNL     1     -95.190 -47.984 -72.433  1.00  0.00     0.000 C 
ENDROOT
BRANCH   1   2
ATOM      2  C   UNL     1     -95.810 -46.602 -72.708  1.00  0.00     0.000 C 
BRANCH   2   3
ATOM      3  C   UNL     1     -97.324 -46.667 -72.976  1.00  0.00     0.000 C 
BRANCH   3   4
ATOM      4  C   UNL     1     -98.018 -47.779 -72.174  1.00  0.00     0.000 C 
BRANCH   4   5
ATOM      5  C   UNL     1     -99.480 -47.991 -72.606  1.00  0.00     0.000 C 
BRANCH   5   6
ATOM      6  C   UNL     1    -100.332 -46.721 -72.449  1.00  0.00     0.006 C 
BRANCH   6   7
ATOM      7  C   UNL     1    -100.945 -46.591 -71.049  1.00  0.00     0.053 C 
BRANCH   7   8
ATOM      8  C   UNL     1    -102.416 -46.851 -71.097  1.00  0.00     0.041 C 
ATOM      9  O   UNL     1    -103.187 -46.283 -70.278  1.00  0.00    -0.550 OA
ATOM     10  O   UNL     1    -102.945 -47.686 -72.074  1.00  0.00    -0.550 OA
ENDBRANCH   7   8
ENDBRANCH   6   7
ENDBRANCH   5   6
ENDBRANCH   4   5
ENDBRANCH   3   4
ENDBRANCH   2   3
ENDBRANCH   1   2
BRANCH   1  11
ATOM     11  C   UNL     1     -94.115 -48.011 -71.331  1.00  0.00     0.000 C 
BRANCH  11  12
ATOM     12  C   UNL     1     -93.278 -46.722 -71.276  1.00  0.00    -0.000 C 
BRANCH  12  13
ATOM     13  C   UNL     1     -93.329 -46.035 -69.900  1.00  0.00    -0.000 C 
BRANCH  13  14
ATOM     14  C   UNL     1     -94.064 -46.861 -68.822  1.00  0.00    -0.000 C 
BRANCH  14  15
ATOM     15  C   UNL     1     -95.240 -46.085 -68.204  1.00  0.00    -0.000 C 
BRANCH  15  16
ATOM     16  C   UNL     1     -95.743 -44.946 -69.109  1.00  0.00    -0.000 C 
BRANCH  16  17
ATOM     17  C   UNL     1     -97.194 -45.114 -69.597  1.00  0.00    -0.003 C 
ATOM     18  C   UNL     1     -97.962 -46.187 -68.826  1.00  0.00     0.004 C 
ENDBRANCH  16  17
ENDBRANCH  15  16
ENDBRANCH  14  15
ENDBRANCH  13  14
ENDBRANCH  12  13
ENDBRANCH  11  12
ENDBRANCH   1  11
TORSDOF 14
ENDMDL
MODEL 7
REMARK VINA RESULT:    -3.531     14.356     15.906
REMARK INTER + INTRA:          -7.390
REMARK INTER:                  -5.023
REMARK INTRA:                  -2.367
REMARK UNBOUND:                -0.969
REMARK SMILES CCCCCCCCCCCCCCCC(=O)[O-]
REMARK SMILES IDX 9 1 10 2 11 3 12 4 13 5 14 6 15 7 16 8 17 9 18 10 8 11 7 12
REMARK SMILES IDX 6 13 5 14 4 15 3 16 2 17 1 18
REMARK H PARENT
REMARK Flexibility Score: inf
ROOT
ATOM      1  C   UNL     1     -94.151 -47.606 -70.071  1.00  0.00     0.000 C 
ENDROOT
BRANCH   1   2
ATOM      2  C   UNL     1     -94.188 -47.287 -71.577  1.00  0.00     0.000 C 
BRANCH   2   3
ATOM      3  C   UNL     1     -95.527 -47.659 -72.237  1.00  0.00     0.000 C 
BRANCH   3   4
ATOM      4  C   UNL     1     -96.149 -46.488 -73.012  1.00  0.00     0.000 C 
BRANCH   4   5
ATOM      5  C   UNL     1     -97.639 -46.715 -73.325  1.00  0.00     0.000 C 
BRANCH   5   6
ATOM      6  C   UNL     1     -98.318 -47.654 -72.315  1.00  0.00     0.006 C 
BRANCH   6   7
ATOM      7  C   UNL     1     -99.762 -47.994 -72.706  1.00  0.00     0.053 C 
BRANCH   7   8
ATOM      8  C   UNL     1    -100.722 -47.092 -71.999  1.00  0.00     0.041 C 
ATOM      9  O   UNL     1    -100.372 -46.493 -70.948  1.00  0.00    -0.550 OA
ATOM     10  O   UNL     1    -101.990 -46.874 -72.525  1.00  0.00    -0.550 OA
ENDBRANCH   7   8
ENDBRANCH   6   7
ENDBRANCH   5   6
ENDBRANCH   4   5
ENDBRANCH   3   4
ENDBRANCH   2   3
ENDBRANCH   1   2
BRANCH   1  11
ATOM     11  C   UNL     1     -93.628 -46.469 -69.175  1.00  0.00     0.000 C 
BRANCH  11  12
ATOM     12  C   UNL     1     -93.023 -45.303 -69.974  1.00  0.00    -0.000 C 
BRANCH  12  13
ATOM     13  C   UNL     1     -93.680 -43.950 -69.647  1.00  0.00    -0.000 C 
BRANCH  13  14
ATOM     14  C   UNL     1     -95.139 -44.073 -69.158  1.00  0.00    -0.000 C 
BRANCH  14  15
ATOM     15  C   UNL     1     -96.146 -43.954 -70.316  1.00  0.00    -0.000 C 
BRANCH  15  16
ATOM     16  C   UNL     1     -97.458 -44.711 -70.043  1.00  0.00    -0.000 C 
BRANCH  16  17
ATOM     17  C   UNL     1     -97.283 -46.025 -69.259  1.00  0.00    -0.003 C 
ATOM     18  C   UNL     1     -98.149 -46.089 -68.000  1.00  0.00     0.004 C 
ENDBRANCH  16  17
ENDBRANCH  15  16
ENDBRANCH  14  15
ENDBRANCH  13  14
ENDBRANCH  12  13
ENDBRANCH  11  12
ENDBRANCH   1  11
TORSDOF 14
ENDMDL
MODEL 8
REMARK VINA RESULT:    -3.477     17.956     21.130
REMARK INTER + INTRA:          -7.292
REMARK INTER:                  -5.022
REMARK INTRA:                  -2.271
REMARK UNBOUND:                -0.969
REMARK SMILES CCCCCCCCCCCCCCCC(=O)[O-]
REMARK SMILES IDX 9 1 10 2 11 3 12 4 13 5 14 6 15 7 16 8 17 9 18 10 8 11 7 12
REMARK SMILES IDX 6 13 5 14 4 15 3 16 2 17 1 18
REMARK H PARENT
REMARK Flexibility Score: inf
ROOT
ATOM      1  C   UNL     1    -107.934 -48.753 -55.002  1.00  0.00     0.000 C 
ENDROOT
BRANCH   1   2
ATOM      2  C   UNL     1    -107.472 -49.030 -56.445  1.00  0.00     0.000 C 
BRANCH   2   3
ATOM      3  C   UNL     1    -107.067 -47.753 -57.201  1.00  0.00     0.000 C 
BRANCH   3   4
ATOM      4  C   UNL     1    -107.837 -47.578 -58.518  1.00  0.00     0.000 C 
BRANCH   4   5
ATOM      5  C   UNL     1    -108.922 -48.653 -58.712  1.00  0.00     0.000 C 
BRANCH   5   6
ATOM      6  C   UNL     1    -109.187 -48.963 -60.194  1.00  0.00     0.006 C 
BRANCH   6   7
ATOM      7  C   UNL     1    -108.211 -48.240 -61.131  1.00  0.00     0.053 C 
BRANCH   7   8
ATOM      8  C   UNL     1    -108.099 -48.969 -62.432  1.00  0.00     0.041 C 
ATOM      9  O   UNL     1    -108.592 -48.474 -63.480  1.00  0.00    -0.550 OA
ATOM     10  O   UNL     1    -107.410 -50.174 -62.498  1.00  0.00    -0.550 OA
ENDBRANCH   7   8
ENDBRANCH   6   7
ENDBRANCH   5   6
ENDBRANCH   4   5
ENDBRANCH   3   4
ENDBRANCH   2   3
ENDBRANCH   1   2
BRANCH   1  11
ATOM     11  C   UNL     1    -108.873 -47.544 -54.838  1.00  0.00     0.000 C 
BRANCH  11  12
ATOM     12  C   UNL     1    -110.318 -47.843 -55.268  1.00  0.00    -0.000 C 
BRANCH  12  13
ATOM     13  C   UNL     1    -110.900 -46.764 -56.198  1.00  0.00    -0.000 C 
BRANCH  13  14
ATOM     14  C   UNL     1    -109.983 -45.533 -56.369  1.00  0.00    -0.000 C 
BRANCH  14  15
ATOM     15  C   UNL     1    -110.469 -44.605 -57.496  1.00  0.00    -0.000 C 
BRANCH  15  16
ATOM     16  C   UNL     1    -110.597 -45.329 -58.849  1.00  0.00    -0.000 C 
BRANCH  16  17
ATOM     17  C   UNL     1    -109.659 -44.796 -59.948  1.00  0.00    -0.003 C 
ATOM     18  C   UNL     1    -110.277 -44.865 -61.345  1.00  0.00     0.004 C 
ENDBRANCH  16  17
ENDBRANCH  15  16
ENDBRANCH  14  15
ENDBRANCH  13  14
ENDBRANCH  12  13
ENDBRANCH  11  12
ENDBRANCH   1  11
TORSDOF 14
ENDMDL
MODEL 9
REMARK VINA RESULT:    -3.472     16.302     19.341
REMARK INTER + INTRA:          -7.284
REMARK INTER:                  -5.357
REMARK INTRA:                  -1.926
REMARK UNBOUND:                -0.969
REMARK SMILES CCCCCCCCCCCCCCCC(=O)[O-]
REMARK SMILES IDX 9 1 10 2 11 3 12 4 13 5 14 6 15 7 16 8 17 9 18 10 8 11 7 12
REMARK SMILES IDX 6 13 5 14 4 15 3 16 2 17 1 18
REMARK H PARENT
REMARK Flexibility Score: inf
ROOT
ATOM      1  C   UNL     1    -109.806 -46.407 -59.527  1.00  0.00     0.000 C 
ENDROOT
BRANCH   1   2
ATOM      2  C   UNL     1    -109.143 -46.325 -60.914  1.00  0.00     0.000 C 
BRANCH   2   3
ATOM      3  C   UNL     1    -109.991 -46.972 -62.023  1.00  0.00     0.000 C 
BRANCH   3   4
ATOM      4  C   UNL     1    -109.191 -47.976 -62.867  1.00  0.00     0.000 C 
BRANCH   4   5
ATOM      5  C   UNL     1    -108.105 -48.698 -62.049  1.00  0.00     0.000 C 
BRANCH   5   6
ATOM      6  C   UNL     1    -108.166 -50.226 -62.205  1.00  0.00     0.006 C 
BRANCH   6   7
ATOM      7  C   UNL     1    -108.375 -50.661 -63.662  1.00  0.00     0.053 C 
BRANCH   7   8
ATOM      8  C   UNL     1    -107.096 -50.556 -64.428  1.00  0.00     0.041 C 
ATOM      9  O   UNL     1    -106.147 -51.348 -64.189  1.00  0.00    -0.550 OA
ATOM     10  O   UNL     1    -106.966 -49.611 -65.440  1.00  0.00    -0.550 OA
ENDBRANCH   7   8
ENDBRANCH   6   7
ENDBRANCH   5   6
ENDBRANCH   4   5
ENDBRANCH   3   4
ENDBRANCH   2   3
ENDBRANCH   1   2
BRANCH   1  11
ATOM     11  C   UNL     1    -110.917 -47.464 -59.395  1.00  0.00     0.000 C 
BRANCH  11  12
ATOM     12  C   UNL     1    -110.592 -48.551 -58.358  1.00  0.00    -0.000 C 
BRANCH  12  13
ATOM     13  C   UNL     1    -109.146 -49.065 -58.462  1.00  0.00    -0.000 C 
BRANCH  13  14
ATOM     14  C   UNL     1    -108.662 -49.813 -57.201  1.00  0.00    -0.000 C 
BRANCH  14  15
ATOM     15  C   UNL     1    -107.383 -49.188 -56.615  1.00  0.00    -0.000 C 
BRANCH  15  16
ATOM     16  C   UNL     1    -107.279 -47.677 -56.893  1.00  0.00    -0.000 C 
BRANCH  16  17
ATOM     17  C   UNL     1    -107.682 -46.783 -55.705  1.00  0.00    -0.003 C 
ATOM     18  C   UNL     1    -109.020 -46.075 -55.919  1.00  0.00     0.004 C 
ENDBRANCH  16  17
ENDBRANCH  15  16
ENDBRANCH  14  15
ENDBRANCH  13  14
ENDBRANCH  12  13
ENDBRANCH  11  12
ENDBRANCH   1  11
TORSDOF 14
ENDMDL
