MODEL 1
REMARK VINA RESULT:    -4.247      0.000      0.000
REMARK INTER + INTRA:          -8.083
REMARK INTER:                  -6.110
REMARK INTRA:                  -1.974
REMARK UNBOUND:                -1.974
REMARK SMILES O=c1c(O[C@H]2O[C@H](CO)[C@@H](O)[C@H](O)[C@H]2O)c(-c2ccc(O)cc2)oc2cc(O)cc(O)c12
REMARK SMILES IDX 4 1 3 2 16 3 24 4 2 5 25 6 1 7 32 8 26 9 30 10 27 11 29 12
REMARK SMILES IDX 17 13 18 14 19 15 20 16 23 17 22 18 21 19 31 21 28 23 5 25
REMARK SMILES IDX 14 26 6 27 12 28 7 29 10 30 15 31 13 33 8 35 9 36 11 38
REMARK H PARENT 21 20 31 22 28 24 15 32 13 34 9 37 11 39
REMARK Flexibility Score: inf
ROOT
ATOM      1  O   UNL     1       4.590  -0.271  -8.322  1.00  0.00    -0.454 OA
ENDROOT
BRANCH   1   2
ATOM      2  C   UNL     1       4.037   1.005  -8.554  1.00  0.00     0.214 A 
ATOM      3  C   UNL     1       2.669   1.082  -8.883  1.00  0.00     0.180 A 
ATOM      4  O   UNL     1       2.112   2.254  -9.168  1.00  0.00    -0.452 OA
ATOM      5  C   UNL     1       4.782   2.207  -8.508  1.00  0.00     0.239 A 
ATOM      6  C   UNL     1       2.774   3.402  -9.140  1.00  0.00     0.146 A 
ATOM      7  O   UNL     1       6.006   2.188  -8.216  1.00  0.00    -0.285 OA
ATOM      8  C   UNL     1       4.145   3.433  -8.800  1.00  0.00     0.111 A 
ATOM      9  C   UNL     1       2.095   4.585  -9.450  1.00  0.00     0.094 A 
ATOM     10  C   UNL     1       4.819   4.680  -8.777  1.00  0.00     0.134 A 
ATOM     11  C   UNL     1       2.766   5.812  -9.426  1.00  0.00     0.123 A 
ATOM     12  C   UNL     1       4.121   5.855  -9.090  1.00  0.00     0.093 A 
BRANCH   3  13
ATOM     13  C   UNL     1       1.815  -0.125  -8.950  1.00  0.00     0.021 A 
ATOM     14  C   UNL     1       1.814  -0.956 -10.084  1.00  0.00     0.016 A 
ATOM     15  C   UNL     1       1.005  -2.095 -10.125  1.00  0.00     0.047 A 
ATOM     16  C   UNL     1       0.203  -2.429  -9.025  1.00  0.00     0.115 A 
ATOM     17  C   UNL     1       1.025  -0.477  -7.844  1.00  0.00     0.016 A 
ATOM     18  C   UNL     1       0.219  -1.619  -7.886  1.00  0.00     0.047 A 
BRANCH  16  19
ATOM     19  O   UNL     1      -0.607  -3.561  -9.053  1.00  0.00    -0.508 OA
ATOM     20  H   UNL     1      -1.613  -3.490  -9.158  1.00  0.00     0.293 HD
ENDBRANCH  16  19
ENDBRANCH   3  13
BRANCH  10  21
ATOM     21  O   UNL     1       6.173   4.760  -8.446  1.00  0.00    -0.507 OA
ATOM     22  H   UNL     1       6.517   5.427  -7.764  1.00  0.00     0.293 HD
ENDBRANCH  10  21
BRANCH  11  23
ATOM     23  O   UNL     1       2.096   6.993  -9.733  1.00  0.00    -0.508 OA
ATOM     24  H   UNL     1       1.245   6.991 -10.284  1.00  0.00     0.293 HD
ENDBRANCH  11  23
ENDBRANCH   1   2
BRANCH   1  25
ATOM     25  C   UNL     1       4.864  -0.888  -7.058  1.00  0.00     0.339 C 
ATOM     26  C   UNL     1       6.341  -1.321  -6.976  1.00  0.00     0.214 C 
ATOM     27  O   UNL     1       4.006  -1.996  -6.822  1.00  0.00    -0.332 OA
ATOM     28  C   UNL     1       6.625  -2.460  -7.976  1.00  0.00     0.180 C 
ATOM     29  C   UNL     1       4.149  -3.002  -7.816  1.00  0.00     0.179 C 
ATOM     30  C   UNL     1       5.587  -3.588  -7.798  1.00  0.00     0.177 C 
BRANCH  26  31
ATOM     31  O   UNL     1       7.203  -0.230  -7.184  1.00  0.00    -0.384 OA
ATOM     32  H   UNL     1       6.995   0.459  -6.500  1.00  0.00     0.211 HD
ENDBRANCH  26  31
BRANCH  28  33
ATOM     33  O   UNL     1       7.933  -2.952  -7.821  1.00  0.00    -0.387 OA
ATOM     34  H   UNL     1       8.367  -2.946  -8.715  1.00  0.00     0.211 HD
ENDBRANCH  28  33
BRANCH  29  35
ATOM     35  C   UNL     1       3.100  -4.086  -7.536  1.00  0.00     0.191 C 
BRANCH  35  36
ATOM     36  O   UNL     1       3.651  -5.115  -6.761  1.00  0.00    -0.394 OA
ATOM     37  H   UNL     1       4.186  -4.671  -6.054  1.00  0.00     0.210 HD
ENDBRANCH  35  36
ENDBRANCH  29  35
BRANCH  30  38
ATOM     38  O   UNL     1       5.759  -4.567  -8.793  1.00  0.00    -0.387 OA
ATOM     39  H   UNL     1       4.878  -5.003  -8.942  1.00  0.00     0.211 HD
ENDBRANCH  30  38
ENDBRANCH   1  25
TORSDOF 11
ENDMDL
MODEL 2
REMARK VINA RESULT:    -4.196      3.062      7.276
REMARK INTER + INTRA:          -8.010
REMARK INTER:                  -6.624
REMARK INTRA:                  -1.386
REMARK UNBOUND:                -1.974
REMARK SMILES O=c1c(O[C@H]2O[C@H](CO)[C@@H](O)[C@H](O)[C@H]2O)c(-c2ccc(O)cc2)oc2cc(O)cc(O)c12
REMARK SMILES IDX 4 1 3 2 16 3 24 4 2 5 25 6 1 7 32 8 26 9 30 10 27 11 29 12
REMARK SMILES IDX 17 13 18 14 19 15 20 16 23 17 22 18 21 19 31 21 28 23 5 25
REMARK SMILES IDX 14 26 6 27 12 28 7 29 10 30 15 31 13 33 8 35 9 36 11 38
REMARK H PARENT 21 20 31 22 28 24 15 32 13 34 9 37 11 39
REMARK Flexibility Score: inf
ROOT
ATOM      1  O   UNL     1       5.200  -1.907  -6.154  1.00  0.00    -0.454 OA
ENDROOT
BRANCH   1   2
ATOM      2  C   UNL     1       4.235  -2.741  -6.755  1.00  0.00     0.214 A 
ATOM      3  C   UNL     1       4.206  -4.098  -6.374  1.00  0.00     0.180 A 
ATOM      4  O   UNL     1       3.355  -4.939  -6.952  1.00  0.00    -0.452 OA
ATOM      5  C   UNL     1       3.317  -2.303  -7.738  1.00  0.00     0.239 A 
ATOM      6  C   UNL     1       2.482  -4.570  -7.879  1.00  0.00     0.146 A 
ATOM      7  O   UNL     1       3.304  -1.100  -8.107  1.00  0.00    -0.285 OA
ATOM      8  C   UNL     1       2.418  -3.227  -8.313  1.00  0.00     0.111 A 
ATOM      9  C   UNL     1       1.623  -5.531  -8.423  1.00  0.00     0.094 A 
ATOM     10  C   UNL     1       1.469  -2.870  -9.303  1.00  0.00     0.134 A 
ATOM     11  C   UNL     1       0.690  -5.172  -9.400  1.00  0.00     0.123 A 
ATOM     12  C   UNL     1       0.615  -3.848  -9.835  1.00  0.00     0.093 A 
BRANCH   3  13
ATOM     13  C   UNL     1       5.127  -4.640  -5.350  1.00  0.00     0.021 A 
ATOM     14  C   UNL     1       6.388  -5.155  -5.702  1.00  0.00     0.016 A 
ATOM     15  C   UNL     1       7.246  -5.656  -4.719  1.00  0.00     0.047 A 
ATOM     16  C   UNL     1       6.864  -5.629  -3.371  1.00  0.00     0.115 A 
ATOM     17  C   UNL     1       4.760  -4.597  -3.996  1.00  0.00     0.016 A 
ATOM     18  C   UNL     1       5.622  -5.095  -3.014  1.00  0.00     0.047 A 
BRANCH  16  19
ATOM     19  O   UNL     1       7.710  -6.125  -2.382  1.00  0.00    -0.508 OA
ATOM     20  H   UNL     1       7.415  -6.867  -1.756  1.00  0.00     0.293 HD
ENDBRANCH  16  19
ENDBRANCH   3  13
BRANCH  10  21
ATOM     21  O   UNL     1       1.367  -1.556  -9.762  1.00  0.00    -0.507 OA
ATOM     22  H   UNL     1       0.914  -0.833  -9.215  1.00  0.00     0.293 HD
ENDBRANCH  10  21
BRANCH  11  23
ATOM     23  O   UNL     1      -0.169  -6.124  -9.945  1.00  0.00    -0.508 OA
ATOM     24  H   UNL     1      -0.155  -6.346 -10.933  1.00  0.00     0.293 HD
ENDBRANCH  11  23
ENDBRANCH   1   2
BRANCH   1  25
ATOM     25  C   UNL     1       6.600  -1.834  -6.453  1.00  0.00     0.339 C 
ATOM     26  C   UNL     1       7.386  -1.301  -5.240  1.00  0.00     0.214 C 
ATOM     27  O   UNL     1       6.846  -1.030  -7.599  1.00  0.00    -0.332 OA
ATOM     28  C   UNL     1       7.023   0.172  -4.967  1.00  0.00     0.180 C 
ATOM     29  C   UNL     1       6.388   0.304  -7.422  1.00  0.00     0.179 C 
ATOM     30  C   UNL     1       7.155   0.997  -6.264  1.00  0.00     0.177 C 
BRANCH  26  31
ATOM     31  O   UNL     1       7.172  -2.101  -4.104  1.00  0.00    -0.384 OA
ATOM     32  H   UNL     1       8.031  -2.171  -3.612  1.00  0.00     0.211 HD
ENDBRANCH  26  31
BRANCH  28  33
ATOM     33  O   UNL     1       7.825   0.709  -3.945  1.00  0.00    -0.387 OA
ATOM     34  H   UNL     1       8.353   1.455  -4.334  1.00  0.00     0.211 HD
ENDBRANCH  28  33
BRANCH  29  35
ATOM     35  C   UNL     1       6.590   1.046  -8.750  1.00  0.00     0.191 C 
BRANCH  35  36
ATOM     36  O   UNL     1       5.741   2.158  -8.825  1.00  0.00    -0.394 OA
ATOM     37  H   UNL     1       6.011   2.658  -9.638  1.00  0.00     0.210 HD
ENDBRANCH  35  36
ENDBRANCH  29  35
BRANCH  30  38
ATOM     38  O   UNL     1       6.698   2.311  -6.054  1.00  0.00    -0.387 OA
ATOM     39  H   UNL     1       7.001   2.862  -6.824  1.00  0.00     0.211 HD
ENDBRANCH  30  38
ENDBRANCH   1  25
TORSDOF 11
ENDMDL
MODEL 3
REMARK VINA RESULT:    -3.813      2.136      6.645
REMARK INTER + INTRA:          -7.458
REMARK INTER:                  -6.478
REMARK INTRA:                  -0.980
REMARK UNBOUND:                -1.974
REMARK SMILES O=c1c(O[C@H]2O[C@H](CO)[C@@H](O)[C@H](O)[C@H]2O)c(-c2ccc(O)cc2)oc2cc(O)cc(O)c12
REMARK SMILES IDX 4 1 3 2 16 3 24 4 2 5 25 6 1 7 32 8 26 9 30 10 27 11 29 12
REMARK SMILES IDX 17 13 18 14 19 15 20 16 23 17 22 18 21 19 31 21 28 23 5 25
REMARK SMILES IDX 14 26 6 27 12 28 7 29 10 30 15 31 13 33 8 35 9 36 11 38
REMARK H PARENT 21 20 31 22 28 24 15 32 13 34 9 37 11 39
REMARK Flexibility Score: inf
ROOT
ATOM      1  O   UNL     1       4.404  -0.076  -7.667  1.00  0.00    -0.454 OA
ENDROOT
BRANCH   1   2
ATOM      2  C   UNL     1       4.707  -1.207  -6.881  1.00  0.00     0.214 A 
ATOM      3  C   UNL     1       3.808  -2.293  -6.912  1.00  0.00     0.180 A 
ATOM      4  O   UNL     1       4.017  -3.358  -6.146  1.00  0.00    -0.452 OA
ATOM      5  C   UNL     1       5.841  -1.302  -6.041  1.00  0.00     0.239 A 
ATOM      6  C   UNL     1       5.064  -3.485  -5.343  1.00  0.00     0.146 A 
ATOM      7  O   UNL     1       6.673  -0.359  -5.983  1.00  0.00    -0.285 OA
ATOM      8  C   UNL     1       6.033  -2.461  -5.258  1.00  0.00     0.111 A 
ATOM      9  C   UNL     1       5.197  -4.650  -4.581  1.00  0.00     0.094 A 
ATOM     10  C   UNL     1       7.141  -2.634  -4.391  1.00  0.00     0.134 A 
ATOM     11  C   UNL     1       6.293  -4.815  -3.727  1.00  0.00     0.123 A 
ATOM     12  C   UNL     1       7.258  -3.810  -3.636  1.00  0.00     0.093 A 
BRANCH   3  13
ATOM     13  C   UNL     1       2.599  -2.279  -7.765  1.00  0.00     0.021 A 
ATOM     14  C   UNL     1       2.364  -3.290  -8.714  1.00  0.00     0.016 A 
ATOM     15  C   UNL     1       1.212  -3.263  -9.505  1.00  0.00     0.047 A 
ATOM     16  C   UNL     1       0.272  -2.237  -9.344  1.00  0.00     0.115 A 
ATOM     17  C   UNL     1       1.642  -1.266  -7.594  1.00  0.00     0.016 A 
ATOM     18  C   UNL     1       0.489  -1.243  -8.384  1.00  0.00     0.047 A 
BRANCH  16  19
ATOM     19  O   UNL     1      -0.880  -2.199 -10.125  1.00  0.00    -0.508 OA
ATOM     20  H   UNL     1      -1.383  -1.332 -10.285  1.00  0.00     0.293 HD
ENDBRANCH  16  19
ENDBRANCH   3  13
BRANCH  10  21
ATOM     21  O   UNL     1       8.125  -1.650  -4.274  1.00  0.00    -0.507 OA
ATOM     22  H   UNL     1       7.894  -0.689  -4.050  1.00  0.00     0.293 HD
ENDBRANCH  10  21
BRANCH  11  23
ATOM     23  O   UNL     1       6.431  -5.973  -2.966  1.00  0.00    -0.508 OA
ATOM     24  H   UNL     1       6.018  -6.851  -3.258  1.00  0.00     0.293 HD
ENDBRANCH  11  23
ENDBRANCH   1   2
BRANCH   1  25
ATOM     25  C   UNL     1       4.717   0.138  -9.048  1.00  0.00     0.339 C 
ATOM     26  C   UNL     1       6.071   0.860  -9.191  1.00  0.00     0.214 C 
ATOM     27  O   UNL     1       3.692   0.867  -9.709  1.00  0.00    -0.332 OA
ATOM     28  C   UNL     1       5.977   2.297  -8.641  1.00  0.00     0.180 C 
ATOM     29  C   UNL     1       3.488   2.147  -9.126  1.00  0.00     0.179 C 
ATOM     30  C   UNL     1       4.765   3.020  -9.264  1.00  0.00     0.177 C 
BRANCH  26  31
ATOM     31  O   UNL     1       7.101   0.137  -8.563  1.00  0.00    -0.384 OA
ATOM     32  H   UNL     1       7.252  -0.696  -9.083  1.00  0.00     0.211 HD
ENDBRANCH  26  31
BRANCH  28  33
ATOM     33  O   UNL     1       7.165   3.008  -8.881  1.00  0.00    -0.387 OA
ATOM     34  H   UNL     1       7.834   2.368  -9.241  1.00  0.00     0.211 HD
ENDBRANCH  28  33
BRANCH  29  35
ATOM     35  C   UNL     1       2.288   2.795  -9.829  1.00  0.00     0.191 C 
BRANCH  35  36
ATOM     36  O   UNL     1       1.741   3.809  -9.032  1.00  0.00    -0.394 OA
ATOM     37  H   UNL     1       2.356   4.584  -9.110  1.00  0.00     0.210 HD
ENDBRANCH  35  36
ENDBRANCH  29  35
BRANCH  30  38
ATOM     38  O   UNL     1       4.594   4.284  -8.668  1.00  0.00    -0.387 OA
ATOM     39  H   UNL     1       5.403   4.471  -8.121  1.00  0.00     0.211 HD
ENDBRANCH  30  38
ENDBRANCH   1  25
TORSDOF 11
ENDMDL
MODEL 4
REMARK VINA RESULT:    -3.791      1.118      2.184
REMARK INTER + INTRA:          -7.426
REMARK INTER:                  -6.889
REMARK INTRA:                  -0.538
REMARK UNBOUND:                -1.974
REMARK SMILES O=c1c(O[C@H]2O[C@H](CO)[C@@H](O)[C@H](O)[C@H]2O)c(-c2ccc(O)cc2)oc2cc(O)cc(O)c12
REMARK SMILES IDX 4 1 3 2 16 3 24 4 2 5 25 6 1 7 32 8 26 9 30 10 27 11 29 12
REMARK SMILES IDX 17 13 18 14 19 15 20 16 23 17 22 18 21 19 31 21 28 23 5 25
REMARK SMILES IDX 14 26 6 27 12 28 7 29 10 30 15 31 13 33 8 35 9 36 11 38
REMARK H PARENT 21 20 31 22 28 24 15 32 13 34 9 37 11 39
REMARK Flexibility Score: inf
ROOT
ATOM      1  O   UNL     1       4.625  -0.290  -8.601  1.00  0.00    -0.454 OA
ENDROOT
BRANCH   1   2
ATOM      2  C   UNL     1       4.055   0.990  -8.757  1.00  0.00     0.214 A 
ATOM      3  C   UNL     1       2.659   1.072  -8.942  1.00  0.00     0.180 A 
ATOM      4  O   UNL     1       2.079   2.249  -9.152  1.00  0.00    -0.452 OA
ATOM      5  C   UNL     1       4.803   2.191  -8.772  1.00  0.00     0.239 A 
ATOM      6  C   UNL     1       2.744   3.396  -9.177  1.00  0.00     0.146 A 
ATOM      7  O   UNL     1       6.051   2.166  -8.609  1.00  0.00    -0.285 OA
ATOM      8  C   UNL     1       4.143   3.421  -8.981  1.00  0.00     0.111 A 
ATOM      9  C   UNL     1       2.039   4.583  -9.400  1.00  0.00     0.094 A 
ATOM     10  C   UNL     1       4.818   4.666  -9.012  1.00  0.00     0.134 A 
ATOM     11  C   UNL     1       2.712   5.809  -9.430  1.00  0.00     0.123 A 
ATOM     12  C   UNL     1       4.094   5.847  -9.235  1.00  0.00     0.093 A 
BRANCH   3  13
ATOM     13  C   UNL     1       1.800  -0.132  -8.936  1.00  0.00     0.021 A 
ATOM     14  C   UNL     1       1.074  -0.505  -7.791  1.00  0.00     0.016 A 
ATOM     15  C   UNL     1       0.262  -1.643  -7.809  1.00  0.00     0.047 A 
ATOM     16  C   UNL     1       0.150  -2.410  -8.976  1.00  0.00     0.115 A 
ATOM     17  C   UNL     1       1.666  -0.893 -10.109  1.00  0.00     0.016 A 
ATOM     18  C   UNL     1       0.851  -2.029 -10.125  1.00  0.00     0.047 A 
BRANCH  16  19
ATOM     19  O   UNL     1      -0.656  -3.545  -9.007  1.00  0.00    -0.508 OA
ATOM     20  H   UNL     1      -1.551  -3.546  -9.483  1.00  0.00     0.293 HD
ENDBRANCH  16  19
ENDBRANCH   3  13
BRANCH  10  21
ATOM     21  O   UNL     1       6.199   4.741  -8.822  1.00  0.00    -0.507 OA
ATOM     22  H   UNL     1       6.813   3.970  -9.059  1.00  0.00     0.293 HD
ENDBRANCH  10  21
BRANCH  11  23
ATOM     23  O   UNL     1       2.016   6.996  -9.650  1.00  0.00    -0.508 OA
ATOM     24  H   UNL     1       1.555   7.487  -8.894  1.00  0.00     0.293 HD
ENDBRANCH  11  23
ENDBRANCH   1   2
BRANCH   1  25
ATOM     25  C   UNL     1       5.987  -0.608  -8.286  1.00  0.00     0.339 C 
ATOM     26  C   UNL     1       6.258  -2.108  -8.508  1.00  0.00     0.214 C 
ATOM     27  O   UNL     1       6.316  -0.232  -6.956  1.00  0.00    -0.332 OA
ATOM     28  C   UNL     1       5.471  -2.955  -7.488  1.00  0.00     0.180 C 
ATOM     29  C   UNL     1       5.502  -0.898  -5.999  1.00  0.00     0.179 C 
ATOM     30  C   UNL     1       5.730  -2.433  -6.059  1.00  0.00     0.177 C 
BRANCH  26  31
ATOM     31  O   UNL     1       5.960  -2.489  -9.829  1.00  0.00    -0.384 OA
ATOM     32  H   UNL     1       6.410  -3.356 -10.007  1.00  0.00     0.211 HD
ENDBRANCH  26  31
BRANCH  28  33
ATOM     33  O   UNL     1       5.807  -4.315  -7.595  1.00  0.00    -0.387 OA
ATOM     34  H   UNL     1       5.356  -4.677  -8.403  1.00  0.00     0.211 HD
ENDBRANCH  28  33
BRANCH  29  35
ATOM     35  C   UNL     1       5.854  -0.334  -4.615  1.00  0.00     0.191 C 
BRANCH  35  36
ATOM     36  O   UNL     1       4.765  -0.462  -3.742  1.00  0.00    -0.394 OA
ATOM     37  H   UNL     1       4.270   0.396  -3.792  1.00  0.00     0.210 HD
ENDBRANCH  35  36
ENDBRANCH  29  35
BRANCH  30  38
ATOM     38  O   UNL     1       4.913  -3.113  -5.138  1.00  0.00    -0.387 OA
ATOM     39  H   UNL     1       5.112  -2.751  -4.234  1.00  0.00     0.211 HD
ENDBRANCH  30  38
ENDBRANCH   1  25
TORSDOF 11
ENDMDL
MODEL 5
REMARK VINA RESULT:    -3.537      1.524      2.565
REMARK INTER + INTRA:          -7.062
REMARK INTER:                  -5.923
REMARK INTRA:                  -1.138
REMARK UNBOUND:                -1.974
REMARK SMILES O=c1c(O[C@H]2O[C@H](CO)[C@@H](O)[C@H](O)[C@H]2O)c(-c2ccc(O)cc2)oc2cc(O)cc(O)c12
REMARK SMILES IDX 4 1 3 2 16 3 24 4 2 5 25 6 1 7 32 8 26 9 30 10 27 11 29 12
REMARK SMILES IDX 17 13 18 14 19 15 20 16 23 17 22 18 21 19 31 21 28 23 5 25
REMARK SMILES IDX 14 26 6 27 12 28 7 29 10 30 15 31 13 33 8 35 9 36 11 38
REMARK H PARENT 21 20 31 22 28 24 15 32 13 34 9 37 11 39
REMARK Flexibility Score: inf
ROOT
ATOM      1  O   UNL     1       3.858  -1.516  -7.922  1.00  0.00    -0.454 OA
ENDROOT
BRANCH   1   2
ATOM      2  C   UNL     1       3.774  -0.161  -8.305  1.00  0.00     0.214 A 
ATOM      3  C   UNL     1       2.535   0.314  -8.782  1.00  0.00     0.180 A 
ATOM      4  O   UNL     1       2.418   1.567  -9.210  1.00  0.00    -0.452 OA
ATOM      5  C   UNL     1       4.866   0.738  -8.270  1.00  0.00     0.239 A 
ATOM      6  C   UNL     1       3.416   2.439  -9.197  1.00  0.00     0.146 A 
ATOM      7  O   UNL     1       5.990   0.359  -7.849  1.00  0.00    -0.285 OA
ATOM      8  C   UNL     1       4.691   2.065  -8.717  1.00  0.00     0.111 A 
ATOM      9  C   UNL     1       3.188   3.737  -9.664  1.00  0.00     0.094 A 
ATOM     10  C   UNL     1       5.733   3.026  -8.716  1.00  0.00     0.134 A 
ATOM     11  C   UNL     1       4.221   4.680  -9.660  1.00  0.00     0.123 A 
ATOM     12  C   UNL     1       5.485   4.323  -9.187  1.00  0.00     0.093 A 
BRANCH   3  13
ATOM     13  C   UNL     1       1.341  -0.556  -8.849  1.00  0.00     0.021 A 
ATOM     14  C   UNL     1       0.936  -1.147 -10.060  1.00  0.00     0.016 A 
ATOM     15  C   UNL     1      -0.192  -1.972 -10.101  1.00  0.00     0.047 A 
ATOM     16  C   UNL     1      -0.917  -2.233  -8.930  1.00  0.00     0.115 A 
ATOM     17  C   UNL     1       0.622  -0.839  -7.676  1.00  0.00     0.016 A 
ATOM     18  C   UNL     1      -0.503  -1.667  -7.719  1.00  0.00     0.047 A 
BRANCH  16  19
ATOM     19  O   UNL     1      -2.042  -3.053  -8.957  1.00  0.00    -0.508 OA
ATOM     20  H   UNL     1      -2.620  -3.131  -9.787  1.00  0.00     0.293 HD
ENDBRANCH  16  19
ENDBRANCH   3  13
BRANCH  10  21
ATOM     21  O   UNL     1       7.009   2.704  -8.251  1.00  0.00    -0.507 OA
ATOM     22  H   UNL     1       7.281   2.861  -7.287  1.00  0.00     0.293 HD
ENDBRANCH  10  21
BRANCH  11  23
ATOM     23  O   UNL     1       4.000   5.976 -10.123  1.00  0.00    -0.508 OA
ATOM     24  H   UNL     1       3.099   6.428 -10.022  1.00  0.00     0.293 HD
ENDBRANCH  11  23
ENDBRANCH   1   2
BRANCH   1  25
ATOM     25  C   UNL     1       4.763  -2.510  -8.418  1.00  0.00     0.339 C 
ATOM     26  C   UNL     1       4.030  -3.846  -8.643  1.00  0.00     0.214 C 
ATOM     27  O   UNL     1       5.870  -2.689  -7.545  1.00  0.00    -0.332 OA
ATOM     28  C   UNL     1       3.577  -4.446  -7.297  1.00  0.00     0.180 C 
ATOM     29  C   UNL     1       5.463  -3.107  -6.249  1.00  0.00     0.179 C 
ATOM     30  C   UNL     1       4.765  -4.493  -6.315  1.00  0.00     0.177 C 
BRANCH  26  31
ATOM     31  O   UNL     1       2.946  -3.689  -9.526  1.00  0.00    -0.384 OA
ATOM     32  H   UNL     1       2.113  -3.666  -8.987  1.00  0.00     0.211 HD
ENDBRANCH  26  31
BRANCH  28  33
ATOM     33  O   UNL     1       3.021  -5.724  -7.477  1.00  0.00    -0.387 OA
ATOM     34  H   UNL     1       3.718  -6.304  -7.883  1.00  0.00     0.211 HD
ENDBRANCH  28  33
BRANCH  29  35
ATOM     35  C   UNL     1       6.713  -3.152  -5.359  1.00  0.00     0.191 C 
BRANCH  35  36
ATOM     36  O   UNL     1       6.353  -3.134  -4.005  1.00  0.00    -0.394 OA
ATOM     37  H   UNL     1       5.500  -3.637  -3.940  1.00  0.00     0.210 HD
ENDBRANCH  35  36
ENDBRANCH  29  35
BRANCH  30  38
ATOM     38  O   UNL     1       4.330  -4.913  -5.045  1.00  0.00    -0.387 OA
ATOM     39  H   UNL     1       4.865  -5.712  -4.792  1.00  0.00     0.211 HD
ENDBRANCH  30  38
ENDBRANCH   1  25
TORSDOF 11
ENDMDL
MODEL 6
REMARK VINA RESULT:    -3.534      1.855      6.571
REMARK INTER + INTRA:          -7.057
REMARK INTER:                  -5.970
REMARK INTRA:                  -1.087
REMARK UNBOUND:                -1.974
REMARK SMILES O=c1c(O[C@H]2O[C@H](CO)[C@@H](O)[C@H](O)[C@H]2O)c(-c2ccc(O)cc2)oc2cc(O)cc(O)c12
REMARK SMILES IDX 4 1 3 2 16 3 24 4 2 5 25 6 1 7 32 8 26 9 30 10 27 11 29 12
REMARK SMILES IDX 17 13 18 14 19 15 20 16 23 17 22 18 21 19 31 21 28 23 5 25
REMARK SMILES IDX 14 26 6 27 12 28 7 29 10 30 15 31 13 33 8 35 9 36 11 38
REMARK H PARENT 21 20 31 22 28 24 15 32 13 34 9 37 11 39
REMARK Flexibility Score: inf
ROOT
ATOM      1  O   UNL     1       4.588  -1.200  -7.251  1.00  0.00    -0.454 OA
ENDROOT
BRANCH   1   2
ATOM      2  C   UNL     1       3.429  -1.734  -7.850  1.00  0.00     0.214 A 
ATOM      3  C   UNL     1       2.662  -0.886  -8.675  1.00  0.00     0.180 A 
ATOM      4  O   UNL     1       1.529  -1.322  -9.217  1.00  0.00    -0.452 OA
ATOM      5  C   UNL     1       2.974  -3.058  -7.647  1.00  0.00     0.239 A 
ATOM      6  C   UNL     1       1.067  -2.552  -9.048  1.00  0.00     0.146 A 
ATOM      7  O   UNL     1       3.628  -3.852  -6.921  1.00  0.00    -0.285 OA
ATOM      8  C   UNL     1       1.775  -3.484  -8.257  1.00  0.00     0.111 A 
ATOM      9  C   UNL     1      -0.133  -2.917  -9.667  1.00  0.00     0.094 A 
ATOM     10  C   UNL     1       1.251  -4.793  -8.103  1.00  0.00     0.134 A 
ATOM     11  C   UNL     1      -0.645  -4.209  -9.510  1.00  0.00     0.123 A 
ATOM     12  C   UNL     1       0.046  -5.139  -8.732  1.00  0.00     0.093 A 
BRANCH   3  13
ATOM     13  C   UNL     1       3.065   0.512  -8.945  1.00  0.00     0.021 A 
ATOM     14  C   UNL     1       4.349   0.821  -9.431  1.00  0.00     0.016 A 
ATOM     15  C   UNL     1       4.707   2.147  -9.686  1.00  0.00     0.047 A 
ATOM     16  C   UNL     1       3.782   3.179  -9.479  1.00  0.00     0.115 A 
ATOM     17  C   UNL     1       2.136   1.549  -8.761  1.00  0.00     0.016 A 
ATOM     18  C   UNL     1       2.497   2.875  -9.020  1.00  0.00     0.047 A 
BRANCH  16  19
ATOM     19  O   UNL     1       4.127   4.505  -9.730  1.00  0.00    -0.508 OA
ATOM     20  H   UNL     1       3.563   5.273  -9.384  1.00  0.00     0.293 HD
ENDBRANCH  16  19
ENDBRANCH   3  13
BRANCH  10  21
ATOM     21  O   UNL     1       1.915  -5.748  -7.332  1.00  0.00    -0.507 OA
ATOM     22  H   UNL     1       1.854  -6.738  -7.540  1.00  0.00     0.293 HD
ENDBRANCH  10  21
BRANCH  11  23
ATOM     23  O   UNL     1      -1.840  -4.578 -10.125  1.00  0.00    -0.508 OA
ATOM     24  H   UNL     1      -2.710  -4.101  -9.921  1.00  0.00     0.293 HD
ENDBRANCH  11  23
ENDBRANCH   1   2
BRANCH   1  25
ATOM     25  C   UNL     1       5.849  -1.851  -7.052  1.00  0.00     0.339 C 
ATOM     26  C   UNL     1       6.170  -1.963  -5.550  1.00  0.00     0.214 C 
ATOM     27  O   UNL     1       6.896  -1.180  -7.738  1.00  0.00    -0.332 OA
ATOM     28  C   UNL     1       6.415  -0.566  -4.946  1.00  0.00     0.180 C 
ATOM     29  C   UNL     1       7.048   0.162  -7.295  1.00  0.00     0.179 C 
ATOM     30  C   UNL     1       7.449   0.202  -5.795  1.00  0.00     0.177 C 
BRANCH  26  31
ATOM     31  O   UNL     1       5.153  -2.648  -4.861  1.00  0.00    -0.384 OA
ATOM     32  H   UNL     1       4.338  -2.637  -5.429  1.00  0.00     0.211 HD
ENDBRANCH  26  31
BRANCH  28  33
ATOM     33  O   UNL     1       6.834  -0.661  -3.608  1.00  0.00    -0.387 OA
ATOM     34  H   UNL     1       7.773  -0.340  -3.560  1.00  0.00     0.211 HD
ENDBRANCH  28  33
BRANCH  29  35
ATOM     35  C   UNL     1       8.113   0.828  -8.176  1.00  0.00     0.191 C 
BRANCH  35  36
ATOM     36  O   UNL     1       8.038   2.223  -8.070  1.00  0.00    -0.394 OA
ATOM     37  H   UNL     1       8.344   2.447  -7.153  1.00  0.00     0.210 HD
ENDBRANCH  35  36
ENDBRANCH  29  35
BRANCH  30  38
ATOM     38  O   UNL     1       7.578   1.523  -5.329  1.00  0.00    -0.387 OA
ATOM     39  H   UNL     1       7.246   1.545  -4.392  1.00  0.00     0.211 HD
ENDBRANCH  30  38
ENDBRANCH   1  25
TORSDOF 11
ENDMDL
MODEL 7
REMARK VINA RESULT:    -3.310      2.143      6.143
REMARK INTER + INTRA:          -6.736
REMARK INTER:                  -5.828
REMARK INTRA:                  -0.907
REMARK UNBOUND:                -1.974
REMARK SMILES O=c1c(O[C@H]2O[C@H](CO)[C@@H](O)[C@H](O)[C@H]2O)c(-c2ccc(O)cc2)oc2cc(O)cc(O)c12
REMARK SMILES IDX 4 1 3 2 16 3 24 4 2 5 25 6 1 7 32 8 26 9 30 10 27 11 29 12
REMARK SMILES IDX 17 13 18 14 19 15 20 16 23 17 22 18 21 19 31 21 28 23 5 25
REMARK SMILES IDX 14 26 6 27 12 28 7 29 10 30 15 31 13 33 8 35 9 36 11 38
REMARK H PARENT 21 20 31 22 28 24 15 32 13 34 9 37 11 39
REMARK Flexibility Score: inf
ROOT
ATOM      1  O   UNL     1       3.664  -2.861  -8.282  1.00  0.00    -0.454 OA
ENDROOT
BRANCH   1   2
ATOM      2  C   UNL     1       2.329  -2.650  -8.682  1.00  0.00     0.214 A 
ATOM      3  C   UNL     1       1.985  -1.380  -9.190  1.00  0.00     0.180 A 
ATOM      4  O   UNL     1       0.728  -1.111  -9.527  1.00  0.00    -0.452 OA
ATOM      5  C   UNL     1       1.309  -3.624  -8.573  1.00  0.00     0.239 A 
ATOM      6  C   UNL     1      -0.257  -1.994  -9.437  1.00  0.00     0.146 A 
ATOM      7  O   UNL     1       1.569  -4.772  -8.127  1.00  0.00    -0.285 OA
ATOM      8  C   UNL     1      -0.009  -3.300  -8.959  1.00  0.00     0.111 A 
ATOM      9  C   UNL     1      -1.546  -1.613  -9.822  1.00  0.00     0.094 A 
ATOM     10  C   UNL     1      -1.087  -4.218  -8.880  1.00  0.00     0.134 A 
ATOM     11  C   UNL     1      -2.605  -2.523  -9.741  1.00  0.00     0.123 A 
ATOM     12  C   UNL     1      -2.373  -3.818  -9.273  1.00  0.00     0.093 A 
BRANCH   3  13
ATOM     13  C   UNL     1       2.989  -0.304  -9.342  1.00  0.00     0.021 A 
ATOM     14  C   UNL     1       4.232  -0.547  -9.953  1.00  0.00     0.016 A 
ATOM     15  C   UNL     1       5.164   0.486 -10.093  1.00  0.00     0.047 A 
ATOM     16  C   UNL     1       4.856   1.777  -9.644  1.00  0.00     0.115 A 
ATOM     17  C   UNL     1       2.679   0.997  -8.914  1.00  0.00     0.016 A 
ATOM     18  C   UNL     1       3.611   2.029  -9.059  1.00  0.00     0.047 A 
BRANCH  16  19
ATOM     19  O   UNL     1       5.776   2.815  -9.778  1.00  0.00    -0.508 OA
ATOM     20  H   UNL     1       6.452   2.828 -10.534  1.00  0.00     0.293 HD
ENDBRANCH  16  19
ENDBRANCH   3  13
BRANCH  10  21
ATOM     21  O   UNL     1      -0.891  -5.519  -8.416  1.00  0.00    -0.507 OA
ATOM     22  H   UNL     1      -1.527  -6.272  -8.654  1.00  0.00     0.293 HD
ENDBRANCH  10  21
BRANCH  11  23
ATOM     23  O   UNL     1      -3.892  -2.151 -10.124  1.00  0.00    -0.508 OA
ATOM     24  H   UNL     1      -4.534  -2.816 -10.538  1.00  0.00     0.293 HD
ENDBRANCH  11  23
ENDBRANCH   1   2
BRANCH   1  25
ATOM     25  C   UNL     1       4.129  -3.405  -7.041  1.00  0.00     0.339 C 
ATOM     26  C   UNL     1       4.997  -2.377  -6.290  1.00  0.00     0.214 C 
ATOM     27  O   UNL     1       4.848  -4.615  -7.239  1.00  0.00    -0.332 OA
ATOM     28  C   UNL     1       6.310  -2.118  -7.057  1.00  0.00     0.180 C 
ATOM     29  C   UNL     1       5.990  -4.427  -8.064  1.00  0.00     0.179 C 
ATOM     30  C   UNL     1       6.998  -3.457  -7.390  1.00  0.00     0.177 C 
BRANCH  26  31
ATOM     31  O   UNL     1       4.290  -1.182  -6.065  1.00  0.00    -0.384 OA
ATOM     32  H   UNL     1       3.323  -1.402  -6.027  1.00  0.00     0.211 HD
ENDBRANCH  26  31
BRANCH  28  33
ATOM     33  O   UNL     1       7.166  -1.281  -6.321  1.00  0.00    -0.387 OA
ATOM     34  H   UNL     1       7.784  -1.860  -5.802  1.00  0.00     0.211 HD
ENDBRANCH  28  33
BRANCH  29  35
ATOM     35  C   UNL     1       6.619  -5.805  -8.312  1.00  0.00     0.191 C 
BRANCH  35  36
ATOM     36  O   UNL     1       7.156  -5.874  -9.604  1.00  0.00    -0.394 OA
ATOM     37  H   UNL     1       8.142  -5.874  -9.493  1.00  0.00     0.210 HD
ENDBRANCH  35  36
ENDBRANCH  29  35
BRANCH  30  38
ATOM     38  O   UNL     1       8.125  -3.236  -8.203  1.00  0.00    -0.387 OA
ATOM     39  H   UNL     1       8.209  -4.010  -8.820  1.00  0.00     0.211 HD
ENDBRANCH  30  38
ENDBRANCH   1  25
TORSDOF 11
ENDMDL
MODEL 8
REMARK VINA RESULT:    -3.234      2.137      2.944
REMARK INTER + INTRA:          -6.625
REMARK INTER:                  -5.539
REMARK INTRA:                  -1.087
REMARK UNBOUND:                -1.974
REMARK SMILES O=c1c(O[C@H]2O[C@H](CO)[C@@H](O)[C@H](O)[C@H]2O)c(-c2ccc(O)cc2)oc2cc(O)cc(O)c12
REMARK SMILES IDX 4 1 3 2 16 3 24 4 2 5 25 6 1 7 32 8 26 9 30 10 27 11 29 12
REMARK SMILES IDX 17 13 18 14 19 15 20 16 23 17 22 18 21 19 31 21 28 23 5 25
REMARK SMILES IDX 14 26 6 27 12 28 7 29 10 30 15 31 13 33 8 35 9 36 11 38
REMARK H PARENT 21 20 31 22 28 24 15 32 13 34 9 37 11 39
REMARK Flexibility Score: inf
ROOT
ATOM      1  O   UNL     1       5.555  -1.385  -6.180  1.00  0.00    -0.454 OA
ENDROOT
BRANCH   1   2
ATOM      2  C   UNL     1       5.596  -0.119  -6.798  1.00  0.00     0.214 A 
ATOM      3  C   UNL     1       4.766   0.097  -7.917  1.00  0.00     0.180 A 
ATOM      4  O   UNL     1       4.809   1.253  -8.571  1.00  0.00    -0.452 OA
ATOM      5  C   UNL     1       6.443   0.935  -6.381  1.00  0.00     0.239 A 
ATOM      6  C   UNL     1       5.591   2.263  -8.216  1.00  0.00     0.146 A 
ATOM      7  O   UNL     1       7.200   0.789  -5.386  1.00  0.00    -0.285 OA
ATOM      8  C   UNL     1       6.444   2.153  -7.095  1.00  0.00     0.111 A 
ATOM      9  C   UNL     1       5.558   3.442  -8.967  1.00  0.00     0.094 A 
ATOM     10  C   UNL     1       7.263   3.255  -6.744  1.00  0.00     0.134 A 
ATOM     11  C   UNL     1       6.369   4.526  -8.616  1.00  0.00     0.123 A 
ATOM     12  C   UNL     1       7.215   4.430  -7.509  1.00  0.00     0.093 A 
BRANCH   3  13
ATOM     13  C   UNL     1       3.846  -0.948  -8.418  1.00  0.00     0.021 A 
ATOM     14  C   UNL     1       4.259  -1.879  -9.388  1.00  0.00     0.016 A 
ATOM     15  C   UNL     1       3.377  -2.863  -9.843  1.00  0.00     0.047 A 
ATOM     16  C   UNL     1       2.079  -2.942  -9.319  1.00  0.00     0.115 A 
ATOM     17  C   UNL     1       2.552  -1.047  -7.881  1.00  0.00     0.016 A 
ATOM     18  C   UNL     1       1.673  -2.035  -8.336  1.00  0.00     0.047 A 
BRANCH  16  19
ATOM     19  O   UNL     1       1.191  -3.918  -9.763  1.00  0.00    -0.508 OA
ATOM     20  H   UNL     1       0.761  -3.865 -10.681  1.00  0.00     0.293 HD
ENDBRANCH  16  19
ENDBRANCH   3  13
BRANCH  10  21
ATOM     21  O   UNL     1       8.120   3.194  -5.645  1.00  0.00    -0.507 OA
ATOM     22  H   UNL     1       8.780   3.936  -5.440  1.00  0.00     0.293 HD
ENDBRANCH  10  21
BRANCH  11  23
ATOM     23  O   UNL     1       6.341   5.704  -9.359  1.00  0.00    -0.508 OA
ATOM     24  H   UNL     1       5.702   5.824 -10.136  1.00  0.00     0.293 HD
ENDBRANCH  11  23
ENDBRANCH   1   2
BRANCH   1  25
ATOM     25  C   UNL     1       6.663  -2.177  -5.735  1.00  0.00     0.339 C 
ATOM     26  C   UNL     1       7.237  -3.009  -6.899  1.00  0.00     0.214 C 
ATOM     27  O   UNL     1       6.300  -3.021  -4.651  1.00  0.00    -0.332 OA
ATOM     28  C   UNL     1       6.220  -4.076  -7.351  1.00  0.00     0.180 C 
ATOM     29  C   UNL     1       5.260  -3.923  -5.005  1.00  0.00     0.179 C 
ATOM     30  C   UNL     1       5.727  -4.884  -6.132  1.00  0.00     0.177 C 
BRANCH  26  31
ATOM     31  O   UNL     1       7.625  -2.184  -7.970  1.00  0.00    -0.384 OA
ATOM     32  H   UNL     1       8.403  -1.644  -7.675  1.00  0.00     0.211 HD
ENDBRANCH  26  31
BRANCH  28  33
ATOM     33  O   UNL     1       6.778  -4.924  -8.323  1.00  0.00    -0.387 OA
ATOM     34  H   UNL     1       7.471  -4.409  -8.814  1.00  0.00     0.211 HD
ENDBRANCH  28  33
BRANCH  29  35
ATOM     35  C   UNL     1       4.862  -4.696  -3.740  1.00  0.00     0.191 C 
BRANCH  35  36
ATOM     36  O   UNL     1       5.499  -5.944  -3.707  1.00  0.00    -0.394 OA
ATOM     37  H   UNL     1       4.935  -6.556  -4.246  1.00  0.00     0.210 HD
ENDBRANCH  35  36
ENDBRANCH  29  35
BRANCH  30  38
ATOM     38  O   UNL     1       4.703  -5.768  -6.516  1.00  0.00    -0.387 OA
ATOM     39  H   UNL     1       4.100  -5.888  -5.736  1.00  0.00     0.211 HD
ENDBRANCH  30  38
ENDBRANCH   1  25
TORSDOF 11
ENDMDL
