MODEL 1
REMARK VINA RESULT:    -3.569      0.000      0.000
REMARK INTER + INTRA:         -12.017
REMARK INTER:                  -7.741
REMARK INTRA:                  -4.276
REMARK UNBOUND:                -4.276
REMARK SMILES CCCCCCCCCCCCCCCCCCCCCC(=O)[O-]
REMARK SMILES IDX 12 1 11 2 10 3 9 4 8 5 7 6 6 7 5 8 4 9 3 10 2 11 1 12 13 13
REMARK SMILES IDX 14 14 15 15 16 16 17 17 18 18 19 19 20 20 21 21 22 22 23 23
REMARK SMILES IDX 24 24
REMARK H PARENT
REMARK Flexibility Score: inf
ROOT
ATOM      1  C   UNL     1     193.159 188.608 199.082  1.00  0.00     0.000 C 
ENDROOT
BRANCH   1   2
ATOM      2  C   UNL     1     192.108 188.279 200.155  1.00  0.00     0.000 C 
BRANCH   2   3
ATOM      3  C   UNL     1     190.713 188.756 199.722  1.00  0.00     0.000 C 
BRANCH   3   4
ATOM      4  C   UNL     1     189.969 189.504 200.839  1.00  0.00    -0.000 C 
BRANCH   4   5
ATOM      5  C   UNL     1     190.702 190.782 201.282  1.00  0.00    -0.000 C 
BRANCH   5   6
ATOM      6  C   UNL     1     190.430 191.975 200.350  1.00  0.00    -0.000 C 
BRANCH   6   7
ATOM      7  C   UNL     1     191.679 192.776 199.933  1.00  0.00    -0.000 C 
BRANCH   7   8
ATOM      8  C   UNL     1     192.362 192.245 198.654  1.00  0.00    -0.000 C 
BRANCH   8   9
ATOM      9  C   UNL     1     192.729 193.373 197.675  1.00  0.00    -0.000 C 
BRANCH   9  10
ATOM     10  C   UNL     1     193.439 192.859 196.412  1.00  0.00    -0.000 C 
BRANCH  10  11
ATOM     11  C   UNL     1     194.040 191.446 196.577  1.00  0.00    -0.003 C 
ATOM     12  C   UNL     1     195.550 191.483 196.821  1.00  0.00     0.004 C 
ENDBRANCH  10  11
ENDBRANCH   9  10
ENDBRANCH   8   9
ENDBRANCH   7   8
ENDBRANCH   6   7
ENDBRANCH   5   6
ENDBRANCH   4   5
ENDBRANCH   3   4
ENDBRANCH   2   3
ENDBRANCH   1   2
BRANCH   1  13
ATOM     13  C   UNL     1     194.382 189.336 199.664  1.00  0.00     0.000 C 
BRANCH  13  14
ATOM     14  C   UNL     1     194.244 189.609 201.172  1.00  0.00     0.000 C 
BRANCH  14  15
ATOM     15  C   UNL     1     194.570 191.065 201.538  1.00  0.00     0.000 C 
BRANCH  15  16
ATOM     16  C   UNL     1     195.562 191.717 200.558  1.00  0.00     0.000 C 
BRANCH  16  17
ATOM     17  C   UNL     1     195.721 193.228 200.789  1.00  0.00     0.000 C 
BRANCH  17  18
ATOM     18  C   UNL     1     195.853 194.069 199.503  1.00  0.00     0.000 C 
BRANCH  18  19
ATOM     19  C   UNL     1     195.106 195.420 199.560  1.00  0.00     0.000 C 
BRANCH  19  20
ATOM     20  C   UNL     1     194.038 195.448 200.667  1.00  0.00     0.006 C 
BRANCH  20  21
ATOM     21  C   UNL     1     193.280 196.781 200.710  1.00  0.00     0.053 C 
BRANCH  21  22
ATOM     22  C   UNL     1     192.001 196.718 199.931  1.00  0.00     0.041 C 
ATOM     23  O   UNL     1     192.015 196.830 198.676  1.00  0.00    -0.550 OA
ATOM     24  O   UNL     1     190.793 196.518 200.589  1.00  0.00    -0.550 OA
ENDBRANCH  21  22
ENDBRANCH  20  21
ENDBRANCH  19  20
ENDBRANCH  18  19
ENDBRANCH  17  18
ENDBRANCH  16  17
ENDBRANCH  15  16
ENDBRANCH  14  15
ENDBRANCH  13  14
ENDBRANCH   1  13
TORSDOF 20
ENDMDL
MODEL 2
REMARK VINA RESULT:    -3.513      8.862     12.168
REMARK INTER + INTRA:         -11.896
REMARK INTER:                  -8.367
REMARK INTRA:                  -3.530
REMARK UNBOUND:                -4.276
REMARK SMILES CCCCCCCCCCCCCCCCCCCCCC(=O)[O-]
REMARK SMILES IDX 12 1 11 2 10 3 9 4 8 5 7 6 6 7 5 8 4 9 3 10 2 11 1 12 13 13
REMARK SMILES IDX 14 14 15 15 16 16 17 17 18 18 19 19 20 20 21 21 22 22 23 23
REMARK SMILES IDX 24 24
REMARK H PARENT
REMARK Flexibility Score: inf
ROOT
ATOM      1  C   UNL     1     182.791 182.802 201.234  1.00  0.00     0.000 C 
ENDROOT
BRANCH   1   2
ATOM      2  C   UNL     1     183.372 184.062 201.896  1.00  0.00     0.000 C 
BRANCH   2   3
ATOM      3  C   UNL     1     182.424 185.259 201.724  1.00  0.00     0.000 C 
BRANCH   3   4
ATOM      4  C   UNL     1     182.840 186.185 200.570  1.00  0.00    -0.000 C 
BRANCH   4   5
ATOM      5  C   UNL     1     181.804 186.211 199.433  1.00  0.00    -0.000 C 
BRANCH   5   6
ATOM      6  C   UNL     1     182.194 185.306 198.253  1.00  0.00    -0.000 C 
BRANCH   6   7
ATOM      7  C   UNL     1     182.127 185.975 196.866  1.00  0.00    -0.000 C 
BRANCH   7   8
ATOM      8  C   UNL     1     183.480 186.538 196.378  1.00  0.00    -0.000 C 
BRANCH   8   9
ATOM      9  C   UNL     1     183.557 188.069 196.507  1.00  0.00    -0.000 C 
BRANCH   9  10
ATOM     10  C   UNL     1     184.518 188.526 197.615  1.00  0.00    -0.000 C 
BRANCH  10  11
ATOM     11  C   UNL     1     183.831 189.356 198.721  1.00  0.00    -0.003 C 
ATOM     12  C   UNL     1     182.876 190.405 198.150  1.00  0.00     0.004 C 
ENDBRANCH  10  11
ENDBRANCH   9  10
ENDBRANCH   8   9
ENDBRANCH   7   8
ENDBRANCH   6   7
ENDBRANCH   5   6
ENDBRANCH   4   5
ENDBRANCH   3   4
ENDBRANCH   2   3
ENDBRANCH   1   2
BRANCH   1  13
ATOM     13  C   UNL     1     183.201 181.513 201.966  1.00  0.00     0.000 C 
BRANCH  13  14
ATOM     14  C   UNL     1     183.763 180.446 201.010  1.00  0.00     0.000 C 
BRANCH  14  15
ATOM     15  C   UNL     1     185.040 179.784 201.552  1.00  0.00     0.000 C 
BRANCH  15  16
ATOM     16  C   UNL     1     186.210 180.775 201.688  1.00  0.00     0.000 C 
BRANCH  16  17
ATOM     17  C   UNL     1     186.664 181.350 200.336  1.00  0.00     0.000 C 
BRANCH  17  18
ATOM     18  C   UNL     1     186.517 182.879 200.201  1.00  0.00     0.000 C 
BRANCH  18  19
ATOM     19  C   UNL     1     185.692 183.321 198.973  1.00  0.00     0.000 C 
BRANCH  19  20
ATOM     20  C   UNL     1     185.853 184.822 198.673  1.00  0.00     0.006 C 
BRANCH  20  21
ATOM     21  C   UNL     1     186.291 185.618 199.908  1.00  0.00     0.053 C 
BRANCH  21  22
ATOM     22  C   UNL     1     187.472 186.494 199.613  1.00  0.00     0.041 C 
ATOM     23  O   UNL     1     188.434 186.556 200.424  1.00  0.00    -0.550 OA
ATOM     24  O   UNL     1     187.519 187.227 198.434  1.00  0.00    -0.550 OA
ENDBRANCH  21  22
ENDBRANCH  20  21
ENDBRANCH  19  20
ENDBRANCH  18  19
ENDBRANCH  17  18
ENDBRANCH  16  17
ENDBRANCH  15  16
ENDBRANCH  14  15
ENDBRANCH  13  14
ENDBRANCH   1  13
TORSDOF 20
ENDMDL
MODEL 3
REMARK VINA RESULT:    -3.500      2.353      4.810
REMARK INTER + INTRA:         -11.869
REMARK INTER:                  -8.092
REMARK INTRA:                  -3.777
REMARK UNBOUND:                -4.276
REMARK SMILES CCCCCCCCCCCCCCCCCCCCCC(=O)[O-]
REMARK SMILES IDX 12 1 11 2 10 3 9 4 8 5 7 6 6 7 5 8 4 9 3 10 2 11 1 12 13 13
REMARK SMILES IDX 14 14 15 15 16 16 17 17 18 18 19 19 20 20 21 21 22 22 23 23
REMARK SMILES IDX 24 24
REMARK H PARENT
REMARK Flexibility Score: inf
ROOT
ATOM      1  C   UNL     1     197.551 189.193 195.758  1.00  0.00     0.000 C 
ENDROOT
BRANCH   1   2
ATOM      2  C   UNL     1     197.208 187.878 196.476  1.00  0.00     0.000 C 
BRANCH   2   3
ATOM      3  C   UNL     1     198.354 187.442 197.402  1.00  0.00     0.000 C 
BRANCH   3   4
ATOM      4  C   UNL     1     197.906 187.280 198.864  1.00  0.00    -0.000 C 
BRANCH   4   5
ATOM      5  C   UNL     1     197.512 188.618 199.512  1.00  0.00    -0.000 C 
BRANCH   5   6
ATOM      6  C   UNL     1     196.050 188.640 199.987  1.00  0.00    -0.000 C 
BRANCH   6   7
ATOM      7  C   UNL     1     195.554 190.002 200.511  1.00  0.00    -0.000 C 
BRANCH   7   8
ATOM      8  C   UNL     1     196.499 191.179 200.186  1.00  0.00    -0.000 C 
BRANCH   8   9
ATOM      9  C   UNL     1     195.799 192.543 200.303  1.00  0.00    -0.000 C 
BRANCH   9  10
ATOM     10  C   UNL     1     196.669 193.705 199.798  1.00  0.00    -0.000 C 
BRANCH  10  11
ATOM     11  C   UNL     1     196.667 193.853 198.261  1.00  0.00    -0.003 C 
ATOM     12  C   UNL     1     198.020 193.500 197.642  1.00  0.00     0.004 C 
ENDBRANCH  10  11
ENDBRANCH   9  10
ENDBRANCH   8   9
ENDBRANCH   7   8
ENDBRANCH   6   7
ENDBRANCH   5   6
ENDBRANCH   4   5
ENDBRANCH   3   4
ENDBRANCH   2   3
ENDBRANCH   1   2
BRANCH   1  13
ATOM     13  C   UNL     1     196.740 190.383 196.296  1.00  0.00     0.000 C 
BRANCH  13  14
ATOM     14  C   UNL     1     195.313 189.985 196.711  1.00  0.00     0.000 C 
BRANCH  14  15
ATOM     15  C   UNL     1     194.425 191.203 197.010  1.00  0.00     0.000 C 
BRANCH  15  16
ATOM     16  C   UNL     1     193.114 190.823 197.722  1.00  0.00     0.000 C 
BRANCH  16  17
ATOM     17  C   UNL     1     192.551 191.966 198.583  1.00  0.00     0.000 C 
BRANCH  17  18
ATOM     18  C   UNL     1     192.904 193.383 198.088  1.00  0.00     0.000 C 
BRANCH  18  19
ATOM     19  C   UNL     1     192.765 194.476 199.170  1.00  0.00     0.000 C 
BRANCH  19  20
ATOM     20  C   UNL     1     193.605 195.724 198.849  1.00  0.00     0.006 C 
BRANCH  20  21
ATOM     21  C   UNL     1     194.044 196.471 200.114  1.00  0.00     0.053 C 
BRANCH  21  22
ATOM     22  C   UNL     1     193.801 197.945 200.002  1.00  0.00     0.041 C 
ATOM     23  O   UNL     1     194.611 198.763 200.514  1.00  0.00    -0.550 OA
ATOM     24  O   UNL     1     192.689 198.418 199.315  1.00  0.00    -0.550 OA
ENDBRANCH  21  22
ENDBRANCH  20  21
ENDBRANCH  19  20
ENDBRANCH  18  19
ENDBRANCH  17  18
ENDBRANCH  16  17
ENDBRANCH  15  16
ENDBRANCH  14  15
ENDBRANCH  13  14
ENDBRANCH   1  13
TORSDOF 20
ENDMDL
MODEL 4
REMARK VINA RESULT:    -3.492      9.482     12.572
REMARK INTER + INTRA:         -11.852
REMARK INTER:                  -8.364
REMARK INTRA:                  -3.487
REMARK UNBOUND:                -4.276
REMARK SMILES CCCCCCCCCCCCCCCCCCCCCC(=O)[O-]
REMARK SMILES IDX 12 1 11 2 10 3 9 4 8 5 7 6 6 7 5 8 4 9 3 10 2 11 1 12 13 13
REMARK SMILES IDX 14 14 15 15 16 16 17 17 18 18 19 19 20 20 21 21 22 22 23 23
REMARK SMILES IDX 24 24
REMARK H PARENT
REMARK Flexibility Score: inf
ROOT
ATOM      1  C   UNL     1     185.957 183.039 198.352  1.00  0.00     0.000 C 
ENDROOT
BRANCH   1   2
ATOM      2  C   UNL     1     186.649 181.733 198.774  1.00  0.00     0.000 C 
BRANCH   2   3
ATOM      3  C   UNL     1     187.059 181.781 200.254  1.00  0.00     0.000 C 
BRANCH   3   4
ATOM      4  C   UNL     1     186.412 180.663 201.085  1.00  0.00    -0.000 C 
BRANCH   4   5
ATOM      5  C   UNL     1     185.396 181.201 202.108  1.00  0.00    -0.000 C 
BRANCH   5   6
ATOM      6  C   UNL     1     183.950 180.797 201.778  1.00  0.00    -0.000 C 
BRANCH   6   7
ATOM      7  C   UNL     1     182.890 181.884 202.045  1.00  0.00    -0.000 C 
BRANCH   7   8
ATOM      8  C   UNL     1     181.577 181.683 201.259  1.00  0.00    -0.000 C 
BRANCH   8   9
ATOM      9  C   UNL     1     180.712 182.955 201.229  1.00  0.00    -0.000 C 
BRANCH   9  10
ATOM     10  C   UNL     1     181.499 184.220 201.608  1.00  0.00    -0.000 C 
BRANCH  10  11
ATOM     11  C   UNL     1     181.300 185.387 200.617  1.00  0.00    -0.003 C 
ATOM     12  C   UNL     1     181.205 184.909 199.167  1.00  0.00     0.004 C 
ENDBRANCH  10  11
ENDBRANCH   9  10
ENDBRANCH   8   9
ENDBRANCH   7   8
ENDBRANCH   6   7
ENDBRANCH   5   6
ENDBRANCH   4   5
ENDBRANCH   3   4
ENDBRANCH   2   3
ENDBRANCH   1   2
BRANCH   1  13
ATOM     13  C   UNL     1     184.679 183.313 199.162  1.00  0.00     0.000 C 
BRANCH  13  14
ATOM     14  C   UNL     1     184.835 184.502 200.127  1.00  0.00     0.000 C 
BRANCH  14  15
ATOM     15  C   UNL     1     186.068 185.362 199.806  1.00  0.00     0.000 C 
BRANCH  15  16
ATOM     16  C   UNL     1     185.696 186.761 199.283  1.00  0.00     0.000 C 
BRANCH  16  17
ATOM     17  C   UNL     1     186.290 187.055 197.896  1.00  0.00     0.000 C 
BRANCH  17  18
ATOM     18  C   UNL     1     185.255 187.154 196.756  1.00  0.00     0.000 C 
BRANCH  18  19
ATOM     19  C   UNL     1     183.822 186.762 197.178  1.00  0.00     0.000 C 
BRANCH  19  20
ATOM     20  C   UNL     1     182.798 187.863 196.851  1.00  0.00     0.006 C 
BRANCH  20  21
ATOM     21  C   UNL     1     181.999 188.299 198.085  1.00  0.00     0.053 C 
BRANCH  21  22
ATOM     22  C   UNL     1     182.841 189.089 199.041  1.00  0.00     0.041 C 
ATOM     23  O   UNL     1     183.369 190.173 198.677  1.00  0.00    -0.550 OA
ATOM     24  O   UNL     1     183.029 188.637 200.342  1.00  0.00    -0.550 OA
ENDBRANCH  21  22
ENDBRANCH  20  21
ENDBRANCH  19  20
ENDBRANCH  18  19
ENDBRANCH  17  18
ENDBRANCH  16  17
ENDBRANCH  15  16
ENDBRANCH  14  15
ENDBRANCH  13  14
ENDBRANCH   1  13
TORSDOF 20
ENDMDL
MODEL 5
REMARK VINA RESULT:    -3.469      2.530      5.246
REMARK INTER + INTRA:         -11.801
REMARK INTER:                  -8.005
REMARK INTRA:                  -3.796
REMARK UNBOUND:                -4.276
REMARK SMILES CCCCCCCCCCCCCCCCCCCCCC(=O)[O-]
REMARK SMILES IDX 12 1 11 2 10 3 9 4 8 5 7 6 6 7 5 8 4 9 3 10 2 11 1 12 13 13
REMARK SMILES IDX 14 14 15 15 16 16 17 17 18 18 19 19 20 20 21 21 22 22 23 23
REMARK SMILES IDX 24 24
REMARK H PARENT
REMARK Flexibility Score: inf
ROOT
ATOM      1  C   UNL     1     196.258 190.558 200.121  1.00  0.00     0.000 C 
ENDROOT
BRANCH   1   2
ATOM      2  C   UNL     1     195.338 191.090 201.232  1.00  0.00     0.000 C 
BRANCH   2   3
ATOM      3  C   UNL     1     195.031 192.581 201.025  1.00  0.00     0.000 C 
BRANCH   3   4
ATOM      4  C   UNL     1     195.726 193.162 199.783  1.00  0.00    -0.000 C 
BRANCH   4   5
ATOM      5  C   UNL     1     194.734 193.814 198.804  1.00  0.00    -0.000 C 
BRANCH   5   6
ATOM      6  C   UNL     1     193.279 193.742 199.297  1.00  0.00    -0.000 C 
BRANCH   6   7
ATOM      7  C   UNL     1     192.351 192.839 198.462  1.00  0.00    -0.000 C 
BRANCH   7   8
ATOM      8  C   UNL     1     192.229 191.398 199.002  1.00  0.00    -0.000 C 
BRANCH   8   9
ATOM      9  C   UNL     1     192.656 190.345 197.965  1.00  0.00    -0.000 C 
BRANCH   9  10
ATOM     10  C   UNL     1     192.995 188.987 198.600  1.00  0.00    -0.000 C 
BRANCH  10  11
ATOM     11  C   UNL     1     192.576 188.879 200.082  1.00  0.00    -0.003 C 
ATOM     12  C   UNL     1     191.648 187.691 200.339  1.00  0.00     0.004 C 
ENDBRANCH  10  11
ENDBRANCH   9  10
ENDBRANCH   8   9
ENDBRANCH   7   8
ENDBRANCH   6   7
ENDBRANCH   5   6
ENDBRANCH   4   5
ENDBRANCH   3   4
ENDBRANCH   2   3
ENDBRANCH   1   2
BRANCH   1  13
ATOM     13  C   UNL     1     196.277 189.022 200.062  1.00  0.00     0.000 C 
BRANCH  13  14
ATOM     14  C   UNL     1     197.274 188.484 199.020  1.00  0.00     0.000 C 
BRANCH  14  15
ATOM     15  C   UNL     1     196.574 187.887 197.789  1.00  0.00     0.000 C 
BRANCH  15  16
ATOM     16  C   UNL     1     196.803 188.717 196.513  1.00  0.00     0.000 C 
BRANCH  16  17
ATOM     17  C   UNL     1     195.782 189.855 196.353  1.00  0.00     0.000 C 
BRANCH  17  18
ATOM     18  C   UNL     1     196.358 191.274 196.537  1.00  0.00     0.000 C 
BRANCH  18  19
ATOM     19  C   UNL     1     195.946 192.265 195.427  1.00  0.00     0.000 C 
BRANCH  19  20
ATOM     20  C   UNL     1     194.431 192.531 195.417  1.00  0.00     0.006 C 
BRANCH  20  21
ATOM     21  C   UNL     1     193.849 192.529 193.998  1.00  0.00     0.053 C 
BRANCH  21  22
ATOM     22  C   UNL     1     193.402 193.896 193.578  1.00  0.00     0.041 C 
ATOM     23  O   UNL     1     192.271 194.329 193.926  1.00  0.00    -0.550 OA
ATOM     24  O   UNL     1     194.242 194.701 192.818  1.00  0.00    -0.550 OA
ENDBRANCH  21  22
ENDBRANCH  20  21
ENDBRANCH  19  20
ENDBRANCH  18  19
ENDBRANCH  17  18
ENDBRANCH  16  17
ENDBRANCH  15  16
ENDBRANCH  14  15
ENDBRANCH  13  14
ENDBRANCH   1  13
TORSDOF 20
ENDMDL
MODEL 6
REMARK VINA RESULT:    -3.458      1.094      3.379
REMARK INTER + INTRA:         -11.776
REMARK INTER:                  -7.841
REMARK INTRA:                  -3.935
REMARK UNBOUND:                -4.276
REMARK SMILES CCCCCCCCCCCCCCCCCCCCCC(=O)[O-]
REMARK SMILES IDX 12 1 11 2 10 3 9 4 8 5 7 6 6 7 5 8 4 9 3 10 2 11 1 12 13 13
REMARK SMILES IDX 14 14 15 15 16 16 17 17 18 18 19 19 20 20 21 21 22 22 23 23
REMARK SMILES IDX 24 24
REMARK H PARENT
REMARK Flexibility Score: inf
ROOT
ATOM      1  C   UNL     1     195.293 189.372 197.627  1.00  0.00     0.000 C 
ENDROOT
BRANCH   1   2
ATOM      2  C   UNL     1     193.923 190.053 197.479  1.00  0.00     0.000 C 
BRANCH   2   3
ATOM      3  C   UNL     1     194.066 191.443 196.841  1.00  0.00     0.000 C 
BRANCH   3   4
ATOM      4  C   UNL     1     193.226 192.513 197.557  1.00  0.00    -0.000 C 
BRANCH   4   5
ATOM      5  C   UNL     1     191.984 191.922 198.247  1.00  0.00    -0.000 C 
BRANCH   5   6
ATOM      6  C   UNL     1     191.852 192.368 199.713  1.00  0.00    -0.000 C 
BRANCH   6   7
ATOM      7  C   UNL     1     190.556 191.919 200.418  1.00  0.00    -0.000 C 
BRANCH   7   8
ATOM      8  C   UNL     1     189.875 190.701 199.756  1.00  0.00    -0.000 C 
BRANCH   8   9
ATOM      9  C   UNL     1     189.791 189.492 200.703  1.00  0.00    -0.000 C 
BRANCH   9  10
ATOM     10  C   UNL     1     190.659 188.311 200.239  1.00  0.00    -0.000 C 
BRANCH  10  11
ATOM     11  C   UNL     1     192.175 188.603 200.295  1.00  0.00    -0.003 C 
ATOM     12  C   UNL     1     192.677 188.790 201.727  1.00  0.00     0.004 C 
ENDBRANCH  10  11
ENDBRANCH   9  10
ENDBRANCH   8   9
ENDBRANCH   7   8
ENDBRANCH   6   7
ENDBRANCH   5   6
ENDBRANCH   4   5
ENDBRANCH   3   4
ENDBRANCH   2   3
ENDBRANCH   1   2
BRANCH   1  13
ATOM     13  C   UNL     1     195.671 189.127 199.097  1.00  0.00     0.000 C 
BRANCH  13  14
ATOM     14  C   UNL     1     196.320 190.358 199.753  1.00  0.00     0.000 C 
BRANCH  14  15
ATOM     15  C   UNL     1     195.380 191.061 200.745  1.00  0.00     0.000 C 
BRANCH  15  16
ATOM     16  C   UNL     1     195.441 192.595 200.637  1.00  0.00     0.000 C 
BRANCH  16  17
ATOM     17  C   UNL     1     196.284 193.075 199.445  1.00  0.00     0.000 C 
BRANCH  17  18
ATOM     18  C   UNL     1     195.989 194.516 198.981  1.00  0.00     0.000 C 
BRANCH  18  19
ATOM     19  C   UNL     1     195.154 195.338 199.987  1.00  0.00     0.000 C 
BRANCH  19  20
ATOM     20  C   UNL     1     193.791 195.755 199.409  1.00  0.00     0.006 C 
BRANCH  20  21
ATOM     21  C   UNL     1     192.707 195.853 200.489  1.00  0.00     0.053 C 
BRANCH  21  22
ATOM     22  C   UNL     1     191.705 196.923 200.176  1.00  0.00     0.041 C 
ATOM     23  O   UNL     1     190.530 196.843 200.620  1.00  0.00    -0.550 OA
ATOM     24  O   UNL     1     192.075 198.019 199.406  1.00  0.00    -0.550 OA
ENDBRANCH  21  22
ENDBRANCH  20  21
ENDBRANCH  19  20
ENDBRANCH  18  19
ENDBRANCH  17  18
ENDBRANCH  16  17
ENDBRANCH  15  16
ENDBRANCH  14  15
ENDBRANCH  13  14
ENDBRANCH   1  13
TORSDOF 20
ENDMDL
MODEL 7
REMARK VINA RESULT:    -3.457      9.807     12.616
REMARK INTER + INTRA:         -11.775
REMARK INTER:                  -8.228
REMARK INTRA:                  -3.547
REMARK UNBOUND:                -4.276
REMARK SMILES CCCCCCCCCCCCCCCCCCCCCC(=O)[O-]
REMARK SMILES IDX 12 1 11 2 10 3 9 4 8 5 7 6 6 7 5 8 4 9 3 10 2 11 1 12 13 13
REMARK SMILES IDX 14 14 15 15 16 16 17 17 18 18 19 19 20 20 21 21 22 22 23 23
REMARK SMILES IDX 24 24
REMARK H PARENT
REMARK Flexibility Score: inf
ROOT
ATOM      1  C   UNL     1     183.312 180.808 201.014  1.00  0.00     0.000 C 
ENDROOT
BRANCH   1   2
ATOM      2  C   UNL     1     184.736 180.343 200.672  1.00  0.00     0.000 C 
BRANCH   2   3
ATOM      3  C   UNL     1     185.624 180.323 201.926  1.00  0.00     0.000 C 
BRANCH   3   4
ATOM      4  C   UNL     1     186.922 181.127 201.747  1.00  0.00    -0.000 C 
BRANCH   4   5
ATOM      5  C   UNL     1     186.977 181.863 200.397  1.00  0.00    -0.000 C 
BRANCH   5   6
ATOM      6  C   UNL     1     186.898 183.392 200.550  1.00  0.00    -0.000 C 
BRANCH   6   7
ATOM      7  C   UNL     1     185.536 184.016 200.185  1.00  0.00    -0.000 C 
BRANCH   7   8
ATOM      8  C   UNL     1     185.067 183.695 198.750  1.00  0.00    -0.000 C 
BRANCH   8   9
ATOM      9  C   UNL     1     185.998 184.293 197.682  1.00  0.00    -0.000 C 
BRANCH   9  10
ATOM     10  C   UNL     1     186.234 185.799 197.873  1.00  0.00    -0.000 C 
BRANCH  10  11
ATOM     11  C   UNL     1     185.275 186.682 197.044  1.00  0.00    -0.003 C 
ATOM     12  C   UNL     1     184.844 186.005 195.741  1.00  0.00     0.004 C 
ENDBRANCH  10  11
ENDBRANCH   9  10
ENDBRANCH   8   9
ENDBRANCH   7   8
ENDBRANCH   6   7
ENDBRANCH   5   6
ENDBRANCH   4   5
ENDBRANCH   3   4
ENDBRANCH   2   3
ENDBRANCH   1   2
BRANCH   1  13
ATOM     13  C   UNL     1     183.294 181.871 202.125  1.00  0.00     0.000 C 
BRANCH  13  14
ATOM     14  C   UNL     1     182.253 182.975 201.868  1.00  0.00     0.000 C 
BRANCH  14  15
ATOM     15  C   UNL     1     181.161 182.536 200.879  1.00  0.00     0.000 C 
BRANCH  15  16
ATOM     16  C   UNL     1     180.665 183.691 199.990  1.00  0.00     0.000 C 
BRANCH  16  17
ATOM     17  C   UNL     1     181.772 184.270 199.095  1.00  0.00     0.000 C 
BRANCH  17  18
ATOM     18  C   UNL     1     181.302 185.354 198.103  1.00  0.00     0.000 C 
BRANCH  18  19
ATOM     19  C   UNL     1     181.751 186.783 198.480  1.00  0.00     0.000 C 
BRANCH  19  20
ATOM     20  C   UNL     1     182.644 186.802 199.733  1.00  0.00     0.006 C 
BRANCH  20  21
ATOM     21  C   UNL     1     183.105 188.218 200.097  1.00  0.00     0.053 C 
BRANCH  21  22
ATOM     22  C   UNL     1     184.598 188.309 200.190  1.00  0.00     0.041 C 
ATOM     23  O   UNL     1     185.229 189.144 199.489  1.00  0.00    -0.550 OA
ATOM     24  O   UNL     1     185.293 187.483 201.066  1.00  0.00    -0.550 OA
ENDBRANCH  21  22
ENDBRANCH  20  21
ENDBRANCH  19  20
ENDBRANCH  18  19
ENDBRANCH  17  18
ENDBRANCH  16  17
ENDBRANCH  15  16
ENDBRANCH  14  15
ENDBRANCH  13  14
ENDBRANCH   1  13
TORSDOF 20
ENDMDL
MODEL 8
REMARK VINA RESULT:    -3.449      9.443     12.654
REMARK INTER + INTRA:         -11.757
REMARK INTER:                  -8.335
REMARK INTRA:                  -3.422
REMARK UNBOUND:                -4.276
REMARK SMILES CCCCCCCCCCCCCCCCCCCCCC(=O)[O-]
REMARK SMILES IDX 12 1 11 2 10 3 9 4 8 5 7 6 6 7 5 8 4 9 3 10 2 11 1 12 13 13
REMARK SMILES IDX 14 14 15 15 16 16 17 17 18 18 19 19 20 20 21 21 22 22 23 23
REMARK SMILES IDX 24 24
REMARK H PARENT
REMARK Flexibility Score: inf
ROOT
ATOM      1  C   UNL     1     186.594 182.048 198.590  1.00  0.00     0.000 C 
ENDROOT
BRANCH   1   2
ATOM      2  C   UNL     1     187.181 181.949 200.007  1.00  0.00     0.000 C 
BRANCH   2   3
ATOM      3  C   UNL     1     186.570 180.765 200.773  1.00  0.00     0.000 C 
BRANCH   3   4
ATOM      4  C   UNL     1     185.325 180.190 200.079  1.00  0.00    -0.000 C 
BRANCH   4   5
ATOM      5  C   UNL     1     184.114 180.098 201.024  1.00  0.00    -0.000 C 
BRANCH   5   6
ATOM      6  C   UNL     1     184.137 181.172 202.125  1.00  0.00    -0.000 C 
BRANCH   6   7
ATOM      7  C   UNL     1     183.033 182.242 202.017  1.00  0.00    -0.000 C 
BRANCH   7   8
ATOM      8  C   UNL     1     182.147 182.101 200.761  1.00  0.00    -0.000 C 
BRANCH   8   9
ATOM      9  C   UNL     1     181.007 183.133 200.729  1.00  0.00    -0.000 C 
BRANCH   9  10
ATOM     10  C   UNL     1     181.362 184.436 201.465  1.00  0.00    -0.000 C 
BRANCH  10  11
ATOM     11  C   UNL     1     180.938 185.709 200.700  1.00  0.00    -0.003 C 
ATOM     12  C   UNL     1     181.499 185.746 199.278  1.00  0.00     0.004 C 
ENDBRANCH  10  11
ENDBRANCH   9  10
ENDBRANCH   8   9
ENDBRANCH   7   8
ENDBRANCH   6   7
ENDBRANCH   5   6
ENDBRANCH   4   5
ENDBRANCH   3   4
ENDBRANCH   2   3
ENDBRANCH   1   2
BRANCH   1  13
ATOM     13  C   UNL     1     185.989 183.433 198.301  1.00  0.00     0.000 C 
BRANCH  13  14
ATOM     14  C   UNL     1     184.807 183.764 199.229  1.00  0.00     0.000 C 
BRANCH  14  15
ATOM     15  C   UNL     1     185.067 185.010 200.091  1.00  0.00     0.000 C 
BRANCH  15  16
ATOM     16  C   UNL     1     186.473 185.599 199.875  1.00  0.00     0.000 C 
BRANCH  16  17
ATOM     17  C   UNL     1     186.480 187.136 199.870  1.00  0.00     0.000 C 
BRANCH  17  18
ATOM     18  C   UNL     1     185.333 187.787 199.070  1.00  0.00     0.000 C 
BRANCH  18  19
ATOM     19  C   UNL     1     185.610 187.895 197.555  1.00  0.00     0.000 C 
BRANCH  19  20
ATOM     20  C   UNL     1     184.321 187.799 196.719  1.00  0.00     0.006 C 
BRANCH  20  21
ATOM     21  C   UNL     1     184.109 186.397 196.135  1.00  0.00     0.053 C 
BRANCH  21  22
ATOM     22  C   UNL     1     185.114 186.081 195.069  1.00  0.00     0.041 C 
ATOM     23  O   UNL     1     186.018 185.230 195.281  1.00  0.00    -0.550 OA
ATOM     24  O   UNL     1     185.043 186.715 193.835  1.00  0.00    -0.550 OA
ENDBRANCH  21  22
ENDBRANCH  20  21
ENDBRANCH  19  20
ENDBRANCH  18  19
ENDBRANCH  17  18
ENDBRANCH  16  17
ENDBRANCH  15  16
ENDBRANCH  14  15
ENDBRANCH  13  14
ENDBRANCH   1  13
TORSDOF 20
ENDMDL
MODEL 9
REMARK VINA RESULT:    -3.434      8.410     12.093
REMARK INTER + INTRA:         -11.725
REMARK INTER:                  -8.596
REMARK INTRA:                  -3.129
REMARK UNBOUND:                -4.276
REMARK SMILES CCCCCCCCCCCCCCCCCCCCCC(=O)[O-]
REMARK SMILES IDX 12 1 11 2 10 3 9 4 8 5 7 6 6 7 5 8 4 9 3 10 2 11 1 12 13 13
REMARK SMILES IDX 14 14 15 15 16 16 17 17 18 18 19 19 20 20 21 21 22 22 23 23
REMARK SMILES IDX 24 24
REMARK H PARENT
REMARK Flexibility Score: inf
ROOT
ATOM      1  C   UNL     1     182.547 186.035 197.542  1.00  0.00     0.000 C 
ENDROOT
BRANCH   1   2
ATOM      2  C   UNL     1     183.153 185.801 198.935  1.00  0.00     0.000 C 
BRANCH   2   3
ATOM      3  C   UNL     1     184.316 184.799 198.867  1.00  0.00     0.000 C 
BRANCH   3   4
ATOM      4  C   UNL     1     184.633 184.165 200.231  1.00  0.00    -0.000 C 
BRANCH   4   5
ATOM      5  C   UNL     1     183.440 184.226 201.200  1.00  0.00    -0.000 C 
BRANCH   5   6
ATOM      6  C   UNL     1     183.259 182.925 202.000  1.00  0.00    -0.000 C 
BRANCH   6   7
ATOM      7  C   UNL     1     183.572 181.631 201.224  1.00  0.00    -0.000 C 
BRANCH   7   8
ATOM      8  C   UNL     1     184.265 180.544 202.073  1.00  0.00    -0.000 C 
BRANCH   8   9
ATOM      9  C   UNL     1     185.613 180.106 201.477  1.00  0.00    -0.000 C 
BRANCH   9  10
ATOM     10  C   UNL     1     185.815 180.599 200.035  1.00  0.00    -0.000 C 
BRANCH  10  11
ATOM     11  C   UNL     1     187.094 181.445 199.849  1.00  0.00    -0.003 C 
ATOM     12  C   UNL     1     187.596 182.037 201.167  1.00  0.00     0.004 C 
ENDBRANCH  10  11
ENDBRANCH   9  10
ENDBRANCH   8   9
ENDBRANCH   7   8
ENDBRANCH   6   7
ENDBRANCH   5   6
ENDBRANCH   4   5
ENDBRANCH   3   4
ENDBRANCH   2   3
ENDBRANCH   1   2
BRANCH   1  13
ATOM     13  C   UNL     1     183.614 186.375 196.488  1.00  0.00     0.000 C 
BRANCH  13  14
ATOM     14  C   UNL     1     183.298 187.675 195.727  1.00  0.00     0.000 C 
BRANCH  14  15
ATOM     15  C   UNL     1     182.179 188.490 196.393  1.00  0.00     0.000 C 
BRANCH  15  16
ATOM     16  C   UNL     1     182.525 189.985 196.517  1.00  0.00     0.000 C 
BRANCH  16  17
ATOM     17  C   UNL     1     182.649 190.448 197.978  1.00  0.00     0.000 C 
BRANCH  17  18
ATOM     18  C   UNL     1     183.385 189.464 198.909  1.00  0.00     0.000 C 
BRANCH  18  19
ATOM     19  C   UNL     1     184.900 189.355 198.633  1.00  0.00     0.000 C 
BRANCH  19  20
ATOM     20  C   UNL     1     185.631 188.535 199.710  1.00  0.00     0.006 C 
BRANCH  20  21
ATOM     21  C   UNL     1     186.772 187.693 199.126  1.00  0.00     0.053 C 
BRANCH  21  22
ATOM     22  C   UNL     1     187.582 187.033 200.200  1.00  0.00     0.041 C 
ATOM     23  O   UNL     1     187.733 185.782 200.204  1.00  0.00    -0.550 OA
ATOM     24  O   UNL     1     188.185 187.801 201.189  1.00  0.00    -0.550 OA
ENDBRANCH  21  22
ENDBRANCH  20  21
ENDBRANCH  19  20
ENDBRANCH  18  19
ENDBRANCH  17  18
ENDBRANCH  16  17
ENDBRANCH  15  16
ENDBRANCH  14  15
ENDBRANCH  13  14
ENDBRANCH   1  13
TORSDOF 20
ENDMDL
