MODEL 1
REMARK VINA RESULT:    -2.381      0.000      0.000
REMARK INTER + INTRA:          -3.355
REMARK INTER:                  -2.869
REMARK INTRA:                  -0.486
REMARK UNBOUND:                -0.486
REMARK SMILES NC(=O)C[C@@H]([NH3+])C(=O)[O-]
REMARK SMILES IDX 4 1 5 2 6 3 7 7 8 8 9 9 2 10 3 11 1 12
REMARK H PARENT 6 4 6 5 6 6 1 13 1 14
REMARK Flexibility Score: inf
ROOT
ATOM      1  C   UNL     1     -34.820  64.925 -43.459  1.00  0.00     0.171 C 
ENDROOT
BRANCH   1   2
ATOM      2  C   UNL     1     -33.363  64.859 -42.954  1.00  0.00     0.237 C 
BRANCH   2   3
ATOM      3  N   UNL     1     -33.181  63.804 -41.946  1.00  0.00    -0.350 N 
ATOM      4  H   UNL     1     -32.566  64.129 -41.165  1.00  0.00     0.345 HD
ATOM      5  H   UNL     1     -34.111  63.529 -41.555  1.00  0.00     0.345 HD
ATOM      6  H   UNL     1     -32.751  62.961 -42.392  1.00  0.00     0.345 HD
ENDBRANCH   2   3
BRANCH   2   7
ATOM      7  C   UNL     1     -32.390  64.704 -44.095  1.00  0.00     0.100 C 
ATOM      8  O   UNL     1     -31.772  65.701 -44.554  1.00  0.00    -0.544 OA
ATOM      9  O   UNL     1     -32.131  63.442 -44.613  1.00  0.00    -0.544 OA
ENDBRANCH   2   7
ENDBRANCH   1   2
BRANCH   1  10
ATOM     10  C   UNL     1     -35.442  63.571 -43.661  1.00  0.00     0.223 C 
ATOM     11  O   UNL     1     -36.103  63.041 -42.730  1.00  0.00    -0.275 OA
ATOM     12  N   UNL     1     -35.275  62.874 -44.895  1.00  0.00    -0.369 N 
ATOM     13  H   UNL     1     -34.728  63.297 -45.677  1.00  0.00     0.159 HD
ATOM     14  H   UNL     1     -35.698  61.928 -45.027  1.00  0.00     0.159 HD
ENDBRANCH   1  10
TORSDOF 4
ENDMDL
MODEL 2
REMARK VINA RESULT:    -2.359     13.123     13.552
REMARK INTER + INTRA:          -3.328
REMARK INTER:                  -2.820
REMARK INTRA:                  -0.507
REMARK UNBOUND:                -0.486
REMARK SMILES NC(=O)C[C@@H]([NH3+])C(=O)[O-]
REMARK SMILES IDX 4 1 5 2 6 3 7 7 8 8 9 9 2 10 3 11 1 12
REMARK H PARENT 6 4 6 5 6 6 1 13 1 14
REMARK Flexibility Score: inf
ROOT
ATOM      1  C   UNL     1     -23.409  57.772 -50.951  1.00  0.00     0.171 C 
ENDROOT
BRANCH   1   2
ATOM      2  C   UNL     1     -23.164  58.288 -49.517  1.00  0.00     0.237 C 
BRANCH   2   3
ATOM      3  N   UNL     1     -24.226  59.204 -49.076  1.00  0.00    -0.350 N 
ATOM      4  H   UNL     1     -23.826  60.052 -48.613  1.00  0.00     0.345 HD
ATOM      5  H   UNL     1     -24.795  59.503 -49.900  1.00  0.00     0.345 HD
ATOM      6  H   UNL     1     -24.859  58.713 -48.403  1.00  0.00     0.345 HD
ENDBRANCH   2   3
BRANCH   2   7
ATOM      7  C   UNL     1     -22.980  57.150 -48.545  1.00  0.00     0.100 C 
ATOM      8  O   UNL     1     -22.490  57.352 -47.402  1.00  0.00    -0.544 OA
ATOM      9  O   UNL     1     -23.402  55.873 -48.891  1.00  0.00    -0.544 OA
ENDBRANCH   2   7
ENDBRANCH   1   2
BRANCH   1  10
ATOM     10  C   UNL     1     -24.863  57.746 -51.333  1.00  0.00     0.223 C 
ATOM     11  O   UNL     1     -25.380  58.746 -51.898  1.00  0.00    -0.275 OA
ATOM     12  N   UNL     1     -25.668  56.603 -51.046  1.00  0.00    -0.369 N 
ATOM     13  H   UNL     1     -25.257  55.766 -50.576  1.00  0.00     0.159 HD
ATOM     14  H   UNL     1     -26.680  56.594 -51.301  1.00  0.00     0.159 HD
ENDBRANCH   1  10
TORSDOF 4
ENDMDL
MODEL 3
REMARK VINA RESULT:    -2.327      9.322     10.237
REMARK INTER + INTRA:          -3.289
REMARK INTER:                  -3.044
REMARK INTRA:                  -0.245
REMARK UNBOUND:                -0.486
REMARK SMILES NC(=O)C[C@@H]([NH3+])C(=O)[O-]
REMARK SMILES IDX 4 1 5 2 6 3 7 7 8 8 9 9 2 10 3 11 1 12
REMARK H PARENT 6 4 6 5 6 6 1 13 1 14
REMARK Flexibility Score: inf
ROOT
ATOM      1  C   UNL     1     -27.162  60.697 -50.975  1.00  0.00     0.171 C 
ENDROOT
BRANCH   1   2
ATOM      2  C   UNL     1     -26.784  60.460 -49.498  1.00  0.00     0.237 C 
BRANCH   2   3
ATOM      3  N   UNL     1     -25.398  59.991 -49.356  1.00  0.00    -0.350 N 
ATOM      4  H   UNL     1     -25.343  59.159 -48.724  1.00  0.00     0.345 HD
ATOM      5  H   UNL     1     -25.019  59.730 -50.294  1.00  0.00     0.345 HD
ATOM      6  H   UNL     1     -24.804  60.758 -48.965  1.00  0.00     0.345 HD
ENDBRANCH   2   3
BRANCH   2   7
ATOM      7  C   UNL     1     -27.039  61.686 -48.659  1.00  0.00     0.100 C 
ATOM      8  O   UNL     1     -27.533  62.726 -49.170  1.00  0.00    -0.544 OA
ATOM      9  O   UNL     1     -26.775  61.655 -47.296  1.00  0.00    -0.544 OA
ENDBRANCH   2   7
ENDBRANCH   1   2
BRANCH   1  10
ATOM     10  C   UNL     1     -27.710  59.472 -51.654  1.00  0.00     0.223 C 
ATOM     11  O   UNL     1     -27.349  58.329 -51.268  1.00  0.00    -0.275 OA
ATOM     12  N   UNL     1     -28.622  59.594 -52.744  1.00  0.00    -0.369 N 
ATOM     13  H   UNL     1     -28.930  60.534 -53.080  1.00  0.00     0.159 HD
ATOM     14  H   UNL     1     -28.990  58.741 -53.221  1.00  0.00     0.159 HD
ENDBRANCH   1  10
TORSDOF 4
ENDMDL
MODEL 4
REMARK VINA RESULT:    -2.312      8.981     10.415
REMARK INTER + INTRA:          -3.272
REMARK INTER:                  -2.786
REMARK INTRA:                  -0.485
REMARK UNBOUND:                -0.486
REMARK SMILES NC(=O)C[C@@H]([NH3+])C(=O)[O-]
REMARK SMILES IDX 4 1 5 2 6 3 7 7 8 8 9 9 2 10 3 11 1 12
REMARK H PARENT 6 4 6 5 6 6 1 13 1 14
REMARK Flexibility Score: inf
ROOT
ATOM      1  C   UNL     1     -24.500  61.260 -47.678  1.00  0.00     0.171 C 
ENDROOT
BRANCH   1   2
ATOM      2  C   UNL     1     -25.981  61.363 -47.255  1.00  0.00     0.237 C 
BRANCH   2   3
ATOM      3  N   UNL     1     -26.819  60.378 -47.953  1.00  0.00    -0.350 N 
ATOM      4  H   UNL     1     -26.248  59.784 -48.598  1.00  0.00     0.345 HD
ATOM      5  H   UNL     1     -27.292  59.761 -47.254  1.00  0.00     0.345 HD
ATOM      6  H   UNL     1     -27.557  60.871 -48.507  1.00  0.00     0.345 HD
ENDBRANCH   2   3
BRANCH   2   7
ATOM      7  C   UNL     1     -26.136  61.256 -45.759  1.00  0.00     0.100 C 
ATOM      8  O   UNL     1     -27.226  61.554 -45.201  1.00  0.00    -0.544 OA
ATOM      9  O   UNL     1     -25.085  60.773 -44.990  1.00  0.00    -0.544 OA
ENDBRANCH   2   7
ENDBRANCH   1   2
BRANCH   1  10
ATOM     10  C   UNL     1     -24.115  59.893 -48.171  1.00  0.00     0.223 C 
ATOM     11  O   UNL     1     -24.115  59.650 -49.407  1.00  0.00    -0.275 OA
ATOM     12  N   UNL     1     -23.768  58.861 -47.248  1.00  0.00    -0.369 N 
ATOM     13  H   UNL     1     -23.765  59.043 -46.220  1.00  0.00     0.159 HD
ATOM     14  H   UNL     1     -23.514  57.909 -47.594  1.00  0.00     0.159 HD
ENDBRANCH   1  10
TORSDOF 4
ENDMDL
MODEL 5
REMARK VINA RESULT:    -2.286     11.362     12.414
REMARK INTER + INTRA:          -3.240
REMARK INTER:                  -2.741
REMARK INTRA:                  -0.498
REMARK UNBOUND:                -0.486
REMARK SMILES NC(=O)C[C@@H]([NH3+])C(=O)[O-]
REMARK SMILES IDX 4 1 5 2 6 3 7 7 8 8 9 9 2 10 3 11 1 12
REMARK H PARENT 6 4 6 5 6 6 1 13 1 14
REMARK Flexibility Score: inf
ROOT
ATOM      1  C   UNL     1     -28.333  57.575 -53.999  1.00  0.00     0.171 C 
ENDROOT
BRANCH   1   2
ATOM      2  C   UNL     1     -28.685  58.949 -53.392  1.00  0.00     0.237 C 
BRANCH   2   3
ATOM      3  N   UNL     1     -30.137  59.126 -53.245  1.00  0.00    -0.350 N 
ATOM      4  H   UNL     1     -30.447  60.051 -53.623  1.00  0.00     0.345 HD
ATOM      5  H   UNL     1     -30.637  58.365 -53.759  1.00  0.00     0.345 HD
ATOM      6  H   UNL     1     -30.400  59.065 -52.234  1.00  0.00     0.345 HD
ENDBRANCH   2   3
BRANCH   2   7
ATOM      7  C   UNL     1     -27.968  59.176 -52.086  1.00  0.00     0.100 C 
ATOM      8  O   UNL     1     -27.815  60.340 -51.628  1.00  0.00    -0.544 OA
ATOM      9  O   UNL     1     -27.516  58.088 -51.350  1.00  0.00    -0.544 OA
ENDBRANCH   2   7
ENDBRANCH   1   2
BRANCH   1  10
ATOM     10  C   UNL     1     -29.377  56.524 -53.740  1.00  0.00     0.223 C 
ATOM     11  O   UNL     1     -30.267  56.300 -54.603  1.00  0.00    -0.275 OA
ATOM     12  N   UNL     1     -29.380  55.790 -52.516  1.00  0.00    -0.369 N 
ATOM     13  H   UNL     1     -28.651  55.965 -51.788  1.00  0.00     0.159 HD
ATOM     14  H   UNL     1     -30.114  55.071 -52.335  1.00  0.00     0.159 HD
ENDBRANCH   1  10
TORSDOF 4
ENDMDL
MODEL 6
REMARK VINA RESULT:    -2.281     11.315     12.207
REMARK INTER + INTRA:          -3.234
REMARK INTER:                  -2.755
REMARK INTRA:                  -0.479
REMARK UNBOUND:                -0.486
REMARK SMILES NC(=O)C[C@@H]([NH3+])C(=O)[O-]
REMARK SMILES IDX 4 1 5 2 6 3 7 7 8 8 9 9 2 10 3 11 1 12
REMARK H PARENT 6 4 6 5 6 6 1 13 1 14
REMARK Flexibility Score: inf
ROOT
ATOM      1  C   UNL     1     -27.183  58.585 -53.135  1.00  0.00     0.171 C 
ENDROOT
BRANCH   1   2
ATOM      2  C   UNL     1     -28.681  58.454 -53.485  1.00  0.00     0.237 C 
BRANCH   2   3
ATOM      3  N   UNL     1     -29.305  57.314 -52.798  1.00  0.00    -0.350 N 
ATOM      4  H   UNL     1     -30.325  57.481 -52.638  1.00  0.00     0.345 HD
ATOM      5  H   UNL     1     -29.189  56.450 -53.376  1.00  0.00     0.345 HD
ATOM      6  H   UNL     1     -28.836  57.156 -51.877  1.00  0.00     0.345 HD
ENDBRANCH   2   3
BRANCH   2   7
ATOM      7  C   UNL     1     -29.426  59.736 -53.214  1.00  0.00     0.100 C 
ATOM      8  O   UNL     1     -30.680  59.787 -53.319  1.00  0.00    -0.544 OA
ATOM      9  O   UNL     1     -28.729  60.861 -52.791  1.00  0.00    -0.544 OA
ENDBRANCH   2   7
ENDBRANCH   1   2
BRANCH   1  10
ATOM     10  C   UNL     1     -26.872  58.226 -51.708  1.00  0.00     0.223 C 
ATOM     11  O   UNL     1     -26.702  57.020 -51.389  1.00  0.00    -0.275 OA
ATOM     12  N   UNL     1     -26.784  59.241 -50.708  1.00  0.00    -0.369 N 
ATOM     13  H   UNL     1     -26.925  60.246 -50.954  1.00  0.00     0.159 HD
ATOM     14  H   UNL     1     -26.581  58.986 -49.716  1.00  0.00     0.159 HD
ENDBRANCH   1  10
TORSDOF 4
ENDMDL
MODEL 7
REMARK VINA RESULT:    -2.279      8.392      9.031
REMARK INTER + INTRA:          -3.232
REMARK INTER:                  -2.914
REMARK INTRA:                  -0.317
REMARK UNBOUND:                -0.486
REMARK SMILES NC(=O)C[C@@H]([NH3+])C(=O)[O-]
REMARK SMILES IDX 4 1 5 2 6 3 7 7 8 8 9 9 2 10 3 11 1 12
REMARK H PARENT 6 4 6 5 6 6 1 13 1 14
REMARK Flexibility Score: inf
ROOT
ATOM      1  C   UNL     1     -25.698  62.318 -46.916  1.00  0.00     0.171 C 
ENDROOT
BRANCH   1   2
ATOM      2  C   UNL     1     -26.098  61.529 -48.181  1.00  0.00     0.237 C 
BRANCH   2   3
ATOM      3  N   UNL     1     -26.772  60.265 -47.847  1.00  0.00    -0.350 N 
ATOM      4  H   UNL     1     -26.219  59.442 -48.180  1.00  0.00     0.345 HD
ATOM      5  H   UNL     1     -26.893  60.196 -46.811  1.00  0.00     0.345 HD
ATOM      6  H   UNL     1     -27.719  60.242 -48.290  1.00  0.00     0.345 HD
ENDBRANCH   2   3
BRANCH   2   7
ATOM      7  C   UNL     1     -26.934  62.368 -49.114  1.00  0.00     0.100 C 
ATOM      8  O   UNL     1     -27.147  63.585 -48.870  1.00  0.00    -0.544 OA
ATOM      9  O   UNL     1     -27.431  61.809 -50.284  1.00  0.00    -0.544 OA
ENDBRANCH   2   7
ENDBRANCH   1   2
BRANCH   1  10
ATOM     10  C   UNL     1     -26.057  61.613 -45.637  1.00  0.00     0.223 C 
ATOM     11  O   UNL     1     -27.252  61.611 -45.238  1.00  0.00    -0.275 OA
ATOM     12  N   UNL     1     -25.052  60.962 -44.860  1.00  0.00    -0.369 N 
ATOM     13  H   UNL     1     -24.056  60.956 -45.175  1.00  0.00     0.159 HD
ATOM     14  H   UNL     1     -25.304  60.486 -43.966  1.00  0.00     0.159 HD
ENDBRANCH   1  10
TORSDOF 4
ENDMDL
MODEL 8
REMARK VINA RESULT:    -2.239     11.026     11.380
REMARK INTER + INTRA:          -3.183
REMARK INTER:                  -2.712
REMARK INTRA:                  -0.471
REMARK UNBOUND:                -0.486
REMARK SMILES NC(=O)C[C@@H]([NH3+])C(=O)[O-]
REMARK SMILES IDX 4 1 5 2 6 3 7 7 8 8 9 9 2 10 3 11 1 12
REMARK H PARENT 6 4 6 5 6 6 1 13 1 14
REMARK Flexibility Score: inf
ROOT
ATOM      1  C   UNL     1     -28.234  60.106 -53.822  1.00  0.00     0.171 C 
ENDROOT
BRANCH   1   2
ATOM      2  C   UNL     1     -27.408  60.415 -52.555  1.00  0.00     0.237 C 
BRANCH   2   3
ATOM      3  N   UNL     1     -27.771  61.712 -51.968  1.00  0.00    -0.350 N 
ATOM      4  H   UNL     1     -28.486  62.205 -52.552  1.00  0.00     0.345 HD
ATOM      5  H   UNL     1     -28.160  61.566 -51.009  1.00  0.00     0.345 HD
ATOM      6  H   UNL     1     -26.920  62.315 -51.888  1.00  0.00     0.345 HD
ENDBRANCH   2   3
BRANCH   2   7
ATOM      7  C   UNL     1     -27.514  59.303 -51.543  1.00  0.00     0.100 C 
ATOM      8  O   UNL     1     -27.212  59.500 -50.335  1.00  0.00    -0.544 OA
ATOM      9  O   UNL     1     -28.000  58.062 -51.931  1.00  0.00    -0.544 OA
ENDBRANCH   2   7
ENDBRANCH   1   2
BRANCH   1  10
ATOM     10  C   UNL     1     -29.695  60.430 -53.674  1.00  0.00     0.223 C 
ATOM     11  O   UNL     1     -30.092  61.614 -53.838  1.00  0.00    -0.275 OA
ATOM     12  N   UNL     1     -30.633  59.411 -53.332  1.00  0.00    -0.369 N 
ATOM     13  H   UNL     1     -30.320  58.424 -53.190  1.00  0.00     0.159 HD
ATOM     14  H   UNL     1     -31.644  59.643 -53.217  1.00  0.00     0.159 HD
ENDBRANCH   1  10
TORSDOF 4
ENDMDL
MODEL 9
REMARK VINA RESULT:    -2.234     11.754     12.967
REMARK INTER + INTRA:          -3.178
REMARK INTER:                  -2.695
REMARK INTRA:                  -0.483
REMARK UNBOUND:                -0.486
REMARK SMILES NC(=O)C[C@@H]([NH3+])C(=O)[O-]
REMARK SMILES IDX 4 1 5 2 6 3 7 7 8 8 9 9 2 10 3 11 1 12
REMARK H PARENT 6 4 6 5 6 6 1 13 1 14
REMARK Flexibility Score: inf
ROOT
ATOM      1  C   UNL     1     -26.646  57.226 -53.184  1.00  0.00     0.171 C 
ENDROOT
BRANCH   1   2
ATOM      2  C   UNL     1     -28.053  57.828 -52.985  1.00  0.00     0.237 C 
BRANCH   2   3
ATOM      3  N   UNL     1     -29.010  56.828 -52.489  1.00  0.00    -0.350 N 
ATOM      4  H   UNL     1     -29.680  57.251 -51.806  1.00  0.00     0.345 HD
ATOM      5  H   UNL     1     -29.550  56.431 -53.292  1.00  0.00     0.345 HD
ATOM      6  H   UNL     1     -28.494  56.046 -52.023  1.00  0.00     0.345 HD
ENDBRANCH   2   3
BRANCH   2   7
ATOM      7  C   UNL     1     -28.014  59.042 -52.093  1.00  0.00     0.100 C 
ATOM      8  O   UNL     1     -27.447  58.997 -50.968  1.00  0.00    -0.544 OA
ATOM      9  O   UNL     1     -28.562  60.239 -52.534  1.00  0.00    -0.544 OA
ENDBRANCH   2   7
ENDBRANCH   1   2
BRANCH   1  10
ATOM     10  C   UNL     1     -26.317  56.141 -52.196  1.00  0.00     0.223 C 
ATOM     11  O   UNL     1     -26.664  54.954 -52.433  1.00  0.00    -0.275 OA
ATOM     12  N   UNL     1     -25.630  56.448 -50.984  1.00  0.00    -0.369 N 
ATOM     13  H   UNL     1     -25.336  57.428 -50.770  1.00  0.00     0.159 HD
ATOM     14  H   UNL     1     -25.415  55.694 -50.295  1.00  0.00     0.159 HD
ENDBRANCH   1  10
TORSDOF 4
ENDMDL
