MODEL 1
REMARK VINA RESULT:    -3.672      0.000      0.000
REMARK INTER + INTRA:          -8.233
REMARK INTER:                  -6.034
REMARK INTRA:                  -2.199
REMARK UNBOUND:                -2.199
REMARK SMILES CCCCCCCCCCCCCC
REMARK SMILES IDX 7 1 6 2 5 3 4 4 3 5 2 6 1 7 8 8 9 9 10 10 11 11 12 12 13 13
REMARK SMILES IDX 14 14
REMARK H PARENT
REMARK Flexibility Score: inf
ROOT
ATOM      1  C   UNL     1      19.102  49.760  47.070  1.00  0.00    -0.000 C 
ENDROOT
BRANCH   1   2
ATOM      2  C   UNL     1      19.403  50.677  45.872  1.00  0.00    -0.000 C 
BRANCH   2   3
ATOM      3  C   UNL     1      18.247  50.854  44.864  1.00  0.00    -0.000 C 
BRANCH   3   4
ATOM      4  C   UNL     1      18.580  50.456  43.412  1.00  0.00    -0.000 C 
BRANCH   4   5
ATOM      5  C   UNL     1      17.436  49.704  42.695  1.00  0.00    -0.000 C 
BRANCH   5   6
ATOM      6  C   UNL     1      17.667  48.187  42.596  1.00  0.00    -0.003 C 
ATOM      7  C   UNL     1      16.657  47.379  43.408  1.00  0.00     0.004 C 
ENDBRANCH   5   6
ENDBRANCH   4   5
ENDBRANCH   3   4
ENDBRANCH   2   3
ENDBRANCH   1   2
BRANCH   1   8
ATOM      8  C   UNL     1      19.855  48.423  47.008  1.00  0.00    -0.000 C 
BRANCH   8   9
ATOM      9  C   UNL     1      19.117  47.419  46.108  1.00  0.00    -0.000 C 
BRANCH   9  10
ATOM     10  C   UNL     1      20.035  46.765  45.060  1.00  0.00    -0.000 C 
BRANCH  10  11
ATOM     11  C   UNL     1      21.392  47.463  44.857  1.00  0.00    -0.000 C 
BRANCH  11  12
ATOM     12  C   UNL     1      21.451  48.296  43.568  1.00  0.00    -0.000 C 
BRANCH  12  13
ATOM     13  C   UNL     1      22.242  49.591  43.786  1.00  0.00    -0.003 C 
ATOM     14  C   UNL     1      22.898  49.610  45.163  1.00  0.00     0.004 C 
ENDBRANCH  12  13
ENDBRANCH  11  12
ENDBRANCH  10  11
ENDBRANCH   9  10
ENDBRANCH   8   9
ENDBRANCH   1   8
TORSDOF 11
ENDMDL
MODEL 2
REMARK VINA RESULT:    -3.634      1.262      3.665
REMARK INTER + INTRA:          -8.170
REMARK INTER:                  -5.960
REMARK INTRA:                  -2.210
REMARK UNBOUND:                -2.199
REMARK SMILES CCCCCCCCCCCCCC
REMARK SMILES IDX 7 1 6 2 5 3 4 4 3 5 2 6 1 7 8 8 9 9 10 10 11 11 12 12 13 13
REMARK SMILES IDX 14 14
REMARK H PARENT
REMARK Flexibility Score: inf
ROOT
ATOM      1  C   UNL     1      19.485  49.800  47.020  1.00  0.00    -0.000 C 
ENDROOT
BRANCH   1   2
ATOM      2  C   UNL     1      20.232  50.233  45.746  1.00  0.00    -0.000 C 
BRANCH   2   3
ATOM      3  C   UNL     1      21.454  49.368  45.366  1.00  0.00    -0.000 C 
BRANCH   3   4
ATOM      4  C   UNL     1      21.664  49.166  43.852  1.00  0.00    -0.000 C 
BRANCH   4   5
ATOM      5  C   UNL     1      21.365  47.729  43.368  1.00  0.00    -0.000 C 
BRANCH   5   6
ATOM      6  C   UNL     1      21.407  46.682  44.493  1.00  0.00    -0.003 C 
ATOM      7  C   UNL     1      21.405  45.248  43.968  1.00  0.00     0.004 C 
ENDBRANCH   5   6
ENDBRANCH   4   5
ENDBRANCH   3   4
ENDBRANCH   2   3
ENDBRANCH   1   2
BRANCH   1   8
ATOM      8  C   UNL     1      19.813  48.363  47.450  1.00  0.00    -0.000 C 
BRANCH   8   9
ATOM      9  C   UNL     1      18.543  47.499  47.494  1.00  0.00    -0.000 C 
BRANCH   9  10
ATOM     10  C   UNL     1      18.296  46.727  46.185  1.00  0.00    -0.000 C 
BRANCH  10  11
ATOM     11  C   UNL     1      17.254  47.361  45.244  1.00  0.00    -0.000 C 
BRANCH  11  12
ATOM     12  C   UNL     1      17.733  47.439  43.787  1.00  0.00    -0.000 C 
BRANCH  12  13
ATOM     13  C   UNL     1      17.831  48.895  43.319  1.00  0.00    -0.003 C 
ATOM     14  C   UNL     1      16.906  49.798  44.129  1.00  0.00     0.004 C 
ENDBRANCH  12  13
ENDBRANCH  11  12
ENDBRANCH  10  11
ENDBRANCH   9  10
ENDBRANCH   8   9
ENDBRANCH   1   8
TORSDOF 11
ENDMDL
MODEL 3
REMARK VINA RESULT:    -3.625      0.993      4.200
REMARK INTER + INTRA:          -8.156
REMARK INTER:                  -5.925
REMARK INTRA:                  -2.230
REMARK UNBOUND:                -2.199
REMARK SMILES CCCCCCCCCCCCCC
REMARK SMILES IDX 7 1 6 2 5 3 4 4 3 5 2 6 1 7 8 8 9 9 10 10 11 11 12 12 13 13
REMARK SMILES IDX 14 14
REMARK H PARENT
REMARK Flexibility Score: inf
ROOT
ATOM      1  C   UNL     1      21.317  48.040  43.419  1.00  0.00    -0.000 C 
ENDROOT
BRANCH   1   2
ATOM      2  C   UNL     1      21.721  49.439  43.917  1.00  0.00    -0.000 C 
BRANCH   2   3
ATOM      3  C   UNL     1      22.477  49.473  45.262  1.00  0.00    -0.000 C 
BRANCH   3   4
ATOM      4  C   UNL     1      21.686  50.079  46.440  1.00  0.00    -0.000 C 
BRANCH   4   5
ATOM      5  C   UNL     1      20.210  50.390  46.104  1.00  0.00    -0.000 C 
BRANCH   5   6
ATOM      6  C   UNL     1      19.212  49.765  47.092  1.00  0.00    -0.003 C 
ATOM      7  C   UNL     1      19.756  48.507  47.767  1.00  0.00     0.004 C 
ENDBRANCH   5   6
ENDBRANCH   4   5
ENDBRANCH   3   4
ENDBRANCH   2   3
ENDBRANCH   1   2
BRANCH   1   8
ATOM      8  C   UNL     1      21.402  46.966  44.513  1.00  0.00    -0.000 C 
BRANCH   8   9
ATOM      9  C   UNL     1      20.030  46.316  44.751  1.00  0.00    -0.000 C 
BRANCH   9  10
ATOM     10  C   UNL     1      18.911  46.943  43.900  1.00  0.00    -0.000 C 
BRANCH  10  11
ATOM     11  C   UNL     1      17.720  47.499  44.701  1.00  0.00    -0.000 C 
BRANCH  11  12
ATOM     12  C   UNL     1      16.895  48.527  43.912  1.00  0.00    -0.000 C 
BRANCH  12  13
ATOM     13  C   UNL     1      17.727  49.149  42.785  1.00  0.00    -0.003 C 
ATOM     14  C   UNL     1      18.109  50.590  43.110  1.00  0.00     0.004 C 
ENDBRANCH  12  13
ENDBRANCH  11  12
ENDBRANCH  10  11
ENDBRANCH   9  10
ENDBRANCH   8   9
ENDBRANCH   1   8
TORSDOF 11
ENDMDL
MODEL 4
REMARK VINA RESULT:    -3.624      0.962      2.415
REMARK INTER + INTRA:          -8.154
REMARK INTER:                  -6.269
REMARK INTRA:                  -1.885
REMARK UNBOUND:                -2.199
REMARK SMILES CCCCCCCCCCCCCC
REMARK SMILES IDX 7 1 6 2 5 3 4 4 3 5 2 6 1 7 8 8 9 9 10 10 11 11 12 12 13 13
REMARK SMILES IDX 14 14
REMARK H PARENT
REMARK Flexibility Score: inf
ROOT
ATOM      1  C   UNL     1      19.710  50.759  46.148  1.00  0.00    -0.000 C 
ENDROOT
BRANCH   1   2
ATOM      2  C   UNL     1      18.360  50.030  46.265  1.00  0.00    -0.000 C 
BRANCH   2   3
ATOM      3  C   UNL     1      17.251  50.528  45.313  1.00  0.00    -0.000 C 
BRANCH   3   4
ATOM      4  C   UNL     1      17.743  51.396  44.136  1.00  0.00    -0.000 C 
BRANCH   4   5
ATOM      5  C   UNL     1      17.991  50.599  42.836  1.00  0.00    -0.000 C 
BRANCH   5   6
ATOM      6  C   UNL     1      16.959  49.485  42.593  1.00  0.00    -0.003 C 
ATOM      7  C   UNL     1      17.588  48.093  42.554  1.00  0.00     0.004 C 
ENDBRANCH   5   6
ENDBRANCH   4   5
ENDBRANCH   3   4
ENDBRANCH   2   3
ENDBRANCH   1   2
BRANCH   1   8
ATOM      8  C   UNL     1      20.886  49.936  46.693  1.00  0.00    -0.000 C 
BRANCH   8   9
ATOM      9  C   UNL     1      21.907  49.635  45.585  1.00  0.00    -0.000 C 
BRANCH   9  10
ATOM     10  C   UNL     1      21.276  49.603  44.181  1.00  0.00    -0.000 C 
BRANCH  10  11
ATOM     11  C   UNL     1      21.299  48.227  43.489  1.00  0.00    -0.000 C 
BRANCH  11  12
ATOM     12  C   UNL     1      21.440  47.061  44.479  1.00  0.00    -0.000 C 
BRANCH  12  13
ATOM     13  C   UNL     1      20.104  46.332  44.662  1.00  0.00    -0.003 C 
ATOM     14  C   UNL     1      19.541  46.556  46.062  1.00  0.00     0.004 C 
ENDBRANCH  12  13
ENDBRANCH  11  12
ENDBRANCH  10  11
ENDBRANCH   9  10
ENDBRANCH   8   9
ENDBRANCH   1   8
TORSDOF 11
ENDMDL
MODEL 5
REMARK VINA RESULT:    -3.623      1.302      2.958
REMARK INTER + INTRA:          -8.152
REMARK INTER:                  -5.841
REMARK INTRA:                  -2.311
REMARK UNBOUND:                -2.199
REMARK SMILES CCCCCCCCCCCCCC
REMARK SMILES IDX 7 1 6 2 5 3 4 4 3 5 2 6 1 7 8 8 9 9 10 10 11 11 12 12 13 13
REMARK SMILES IDX 14 14
REMARK H PARENT
REMARK Flexibility Score: inf
ROOT
ATOM      1  C   UNL     1      19.479  47.533  47.075  1.00  0.00    -0.000 C 
ENDROOT
BRANCH   1   2
ATOM      2  C   UNL     1      18.205  46.871  46.522  1.00  0.00    -0.000 C 
BRANCH   2   3
ATOM      3  C   UNL     1      17.350  47.754  45.587  1.00  0.00    -0.000 C 
BRANCH   3   4
ATOM      4  C   UNL     1      17.841  47.825  44.127  1.00  0.00    -0.000 C 
BRANCH   4   5
ATOM      5  C   UNL     1      17.734  49.234  43.502  1.00  0.00    -0.000 C 
BRANCH   5   6
ATOM      6  C   UNL     1      17.017  50.252  44.404  1.00  0.00    -0.003 C 
ATOM      7  C   UNL     1      17.783  51.567  44.540  1.00  0.00     0.004 C 
ENDBRANCH   5   6
ENDBRANCH   4   5
ENDBRANCH   3   4
ENDBRANCH   2   3
ENDBRANCH   1   2
BRANCH   1   8
ATOM      8  C   UNL     1      19.337  49.051  47.257  1.00  0.00    -0.000 C 
BRANCH   8   9
ATOM      9  C   UNL     1      20.304  49.808  46.334  1.00  0.00    -0.000 C 
BRANCH   9  10
ATOM     10  C   UNL     1      21.314  48.882  45.633  1.00  0.00    -0.000 C 
BRANCH  10  11
ATOM     11  C   UNL     1      21.456  49.104  44.116  1.00  0.00    -0.000 C 
BRANCH  11  12
ATOM     12  C   UNL     1      21.350  47.803  43.307  1.00  0.00    -0.000 C 
BRANCH  12  13
ATOM     13  C   UNL     1      21.382  46.579  44.229  1.00  0.00    -0.003 C 
ATOM     14  C   UNL     1      20.696  45.381  43.581  1.00  0.00     0.004 C 
ENDBRANCH  12  13
ENDBRANCH  11  12
ENDBRANCH  10  11
ENDBRANCH   9  10
ENDBRANCH   8   9
ENDBRANCH   1   8
TORSDOF 11
ENDMDL
MODEL 6
REMARK VINA RESULT:    -3.598      1.155      1.941
REMARK INTER + INTRA:          -8.111
REMARK INTER:                  -6.037
REMARK INTRA:                  -2.074
REMARK UNBOUND:                -2.199
REMARK SMILES CCCCCCCCCCCCCC
REMARK SMILES IDX 7 1 6 2 5 3 4 4 3 5 2 6 1 7 8 8 9 9 10 10 11 11 12 12 13 13
REMARK SMILES IDX 14 14
REMARK H PARENT
REMARK Flexibility Score: inf
ROOT
ATOM      1  C   UNL     1      18.706  47.677  46.667  1.00  0.00    -0.000 C 
ENDROOT
BRANCH   1   2
ATOM      2  C   UNL     1      18.085  49.084  46.697  1.00  0.00    -0.000 C 
BRANCH   2   3
ATOM      3  C   UNL     1      17.497  49.579  45.358  1.00  0.00    -0.000 C 
BRANCH   3   4
ATOM      4  C   UNL     1      18.103  50.893  44.825  1.00  0.00    -0.000 C 
BRANCH   4   5
ATOM      5  C   UNL     1      18.148  50.977  43.282  1.00  0.00    -0.000 C 
BRANCH   5   6
ATOM      6  C   UNL     1      17.604  49.720  42.584  1.00  0.00    -0.003 C 
ATOM      7  C   UNL     1      16.600  50.043  41.479  1.00  0.00     0.004 C 
ENDBRANCH   5   6
ENDBRANCH   4   5
ENDBRANCH   3   4
ENDBRANCH   2   3
ENDBRANCH   1   2
BRANCH   1   8
ATOM      8  C   UNL     1      18.955  47.160  45.243  1.00  0.00    -0.000 C 
BRANCH   8   9
ATOM      9  C   UNL     1      20.273  46.375  45.166  1.00  0.00    -0.000 C 
BRANCH   9  10
ATOM     10  C   UNL     1      21.393  47.152  44.450  1.00  0.00    -0.000 C 
BRANCH  10  11
ATOM     11  C   UNL     1      20.923  48.376  43.644  1.00  0.00    -0.000 C 
BRANCH  11  12
ATOM     12  C   UNL     1      21.575  49.687  44.109  1.00  0.00    -0.000 C 
BRANCH  12  13
ATOM     13  C   UNL     1      22.342  49.482  45.420  1.00  0.00    -0.003 C 
ATOM     14  C   UNL     1      21.597  50.102  46.598  1.00  0.00     0.004 C 
ENDBRANCH  12  13
ENDBRANCH  11  12
ENDBRANCH  10  11
ENDBRANCH   9  10
ENDBRANCH   8   9
ENDBRANCH   1   8
TORSDOF 11
ENDMDL
MODEL 7
REMARK VINA RESULT:    -3.582      1.327      4.206
REMARK INTER + INTRA:          -8.084
REMARK INTER:                  -6.313
REMARK INTRA:                  -1.771
REMARK UNBOUND:                -2.199
REMARK SMILES CCCCCCCCCCCCCC
REMARK SMILES IDX 7 1 6 2 5 3 4 4 3 5 2 6 1 7 8 8 9 9 10 10 11 11 12 12 13 13
REMARK SMILES IDX 14 14
REMARK H PARENT
REMARK Flexibility Score: inf
ROOT
ATOM      1  C   UNL     1      19.810  48.497  46.657  1.00  0.00    -0.000 C 
ENDROOT
BRANCH   1   2
ATOM      2  C   UNL     1      20.996  49.188  45.959  1.00  0.00    -0.000 C 
BRANCH   2   3
ATOM      3  C   UNL     1      20.889  49.298  44.423  1.00  0.00    -0.000 C 
BRANCH   3   4
ATOM      4  C   UNL     1      21.592  48.172  43.638  1.00  0.00    -0.000 C 
BRANCH   4   5
ATOM      5  C   UNL     1      20.617  47.149  43.010  1.00  0.00    -0.000 C 
BRANCH   5   6
ATOM      6  C   UNL     1      20.380  45.910  43.888  1.00  0.00    -0.003 C 
ATOM      7  C   UNL     1      21.656  45.107  44.137  1.00  0.00     0.004 C 
ENDBRANCH   5   6
ENDBRANCH   4   5
ENDBRANCH   3   4
ENDBRANCH   2   3
ENDBRANCH   1   2
BRANCH   1   8
ATOM      8  C   UNL     1      18.499  48.610  45.867  1.00  0.00    -0.000 C 
BRANCH   8   9
ATOM      9  C   UNL     1      17.640  49.771  46.390  1.00  0.00    -0.000 C 
BRANCH   9  10
ATOM     10  C   UNL     1      16.908  50.531  45.269  1.00  0.00    -0.000 C 
BRANCH  10  11
ATOM     11  C   UNL     1      17.819  51.354  44.341  1.00  0.00    -0.000 C 
BRANCH  11  12
ATOM     12  C   UNL     1      17.937  50.756  42.931  1.00  0.00    -0.000 C 
BRANCH  12  13
ATOM     13  C   UNL     1      16.762  49.818  42.633  1.00  0.00    -0.003 C 
ATOM     14  C   UNL     1      17.249  48.416  42.282  1.00  0.00     0.004 C 
ENDBRANCH  12  13
ENDBRANCH  11  12
ENDBRANCH  10  11
ENDBRANCH   9  10
ENDBRANCH   8   9
ENDBRANCH   1   8
TORSDOF 11
ENDMDL
MODEL 8
REMARK VINA RESULT:    -3.581      1.176      4.630
REMARK INTER + INTRA:          -8.083
REMARK INTER:                  -6.092
REMARK INTRA:                  -1.991
REMARK UNBOUND:                -2.199
REMARK SMILES CCCCCCCCCCCCCC
REMARK SMILES IDX 7 1 6 2 5 3 4 4 3 5 2 6 1 7 8 8 9 9 10 10 11 11 12 12 13 13
REMARK SMILES IDX 14 14
REMARK H PARENT
REMARK Flexibility Score: inf
ROOT
ATOM      1  C   UNL     1      18.801  47.166  45.359  1.00  0.00    -0.000 C 
ENDROOT
BRANCH   1   2
ATOM      2  C   UNL     1      20.182  46.490  45.432  1.00  0.00    -0.000 C 
BRANCH   2   3
ATOM      3  C   UNL     1      21.248  47.048  44.465  1.00  0.00    -0.000 C 
BRANCH   3   4
ATOM      4  C   UNL     1      20.797  48.261  43.627  1.00  0.00    -0.000 C 
BRANCH   4   5
ATOM      5  C   UNL     1      21.388  49.606  44.109  1.00  0.00    -0.000 C 
BRANCH   5   6
ATOM      6  C   UNL     1      22.431  49.450  45.227  1.00  0.00    -0.003 C 
ATOM      7  C   UNL     1      21.985  50.079  46.546  1.00  0.00     0.004 C 
ENDBRANCH   5   6
ENDBRANCH   4   5
ENDBRANCH   3   4
ENDBRANCH   2   3
ENDBRANCH   1   2
BRANCH   1   8
ATOM      8  C   UNL     1      18.404  47.865  46.667  1.00  0.00    -0.000 C 
BRANCH   8   9
ATOM      9  C   UNL     1      18.370  49.390  46.487  1.00  0.00    -0.000 C 
BRANCH   9  10
ATOM     10  C   UNL     1      17.555  49.832  45.258  1.00  0.00    -0.000 C 
BRANCH  10  11
ATOM     11  C   UNL     1      18.054  51.117  44.574  1.00  0.00    -0.000 C 
BRANCH  11  12
ATOM     12  C   UNL     1      18.122  50.995  43.044  1.00  0.00    -0.000 C 
BRANCH  12  13
ATOM     13  C   UNL     1      17.456  49.699  42.568  1.00  0.00    -0.003 C 
ATOM     14  C   UNL     1      16.673  49.923  41.277  1.00  0.00     0.004 C 
ENDBRANCH  12  13
ENDBRANCH  11  12
ENDBRANCH  10  11
ENDBRANCH   9  10
ENDBRANCH   8   9
ENDBRANCH   1   8
TORSDOF 11
ENDMDL
MODEL 9
REMARK VINA RESULT:    -3.551      1.238      3.737
REMARK INTER + INTRA:          -8.035
REMARK INTER:                  -5.821
REMARK INTRA:                  -2.214
REMARK UNBOUND:                -2.199
REMARK SMILES CCCCCCCCCCCCCC
REMARK SMILES IDX 7 1 6 2 5 3 4 4 3 5 2 6 1 7 8 8 9 9 10 10 11 11 12 12 13 13
REMARK SMILES IDX 14 14
REMARK H PARENT
REMARK Flexibility Score: inf
ROOT
ATOM      1  C   UNL     1      20.431  46.063  43.408  1.00  0.00    -0.000 C 
ENDROOT
BRANCH   1   2
ATOM      2  C   UNL     1      19.102  46.737  43.022  1.00  0.00    -0.000 C 
BRANCH   2   3
ATOM      3  C   UNL     1      18.245  47.242  44.203  1.00  0.00    -0.000 C 
BRANCH   3   4
ATOM      4  C   UNL     1      17.391  48.490  43.903  1.00  0.00    -0.000 C 
BRANCH   4   5
ATOM      5  C   UNL     1      18.085  49.511  42.974  1.00  0.00    -0.000 C 
BRANCH   5   6
ATOM      6  C   UNL     1      18.027  50.955  43.499  1.00  0.00    -0.003 C 
ATOM      7  C   UNL     1      17.199  51.089  44.775  1.00  0.00     0.004 C 
ENDBRANCH   5   6
ENDBRANCH   4   5
ENDBRANCH   3   4
ENDBRANCH   2   3
ENDBRANCH   1   2
BRANCH   1   8
ATOM      8  C   UNL     1      21.377  46.996  44.178  1.00  0.00    -0.000 C 
BRANCH   8   9
ATOM      9  C   UNL     1      21.760  48.215  43.325  1.00  0.00    -0.000 C 
BRANCH   9  10
ATOM     10  C   UNL     1      21.516  49.553  44.046  1.00  0.00    -0.000 C 
BRANCH  10  11
ATOM     11  C   UNL     1      21.676  49.506  45.576  1.00  0.00    -0.000 C 
BRANCH  11  12
ATOM     12  C   UNL     1      20.392  49.895  46.325  1.00  0.00    -0.000 C 
BRANCH  12  13
ATOM     13  C   UNL     1      19.871  48.724  47.165  1.00  0.00    -0.003 C 
ATOM     14  C   UNL     1      18.414  48.936  47.563  1.00  0.00     0.004 C 
ENDBRANCH  12  13
ENDBRANCH  11  12
ENDBRANCH  10  11
ENDBRANCH   9  10
ENDBRANCH   8   9
ENDBRANCH   1   8
TORSDOF 11
ENDMDL
