MODEL 1
REMARK VINA RESULT:    -4.669      0.000      0.000
REMARK INTER + INTRA:          -8.398
REMARK INTER:                  -7.125
REMARK INTRA:                  -1.273
REMARK UNBOUND:                -1.273
REMARK SMILES CC(=O)CCC=C(C)CCC=C(C)CCC=C(C)C
REMARK SMILES IDX 10 1 11 2 12 3 13 4 14 5 15 6 16 7 18 8 17 9 19 10 9 11 7 12
REMARK SMILES IDX 6 13 8 14 5 15 4 16 2 17 3 18 1 19
REMARK H PARENT
REMARK Flexibility Score: inf
ROOT
ATOM      1  C   UNL     1      -0.007  12.866   4.025  1.00  0.00     0.032 C 
ENDROOT
BRANCH   1   2
ATOM      2  C   UNL     1       1.327  13.453   4.410  1.00  0.00    -0.028 C 
ATOM      3  C   UNL     1       1.974  13.187   5.568  1.00  0.00    -0.077 C 
ATOM      4  C   UNL     1       1.439  12.187   6.567  1.00  0.00     0.039 C 
BRANCH   3   5
ATOM      5  C   UNL     1       3.286  13.888   5.851  1.00  0.00     0.034 C 
BRANCH   5   6
ATOM      6  C   UNL     1       4.142  13.070   6.827  1.00  0.00     0.032 C 
BRANCH   6   7
ATOM      7  C   UNL     1       5.216  12.299   6.098  1.00  0.00    -0.028 C 
ATOM      8  C   UNL     1       6.591  10.329   5.574  1.00  0.00     0.039 C 
ATOM      9  C   UNL     1       5.493  11.003   6.354  1.00  0.00    -0.080 C 
ATOM     10  C   UNL     1       4.731  10.224   7.399  1.00  0.00     0.039 C 
ENDBRANCH   6   7
ENDBRANCH   5   6
ENDBRANCH   3   5
ENDBRANCH   1   2
BRANCH   1  11
ATOM     11  C   UNL     1      -1.146  13.836   4.364  1.00  0.00     0.034 C 
BRANCH  11  12
ATOM     12  C   UNL     1      -2.329  13.097   4.951  1.00  0.00    -0.077 C 
ATOM     13  C   UNL     1      -2.121  11.925   5.588  1.00  0.00    -0.028 C 
ATOM     14  C   UNL     1      -3.711  13.692   4.832  1.00  0.00     0.039 C 
BRANCH  13  15
ATOM     15  C   UNL     1      -3.234  11.100   6.190  1.00  0.00     0.035 C 
BRANCH  15  16
ATOM     16  C   UNL     1      -3.409   9.756   5.471  1.00  0.00     0.079 C 
BRANCH  16  17
ATOM     17  C   UNL     1      -2.940   8.603   6.325  1.00  0.00     0.130 C 
ATOM     18  O   UNL     1      -1.743   8.377   6.427  1.00  0.00    -0.300 OA
ATOM     19  C   UNL     1      -3.913   7.730   7.059  1.00  0.00     0.087 C 
ENDBRANCH  16  17
ENDBRANCH  15  16
ENDBRANCH  13  15
ENDBRANCH  11  12
ENDBRANCH   1  11
TORSDOF 9
ENDMDL
MODEL 2
REMARK VINA RESULT:    -4.611     15.971     17.401
REMARK INTER + INTRA:          -8.310
REMARK INTER:                  -6.573
REMARK INTRA:                  -1.737
REMARK UNBOUND:                -1.273
REMARK SMILES CC(=O)CCC=C(C)CCC=C(C)CCC=C(C)C
REMARK SMILES IDX 10 1 11 2 12 3 13 4 14 5 15 6 16 7 18 8 17 9 19 10 9 11 7 12
REMARK SMILES IDX 6 13 8 14 5 15 4 16 2 17 3 18 1 19
REMARK H PARENT
REMARK Flexibility Score: inf
ROOT
ATOM      1  C   UNL     1      -0.410   6.678  -9.146  1.00  0.00     0.032 C 
ENDROOT
BRANCH   1   2
ATOM      2  C   UNL     1       0.823   7.544  -9.198  1.00  0.00    -0.028 C 
ATOM      3  C   UNL     1       1.511   7.827 -10.328  1.00  0.00    -0.077 C 
ATOM      4  C   UNL     1       1.044   7.352 -11.684  1.00  0.00     0.039 C 
BRANCH   3   5
ATOM      5  C   UNL     1       2.766   8.670 -10.229  1.00  0.00     0.034 C 
BRANCH   5   6
ATOM      6  C   UNL     1       2.798   9.731 -11.337  1.00  0.00     0.032 C 
BRANCH   6   7
ATOM      7  C   UNL     1       2.414  11.090 -10.803  1.00  0.00    -0.028 C 
ATOM      8  C   UNL     1       0.927  13.015 -10.445  1.00  0.00     0.039 C 
ATOM      9  C   UNL     1       1.204  11.649 -11.016  1.00  0.00    -0.080 C 
ATOM     10  C   UNL     1       0.134  10.937 -11.808  1.00  0.00     0.039 C 
ENDBRANCH   6   7
ENDBRANCH   5   6
ENDBRANCH   3   5
ENDBRANCH   1   2
BRANCH   1  11
ATOM     11  C   UNL     1      -1.665   7.532  -8.929  1.00  0.00     0.034 C 
BRANCH  11  12
ATOM     12  C   UNL     1      -2.407   7.742 -10.231  1.00  0.00    -0.077 C 
ATOM     13  C   UNL     1      -2.959   8.948 -10.486  1.00  0.00    -0.028 C 
ATOM     14  C   UNL     1      -2.499   6.610 -11.226  1.00  0.00     0.039 C 
BRANCH  13  15
ATOM     15  C   UNL     1      -3.737   9.254 -11.745  1.00  0.00     0.035 C 
BRANCH  15  16
ATOM     16  C   UNL     1      -4.030  10.753 -11.891  1.00  0.00     0.079 C 
BRANCH  16  17
ATOM     17  C   UNL     1      -5.507  11.044 -11.782  1.00  0.00     0.130 C 
ATOM     18  O   UNL     1      -6.315  10.194 -12.124  1.00  0.00    -0.300 OA
ATOM     19  C   UNL     1      -6.006  12.356 -11.253  1.00  0.00     0.087 C 
ENDBRANCH  16  17
ENDBRANCH  15  16
ENDBRANCH  13  15
ENDBRANCH  11  12
ENDBRANCH   1  11
TORSDOF 9
ENDMDL
MODEL 3
REMARK VINA RESULT:    -4.550     15.584     17.124
REMARK INTER + INTRA:          -8.216
REMARK INTER:                  -6.815
REMARK INTRA:                  -1.401
REMARK UNBOUND:                -1.273
REMARK SMILES CC(=O)CCC=C(C)CCC=C(C)CCC=C(C)C
REMARK SMILES IDX 10 1 11 2 12 3 13 4 14 5 15 6 16 7 18 8 17 9 19 10 9 11 7 12
REMARK SMILES IDX 6 13 8 14 5 15 4 16 2 17 3 18 1 19
REMARK H PARENT
REMARK Flexibility Score: inf
ROOT
ATOM      1  C   UNL     1      -1.179   7.937  -8.948  1.00  0.00     0.032 C 
ENDROOT
BRANCH   1   2
ATOM      2  C   UNL     1       0.132   8.218  -9.638  1.00  0.00    -0.028 C 
ATOM      3  C   UNL     1       1.348   8.014  -9.081  1.00  0.00    -0.077 C 
ATOM      4  C   UNL     1       1.502   7.394  -7.711  1.00  0.00     0.039 C 
BRANCH   3   5
ATOM      5  C   UNL     1       2.587   8.389  -9.867  1.00  0.00     0.034 C 
BRANCH   5   6
ATOM      6  C   UNL     1       2.211   9.152 -11.144  1.00  0.00     0.032 C 
BRANCH   6   7
ATOM      7  C   UNL     1       2.461  10.633 -10.991  1.00  0.00    -0.028 C 
ATOM      8  C   UNL     1       1.885  13.022 -11.087  1.00  0.00     0.039 C 
ATOM      9  C   UNL     1       1.529  11.569 -11.268  1.00  0.00    -0.080 C 
ATOM     10  C   UNL     1       0.150  11.191 -11.751  1.00  0.00     0.039 C 
ENDBRANCH   6   7
ENDBRANCH   5   6
ENDBRANCH   3   5
ENDBRANCH   1   2
BRANCH   1  11
ATOM     11  C   UNL     1      -1.854   6.697  -9.549  1.00  0.00     0.034 C 
BRANCH  11  12
ATOM     12  C   UNL     1      -2.640   7.058 -10.790  1.00  0.00    -0.077 C 
ATOM     13  C   UNL     1      -3.486   8.111 -10.749  1.00  0.00    -0.028 C 
ATOM     14  C   UNL     1      -2.451   6.252 -12.052  1.00  0.00     0.039 C 
BRANCH  13  15
ATOM     15  C   UNL     1      -4.331   8.541 -11.925  1.00  0.00     0.035 C 
BRANCH  15  16
ATOM     16  C   UNL     1      -4.353  10.066 -12.092  1.00  0.00     0.079 C 
BRANCH  16  17
ATOM     17  C   UNL     1      -5.084  10.740 -10.957  1.00  0.00     0.130 C 
ATOM     18  O   UNL     1      -6.200  10.353 -10.645  1.00  0.00    -0.300 OA
ATOM     19  C   UNL     1      -4.465  11.874 -10.196  1.00  0.00     0.087 C 
ENDBRANCH  16  17
ENDBRANCH  15  16
ENDBRANCH  13  15
ENDBRANCH  11  12
ENDBRANCH   1  11
TORSDOF 9
ENDMDL
MODEL 4
REMARK VINA RESULT:    -4.510      1.935      2.808
REMARK INTER + INTRA:          -8.156
REMARK INTER:                  -7.038
REMARK INTRA:                  -1.118
REMARK UNBOUND:                -1.273
REMARK SMILES CC(=O)CCC=C(C)CCC=C(C)CCC=C(C)C
REMARK SMILES IDX 10 1 11 2 12 3 13 4 14 5 15 6 16 7 18 8 17 9 19 10 9 11 7 12
REMARK SMILES IDX 6 13 8 14 5 15 4 16 2 17 3 18 1 19
REMARK H PARENT
REMARK Flexibility Score: inf
ROOT
ATOM      1  C   UNL     1      -1.536  11.847   4.951  1.00  0.00     0.032 C 
ENDROOT
BRANCH   1   2
ATOM      2  C   UNL     1      -0.221  12.464   4.547  1.00  0.00    -0.028 C 
ATOM      3  C   UNL     1       0.736  12.861   5.417  1.00  0.00    -0.077 C 
ATOM      4  C   UNL     1       0.600  12.640   6.906  1.00  0.00     0.039 C 
BRANCH   3   5
ATOM      5  C   UNL     1       1.991  13.516   4.877  1.00  0.00     0.034 C 
BRANCH   5   6
ATOM      6  C   UNL     1       2.963  13.853   6.014  1.00  0.00     0.032 C 
BRANCH   6   7
ATOM      7  C   UNL     1       4.349  13.329   5.723  1.00  0.00    -0.028 C 
ATOM      8  C   UNL     1       6.239  11.768   5.921  1.00  0.00     0.039 C 
ATOM      9  C   UNL     1       4.839  12.199   6.274  1.00  0.00    -0.080 C 
ATOM     10  C   UNL     1       4.018  11.366   7.229  1.00  0.00     0.039 C 
ENDBRANCH   6   7
ENDBRANCH   5   6
ENDBRANCH   3   5
ENDBRANCH   1   2
BRANCH   1  11
ATOM     11  C   UNL     1      -1.434  10.316   4.973  1.00  0.00     0.034 C 
BRANCH  11  12
ATOM     12  C   UNL     1      -2.674   9.701   5.583  1.00  0.00    -0.077 C 
ATOM     13  C   UNL     1      -3.876  10.264   5.336  1.00  0.00    -0.028 C 
ATOM     14  C   UNL     1      -2.547   8.462   6.436  1.00  0.00     0.039 C 
BRANCH  13  15
ATOM     15  C   UNL     1      -5.171   9.740   5.913  1.00  0.00     0.035 C 
BRANCH  15  16
ATOM     16  C   UNL     1      -6.042   9.059   4.849  1.00  0.00     0.079 C 
BRANCH  16  17
ATOM     17  C   UNL     1      -6.355   7.629   5.218  1.00  0.00     0.130 C 
ATOM     18  O   UNL     1      -6.551   6.808   4.334  1.00  0.00    -0.300 OA
ATOM     19  C   UNL     1      -6.425   7.190   6.650  1.00  0.00     0.087 C 
ENDBRANCH  16  17
ENDBRANCH  15  16
ENDBRANCH  13  15
ENDBRANCH  11  12
ENDBRANCH   1  11
TORSDOF 9
ENDMDL
MODEL 5
REMARK VINA RESULT:    -4.486     15.258     17.766
REMARK INTER + INTRA:          -8.120
REMARK INTER:                  -6.341
REMARK INTRA:                  -1.779
REMARK UNBOUND:                -1.273
REMARK SMILES CC(=O)CCC=C(C)CCC=C(C)CCC=C(C)C
REMARK SMILES IDX 10 1 11 2 12 3 13 4 14 5 15 6 16 7 18 8 17 9 19 10 9 11 7 12
REMARK SMILES IDX 6 13 8 14 5 15 4 16 2 17 3 18 1 19
REMARK H PARENT
REMARK Flexibility Score: inf
ROOT
ATOM      1  C   UNL     1       0.981   7.280  -8.177  1.00  0.00     0.032 C 
ENDROOT
BRANCH   1   2
ATOM      2  C   UNL     1      -0.065   6.816  -9.159  1.00  0.00    -0.028 C 
ATOM      3  C   UNL     1      -1.358   7.215  -9.143  1.00  0.00    -0.077 C 
ATOM      4  C   UNL     1      -1.860   8.249  -8.163  1.00  0.00     0.039 C 
BRANCH   3   5
ATOM      5  C   UNL     1      -2.317   6.629 -10.158  1.00  0.00     0.034 C 
BRANCH   5   6
ATOM      6  C   UNL     1      -2.535   7.599 -11.326  1.00  0.00     0.032 C 
BRANCH   6   7
ATOM      7  C   UNL     1      -3.785   8.423 -11.128  1.00  0.00    -0.028 C 
ATOM      8  C   UNL     1      -5.080  10.497 -10.867  1.00  0.00     0.039 C 
ATOM      9  C   UNL     1      -3.776   9.772 -11.076  1.00  0.00    -0.080 C 
ATOM     10  C   UNL     1      -2.496  10.559 -11.222  1.00  0.00     0.039 C 
ENDBRANCH   6   7
ENDBRANCH   5   6
ENDBRANCH   3   5
ENDBRANCH   1   2
BRANCH   1  11
ATOM     11  C   UNL     1       2.289   7.626  -8.899  1.00  0.00     0.034 C 
BRANCH  11  12
ATOM     12  C   UNL     1       2.037   8.586 -10.041  1.00  0.00    -0.077 C 
ATOM     13  C   UNL     1       1.537   9.811  -9.772  1.00  0.00    -0.028 C 
ATOM     14  C   UNL     1       2.368   8.165 -11.453  1.00  0.00     0.039 C 
BRANCH  13  15
ATOM     15  C   UNL     1       1.230  10.834 -10.841  1.00  0.00     0.035 C 
BRANCH  15  16
ATOM     16  C   UNL     1       1.959  12.161 -10.594  1.00  0.00     0.079 C 
BRANCH  16  17
ATOM     17  C   UNL     1       3.453  11.965 -10.492  1.00  0.00     0.130 C 
ATOM     18  O   UNL     1       4.024  12.231  -9.445  1.00  0.00    -0.300 OA
ATOM     19  C   UNL     1       4.252  11.444 -11.648  1.00  0.00     0.087 C 
ENDBRANCH  16  17
ENDBRANCH  15  16
ENDBRANCH  13  15
ENDBRANCH  11  12
ENDBRANCH   1  11
TORSDOF 9
ENDMDL
MODEL 6
REMARK VINA RESULT:    -4.403      2.311      7.925
REMARK INTER + INTRA:          -7.993
REMARK INTER:                  -6.844
REMARK INTRA:                  -1.149
REMARK UNBOUND:                -1.273
REMARK SMILES CC(=O)CCC=C(C)CCC=C(C)CCC=C(C)C
REMARK SMILES IDX 10 1 11 2 12 3 13 4 14 5 15 6 16 7 18 8 17 9 19 10 9 11 7 12
REMARK SMILES IDX 6 13 8 14 5 15 4 16 2 17 3 18 1 19
REMARK H PARENT
REMARK Flexibility Score: inf
ROOT
ATOM      1  C   UNL     1       0.781  12.449   5.085  1.00  0.00     0.032 C 
ENDROOT
BRANCH   1   2
ATOM      2  C   UNL     1      -0.568  13.109   4.947  1.00  0.00    -0.028 C 
ATOM      3  C   UNL     1      -1.751  12.464   5.078  1.00  0.00    -0.077 C 
ATOM      4  C   UNL     1      -1.824  11.005   5.464  1.00  0.00     0.039 C 
BRANCH   3   5
ATOM      5  C   UNL     1      -3.034  13.239   4.862  1.00  0.00     0.034 C 
BRANCH   5   6
ATOM      6  C   UNL     1      -4.235  12.473   5.432  1.00  0.00     0.032 C 
BRANCH   6   7
ATOM      7  C   UNL     1      -5.258  12.183   4.360  1.00  0.00    -0.028 C 
ATOM      8  C   UNL     1      -6.708  10.756   2.977  1.00  0.00     0.039 C 
ATOM      9  C   UNL     1      -5.689  10.937   4.073  1.00  0.00    -0.080 C 
ATOM     10  C   UNL     1      -5.174   9.731   4.821  1.00  0.00     0.039 C 
ENDBRANCH   6   7
ENDBRANCH   5   6
ENDBRANCH   3   5
ENDBRANCH   1   2
BRANCH   1  11
ATOM     11  C   UNL     1       1.905  13.437   4.748  1.00  0.00     0.034 C 
BRANCH  11  12
ATOM     12  C   UNL     1       3.137  13.157   5.580  1.00  0.00    -0.077 C 
ATOM     13  C   UNL     1       3.059  12.263   6.589  1.00  0.00    -0.028 C 
ATOM     14  C   UNL     1       4.431  13.864   5.256  1.00  0.00     0.039 C 
BRANCH  13  15
ATOM     15  C   UNL     1       4.224  11.928   7.491  1.00  0.00     0.035 C 
BRANCH  15  16
ATOM     16  C   UNL     1       4.624  10.450   7.391  1.00  0.00     0.079 C 
BRANCH  16  17
ATOM     17  C   UNL     1       5.557  10.204   6.229  1.00  0.00     0.130 C 
ATOM     18  O   UNL     1       5.277   9.346   5.404  1.00  0.00    -0.300 OA
ATOM     19  C   UNL     1       6.818  10.996   6.060  1.00  0.00     0.087 C 
ENDBRANCH  16  17
ENDBRANCH  15  16
ENDBRANCH  13  15
ENDBRANCH  11  12
ENDBRANCH   1  11
TORSDOF 9
ENDMDL
MODEL 7
REMARK VINA RESULT:    -4.360     15.196     16.634
REMARK INTER + INTRA:          -7.928
REMARK INTER:                  -6.376
REMARK INTRA:                  -1.552
REMARK UNBOUND:                -1.273
REMARK SMILES CC(=O)CCC=C(C)CCC=C(C)CCC=C(C)C
REMARK SMILES IDX 10 1 11 2 12 3 13 4 14 5 15 6 16 7 18 8 17 9 19 10 9 11 7 12
REMARK SMILES IDX 6 13 8 14 5 15 4 16 2 17 3 18 1 19
REMARK H PARENT
REMARK Flexibility Score: inf
ROOT
ATOM      1  C   UNL     1       0.497   7.224  -8.891  1.00  0.00     0.032 C 
ENDROOT
BRANCH   1   2
ATOM      2  C   UNL     1       1.369   8.300  -9.486  1.00  0.00    -0.028 C 
ATOM      3  C   UNL     1       1.752   8.344 -10.784  1.00  0.00    -0.077 C 
ATOM      4  C   UNL     1       1.257   7.334 -11.793  1.00  0.00     0.039 C 
BRANCH   3   5
ATOM      5  C   UNL     1       2.675   9.455 -11.238  1.00  0.00     0.034 C 
BRANCH   5   6
ATOM      6  C   UNL     1       2.058  10.829 -10.950  1.00  0.00     0.032 C 
BRANCH   6   7
ATOM      7  C   UNL     1       3.103  11.809 -10.472  1.00  0.00    -0.028 C 
ATOM      8  C   UNL     1       4.281  13.194  -8.817  1.00  0.00     0.039 C 
ATOM      9  C   UNL     1       3.206  12.205  -9.186  1.00  0.00    -0.080 C 
ATOM     10  C   UNL     1       2.272  11.682  -8.121  1.00  0.00     0.039 C 
ENDBRANCH   6   7
ENDBRANCH   5   6
ENDBRANCH   3   5
ENDBRANCH   1   2
BRANCH   1  11
ATOM     11  C   UNL     1      -0.858   7.800  -8.461  1.00  0.00     0.034 C 
BRANCH  11  12
ATOM     12  C   UNL     1      -1.791   7.928  -9.646  1.00  0.00    -0.077 C 
ATOM     13  C   UNL     1      -2.285   9.144  -9.966  1.00  0.00    -0.028 C 
ATOM     14  C   UNL     1      -2.135   6.702 -10.458  1.00  0.00     0.039 C 
BRANCH  13  15
ATOM     15  C   UNL     1      -3.238   9.375 -11.115  1.00  0.00     0.035 C 
BRANCH  15  16
ATOM     16  C   UNL     1      -4.704   9.339 -10.663  1.00  0.00     0.079 C 
BRANCH  16  17
ATOM     17  C   UNL     1      -5.444  10.588 -11.077  1.00  0.00     0.130 C 
ATOM     18  O   UNL     1      -6.629  10.705 -10.801  1.00  0.00    -0.300 OA
ATOM     19  C   UNL     1      -4.754  11.695 -11.816  1.00  0.00     0.087 C 
ENDBRANCH  16  17
ENDBRANCH  15  16
ENDBRANCH  13  15
ENDBRANCH  11  12
ENDBRANCH   1  11
TORSDOF 9
ENDMDL
MODEL 8
REMARK VINA RESULT:    -4.277      2.585      7.618
REMARK INTER + INTRA:          -7.800
REMARK INTER:                  -6.058
REMARK INTRA:                  -1.741
REMARK UNBOUND:                -1.273
REMARK SMILES CC(=O)CCC=C(C)CCC=C(C)CCC=C(C)C
REMARK SMILES IDX 10 1 11 2 12 3 13 4 14 5 15 6 16 7 18 8 17 9 19 10 9 11 7 12
REMARK SMILES IDX 6 13 8 14 5 15 4 16 2 17 3 18 1 19
REMARK H PARENT
REMARK Flexibility Score: inf
ROOT
ATOM      1  C   UNL     1       0.982  13.897   5.578  1.00  0.00     0.032 C 
ENDROOT
BRANCH   1   2
ATOM      2  C   UNL     1       0.122  12.793   5.015  1.00  0.00    -0.028 C 
ATOM      3  C   UNL     1      -0.350  11.750   5.735  1.00  0.00    -0.077 C 
ATOM      4  C   UNL     1      -0.119  11.641   7.225  1.00  0.00     0.039 C 
BRANCH   3   5
ATOM      5  C   UNL     1      -1.160  10.681   5.032  1.00  0.00     0.034 C 
BRANCH   5   6
ATOM      6  C   UNL     1      -2.474  10.413   5.777  1.00  0.00     0.032 C 
BRANCH   6   7
ATOM      7  C   UNL     1      -3.637  11.099   5.100  1.00  0.00    -0.028 C 
ATOM      8  C   UNL     1      -5.336  12.851   4.801  1.00  0.00     0.039 C 
ATOM      9  C   UNL     1      -4.171  12.254   5.548  1.00  0.00    -0.080 C 
ATOM     10  C   UNL     1      -3.628  12.953   6.771  1.00  0.00     0.039 C 
ENDBRANCH   6   7
ENDBRANCH   5   6
ENDBRANCH   3   5
ENDBRANCH   1   2
BRANCH   1  11
ATOM     11  C   UNL     1       2.452  13.689   5.194  1.00  0.00     0.034 C 
BRANCH  11  12
ATOM     12  C   UNL     1       3.237  13.117   6.354  1.00  0.00    -0.077 C 
ATOM     13  C   UNL     1       3.531  11.799   6.362  1.00  0.00    -0.028 C 
ATOM     14  C   UNL     1       3.693  14.029   7.467  1.00  0.00     0.039 C 
BRANCH  13  15
ATOM     15  C   UNL     1       4.290  11.126   7.482  1.00  0.00     0.035 C 
BRANCH  15  16
ATOM     16  C   UNL     1       5.359  10.160   6.954  1.00  0.00     0.079 C 
BRANCH  16  17
ATOM     17  C   UNL     1       6.563  10.900   6.421  1.00  0.00     0.130 C 
ATOM     18  O   UNL     1       6.985  10.637   5.305  1.00  0.00    -0.300 OA
ATOM     19  C   UNL     1       7.249  11.959   7.230  1.00  0.00     0.087 C 
ENDBRANCH  16  17
ENDBRANCH  15  16
ENDBRANCH  13  15
ENDBRANCH  11  12
ENDBRANCH   1  11
TORSDOF 9
ENDMDL
MODEL 9
REMARK VINA RESULT:    -4.197     14.968     17.483
REMARK INTER + INTRA:          -7.678
REMARK INTER:                  -6.181
REMARK INTRA:                  -1.496
REMARK UNBOUND:                -1.273
REMARK SMILES CC(=O)CCC=C(C)CCC=C(C)CCC=C(C)C
REMARK SMILES IDX 10 1 11 2 12 3 13 4 14 5 15 6 16 7 18 8 17 9 19 10 9 11 7 12
REMARK SMILES IDX 6 13 8 14 5 15 4 16 2 17 3 18 1 19
REMARK H PARENT
REMARK Flexibility Score: inf
ROOT
ATOM      1  C   UNL     1       2.722   8.635 -10.096  1.00  0.00     0.032 C 
ENDROOT
BRANCH   1   2
ATOM      2  C   UNL     1       1.457   7.817 -10.128  1.00  0.00    -0.028 C 
ATOM      3  C   UNL     1       0.744   7.467  -9.033  1.00  0.00    -0.077 C 
ATOM      4  C   UNL     1       1.121   7.948  -7.651  1.00  0.00     0.039 C 
BRANCH   3   5
ATOM      5  C   UNL     1      -0.483   6.596  -9.204  1.00  0.00     0.034 C 
BRANCH   5   6
ATOM      6  C   UNL     1      -1.080   6.765 -10.607  1.00  0.00     0.032 C 
BRANCH   6   7
ATOM      7  C   UNL     1      -2.489   7.305 -10.541  1.00  0.00    -0.028 C 
ATOM      8  C   UNL     1      -4.224   9.046 -10.614  1.00  0.00     0.039 C 
ATOM      9  C   UNL     1      -2.784   8.611 -10.707  1.00  0.00    -0.080 C 
ATOM     10  C   UNL     1      -1.709   9.636 -10.980  1.00  0.00     0.039 C 
ENDBRANCH   6   7
ENDBRANCH   5   6
ENDBRANCH   3   5
ENDBRANCH   1   2
BRANCH   1  11
ATOM     11  C   UNL     1       2.581   9.889 -10.967  1.00  0.00     0.034 C 
BRANCH  11  12
ATOM     12  C   UNL     1       2.815  11.142 -10.152  1.00  0.00    -0.077 C 
ATOM     13  C   UNL     1       3.566  12.135 -10.675  1.00  0.00    -0.028 C 
ATOM     14  C   UNL     1       2.191  11.267  -8.783  1.00  0.00     0.039 C 
BRANCH  13  15
ATOM     15  C   UNL     1       3.877  13.416  -9.936  1.00  0.00     0.035 C 
BRANCH  15  16
ATOM     16  C   UNL     1       5.356  13.807 -10.057  1.00  0.00     0.079 C 
BRANCH  16  17
ATOM     17  C   UNL     1       6.195  13.147  -8.989  1.00  0.00     0.130 C 
ATOM     18  O   UNL     1       7.049  12.335  -9.311  1.00  0.00    -0.300 OA
ATOM     19  C   UNL     1       6.008  13.474  -7.538  1.00  0.00     0.087 C 
ENDBRANCH  16  17
ENDBRANCH  15  16
ENDBRANCH  13  15
ENDBRANCH  11  12
ENDBRANCH   1  11
TORSDOF 9
ENDMDL
