MODEL 1
REMARK VINA RESULT:    -2.868      0.000      0.000
REMARK INTER + INTRA:          -2.782
REMARK INTER:                  -3.539
REMARK INTRA:                   0.756
REMARK UNBOUND:                 0.756
REMARK SMILES CC1=CC=CC(C)(C)CC1=O
REMARK SMILES IDX 1 1 2 2 3 3 10 4 11 5 9 6 4 8 5 9 6 10 7 11 8 12
REMARK H PARENT
REMARK Flexibility Score: 80.00
ROOT
ATOM      1  C   UNL     1       9.620 -31.656  18.677  1.00  0.00     0.048 C 
ATOM      2  C   UNL     1       8.868 -32.166  17.470  1.00  0.00    -0.008 C 
ATOM      3  C   UNL     1       9.504 -32.137  16.279  1.00  0.00     0.007 C 
ENDROOT
BRANCH   2   4
ATOM      4  C   UNL     1       7.516 -32.730  17.704  1.00  0.00     0.159 C 
ATOM      5  O   UNL     1       7.144 -32.946  18.890  1.00  0.00    -0.295 OA
BRANCH   4   6
ATOM      6  C   UNL     1       6.551 -33.049  16.604  1.00  0.00     0.091 CG0
ATOM      7  G   UNL     1       7.095 -34.089  15.600  1.00  0.00     0.000 G0
ENDBRANCH   4   6
ENDBRANCH   2   4
BRANCH   3   8
ATOM      8  C   UNL     1       9.044 -32.585  14.944  1.00  0.00    -0.003 C 
ATOM      9  C   UNL     1       8.042 -33.417  14.632  1.00  0.00    -0.020 C 
BRANCH   9  10
ATOM     10  C   UNL     1       7.100 -34.091  15.601  1.00  0.00    -0.010 CG0
ATOM     11  C   UNL     1       5.903 -34.653  14.801  1.00  0.00     0.016 C 
ATOM     12  C   UNL     1       7.813 -35.278  16.290  1.00  0.00     0.016 C 
ATOM     13  G   UNL     1       6.561 -33.053  16.609  1.00  0.00     0.000 G0
ENDBRANCH   9  10
ENDBRANCH   3   8
TORSDOF 0
ENDMDL
MODEL 2
REMARK VINA RESULT:    -2.850      1.894      2.867
REMARK INTER + INTRA:          -2.760
REMARK INTER:                  -3.513
REMARK INTRA:                   0.753
REMARK UNBOUND:                 0.756
REMARK SMILES CC1=CC=CC(C)(C)CC1=O
REMARK SMILES IDX 1 1 2 2 3 3 10 4 11 5 9 6 4 8 5 9 6 10 7 11 8 12
REMARK H PARENT
REMARK Flexibility Score: 80.00
ROOT
ATOM      1  C   UNL     1       7.760 -32.779  18.493  1.00  0.00     0.048 C 
ATOM      2  C   UNL     1       7.773 -33.722  17.313  1.00  0.00    -0.008 C 
ATOM      3  C   UNL     1       7.002 -34.828  17.388  1.00  0.00     0.007 C 
ENDROOT
BRANCH   2   4
ATOM      4  C   UNL     1       8.577 -33.318  16.133  1.00  0.00     0.159 C 
ATOM      5  O   UNL     1       9.021 -32.138  16.075  1.00  0.00    -0.295 OA
BRANCH   4   6
ATOM      6  C   UNL     1       8.906 -34.242  15.001  1.00  0.00     0.091 CG0
ATOM      7  G   UNL     1       7.656 -34.783  14.273  1.00  0.00     0.000 G0
ENDBRANCH   4   6
ENDBRANCH   2   4
BRANCH   3   8
ATOM      8  C   UNL     1       6.789 -35.908  16.396  1.00  0.00    -0.003 C 
ATOM      9  C   UNL     1       7.044 -35.909  15.081  1.00  0.00    -0.020 C 
BRANCH   9  10
ATOM     10  C   UNL     1       7.654 -34.781  14.285  1.00  0.00    -0.010 CG0
ATOM     11  C   UNL     1       8.107 -35.342  12.918  1.00  0.00     0.016 C 
ATOM     12  C   UNL     1       6.594 -33.686  14.023  1.00  0.00     0.016 C 
ATOM     13  G   UNL     1       8.901 -34.240  15.019  1.00  0.00     0.000 G0
ENDBRANCH   9  10
ENDBRANCH   3   8
TORSDOF 0
ENDMDL
MODEL 3
REMARK VINA RESULT:    -2.672      1.780      2.541
REMARK INTER + INTRA:          -2.541
REMARK INTER:                  -3.310
REMARK INTRA:                   0.769
REMARK UNBOUND:                 0.756
REMARK SMILES CC1=CC=CC(C)(C)CC1=O
REMARK SMILES IDX 1 1 2 2 3 3 10 4 11 5 9 6 4 8 5 9 6 10 7 11 8 12
REMARK H PARENT
REMARK Flexibility Score: 80.00
ROOT
ATOM      1  C   UNL     1      10.881 -32.134  13.983  1.00  0.00     0.048 C 
ATOM      2  C   UNL     1       9.557 -32.825  14.213  1.00  0.00    -0.008 C 
ATOM      3  C   UNL     1       9.151 -33.721  13.288  1.00  0.00     0.007 C 
ENDROOT
BRANCH   2   4
ATOM      4  C   UNL     1       8.845 -32.518  15.478  1.00  0.00     0.159 C 
ATOM      5  O   UNL     1       9.451 -31.874  16.377  1.00  0.00    -0.295 OA
BRANCH   4   6
ATOM      6  C   UNL     1       7.427 -32.921  15.746  1.00  0.00     0.091 CG0
ATOM      7  G   UNL     1       7.208 -34.449  15.694  1.00  0.00     0.000 G0
ENDBRANCH   4   6
ENDBRANCH   2   4
BRANCH   3   8
ATOM      8  C   UNL     1       7.933 -34.562  13.250  1.00  0.00    -0.003 C 
ATOM      9  C   UNL     1       7.104 -34.894  14.249  1.00  0.00    -0.020 C 
BRANCH   9  10
ATOM     10  C   UNL     1       7.210 -34.448  15.688  1.00  0.00    -0.010 CG0
ATOM     11  C   UNL     1       5.875 -34.775  16.395  1.00  0.00     0.016 C 
ATOM     12  C   UNL     1       8.333 -35.235  16.403  1.00  0.00     0.016 C 
ATOM     13  G   UNL     1       7.423 -32.919  15.744  1.00  0.00     0.000 G0
ENDBRANCH   9  10
ENDBRANCH   3   8
TORSDOF 0
ENDMDL
MODEL 4
REMARK VINA RESULT:    -2.513      1.851      2.530
REMARK INTER + INTRA:          -2.344
REMARK INTER:                  -3.092
REMARK INTRA:                   0.748
REMARK UNBOUND:                 0.756
REMARK SMILES CC1=CC=CC(C)(C)CC1=O
REMARK SMILES IDX 1 1 2 2 3 3 10 4 11 5 9 6 4 8 5 9 6 10 7 11 8 12
REMARK H PARENT
REMARK Flexibility Score: 80.00
ROOT
ATOM      1  C   UNL     1       7.942 -32.887  17.715  1.00  0.00     0.048 C 
ATOM      2  C   UNL     1       7.452 -33.582  16.466  1.00  0.00    -0.008 C 
ATOM      3  C   UNL     1       7.386 -32.855  15.330  1.00  0.00     0.007 C 
ENDROOT
BRANCH   2   4
ATOM      4  C   UNL     1       7.156 -35.032  16.572  1.00  0.00     0.159 C 
ATOM      5  O   UNL     1       7.448 -35.637  17.640  1.00  0.00    -0.295 OA
BRANCH   4   6
ATOM      6  C   UNL     1       6.508 -35.825  15.479  1.00  0.00     0.091 CG0
ATOM      7  G   UNL     1       7.277 -35.757  14.141  1.00  0.00     0.000 G0
ENDBRANCH   4   6
ENDBRANCH   2   4
BRANCH   3   8
ATOM      8  C   UNL     1       6.976 -33.258  13.965  1.00  0.00    -0.003 C 
ATOM      9  C   UNL     1       6.923 -34.484  13.428  1.00  0.00    -0.020 C 
BRANCH   9  10
ATOM     10  C   UNL     1       7.251 -35.784  14.123  1.00  0.00    -0.010 CG0
ATOM     11  C   UNL     1       6.718 -36.946  13.254  1.00  0.00     0.016 C 
ATOM     12  C   UNL     1       8.784 -35.944  14.244  1.00  0.00     0.016 C 
ATOM     13  G   UNL     1       6.536 -35.838  15.491  1.00  0.00     0.000 G0
ENDBRANCH   9  10
ENDBRANCH   3   8
TORSDOF 0
ENDMDL
MODEL 5
REMARK VINA RESULT:    -2.095      1.842      3.111
REMARK INTER + INTRA:          -1.829
REMARK INTER:                  -2.579
REMARK INTRA:                   0.750
REMARK UNBOUND:                 0.756
REMARK SMILES CC1=CC=CC(C)(C)CC1=O
REMARK SMILES IDX 1 1 2 2 3 3 10 4 11 5 9 6 4 8 5 9 6 10 7 11 8 12
REMARK H PARENT
REMARK Flexibility Score: 80.00
ROOT
ATOM      1  C   UNL     1       7.229 -36.013  17.902  1.00  0.00     0.048 C 
ATOM      2  C   UNL     1       7.543 -35.469  16.528  1.00  0.00    -0.008 C 
ATOM      3  C   UNL     1       7.539 -36.339  15.495  1.00  0.00     0.007 C 
ENDROOT
BRANCH   2   4
ATOM      4  C   UNL     1       7.756 -34.005  16.413  1.00  0.00     0.159 C 
ATOM      5  O   UNL     1       7.459 -33.268  17.392  1.00  0.00    -0.295 OA
BRANCH   4   6
ATOM      6  C   UNL     1       8.323 -33.346  15.193  1.00  0.00     0.091 CG0
ATOM      7  G   UNL     1       7.466 -33.570  13.927  1.00  0.00     0.000 G0
ENDBRANCH   4   6
ENDBRANCH   2   4
BRANCH   3   8
ATOM      8  C   UNL     1       7.780 -36.104  14.053  1.00  0.00    -0.003 C 
ATOM      9  C   UNL     1       7.739 -34.955  13.366  1.00  0.00    -0.020 C 
BRANCH   9  10
ATOM     10  C   UNL     1       7.457 -33.582  13.930  1.00  0.00    -0.010 CG0
ATOM     11  C   UNL     1       7.872 -32.531  12.876  1.00  0.00     0.016 C 
ATOM     12  C   UNL     1       5.941 -33.422  14.192  1.00  0.00     0.016 C 
ATOM     13  G   UNL     1       8.309 -33.356  15.198  1.00  0.00     0.000 G0
ENDBRANCH   9  10
ENDBRANCH   3   8
TORSDOF 0
ENDMDL
MODEL 6
REMARK VINA RESULT:    -1.938      1.704      2.601
REMARK INTER + INTRA:          -1.634
REMARK INTER:                  -2.366
REMARK INTRA:                   0.732
REMARK UNBOUND:                 0.756
REMARK SMILES CC1=CC=CC(C)(C)CC1=O
REMARK SMILES IDX 1 1 2 2 3 3 10 4 11 5 9 6 4 8 5 9 6 10 7 11 8 12
REMARK H PARENT
REMARK Flexibility Score: 80.00
ROOT
ATOM      1  C   UNL     1       9.552 -30.838  17.629  1.00  0.00     0.048 C 
ATOM      2  C   UNL     1       8.929 -32.199  17.424  1.00  0.00    -0.008 C 
ATOM      3  C   UNL     1       8.114 -32.666  18.394  1.00  0.00     0.007 C 
ENDROOT
BRANCH   2   4
ATOM      4  C   UNL     1       9.204 -32.881  16.135  1.00  0.00     0.159 C 
ATOM      5  O   UNL     1       9.756 -32.229  15.207  1.00  0.00    -0.295 OA
BRANCH   4   6
ATOM      6  C   UNL     1       8.873 -34.319  15.874  1.00  0.00     0.091 CG0
ATOM      7  G   UNL     1       7.369 -34.634  16.024  1.00  0.00     0.000 G0
ENDBRANCH   4   6
ENDBRANCH   2   4
BRANCH   3   8
ATOM      8  C   UNL     1       7.351 -33.934  18.466  1.00  0.00    -0.003 C 
ATOM      9  C   UNL     1       7.012 -34.773  17.478  1.00  0.00    -0.020 C 
BRANCH   9  10
ATOM     10  C   UNL     1       7.367 -34.629  16.017  1.00  0.00    -0.010 CG0
ATOM     11  C   UNL     1       7.126 -35.989  15.324  1.00  0.00     0.016 C 
ATOM     12  C   UNL     1       6.444 -33.583  15.350  1.00  0.00     0.016 C 
ATOM     13  G   UNL     1       8.865 -34.277  15.879  1.00  0.00     0.000 G0
ENDBRANCH   9  10
ENDBRANCH   3   8
TORSDOF 0
ENDMDL
