MODEL 1
REMARK VINA RESULT:    -2.511      0.000      0.000
REMARK INTER + INTRA:          -2.511
REMARK INTER:                  -2.511
REMARK INTRA:                   0.000
REMARK UNBOUND:                 0.000
REMARK SMILES CC(=O)[O-]
REMARK SMILES IDX 1 1 2 2 3 3 4 4
REMARK H PARENT
REMARK Flexibility Score: inf
ROOT
ATOM      1  C   UNL     1      31.255  18.206  27.641  1.00  0.00     0.063 C 
ATOM      2  C   UNL     1      30.944  18.659  26.254  1.00  0.00     0.038 C 
ATOM      3  O   UNL     1      31.678  18.306  25.294  1.00  0.00    -0.550 OA
ATOM      4  O   UNL     1      29.876  19.516  26.025  1.00  0.00    -0.550 OA
ENDROOT
TORSDOF 0
ENDMDL
MODEL 2
REMARK VINA RESULT:    -2.455      1.442      1.895
REMARK INTER + INTRA:          -2.455
REMARK INTER:                  -2.455
REMARK INTRA:                   0.000
REMARK UNBOUND:                 0.000
REMARK SMILES CC(=O)[O-]
REMARK SMILES IDX 1 1 2 2 3 3 4 4
REMARK H PARENT
REMARK Flexibility Score: inf
ROOT
ATOM      1  C   UNL     1      30.602  18.547  27.456  1.00  0.00     0.063 C 
ATOM      2  C   UNL     1      31.557  17.735  26.650  1.00  0.00     0.038 C 
ATOM      3  O   UNL     1      32.228  16.821  27.197  1.00  0.00    -0.550 OA
ATOM      4  O   UNL     1      31.748  18.019  25.304  1.00  0.00    -0.550 OA
ENDROOT
TORSDOF 0
ENDMDL
MODEL 3
REMARK VINA RESULT:    -2.440      1.716      2.559
REMARK INTER + INTRA:          -2.440
REMARK INTER:                  -2.440
REMARK INTRA:                   0.000
REMARK UNBOUND:                 0.000
REMARK SMILES CC(=O)[O-]
REMARK SMILES IDX 1 1 2 2 3 3 4 4
REMARK H PARENT
REMARK Flexibility Score: inf
ROOT
ATOM      1  C   UNL     1      31.342  18.647  25.541  1.00  0.00     0.063 C 
ATOM      2  C   UNL     1      31.359  18.036  26.901  1.00  0.00     0.038 C 
ATOM      3  O   UNL     1      30.731  18.580  27.847  1.00  0.00    -0.550 OA
ATOM      4  O   UNL     1      32.111  16.893  27.141  1.00  0.00    -0.550 OA
ENDROOT
TORSDOF 0
ENDMDL
MODEL 4
REMARK VINA RESULT:    -2.374      3.476      4.079
REMARK INTER + INTRA:          -2.374
REMARK INTER:                  -2.374
REMARK INTRA:                   0.000
REMARK UNBOUND:                 0.000
REMARK SMILES CC(=O)[O-]
REMARK SMILES IDX 1 1 2 2 3 3 4 4
REMARK H PARENT
REMARK Flexibility Score: inf
ROOT
ATOM      1  C   UNL     1      34.243  18.224  23.097  1.00  0.00     0.063 C 
ATOM      2  C   UNL     1      32.903  18.873  23.179  1.00  0.00     0.038 C 
ATOM      3  O   UNL     1      32.290  18.921  24.277  1.00  0.00    -0.550 OA
ATOM      4  O   UNL     1      32.303  19.378  22.033  1.00  0.00    -0.550 OA
ENDROOT
TORSDOF 0
ENDMDL
MODEL 5
REMARK VINA RESULT:    -2.335      3.534      3.827
REMARK INTER + INTRA:          -2.335
REMARK INTER:                  -2.335
REMARK INTRA:                   0.000
REMARK UNBOUND:                 0.000
REMARK SMILES CC(=O)[O-]
REMARK SMILES IDX 1 1 2 2 3 3 4 4
REMARK H PARENT
REMARK Flexibility Score: inf
ROOT
ATOM      1  C   UNL     1      32.125  18.614  24.389  1.00  0.00     0.063 C 
ATOM      2  C   UNL     1      33.151  18.752  23.316  1.00  0.00     0.038 C 
ATOM      3  O   UNL     1      34.067  17.897  23.203  1.00  0.00    -0.550 OA
ATOM      4  O   UNL     1      33.131  19.855  22.472  1.00  0.00    -0.550 OA
ENDROOT
TORSDOF 0
ENDMDL
MODEL 6
REMARK VINA RESULT:    -2.216     10.087     10.334
REMARK INTER + INTRA:          -2.216
REMARK INTER:                  -2.216
REMARK INTRA:                   0.000
REMARK UNBOUND:                 0.000
REMARK SMILES CC(=O)[O-]
REMARK SMILES IDX 1 1 2 2 3 3 4 4
REMARK H PARENT
REMARK Flexibility Score: inf
ROOT
ATOM      1  C   UNL     1      29.360  29.125  27.436  1.00  0.00     0.063 C 
ATOM      2  C   UNL     1      30.632  28.857  26.705  1.00  0.00     0.038 C 
ATOM      3  O   UNL     1      31.737  28.973  27.296  1.00  0.00    -0.550 OA
ATOM      4  O   UNL     1      30.604  28.531  25.355  1.00  0.00    -0.550 OA
ENDROOT
TORSDOF 0
ENDMDL
MODEL 7
REMARK VINA RESULT:    -2.061     11.555     11.872
REMARK INTER + INTRA:          -2.061
REMARK INTER:                  -2.061
REMARK INTRA:                   0.000
REMARK UNBOUND:                 0.000
REMARK SMILES CC(=O)[O-]
REMARK SMILES IDX 1 1 2 2 3 3 4 4
REMARK H PARENT
REMARK Flexibility Score: inf
ROOT
ATOM      1  C   UNL     1      29.017   9.262  18.501  1.00  0.00     0.063 C 
ATOM      2  C   UNL     1      30.204   9.298  19.402  1.00  0.00     0.038 C 
ATOM      3  O   UNL     1      30.083   9.005  20.620  1.00  0.00    -0.550 OA
ATOM      4  O   UNL     1      31.437   9.709  18.912  1.00  0.00    -0.550 OA
ENDROOT
TORSDOF 0
ENDMDL
MODEL 8
REMARK VINA RESULT:    -1.440     11.731     12.198
REMARK INTER + INTRA:          -1.440
REMARK INTER:                  -1.440
REMARK INTRA:                   0.000
REMARK UNBOUND:                 0.000
REMARK SMILES CC(=O)[O-]
REMARK SMILES IDX 1 1 2 2 3 3 4 4
REMARK H PARENT
REMARK Flexibility Score: inf
ROOT
ATOM      1  C   UNL     1      31.820   8.875  18.140  1.00  0.00     0.063 C 
ATOM      2  C   UNL     1      30.548   9.270  18.810  1.00  0.00     0.038 C 
ATOM      3  O   UNL     1      30.552   9.621  20.019  1.00  0.00    -0.550 OA
ATOM      4  O   UNL     1      29.346   9.202  18.117  1.00  0.00    -0.550 OA
ENDROOT
TORSDOF 0
ENDMDL
