MODEL 1
REMARK VINA RESULT:    -4.761      0.000      0.000
REMARK INTER + INTRA:          -5.690
REMARK INTER:                  -5.457
REMARK INTRA:                  -0.233
REMARK UNBOUND:                -0.233
REMARK SMILES CC=Cc1ccc(O)c(OC)c1
REMARK SMILES IDX 4 1 12 2 9 3 7 4 6 5 5 6 3 7 1 8 2 9 10 10 11 11 8 12
REMARK H PARENT 8 13
REMARK Flexibility Score: inf
ROOT
ATOM      1  C   UNL     1      -1.115 -17.234  18.220  1.00  0.00    -0.022 A 
ATOM      2  C   UNL     1       0.160 -16.701  17.965  1.00  0.00     0.058 A 
ATOM      3  C   UNL     1       1.189 -16.820  18.921  1.00  0.00     0.161 A 
ATOM      4  C   UNL     1       0.935 -17.496  20.123  1.00  0.00     0.157 A 
ATOM      5  C   UNL     1      -0.327 -18.055  20.362  1.00  0.00     0.051 A 
ATOM      6  C   UNL     1      -1.342 -17.933  19.413  1.00  0.00     0.012 A 
ENDROOT
BRANCH   1   7
ATOM      7  C   UNL     1      -2.201 -17.142  17.223  1.00  0.00     0.003 C 
ATOM      8  C   UNL     1      -1.576 -19.263  16.034  1.00  0.00     0.035 C 
ATOM      9  C   UNL     1      -2.427 -18.050  16.261  1.00  0.00    -0.030 C 
ENDBRANCH   1   7
BRANCH   3  10
ATOM     10  O   UNL     1       2.469 -16.285  18.712  1.00  0.00    -0.493 OA
ATOM     11  C   UNL     1       2.738 -14.907  18.477  1.00  0.00     0.278 C 
ENDBRANCH   3  10
BRANCH   4  12
ATOM     12  O   UNL     1       1.948 -17.614  21.074  1.00  0.00    -0.504 OA
ATOM     13  H   UNL     1       2.018 -16.973  21.856  1.00  0.00     0.293 HD
ENDBRANCH   4  12
TORSDOF 3
ENDMDL
MODEL 2
REMARK VINA RESULT:    -4.747      1.645      2.986
REMARK INTER + INTRA:          -5.674
REMARK INTER:                  -5.434
REMARK INTRA:                  -0.239
REMARK UNBOUND:                -0.233
REMARK SMILES CC=Cc1ccc(O)c(OC)c1
REMARK SMILES IDX 4 1 12 2 9 3 7 4 6 5 5 6 3 7 1 8 2 9 10 10 11 11 8 12
REMARK H PARENT 8 13
REMARK Flexibility Score: inf
ROOT
ATOM      1  C   UNL     1       0.145 -16.379  17.497  1.00  0.00    -0.022 A 
ATOM      2  C   UNL     1      -0.579 -17.085  18.473  1.00  0.00     0.058 A 
ATOM      3  C   UNL     1       0.052 -17.521  19.655  1.00  0.00     0.161 A 
ATOM      4  C   UNL     1       1.407 -17.226  19.860  1.00  0.00     0.157 A 
ATOM      5  C   UNL     1       2.120 -16.495  18.901  1.00  0.00     0.051 A 
ATOM      6  C   UNL     1       1.490 -16.066  17.732  1.00  0.00     0.012 A 
ENDROOT
BRANCH   1   7
ATOM      7  C   UNL     1      -0.502 -15.892  16.261  1.00  0.00     0.003 C 
ATOM      8  C   UNL     1       0.053 -17.934  14.912  1.00  0.00     0.035 C 
ATOM      9  C   UNL     1      -0.567 -16.585  15.115  1.00  0.00    -0.030 C 
ENDBRANCH   1   7
BRANCH   3  10
ATOM     10  O   UNL     1      -0.632 -18.244  20.644  1.00  0.00    -0.493 OA
ATOM     11  C   UNL     1      -2.024 -18.545  20.606  1.00  0.00     0.278 C 
ENDBRANCH   3  10
BRANCH   4  12
ATOM     12  O   UNL     1       2.038 -17.658  21.026  1.00  0.00    -0.504 OA
ATOM     13  H   UNL     1       2.840 -17.169  21.407  1.00  0.00     0.293 HD
ENDBRANCH   4  12
TORSDOF 3
ENDMDL
MODEL 3
REMARK VINA RESULT:    -4.443      1.945      2.953
REMARK INTER + INTRA:          -5.325
REMARK INTER:                  -5.276
REMARK INTRA:                  -0.049
REMARK UNBOUND:                -0.233
REMARK SMILES CC=Cc1ccc(O)c(OC)c1
REMARK SMILES IDX 4 1 12 2 9 3 7 4 6 5 5 6 3 7 1 8 2 9 10 10 11 11 8 12
REMARK H PARENT 8 13
REMARK Flexibility Score: inf
ROOT
ATOM      1  C   UNL     1      -0.315 -17.509  19.512  1.00  0.00    -0.022 A 
ATOM      2  C   UNL     1      -0.512 -16.902  18.260  1.00  0.00     0.058 A 
ATOM      3  C   UNL     1       0.557 -16.266  17.598  1.00  0.00     0.161 A 
ATOM      4  C   UNL     1       1.828 -16.262  18.191  1.00  0.00     0.157 A 
ATOM      5  C   UNL     1       2.030 -16.895  19.424  1.00  0.00     0.051 A 
ATOM      6  C   UNL     1       0.967 -17.522  20.075  1.00  0.00     0.012 A 
ENDROOT
BRANCH   1   7
ATOM      7  C   UNL     1      -1.416 -18.202  20.213  1.00  0.00     0.003 C 
ATOM      8  C   UNL     1      -1.629 -20.034  18.511  1.00  0.00     0.035 C 
ATOM      9  C   UNL     1      -1.991 -19.337  19.787  1.00  0.00    -0.030 C 
ENDBRANCH   1   7
BRANCH   3  10
ATOM     10  O   UNL     1       0.396 -15.634  16.355  1.00  0.00    -0.493 OA
ATOM     11  C   UNL     1      -0.858 -15.238  15.808  1.00  0.00     0.278 C 
ENDBRANCH   3  10
BRANCH   4  12
ATOM     12  O   UNL     1       2.889 -15.631  17.542  1.00  0.00    -0.504 OA
ATOM     13  H   UNL     1       3.625 -15.165  18.060  1.00  0.00     0.293 HD
ENDBRANCH   4  12
TORSDOF 3
ENDMDL
MODEL 4
REMARK VINA RESULT:    -4.436     11.529     13.431
REMARK INTER + INTRA:          -5.317
REMARK INTER:                  -5.133
REMARK INTRA:                  -0.184
REMARK UNBOUND:                -0.233
REMARK SMILES CC=Cc1ccc(O)c(OC)c1
REMARK SMILES IDX 4 1 12 2 9 3 7 4 6 5 5 6 3 7 1 8 2 9 10 10 11 11 8 12
REMARK H PARENT 8 13
REMARK Flexibility Score: inf
ROOT
ATOM      1  C   UNL     1       1.400 -16.866  31.480  1.00  0.00    -0.022 A 
ATOM      2  C   UNL     1       1.928 -18.122  31.136  1.00  0.00     0.058 A 
ATOM      3  C   UNL     1       1.566 -19.273  31.864  1.00  0.00     0.161 A 
ATOM      4  C   UNL     1       0.653 -19.157  32.923  1.00  0.00     0.157 A 
ATOM      5  C   UNL     1       0.104 -17.910  33.244  1.00  0.00     0.051 A 
ATOM      6  C   UNL     1       0.467 -16.773  32.521  1.00  0.00     0.012 A 
ENDROOT
BRANCH   1   7
ATOM      7  C   UNL     1       1.748 -15.650  30.716  1.00  0.00     0.003 C 
ATOM      8  C   UNL     1      -0.321 -15.694  29.295  1.00  0.00     0.035 C 
ATOM      9  C   UNL     1       0.979 -15.109  29.759  1.00  0.00    -0.030 C 
ENDBRANCH   1   7
BRANCH   3  10
ATOM     10  O   UNL     1       2.085 -20.542  31.563  1.00  0.00    -0.493 OA
ATOM     11  C   UNL     1       2.806 -20.857  30.377  1.00  0.00     0.278 C 
ENDBRANCH   3  10
BRANCH   4  12
ATOM     12  O   UNL     1       0.293 -20.292  33.649  1.00  0.00    -0.504 OA
ATOM     13  H   UNL     1       0.974 -20.813  34.191  1.00  0.00     0.293 HD
ENDBRANCH   4  12
TORSDOF 3
ENDMDL
MODEL 5
REMARK VINA RESULT:    -4.391     18.279     20.597
REMARK INTER + INTRA:          -5.265
REMARK INTER:                  -5.055
REMARK INTRA:                  -0.210
REMARK UNBOUND:                -0.233
REMARK SMILES CC=Cc1ccc(O)c(OC)c1
REMARK SMILES IDX 4 1 12 2 9 3 7 4 6 5 5 6 3 7 1 8 2 9 10 10 11 11 8 12
REMARK H PARENT 8 13
REMARK Flexibility Score: inf
ROOT
ATOM      1  C   UNL     1      13.965  -9.789  32.319  1.00  0.00    -0.022 A 
ATOM      2  C   UNL     1      14.672 -10.133  31.155  1.00  0.00     0.058 A 
ATOM      3  C   UNL     1      13.983 -10.453  29.968  1.00  0.00     0.161 A 
ATOM      4  C   UNL     1      12.582 -10.402  29.952  1.00  0.00     0.157 A 
ATOM      5  C   UNL     1      11.879 -10.028  31.104  1.00  0.00     0.051 A 
ATOM      6  C   UNL     1      12.567  -9.714  32.277  1.00  0.00     0.012 A 
ENDROOT
BRANCH   1   7
ATOM      7  C   UNL     1      14.667  -9.428  33.568  1.00  0.00     0.003 C 
ATOM      8  C   UNL     1      15.034  -7.031  32.918  1.00  0.00     0.035 C 
ATOM      9  C   UNL     1      15.126  -8.200  33.852  1.00  0.00    -0.030 C 
ENDBRANCH   1   7
BRANCH   3  10
ATOM     10  O   UNL     1      14.653 -10.819  28.790  1.00  0.00    -0.493 OA
ATOM     11  C   UNL     1      15.977 -10.416  28.458  1.00  0.00     0.278 C 
ENDBRANCH   3  10
BRANCH   4  12
ATOM     12  O   UNL     1      11.894 -10.720  28.781  1.00  0.00    -0.504 OA
ATOM     13  H   UNL     1      11.342 -11.566  28.704  1.00  0.00     0.293 HD
ENDBRANCH   4  12
TORSDOF 3
ENDMDL
MODEL 6
REMARK VINA RESULT:    -4.352     17.906     20.255
REMARK INTER + INTRA:          -5.221
REMARK INTER:                  -5.229
REMARK INTRA:                   0.008
REMARK UNBOUND:                -0.233
REMARK SMILES CC=Cc1ccc(O)c(OC)c1
REMARK SMILES IDX 4 1 12 2 9 3 7 4 6 5 5 6 3 7 1 8 2 9 10 10 11 11 8 12
REMARK H PARENT 8 13
REMARK Flexibility Score: inf
ROOT
ATOM      1  C   UNL     1      14.246  -9.625  31.567  1.00  0.00    -0.022 A 
ATOM      2  C   UNL     1      12.869  -9.540  31.832  1.00  0.00     0.058 A 
ATOM      3  C   UNL     1      11.932 -10.068  30.922  1.00  0.00     0.161 A 
ATOM      4  C   UNL     1      12.387 -10.700  29.755  1.00  0.00     0.157 A 
ATOM      5  C   UNL     1      13.761 -10.812  29.508  1.00  0.00     0.051 A 
ATOM      6  C   UNL     1      14.685 -10.286  30.413  1.00  0.00     0.012 A 
ENDROOT
BRANCH   1   7
ATOM      7  C   UNL     1      15.247  -9.099  32.519  1.00  0.00     0.003 C 
ATOM      8  C   UNL     1      14.455  -6.722  32.367  1.00  0.00     0.035 C 
ATOM      9  C   UNL     1      15.333  -7.816  32.897  1.00  0.00    -0.030 C 
ENDBRANCH   1   7
BRANCH   3  10
ATOM     10  O   UNL     1      10.548  -9.987  31.141  1.00  0.00    -0.493 OA
ATOM     11  C   UNL     1       9.919 -10.189  32.403  1.00  0.00     0.278 C 
ENDBRANCH   3  10
BRANCH   4  12
ATOM     12  O   UNL     1      11.465 -11.221  28.849  1.00  0.00    -0.504 OA
ATOM     13  H   UNL     1      11.538 -12.172  28.506  1.00  0.00     0.293 HD
ENDBRANCH   4  12
TORSDOF 3
ENDMDL
MODEL 7
REMARK VINA RESULT:    -4.342     14.781     17.141
REMARK INTER + INTRA:          -5.210
REMARK INTER:                  -4.992
REMARK INTRA:                  -0.218
REMARK UNBOUND:                -0.233
REMARK SMILES CC=Cc1ccc(O)c(OC)c1
REMARK SMILES IDX 4 1 12 2 9 3 7 4 6 5 5 6 3 7 1 8 2 9 10 10 11 11 8 12
REMARK H PARENT 8 13
REMARK Flexibility Score: inf
ROOT
ATOM      1  C   UNL     1      15.396  -9.255  18.475  1.00  0.00    -0.022 A 
ATOM      2  C   UNL     1      15.462 -10.118  17.367  1.00  0.00     0.058 A 
ATOM      3  C   UNL     1      14.301 -10.758  16.890  1.00  0.00     0.161 A 
ATOM      4  C   UNL     1      13.072 -10.509  17.518  1.00  0.00     0.157 A 
ATOM      5  C   UNL     1      13.002  -9.624  18.601  1.00  0.00     0.051 A 
ATOM      6  C   UNL     1      14.156  -8.994  19.070  1.00  0.00     0.012 A 
ENDROOT
BRANCH   1   7
ATOM      7  C   UNL     1      16.597  -8.554  18.977  1.00  0.00     0.003 C 
ATOM      8  C   UNL     1      16.354  -6.588  17.436  1.00  0.00     0.035 C 
ATOM      9  C   UNL     1      17.017  -7.359  18.537  1.00  0.00    -0.030 C 
ENDBRANCH   1   7
BRANCH   3  10
ATOM     10  O   UNL     1      14.329 -11.640  15.799  1.00  0.00    -0.493 OA
ATOM     11  C   UNL     1      15.471 -11.874  14.981  1.00  0.00     0.278 C 
ENDBRANCH   3  10
BRANCH   4  12
ATOM     12  O   UNL     1      11.920 -11.143  17.052  1.00  0.00    -0.504 OA
ATOM     13  H   UNL     1      11.298 -11.640  17.679  1.00  0.00     0.293 HD
ENDBRANCH   4  12
TORSDOF 3
ENDMDL
MODEL 8
REMARK VINA RESULT:    -4.178     11.380     13.181
REMARK INTER + INTRA:          -5.021
REMARK INTER:                  -5.032
REMARK INTRA:                   0.011
REMARK UNBOUND:                -0.233
REMARK SMILES CC=Cc1ccc(O)c(OC)c1
REMARK SMILES IDX 4 1 12 2 9 3 7 4 6 5 5 6 3 7 1 8 2 9 10 10 11 11 8 12
REMARK H PARENT 8 13
REMARK Flexibility Score: inf
ROOT
ATOM      1  C   UNL     1       1.166 -16.277  31.592  1.00  0.00    -0.022 A 
ATOM      2  C   UNL     1       2.550 -16.418  31.791  1.00  0.00     0.058 A 
ATOM      3  C   UNL     1       3.460 -15.989  30.804  1.00  0.00     0.161 A 
ATOM      4  C   UNL     1       2.973 -15.399  29.629  1.00  0.00     0.157 A 
ATOM      5  C   UNL     1       1.595 -15.231  29.446  1.00  0.00     0.051 A 
ATOM      6  C   UNL     1       0.698 -15.659  30.426  1.00  0.00     0.012 A 
ENDROOT
BRANCH   1   7
ATOM      7  C   UNL     1       0.194 -16.698  32.622  1.00  0.00     0.003 C 
ATOM      8  C   UNL     1       0.861 -19.118  32.566  1.00  0.00     0.035 C 
ATOM      9  C   UNL     1       0.066 -17.954  33.077  1.00  0.00    -0.030 C 
ENDBRANCH   1   7
BRANCH   3  10
ATOM     10  O   UNL     1       4.848 -16.128  30.957  1.00  0.00    -0.493 OA
ATOM     11  C   UNL     1       5.537 -16.023  32.199  1.00  0.00     0.278 C 
ENDBRANCH   3  10
BRANCH   4  12
ATOM     12  O   UNL     1       3.869 -14.976  28.648  1.00  0.00    -0.504 OA
ATOM     13  H   UNL     1       4.746 -14.528  28.888  1.00  0.00     0.293 HD
ENDBRANCH   4  12
TORSDOF 3
ENDMDL
MODEL 9
REMARK VINA RESULT:    -4.175     18.356     19.818
REMARK INTER + INTRA:          -5.017
REMARK INTER:                  -5.038
REMARK INTRA:                   0.020
REMARK UNBOUND:                -0.233
REMARK SMILES CC=Cc1ccc(O)c(OC)c1
REMARK SMILES IDX 4 1 12 2 9 3 7 4 6 5 5 6 3 7 1 8 2 9 10 10 11 11 8 12
REMARK H PARENT 8 13
REMARK Flexibility Score: inf
ROOT
ATOM      1  C   UNL     1      12.078 -10.000  30.766  1.00  0.00    -0.022 A 
ATOM      2  C   UNL     1      13.155  -9.484  31.506  1.00  0.00     0.058 A 
ATOM      3  C   UNL     1      14.483  -9.773  31.133  1.00  0.00     0.161 A 
ATOM      4  C   UNL     1      14.721 -10.564  30.000  1.00  0.00     0.157 A 
ATOM      5  C   UNL     1      13.647 -11.051  29.244  1.00  0.00     0.051 A 
ATOM      6  C   UNL     1      12.335 -10.763  29.619  1.00  0.00     0.012 A 
ENDROOT
BRANCH   1   7
ATOM      7  C   UNL     1      10.678  -9.690  31.125  1.00  0.00     0.003 C 
ATOM      8  C   UNL     1      10.804 -10.750  33.397  1.00  0.00     0.035 C 
ATOM      9  C   UNL     1      10.110 -10.000  32.300  1.00  0.00    -0.030 C 
ENDBRANCH   1   7
BRANCH   3  10
ATOM     10  O   UNL     1      15.584  -9.292  31.857  1.00  0.00    -0.493 OA
ATOM     11  C   UNL     1      15.490  -8.533  33.058  1.00  0.00     0.278 C 
ENDBRANCH   3  10
BRANCH   4  12
ATOM     12  O   UNL     1      16.033 -10.857  29.628  1.00  0.00    -0.504 OA
ATOM     13  H   UNL     1      16.436 -10.490  28.773  1.00  0.00     0.293 HD
ENDBRANCH   4  12
TORSDOF 3
ENDMDL
