MODEL 1
REMARK VINA RESULT:    -5.883      0.000      0.000
REMARK INTER + INTRA:          -7.190
REMARK INTER:                  -6.914
REMARK INTRA:                  -0.276
REMARK UNBOUND:                -0.276
REMARK SMILES O=c1c(O)c(-c2ccc(O)c(O)c2)oc2cc(O)ccc12
REMARK SMILES IDX 5 1 3 2 2 3 1 4 21 5 15 6 14 7 16 8 17 9 19 10 20 11 6 12
REMARK SMILES IDX 7 13 8 14 9 15 13 16 11 17 10 18 12 20 4 22 18 24
REMARK H PARENT 10 19 12 21 4 23 18 25
REMARK Flexibility Score: inf
ROOT
ATOM      1  C   UNL     1      28.994  20.563   4.684  1.00  0.00     0.180 A 
ATOM      2  C   UNL     1      29.886  21.566   4.249  1.00  0.00     0.208 A 
ATOM      3  C   UNL     1      31.204  21.207   3.930  1.00  0.00     0.235 A 
ATOM      4  O   UNL     1      32.018  22.084   3.528  1.00  0.00    -0.285 OA
ATOM      5  C   UNL     1      31.609  19.869   4.070  1.00  0.00     0.069 A 
ATOM      6  C   UNL     1      30.663  18.931   4.534  1.00  0.00     0.142 A 
ATOM      7  O   UNL     1      29.422  19.310   4.817  1.00  0.00    -0.452 OA
ATOM      8  C   UNL     1      31.031  17.590   4.697  1.00  0.00     0.094 A 
ATOM      9  C   UNL     1      32.332  17.174   4.399  1.00  0.00     0.119 A 
ATOM     10  C   UNL     1      33.273  18.104   3.935  1.00  0.00     0.047 A 
ATOM     11  C   UNL     1      32.917  19.446   3.771  1.00  0.00     0.020 A 
ENDROOT
BRANCH   1  12
ATOM     12  C   UNL     1      27.583  20.858   5.022  1.00  0.00     0.025 A 
ATOM     13  C   UNL     1      27.166  21.012   6.355  1.00  0.00     0.016 A 
ATOM     14  C   UNL     1      25.834  21.313   6.649  1.00  0.00     0.051 A 
ATOM     15  C   UNL     1      24.902  21.479   5.620  1.00  0.00     0.157 A 
ATOM     16  C   UNL     1      26.650  21.046   3.989  1.00  0.00     0.062 A 
ATOM     17  C   UNL     1      25.312  21.348   4.282  1.00  0.00     0.158 A 
BRANCH  15  18
ATOM     18  O   UNL     1      23.580  21.777   5.944  1.00  0.00    -0.504 OA
ATOM     19  H   UNL     1      23.145  21.440   6.794  1.00  0.00     0.293 HD
ENDBRANCH  15  18
BRANCH  17  20
ATOM     20  O   UNL     1      24.391  21.520   3.250  1.00  0.00    -0.504 OA
ATOM     21  H   UNL     1      24.618  21.286   2.290  1.00  0.00     0.293 HD
ENDBRANCH  17  20
ENDBRANCH   1  12
BRANCH   2  22
ATOM     22  O   UNL     1      29.468  22.897   4.167  1.00  0.00    -0.502 OA
ATOM     23  H   UNL     1      29.377  23.487   4.985  1.00  0.00     0.293 HD
ENDBRANCH   2  22
BRANCH   9  24
ATOM     24  O   UNL     1      32.681  15.836   4.564  1.00  0.00    -0.508 OA
ATOM     25  H   UNL     1      32.310  15.281   5.327  1.00  0.00     0.293 HD
ENDBRANCH   9  24
TORSDOF 5
ENDMDL
MODEL 2
REMARK VINA RESULT:    -5.722      1.178      2.961
REMARK INTER + INTRA:          -7.002
REMARK INTER:                  -6.694
REMARK INTRA:                  -0.308
REMARK UNBOUND:                -0.276
REMARK SMILES O=c1c(O)c(-c2ccc(O)c(O)c2)oc2cc(O)ccc12
REMARK SMILES IDX 5 1 3 2 2 3 1 4 21 5 15 6 14 7 16 8 17 9 19 10 20 11 6 12
REMARK SMILES IDX 7 13 8 14 9 15 13 16 11 17 10 18 12 20 4 22 18 24
REMARK H PARENT 10 19 12 21 4 23 18 25
REMARK Flexibility Score: inf
ROOT
ATOM      1  C   UNL     1      28.967  20.402   4.801  1.00  0.00     0.180 A 
ATOM      2  C   UNL     1      29.420  19.070   4.905  1.00  0.00     0.208 A 
ATOM      3  C   UNL     1      30.789  18.807   4.737  1.00  0.00     0.235 A 
ATOM      4  O   UNL     1      31.220  17.625   4.837  1.00  0.00    -0.285 OA
ATOM      5  C   UNL     1      31.666  19.865   4.451  1.00  0.00     0.069 A 
ATOM      6  C   UNL     1      31.129  21.165   4.339  1.00  0.00     0.142 A 
ATOM      7  O   UNL     1      29.829  21.374   4.514  1.00  0.00    -0.452 OA
ATOM      8  C   UNL     1      31.970  22.245   4.044  1.00  0.00     0.094 A 
ATOM      9  C   UNL     1      33.341  22.043   3.862  1.00  0.00     0.119 A 
ATOM     10  C   UNL     1      33.877  20.752   3.975  1.00  0.00     0.047 A 
ATOM     11  C   UNL     1      33.047  19.666   4.267  1.00  0.00     0.020 A 
ENDROOT
BRANCH   1  12
ATOM     12  C   UNL     1      27.543  20.764   4.983  1.00  0.00     0.025 A 
ATOM     13  C   UNL     1      26.985  20.918   6.263  1.00  0.00     0.016 A 
ATOM     14  C   UNL     1      25.644  21.284   6.411  1.00  0.00     0.051 A 
ATOM     15  C   UNL     1      24.846  21.513   5.286  1.00  0.00     0.157 A 
ATOM     16  C   UNL     1      26.745  21.016   3.855  1.00  0.00     0.062 A 
ATOM     17  C   UNL     1      25.398  21.382   4.001  1.00  0.00     0.158 A 
BRANCH  15  18
ATOM     18  O   UNL     1      23.511  21.875   5.465  1.00  0.00    -0.504 OA
ATOM     19  H   UNL     1      23.166  22.796   5.221  1.00  0.00     0.293 HD
ENDBRANCH  15  18
BRANCH  17  20
ATOM     20  O   UNL     1      24.610  21.618   2.875  1.00  0.00    -0.504 OA
ATOM     21  H   UNL     1      23.779  21.071   2.685  1.00  0.00     0.293 HD
ENDBRANCH  17  20
ENDBRANCH   1  12
BRANCH   2  22
ATOM     22  O   UNL     1      28.517  18.032   5.142  1.00  0.00    -0.502 OA
ATOM     23  H   UNL     1      27.624  17.973   4.667  1.00  0.00     0.293 HD
ENDBRANCH   2  22
BRANCH   9  24
ATOM     24  O   UNL     1      34.164  23.129   3.571  1.00  0.00    -0.508 OA
ATOM     25  H   UNL     1      33.812  24.079   3.580  1.00  0.00     0.293 HD
ENDBRANCH   9  24
TORSDOF 5
ENDMDL
MODEL 3
REMARK VINA RESULT:    -5.694      3.001      5.931
REMARK INTER + INTRA:          -6.969
REMARK INTER:                  -7.106
REMARK INTRA:                   0.137
REMARK UNBOUND:                -0.276
REMARK SMILES O=c1c(O)c(-c2ccc(O)c(O)c2)oc2cc(O)ccc12
REMARK SMILES IDX 5 1 3 2 2 3 1 4 21 5 15 6 14 7 16 8 17 9 19 10 20 11 6 12
REMARK SMILES IDX 7 13 8 14 9 15 13 16 11 17 10 18 12 20 4 22 18 24
REMARK H PARENT 10 19 12 21 4 23 18 25
REMARK Flexibility Score: inf
ROOT
ATOM      1  C   UNL     1      30.026  22.751   4.370  1.00  0.00     0.180 A 
ATOM      2  C   UNL     1      30.906  21.650   4.420  1.00  0.00     0.208 A 
ATOM      3  C   UNL     1      30.367  20.358   4.515  1.00  0.00     0.235 A 
ATOM      4  O   UNL     1      31.134  19.355   4.550  1.00  0.00    -0.285 OA
ATOM      5  C   UNL     1      28.975  20.193   4.579  1.00  0.00     0.069 A 
ATOM      6  C   UNL     1      28.163  21.347   4.548  1.00  0.00     0.142 A 
ATOM      7  O   UNL     1      28.712  22.552   4.448  1.00  0.00    -0.452 OA
ATOM      8  C   UNL     1      26.771  21.225   4.620  1.00  0.00     0.094 A 
ATOM      9  C   UNL     1      26.177  19.963   4.721  1.00  0.00     0.119 A 
ATOM     10  C   UNL     1      26.981  18.815   4.750  1.00  0.00     0.047 A 
ATOM     11  C   UNL     1      28.373  18.925   4.681  1.00  0.00     0.020 A 
ENDROOT
BRANCH   1  12
ATOM     12  C   UNL     1      30.515  24.143   4.251  1.00  0.00     0.025 A 
ATOM     13  C   UNL     1      31.618  24.466   3.441  1.00  0.00     0.016 A 
ATOM     14  C   UNL     1      32.047  25.791   3.325  1.00  0.00     0.051 A 
ATOM     15  C   UNL     1      31.376  26.813   4.003  1.00  0.00     0.157 A 
ATOM     16  C   UNL     1      29.830  25.175   4.913  1.00  0.00     0.062 A 
ATOM     17  C   UNL     1      30.259  26.506   4.799  1.00  0.00     0.158 A 
BRANCH  15  18
ATOM     18  O   UNL     1      31.828  28.125   3.869  1.00  0.00    -0.504 OA
ATOM     19  H   UNL     1      31.785  28.790   4.633  1.00  0.00     0.293 HD
ENDBRANCH  15  18
BRANCH  17  20
ATOM     20  O   UNL     1      29.580  27.521   5.470  1.00  0.00    -0.504 OA
ATOM     21  H   UNL     1      29.808  27.771   6.426  1.00  0.00     0.293 HD
ENDBRANCH  17  20
ENDBRANCH   1  12
BRANCH   2  22
ATOM     22  O   UNL     1      32.289  21.848   4.404  1.00  0.00    -0.502 OA
ATOM     23  H   UNL     1      32.823  21.866   3.544  1.00  0.00     0.293 HD
ENDBRANCH   2  22
BRANCH   9  24
ATOM     24  O   UNL     1      24.790  19.859   4.790  1.00  0.00    -0.508 OA
ATOM     25  H   UNL     1      24.326  18.958   4.820  1.00  0.00     0.293 HD
ENDBRANCH   9  24
TORSDOF 5
ENDMDL
MODEL 4
REMARK VINA RESULT:    -5.465      2.980      5.442
REMARK INTER + INTRA:          -6.700
REMARK INTER:                  -6.746
REMARK INTRA:                   0.047
REMARK UNBOUND:                -0.276
REMARK SMILES O=c1c(O)c(-c2ccc(O)c(O)c2)oc2cc(O)ccc12
REMARK SMILES IDX 5 1 3 2 2 3 1 4 21 5 15 6 14 7 16 8 17 9 19 10 20 11 6 12
REMARK SMILES IDX 7 13 8 14 9 15 13 16 11 17 10 18 12 20 4 22 18 24
REMARK H PARENT 10 19 12 21 4 23 18 25
REMARK Flexibility Score: inf
ROOT
ATOM      1  C   UNL     1      29.820  22.208   4.322  1.00  0.00     0.180 A 
ATOM      2  C   UNL     1      31.061  22.124   3.657  1.00  0.00     0.208 A 
ATOM      3  C   UNL     1      31.802  23.298   3.458  1.00  0.00     0.235 A 
ATOM      4  O   UNL     1      32.921  23.247   2.875  1.00  0.00    -0.285 OA
ATOM      5  C   UNL     1      31.286  24.525   3.905  1.00  0.00     0.069 A 
ATOM      6  C   UNL     1      30.026  24.528   4.540  1.00  0.00     0.142 A 
ATOM      7  O   UNL     1      29.360  23.393   4.717  1.00  0.00    -0.452 OA
ATOM      8  C   UNL     1      29.473  25.732   4.990  1.00  0.00     0.094 A 
ATOM      9  C   UNL     1      30.165  26.935   4.816  1.00  0.00     0.119 A 
ATOM     10  C   UNL     1      31.417  26.935   4.187  1.00  0.00     0.047 A 
ATOM     11  C   UNL     1      31.978  25.738   3.732  1.00  0.00     0.020 A 
ENDROOT
BRANCH   1  12
ATOM     12  C   UNL     1      28.987  21.013   4.587  1.00  0.00     0.025 A 
ATOM     13  C   UNL     1      29.548  19.825   5.086  1.00  0.00     0.016 A 
ATOM     14  C   UNL     1      28.738  18.717   5.351  1.00  0.00     0.051 A 
ATOM     15  C   UNL     1      27.358  18.782   5.135  1.00  0.00     0.157 A 
ATOM     16  C   UNL     1      27.598  21.082   4.391  1.00  0.00     0.062 A 
ATOM     17  C   UNL     1      26.783  19.971   4.655  1.00  0.00     0.158 A 
BRANCH  15  18
ATOM     18  O   UNL     1      26.576  17.660   5.406  1.00  0.00    -0.504 OA
ATOM     19  H   UNL     1      26.972  16.805   5.779  1.00  0.00     0.293 HD
ENDBRANCH  15  18
BRANCH  17  20
ATOM     20  O   UNL     1      25.407  20.046   4.445  1.00  0.00    -0.504 OA
ATOM     21  H   UNL     1      24.896  20.912   4.574  1.00  0.00     0.293 HD
ENDBRANCH  17  20
ENDBRANCH   1  12
BRANCH   2  22
ATOM     22  O   UNL     1      31.526  20.896   3.180  1.00  0.00    -0.502 OA
ATOM     23  H   UNL     1      31.642  20.090   3.783  1.00  0.00     0.293 HD
ENDBRANCH   2  22
BRANCH   9  24
ATOM     24  O   UNL     1      29.601  28.125   5.271  1.00  0.00    -0.508 OA
ATOM     25  H   UNL     1      29.614  28.968   4.709  1.00  0.00     0.293 HD
ENDBRANCH   9  24
TORSDOF 5
ENDMDL
MODEL 5
REMARK VINA RESULT:    -5.364      1.803      2.671
REMARK INTER + INTRA:          -6.581
REMARK INTER:                  -6.329
REMARK INTRA:                  -0.252
REMARK UNBOUND:                -0.276
REMARK SMILES O=c1c(O)c(-c2ccc(O)c(O)c2)oc2cc(O)ccc12
REMARK SMILES IDX 5 1 3 2 2 3 1 4 21 5 15 6 14 7 16 8 17 9 19 10 20 11 6 12
REMARK SMILES IDX 7 13 8 14 9 15 13 16 11 17 10 18 12 20 4 22 18 24
REMARK H PARENT 10 19 12 21 4 23 18 25
REMARK Flexibility Score: inf
ROOT
ATOM      1  C   UNL     1      30.539  19.110   4.290  1.00  0.00     0.180 A 
ATOM      2  C   UNL     1      31.487  20.142   4.446  1.00  0.00     0.208 A 
ATOM      3  C   UNL     1      32.847  19.845   4.266  1.00  0.00     0.235 A 
ATOM      4  O   UNL     1      33.713  20.755   4.389  1.00  0.00    -0.285 OA
ATOM      5  C   UNL     1      33.231  18.531   3.955  1.00  0.00     0.069 A 
ATOM      6  C   UNL     1      32.224  17.550   3.840  1.00  0.00     0.142 A 
ATOM      7  O   UNL     1      30.947  17.874   4.009  1.00  0.00    -0.452 OA
ATOM      8  C   UNL     1      32.567  16.226   3.542  1.00  0.00     0.094 A 
ATOM      9  C   UNL     1      33.907  15.870   3.356  1.00  0.00     0.119 A 
ATOM     10  C   UNL     1      34.910  16.843   3.468  1.00  0.00     0.047 A 
ATOM     11  C   UNL     1      34.577  18.167   3.767  1.00  0.00     0.020 A 
ENDROOT
BRANCH   1  12
ATOM     12  C   UNL     1      29.086  19.346   4.445  1.00  0.00     0.025 A 
ATOM     13  C   UNL     1      28.225  19.371   3.334  1.00  0.00     0.016 A 
ATOM     14  C   UNL     1      26.853  19.573   3.508  1.00  0.00     0.051 A 
ATOM     15  C   UNL     1      26.319  19.738   4.789  1.00  0.00     0.157 A 
ATOM     16  C   UNL     1      28.544  19.491   5.732  1.00  0.00     0.062 A 
ATOM     17  C   UNL     1      27.167  19.695   5.908  1.00  0.00     0.158 A 
BRANCH  15  18
ATOM     18  O   UNL     1      24.946  19.940   4.930  1.00  0.00    -0.504 OA
ATOM     19  H   UNL     1      24.470  20.722   4.497  1.00  0.00     0.293 HD
ENDBRANCH  15  18
BRANCH  17  20
ATOM     20  O   UNL     1      26.640  19.851   7.190  1.00  0.00    -0.504 OA
ATOM     21  H   UNL     1      25.913  19.239   7.543  1.00  0.00     0.293 HD
ENDBRANCH  17  20
ENDBRANCH   1  12
BRANCH   2  22
ATOM     22  O   UNL     1      31.078  21.429   4.803  1.00  0.00    -0.502 OA
ATOM     23  H   UNL     1      31.617  22.013   5.432  1.00  0.00     0.293 HD
ENDBRANCH   2  22
BRANCH   9  24
ATOM     24  O   UNL     1      34.232  14.548   3.058  1.00  0.00    -0.508 OA
ATOM     25  H   UNL     1      33.669  13.775   3.394  1.00  0.00     0.293 HD
ENDBRANCH   9  24
TORSDOF 5
ENDMDL
MODEL 6
REMARK VINA RESULT:    -5.229      1.500      3.291
REMARK INTER + INTRA:          -6.422
REMARK INTER:                  -6.244
REMARK INTRA:                  -0.179
REMARK UNBOUND:                -0.276
REMARK SMILES O=c1c(O)c(-c2ccc(O)c(O)c2)oc2cc(O)ccc12
REMARK SMILES IDX 5 1 3 2 2 3 1 4 21 5 15 6 14 7 16 8 17 9 19 10 20 11 6 12
REMARK SMILES IDX 7 13 8 14 9 15 13 16 11 17 10 18 12 20 4 22 18 24
REMARK H PARENT 10 19 12 21 4 23 18 25
REMARK Flexibility Score: inf
ROOT
ATOM      1  C   UNL     1      29.469  20.371   4.482  1.00  0.00     0.180 A 
ATOM      2  C   UNL     1      29.896  19.053   4.752  1.00  0.00     0.208 A 
ATOM      3  C   UNL     1      31.270  18.767   4.712  1.00  0.00     0.235 A 
ATOM      4  O   UNL     1      31.677  17.598   4.961  1.00  0.00    -0.285 OA
ATOM      5  C   UNL     1      32.179  19.786   4.389  1.00  0.00     0.069 A 
ATOM      6  C   UNL     1      31.670  21.072   4.108  1.00  0.00     0.142 A 
ATOM      7  O   UNL     1      30.363  21.305   4.165  1.00  0.00    -0.452 OA
ATOM      8  C   UNL     1      32.543  22.112   3.771  1.00  0.00     0.094 A 
ATOM      9  C   UNL     1      33.922  21.884   3.712  1.00  0.00     0.119 A 
ATOM     10  C   UNL     1      34.431  20.608   3.992  1.00  0.00     0.047 A 
ATOM     11  C   UNL     1      33.567  19.562   4.328  1.00  0.00     0.020 A 
ENDROOT
BRANCH   1  12
ATOM     12  C   UNL     1      28.041  20.758   4.522  1.00  0.00     0.025 A 
ATOM     13  C   UNL     1      27.118  20.247   3.593  1.00  0.00     0.016 A 
ATOM     14  C   UNL     1      25.770  20.608   3.664  1.00  0.00     0.051 A 
ATOM     15  C   UNL     1      25.321  21.471   4.668  1.00  0.00     0.157 A 
ATOM     16  C   UNL     1      27.583  21.607   5.542  1.00  0.00     0.062 A 
ATOM     17  C   UNL     1      26.230  21.972   5.615  1.00  0.00     0.158 A 
BRANCH  15  18
ATOM     18  O   UNL     1      23.970  21.815   4.712  1.00  0.00    -0.504 OA
ATOM     19  H   UNL     1      23.550  22.239   5.531  1.00  0.00     0.293 HD
ENDBRANCH  15  18
BRANCH  17  20
ATOM     20  O   UNL     1      25.788  22.826   6.624  1.00  0.00    -0.504 OA
ATOM     21  H   UNL     1      24.855  23.220   6.615  1.00  0.00     0.293 HD
ENDBRANCH  17  20
ENDBRANCH   1  12
BRANCH   2  22
ATOM     22  O   UNL     1      28.964  18.049   5.023  1.00  0.00    -0.502 OA
ATOM     23  H   UNL     1      29.237  17.136   5.365  1.00  0.00     0.293 HD
ENDBRANCH   2  22
BRANCH   9  24
ATOM     24  O   UNL     1      34.778  22.931   3.377  1.00  0.00    -0.508 OA
ATOM     25  H   UNL     1      35.169  23.544   4.083  1.00  0.00     0.293 HD
ENDBRANCH   9  24
TORSDOF 5
ENDMDL
MODEL 7
REMARK VINA RESULT:    -5.227      2.594      4.631
REMARK INTER + INTRA:          -6.420
REMARK INTER:                  -6.104
REMARK INTRA:                  -0.316
REMARK UNBOUND:                -0.276
REMARK SMILES O=c1c(O)c(-c2ccc(O)c(O)c2)oc2cc(O)ccc12
REMARK SMILES IDX 5 1 3 2 2 3 1 4 21 5 15 6 14 7 16 8 17 9 19 10 20 11 6 12
REMARK SMILES IDX 7 13 8 14 9 15 13 16 11 17 10 18 12 20 4 22 18 24
REMARK H PARENT 10 19 12 21 4 23 18 25
REMARK Flexibility Score: inf
ROOT
ATOM      1  C   UNL     1      31.300  20.193   4.350  1.00  0.00     0.180 A 
ATOM      2  C   UNL     1      32.370  19.320   4.642  1.00  0.00     0.208 A 
ATOM      3  C   UNL     1      33.681  19.818   4.592  1.00  0.00     0.235 A 
ATOM      4  O   UNL     1      34.654  19.060   4.861  1.00  0.00    -0.285 OA
ATOM      5  C   UNL     1      33.898  21.158   4.235  1.00  0.00     0.069 A 
ATOM      6  C   UNL     1      32.776  21.959   3.933  1.00  0.00     0.142 A 
ATOM      7  O   UNL     1      31.550  21.453   4.001  1.00  0.00    -0.452 OA
ATOM      8  C   UNL     1      32.952  23.298   3.563  1.00  0.00     0.094 A 
ATOM      9  C   UNL     1      34.236  23.847   3.491  1.00  0.00     0.119 A 
ATOM     10  C   UNL     1      35.352  23.054   3.793  1.00  0.00     0.047 A 
ATOM     11  C   UNL     1      35.188  21.716   4.162  1.00  0.00     0.020 A 
ENDROOT
BRANCH   1  12
ATOM     12  C   UNL     1      29.888  19.750   4.398  1.00  0.00     0.025 A 
ATOM     13  C   UNL     1      29.243  19.235   3.261  1.00  0.00     0.016 A 
ATOM     14  C   UNL     1      27.917  18.801   3.336  1.00  0.00     0.051 A 
ATOM     15  C   UNL     1      27.220  18.861   4.547  1.00  0.00     0.157 A 
ATOM     16  C   UNL     1      29.194  19.789   5.618  1.00  0.00     0.062 A 
ATOM     17  C   UNL     1      27.862  19.354   5.696  1.00  0.00     0.158 A 
BRANCH  15  18
ATOM     18  O   UNL     1      25.898  18.423   4.591  1.00  0.00    -0.504 OA
ATOM     19  H   UNL     1      25.442  18.173   5.461  1.00  0.00     0.293 HD
ENDBRANCH  15  18
BRANCH  17  20
ATOM     20  O   UNL     1      27.177  19.409   6.908  1.00  0.00    -0.504 OA
ATOM     21  H   UNL     1      27.190  18.634   7.561  1.00  0.00     0.293 HD
ENDBRANCH  17  20
ENDBRANCH   1  12
BRANCH   2  22
ATOM     22  O   UNL     1      32.125  17.979   4.947  1.00  0.00    -0.502 OA
ATOM     23  H   UNL     1      31.768  17.325   4.261  1.00  0.00     0.293 HD
ENDBRANCH   2  22
BRANCH   9  24
ATOM     24  O   UNL     1      34.393  25.181   3.123  1.00  0.00    -0.508 OA
ATOM     25  H   UNL     1      33.654  25.861   3.262  1.00  0.00     0.293 HD
ENDBRANCH   9  24
TORSDOF 5
ENDMDL
MODEL 8
REMARK VINA RESULT:    -5.152      2.833      4.750
REMARK INTER + INTRA:          -6.332
REMARK INTER:                  -6.494
REMARK INTRA:                   0.163
REMARK UNBOUND:                -0.276
REMARK SMILES O=c1c(O)c(-c2ccc(O)c(O)c2)oc2cc(O)ccc12
REMARK SMILES IDX 5 1 3 2 2 3 1 4 21 5 15 6 14 7 16 8 17 9 19 10 20 11 6 12
REMARK SMILES IDX 7 13 8 14 9 15 13 16 11 17 10 18 12 20 4 22 18 24
REMARK H PARENT 10 19 12 21 4 23 18 25
REMARK Flexibility Score: inf
ROOT
ATOM      1  C   UNL     1      30.187  22.438   4.664  1.00  0.00     0.180 A 
ATOM      2  C   UNL     1      28.992  21.690   4.702  1.00  0.00     0.208 A 
ATOM      3  C   UNL     1      29.070  20.289   4.683  1.00  0.00     0.235 A 
ATOM      4  O   UNL     1      28.015  19.598   4.728  1.00  0.00    -0.285 OA
ATOM      5  C   UNL     1      30.327  19.669   4.607  1.00  0.00     0.069 A 
ATOM      6  C   UNL     1      31.474  20.488   4.547  1.00  0.00     0.142 A 
ATOM      7  O   UNL     1      31.358  21.811   4.577  1.00  0.00    -0.452 OA
ATOM      8  C   UNL     1      32.745  19.907   4.460  1.00  0.00     0.094 A 
ATOM      9  C   UNL     1      32.884  18.516   4.432  1.00  0.00     0.119 A 
ATOM     10  C   UNL     1      31.746  17.699   4.493  1.00  0.00     0.047 A 
ATOM     11  C   UNL     1      30.472  18.269   4.579  1.00  0.00     0.020 A 
ENDROOT
BRANCH   1  12
ATOM     12  C   UNL     1      30.190  23.918   4.699  1.00  0.00     0.025 A 
ATOM     13  C   UNL     1      29.261  24.634   5.473  1.00  0.00     0.016 A 
ATOM     14  C   UNL     1      29.298  26.031   5.509  1.00  0.00     0.051 A 
ATOM     15  C   UNL     1      30.268  26.732   4.786  1.00  0.00     0.157 A 
ATOM     16  C   UNL     1      31.177  24.624   3.991  1.00  0.00     0.062 A 
ATOM     17  C   UNL     1      31.215  26.026   4.025  1.00  0.00     0.158 A 
BRANCH  15  18
ATOM     18  O   UNL     1      30.279  28.125   4.840  1.00  0.00    -0.504 OA
ATOM     19  H   UNL     1      30.171  28.697   4.010  1.00  0.00     0.293 HD
ENDBRANCH  15  18
BRANCH  17  20
ATOM     20  O   UNL     1      32.190  26.718   3.308  1.00  0.00    -0.504 OA
ATOM     21  H   UNL     1      33.162  26.430   3.320  1.00  0.00     0.293 HD
ENDBRANCH  17  20
ENDBRANCH   1  12
BRANCH   2  22
ATOM     22  O   UNL     1      27.754  22.337   4.729  1.00  0.00    -0.502 OA
ATOM     23  H   UNL     1      27.537  23.116   4.119  1.00  0.00     0.293 HD
ENDBRANCH   2  22
BRANCH   9  24
ATOM     24  O   UNL     1      34.156  17.954   4.347  1.00  0.00    -0.508 OA
ATOM     25  H   UNL     1      34.310  17.056   3.902  1.00  0.00     0.293 HD
ENDBRANCH   9  24
TORSDOF 5
ENDMDL
MODEL 9
REMARK VINA RESULT:    -5.131     19.637     20.200
REMARK INTER + INTRA:          -6.306
REMARK INTER:                  -6.156
REMARK INTRA:                  -0.150
REMARK UNBOUND:                -0.276
REMARK SMILES O=c1c(O)c(-c2ccc(O)c(O)c2)oc2cc(O)ccc12
REMARK SMILES IDX 5 1 3 2 2 3 1 4 21 5 15 6 14 7 16 8 17 9 19 10 20 11 6 12
REMARK SMILES IDX 7 13 8 14 9 15 13 16 11 17 10 18 12 20 4 22 18 24
REMARK H PARENT 10 19 12 21 4 23 18 25
REMARK Flexibility Score: inf
ROOT
ATOM      1  C   UNL     1      22.829   9.824  20.550  1.00  0.00     0.180 A 
ATOM      2  C   UNL     1      22.917  11.144  21.041  1.00  0.00     0.208 A 
ATOM      3  C   UNL     1      24.124  11.573  21.613  1.00  0.00     0.235 A 
ATOM      4  O   UNL     1      24.231  12.753  22.049  1.00  0.00    -0.285 OA
ATOM      5  C   UNL     1      25.203  10.679  21.701  1.00  0.00     0.069 A 
ATOM      6  C   UNL     1      25.027   9.369  21.209  1.00  0.00     0.142 A 
ATOM      7  O   UNL     1      23.871   9.004  20.666  1.00  0.00    -0.452 OA
ATOM      8  C   UNL     1      26.075   8.445  21.288  1.00  0.00     0.094 A 
ATOM      9  C   UNL     1      27.300   8.815  21.852  1.00  0.00     0.119 A 
ATOM     10  C   UNL     1      27.479  10.117  22.340  1.00  0.00     0.047 A 
ATOM     11  C   UNL     1      26.438  11.046  22.268  1.00  0.00     0.020 A 
ENDROOT
BRANCH   1  12
ATOM     12  C   UNL     1      21.597   9.302  19.916  1.00  0.00     0.025 A 
ATOM     13  C   UNL     1      20.397   9.180  20.637  1.00  0.00     0.016 A 
ATOM     14  C   UNL     1      19.241   8.706  20.012  1.00  0.00     0.051 A 
ATOM     15  C   UNL     1      19.260   8.360  18.658  1.00  0.00     0.157 A 
ATOM     16  C   UNL     1      21.609   8.973  18.550  1.00  0.00     0.062 A 
ATOM     17  C   UNL     1      20.449   8.496  17.921  1.00  0.00     0.158 A 
BRANCH  15  18
ATOM     18  O   UNL     1      18.092   7.888  18.062  1.00  0.00    -0.504 OA
ATOM     19  H   UNL     1      17.176   8.070  18.455  1.00  0.00     0.293 HD
ENDBRANCH  15  18
BRANCH  17  20
ATOM     20  O   UNL     1      20.474   8.161  16.568  1.00  0.00    -0.504 OA
ATOM     21  H   UNL     1      19.670   7.750  16.108  1.00  0.00     0.293 HD
ENDBRANCH  17  20
ENDBRANCH   1  12
BRANCH   2  22
ATOM     22  O   UNL     1      21.810  11.995  20.983  1.00  0.00    -0.502 OA
ATOM     23  H   UNL     1      21.133  12.053  21.734  1.00  0.00     0.293 HD
ENDBRANCH   2  22
BRANCH   9  24
ATOM     24  O   UNL     1      28.334   7.884  21.922  1.00  0.00    -0.508 OA
ATOM     25  H   UNL     1      29.122   8.011  22.547  1.00  0.00     0.293 HD
ENDBRANCH   9  24
TORSDOF 5
ENDMDL
