MODEL 1
REMARK VINA RESULT:    -3.725      0.000      0.000
REMARK INTER + INTRA:          -9.750
REMARK INTER:                  -6.991
REMARK INTRA:                  -2.759
REMARK UNBOUND:                -2.759
REMARK SMILES CCCCCCCCCCCCCC=CC=CC(=O)OC
REMARK SMILES IDX 9 1 8 2 7 3 6 4 5 5 4 6 3 7 2 8 1 9 10 10 11 11 12 12 13 13
REMARK SMILES IDX 14 14 15 15 16 16 17 17 18 18 19 19 20 20 21 21
REMARK H PARENT
REMARK Flexibility Score: inf
ROOT
ATOM      1  C   UNL     1       2.326 -15.513  18.134  1.00  0.00     0.000 C 
ENDROOT
BRANCH   1   2
ATOM      2  C   UNL     1       2.691 -15.940  16.703  1.00  0.00     0.000 C 
BRANCH   2   3
ATOM      3  C   UNL     1       1.780 -15.294  15.646  1.00  0.00     0.000 C 
BRANCH   3   4
ATOM      4  C   UNL     1       0.487 -14.724  16.254  1.00  0.00    -0.000 C 
BRANCH   4   5
ATOM      5  C   UNL     1      -0.774 -15.207  15.521  1.00  0.00    -0.000 C 
BRANCH   5   6
ATOM      6  C   UNL     1      -1.188 -16.631  15.931  1.00  0.00    -0.000 C 
BRANCH   6   7
ATOM      7  C   UNL     1      -1.210 -17.600  14.730  1.00  0.00    -0.000 C 
BRANCH   7   8
ATOM      8  C   UNL     1       0.046 -18.482  14.625  1.00  0.00    -0.003 C 
ATOM      9  C   UNL     1       0.597 -18.905  15.985  1.00  0.00     0.004 C 
ENDBRANCH   7   8
ENDBRANCH   6   7
ENDBRANCH   5   6
ENDBRANCH   4   5
ENDBRANCH   3   4
ENDBRANCH   2   3
ENDBRANCH   1   2
BRANCH   1  10
ATOM     10  C   UNL     1       2.006 -16.708  19.049  1.00  0.00     0.000 C 
BRANCH  10  11
ATOM     11  C   UNL     1       0.512 -17.081  19.132  1.00  0.00     0.000 C 
BRANCH  11  12
ATOM     12  C   UNL     1       0.109 -17.896  20.378  1.00  0.00     0.004 C 
BRANCH  12  13
ATOM     13  C   UNL     1      -1.345 -18.402  20.360  1.00  0.00     0.027 C 
BRANCH  13  14
ATOM     14  C   UNL     1      -1.905 -18.514  18.965  1.00  0.00    -0.027 C 
ATOM     15  C   UNL     1      -2.175 -19.669  18.341  1.00  0.00    -0.004 C 
BRANCH  15  16
ATOM     16  C   UNL     1      -2.032 -20.999  18.974  1.00  0.00     0.007 C 
ATOM     17  C   UNL     1      -1.711 -22.122  18.314  1.00  0.00     0.093 C 
BRANCH  17  18
ATOM     18  C   UNL     1      -1.262 -22.195  16.911  1.00  0.00     0.330 C 
ATOM     19  O   UNL     1      -0.026 -22.285  16.673  1.00  0.00    -0.247 OA
BRANCH  18  20
ATOM     20  O   UNL     1      -2.174 -22.091  15.855  1.00  0.00    -0.466 OA
ATOM     21  C   UNL     1      -1.785 -21.736  14.535  1.00  0.00     0.282 C 
ENDBRANCH  18  20
ENDBRANCH  17  18
ENDBRANCH  15  16
ENDBRANCH  13  14
ENDBRANCH  12  13
ENDBRANCH  11  12
ENDBRANCH  10  11
ENDBRANCH   1  10
TORSDOF 15
ENDMDL
MODEL 2
REMARK VINA RESULT:    -3.571      1.127      3.891
REMARK INTER + INTRA:          -9.461
REMARK INTER:                  -6.541
REMARK INTRA:                  -2.920
REMARK UNBOUND:                -2.759
REMARK SMILES CCCCCCCCCCCCCC=CC=CC(=O)OC
REMARK SMILES IDX 9 1 8 2 7 3 6 4 5 5 4 6 3 7 2 8 1 9 10 10 11 11 12 12 13 13
REMARK SMILES IDX 14 14 15 15 16 16 17 17 18 18 19 19 20 20 21 21
REMARK H PARENT
REMARK Flexibility Score: inf
ROOT
ATOM      1  C   UNL     1       2.540 -16.193  17.090  1.00  0.00     0.000 C 
ENDROOT
BRANCH   1   2
ATOM      2  C   UNL     1       1.977 -15.848  18.479  1.00  0.00     0.000 C 
BRANCH   2   3
ATOM      3  C   UNL     1       2.132 -17.003  19.480  1.00  0.00     0.000 C 
BRANCH   3   4
ATOM      4  C   UNL     1       0.786 -17.443  20.083  1.00  0.00    -0.000 C 
BRANCH   4   5
ATOM      5  C   UNL     1      -0.398 -17.180  19.140  1.00  0.00    -0.000 C 
BRANCH   5   6
ATOM      6  C   UNL     1      -1.692 -17.868  19.608  1.00  0.00    -0.000 C 
BRANCH   6   7
ATOM      7  C   UNL     1      -1.485 -19.373  19.881  1.00  0.00    -0.000 C 
BRANCH   7   8
ATOM      8  C   UNL     1      -2.492 -20.277  19.150  1.00  0.00    -0.003 C 
ATOM      9  C   UNL     1      -1.824 -21.392  18.348  1.00  0.00     0.004 C 
ENDBRANCH   7   8
ENDBRANCH   6   7
ENDBRANCH   5   6
ENDBRANCH   4   5
ENDBRANCH   3   4
ENDBRANCH   2   3
ENDBRANCH   1   2
BRANCH   1  10
ATOM     10  C   UNL     1       1.742 -15.544  15.946  1.00  0.00     0.000 C 
BRANCH  10  11
ATOM     11  C   UNL     1       0.515 -14.724  16.394  1.00  0.00     0.000 C 
BRANCH  11  12
ATOM     12  C   UNL     1      -0.848 -15.291  15.948  1.00  0.00     0.004 C 
BRANCH  12  13
ATOM     13  C   UNL     1      -0.753 -16.549  15.066  1.00  0.00     0.027 C 
BRANCH  13  14
ATOM     14  C   UNL     1      -1.304 -17.778  15.744  1.00  0.00    -0.027 C 
ATOM     15  C   UNL     1      -0.616 -18.909  15.954  1.00  0.00    -0.004 C 
BRANCH  15  16
ATOM     16  C   UNL     1       0.815 -19.076  15.615  1.00  0.00     0.007 C 
ATOM     17  C   UNL     1       1.425 -20.261  15.465  1.00  0.00     0.093 C 
BRANCH  17  18
ATOM     18  C   UNL     1       0.753 -21.573  15.420  1.00  0.00     0.330 C 
ATOM     19  O   UNL     1       0.984 -22.406  16.338  1.00  0.00    -0.247 OA
BRANCH  18  20
ATOM     20  O   UNL     1      -0.070 -21.925  14.344  1.00  0.00    -0.466 OA
ATOM     21  C   UNL     1      -1.399 -22.399  14.517  1.00  0.00     0.282 C 
ENDBRANCH  18  20
ENDBRANCH  17  18
ENDBRANCH  15  16
ENDBRANCH  13  14
ENDBRANCH  12  13
ENDBRANCH  11  12
ENDBRANCH  10  11
ENDBRANCH   1  10
TORSDOF 15
ENDMDL
MODEL 3
REMARK VINA RESULT:    -3.541     13.174     15.822
REMARK INTER + INTRA:          -9.405
REMARK INTER:                  -7.778
REMARK INTRA:                  -1.627
REMARK UNBOUND:                -2.759
REMARK SMILES CCCCCCCCCCCCCC=CC=CC(=O)OC
REMARK SMILES IDX 9 1 8 2 7 3 6 4 5 5 4 6 3 7 2 8 1 9 10 10 11 11 12 12 13 13
REMARK SMILES IDX 14 14 15 15 16 16 17 17 18 18 19 19 20 20 21 21
REMARK H PARENT
REMARK Flexibility Score: inf
ROOT
ATOM      1  C   UNL     1       2.846 -20.831  30.134  1.00  0.00     0.000 C 
ENDROOT
BRANCH   1   2
ATOM      2  C   UNL     1       3.261 -21.958  31.095  1.00  0.00     0.000 C 
BRANCH   2   3
ATOM      3  C   UNL     1       2.082 -22.480  31.931  1.00  0.00     0.000 C 
BRANCH   3   4
ATOM      4  C   UNL     1       2.205 -22.104  33.419  1.00  0.00    -0.000 C 
BRANCH   4   5
ATOM      5  C   UNL     1       0.839 -21.981  34.111  1.00  0.00    -0.000 C 
BRANCH   5   6
ATOM      6  C   UNL     1      -0.336 -22.059  33.121  1.00  0.00    -0.000 C 
BRANCH   6   7
ATOM      7  C   UNL     1      -1.631 -21.457  33.706  1.00  0.00    -0.000 C 
BRANCH   7   8
ATOM      8  C   UNL     1      -2.912 -22.159  33.222  1.00  0.00    -0.003 C 
ATOM      9  C   UNL     1      -2.746 -22.841  31.866  1.00  0.00     0.004 C 
ENDBRANCH   7   8
ENDBRANCH   6   7
ENDBRANCH   5   6
ENDBRANCH   4   5
ENDBRANCH   3   4
ENDBRANCH   2   3
ENDBRANCH   1   2
BRANCH   1  10
ATOM     10  C   UNL     1       2.813 -19.451  30.815  1.00  0.00     0.000 C 
BRANCH  10  11
ATOM     11  C   UNL     1       1.400 -18.896  31.089  1.00  0.00     0.000 C 
BRANCH  11  12
ATOM     12  C   UNL     1       1.000 -18.831  32.577  1.00  0.00     0.004 C 
BRANCH  12  13
ATOM     13  C   UNL     1       0.361 -17.496  33.003  1.00  0.00     0.027 C 
BRANCH  13  14
ATOM     14  C   UNL     1       1.357 -16.365  33.055  1.00  0.00    -0.027 C 
ATOM     15  C   UNL     1       1.634 -15.543  32.033  1.00  0.00    -0.004 C 
BRANCH  15  16
ATOM     16  C   UNL     1       0.935 -15.586  30.730  1.00  0.00     0.007 C 
ATOM     17  C   UNL     1       1.541 -15.465  29.540  1.00  0.00     0.093 C 
BRANCH  17  18
ATOM     18  C   UNL     1       2.999 -15.465  29.316  1.00  0.00     0.330 C 
ATOM     19  O   UNL     1       3.501 -14.566  28.587  1.00  0.00    -0.247 OA
BRANCH  18  20
ATOM     20  O   UNL     1       3.810 -16.480  29.836  1.00  0.00    -0.466 OA
ATOM     21  C   UNL     1       4.842 -16.230  30.781  1.00  0.00     0.282 C 
ENDBRANCH  18  20
ENDBRANCH  17  18
ENDBRANCH  15  16
ENDBRANCH  13  14
ENDBRANCH  12  13
ENDBRANCH  11  12
ENDBRANCH  10  11
ENDBRANCH   1  10
TORSDOF 15
ENDMDL
MODEL 4
REMARK VINA RESULT:    -3.413     12.638     15.210
REMARK INTER + INTRA:          -9.165
REMARK INTER:                  -7.331
REMARK INTRA:                  -1.834
REMARK UNBOUND:                -2.759
REMARK SMILES CCCCCCCCCCCCCC=CC=CC(=O)OC
REMARK SMILES IDX 9 1 8 2 7 3 6 4 5 5 4 6 3 7 2 8 1 9 10 10 11 11 12 12 13 13
REMARK SMILES IDX 14 14 15 15 16 16 17 17 18 18 19 19 20 20 21 21
REMARK H PARENT
REMARK Flexibility Score: inf
ROOT
ATOM      1  C   UNL     1       1.416 -17.177  32.139  1.00  0.00     0.000 C 
ENDROOT
BRANCH   1   2
ATOM      2  C   UNL     1       0.299 -17.059  33.190  1.00  0.00     0.000 C 
BRANCH   2   3
ATOM      3  C   UNL     1      -0.205 -18.430  33.668  1.00  0.00     0.000 C 
BRANCH   3   4
ATOM      4  C   UNL     1       0.602 -19.595  33.069  1.00  0.00    -0.000 C 
BRANCH   4   5
ATOM      5  C   UNL     1       0.040 -20.969  33.466  1.00  0.00    -0.000 C 
BRANCH   5   6
ATOM      6  C   UNL     1       0.942 -22.131  33.015  1.00  0.00    -0.000 C 
BRANCH   6   7
ATOM      7  C   UNL     1       2.391 -21.673  32.749  1.00  0.00    -0.000 C 
BRANCH   7   8
ATOM      8  C   UNL     1       2.905 -22.036  31.345  1.00  0.00    -0.003 C 
ATOM      9  C   UNL     1       2.912 -20.850  30.384  1.00  0.00     0.004 C 
ENDBRANCH   7   8
ENDBRANCH   6   7
ENDBRANCH   5   6
ENDBRANCH   4   5
ENDBRANCH   3   4
ENDBRANCH   2   3
ENDBRANCH   1   2
BRANCH   1  10
ATOM     10  C   UNL     1       2.672 -16.371  32.514  1.00  0.00     0.000 C 
BRANCH  10  11
ATOM     11  C   UNL     1       3.770 -16.339  31.431  1.00  0.00     0.000 C 
BRANCH  11  12
ATOM     12  C   UNL     1       3.311 -16.763  30.021  1.00  0.00     0.004 C 
BRANCH  12  13
ATOM     13  C   UNL     1       2.945 -15.588  29.094  1.00  0.00     0.027 C 
BRANCH  13  14
ATOM     14  C   UNL     1       1.994 -14.613  29.740  1.00  0.00    -0.027 C 
ATOM     15  C   UNL     1       0.659 -14.655  29.623  1.00  0.00    -0.004 C 
BRANCH  15  16
ATOM     16  C   UNL     1      -0.070 -15.722  28.902  1.00  0.00     0.007 C 
ATOM     17  C   UNL     1      -1.363 -16.022  29.096  1.00  0.00     0.093 C 
BRANCH  17  18
ATOM     18  C   UNL     1      -2.315 -15.232  29.900  1.00  0.00     0.330 C 
ATOM     19  O   UNL     1      -2.608 -15.632  31.060  1.00  0.00    -0.247 OA
BRANCH  18  20
ATOM     20  O   UNL     1      -2.944 -14.101  29.368  1.00  0.00    -0.466 OA
ATOM     21  C   UNL     1      -2.704 -12.787  29.857  1.00  0.00     0.282 C 
ENDBRANCH  18  20
ENDBRANCH  17  18
ENDBRANCH  15  16
ENDBRANCH  13  14
ENDBRANCH  12  13
ENDBRANCH  11  12
ENDBRANCH  10  11
ENDBRANCH   1  10
TORSDOF 15
ENDMDL
MODEL 5
REMARK VINA RESULT:    -3.394     12.146     14.708
REMARK INTER + INTRA:          -9.128
REMARK INTER:                  -8.059
REMARK INTRA:                  -1.069
REMARK UNBOUND:                -2.759
REMARK SMILES CCCCCCCCCCCCCC=CC=CC(=O)OC
REMARK SMILES IDX 9 1 8 2 7 3 6 4 5 5 4 6 3 7 2 8 1 9 10 10 11 11 12 12 13 13
REMARK SMILES IDX 14 14 15 15 16 16 17 17 18 18 19 19 20 20 21 21
REMARK H PARENT
REMARK Flexibility Score: inf
ROOT
ATOM      1  C   UNL     1       1.727 -18.525  31.283  1.00  0.00     0.000 C 
ENDROOT
BRANCH   1   2
ATOM      2  C   UNL     1       1.709 -17.327  32.247  1.00  0.00     0.000 C 
BRANCH   2   3
ATOM      3  C   UNL     1       1.879 -15.984  31.519  1.00  0.00     0.000 C 
BRANCH   3   4
ATOM      4  C   UNL     1       0.816 -15.769  30.427  1.00  0.00    -0.000 C 
BRANCH   4   5
ATOM      5  C   UNL     1       1.392 -15.111  29.164  1.00  0.00    -0.000 C 
BRANCH   5   6
ATOM      6  C   UNL     1       2.914 -14.903  29.246  1.00  0.00    -0.000 C 
BRANCH   6   7
ATOM      7  C   UNL     1       3.649 -15.489  28.022  1.00  0.00    -0.000 C 
BRANCH   7   8
ATOM      8  C   UNL     1       3.474 -14.657  26.740  1.00  0.00    -0.003 C 
ATOM      9  C   UNL     1       4.564 -14.916  25.703  1.00  0.00     0.004 C 
ENDBRANCH   7   8
ENDBRANCH   6   7
ENDBRANCH   5   6
ENDBRANCH   4   5
ENDBRANCH   3   4
ENDBRANCH   2   3
ENDBRANCH   1   2
BRANCH   1  10
ATOM     10  C   UNL     1       3.103 -18.744  30.631  1.00  0.00     0.000 C 
BRANCH  10  11
ATOM     11  C   UNL     1       3.505 -20.221  30.442  1.00  0.00     0.000 C 
BRANCH  11  12
ATOM     12  C   UNL     1       2.444 -21.249  30.884  1.00  0.00     0.004 C 
BRANCH  12  13
ATOM     13  C   UNL     1       2.556 -21.680  32.359  1.00  0.00     0.027 C 
BRANCH  13  14
ATOM     14  C   UNL     1       1.313 -22.369  32.860  1.00  0.00    -0.027 C 
ATOM     15  C   UNL     1       0.340 -21.775  33.565  1.00  0.00    -0.004 C 
BRANCH  15  16
ATOM     16  C   UNL     1       0.321 -20.329  33.882  1.00  0.00     0.007 C 
ATOM     17  C   UNL     1      -0.786 -19.572  33.900  1.00  0.00     0.093 C 
BRANCH  17  18
ATOM     18  C   UNL     1      -2.170 -20.073  33.802  1.00  0.00     0.330 C 
ATOM     19  O   UNL     1      -3.122 -19.258  33.947  1.00  0.00    -0.247 OA
BRANCH  18  20
ATOM     20  O   UNL     1      -2.434 -21.435  33.625  1.00  0.00    -0.466 OA
ATOM     21  C   UNL     1      -3.065 -21.952  32.461  1.00  0.00     0.282 C 
ENDBRANCH  18  20
ENDBRANCH  17  18
ENDBRANCH  15  16
ENDBRANCH  13  14
ENDBRANCH  12  13
ENDBRANCH  11  12
ENDBRANCH  10  11
ENDBRANCH   1  10
TORSDOF 15
ENDMDL
MODEL 6
REMARK VINA RESULT:    -3.332      3.777      6.074
REMARK INTER + INTRA:          -9.012
REMARK INTER:                  -6.880
REMARK INTRA:                  -2.132
REMARK UNBOUND:                -2.759
REMARK SMILES CCCCCCCCCCCCCC=CC=CC(=O)OC
REMARK SMILES IDX 9 1 8 2 7 3 6 4 5 5 4 6 3 7 2 8 1 9 10 10 11 11 12 12 13 13
REMARK SMILES IDX 14 14 15 15 16 16 17 17 18 18 19 19 20 20 21 21
REMARK H PARENT
REMARK Flexibility Score: inf
ROOT
ATOM      1  C   UNL     1       2.983 -16.823  16.080  1.00  0.00     0.000 C 
ENDROOT
BRANCH   1   2
ATOM      2  C   UNL     1       2.705 -15.363  16.475  1.00  0.00     0.000 C 
BRANCH   2   3
ATOM      3  C   UNL     1       2.323 -15.218  17.957  1.00  0.00     0.000 C 
BRANCH   3   4
ATOM      4  C   UNL     1       2.491 -16.533  18.739  1.00  0.00    -0.000 C 
BRANCH   4   5
ATOM      5  C   UNL     1       1.173 -17.027  19.353  1.00  0.00    -0.000 C 
BRANCH   5   6
ATOM      6  C   UNL     1      -0.031 -16.817  18.418  1.00  0.00    -0.000 C 
BRANCH   6   7
ATOM      7  C   UNL     1      -1.232 -17.706  18.807  1.00  0.00    -0.000 C 
BRANCH   7   8
ATOM      8  C   UNL     1      -1.043 -18.449  20.141  1.00  0.00    -0.003 C 
ATOM      9  C   UNL     1      -2.311 -18.485  20.992  1.00  0.00     0.004 C 
ENDBRANCH   7   8
ENDBRANCH   6   7
ENDBRANCH   5   6
ENDBRANCH   4   5
ENDBRANCH   3   4
ENDBRANCH   2   3
ENDBRANCH   1   2
BRANCH   1  10
ATOM     10  C   UNL     1       2.239 -17.245  14.800  1.00  0.00     0.000 C 
BRANCH  10  11
ATOM     11  C   UNL     1       0.896 -17.966  15.038  1.00  0.00     0.000 C 
BRANCH  11  12
ATOM     12  C   UNL     1       0.999 -19.311  15.784  1.00  0.00     0.004 C 
BRANCH  12  13
ATOM     13  C   UNL     1       1.279 -20.521  14.872  1.00  0.00     0.027 C 
BRANCH  13  14
ATOM     14  C   UNL     1       2.307 -21.459  15.452  1.00  0.00    -0.027 C 
ATOM     15  C   UNL     1       3.627 -21.375  15.235  1.00  0.00    -0.004 C 
BRANCH  15  16
ATOM     16  C   UNL     1       4.265 -20.293  14.453  1.00  0.00     0.007 C 
ATOM     17  C   UNL     1       5.533 -19.886  14.616  1.00  0.00     0.093 C 
BRANCH  17  18
ATOM     18  C   UNL     1       6.551 -20.560  15.444  1.00  0.00     0.330 C 
ATOM     19  O   UNL     1       6.567 -20.339  16.685  1.00  0.00    -0.247 OA
BRANCH  18  20
ATOM     20  O   UNL     1       7.531 -21.373  14.863  1.00  0.00    -0.466 OA
ATOM     21  C   UNL     1       8.688 -20.847  14.228  1.00  0.00     0.282 C 
ENDBRANCH  18  20
ENDBRANCH  17  18
ENDBRANCH  15  16
ENDBRANCH  13  14
ENDBRANCH  12  13
ENDBRANCH  11  12
ENDBRANCH  10  11
ENDBRANCH   1  10
TORSDOF 15
ENDMDL
MODEL 7
REMARK VINA RESULT:    -3.197     15.507     18.447
REMARK INTER + INTRA:          -8.759
REMARK INTER:                  -5.983
REMARK INTRA:                  -2.776
REMARK UNBOUND:                -2.759
REMARK SMILES CCCCCCCCCCCCCC=CC=CC(=O)OC
REMARK SMILES IDX 9 1 8 2 7 3 6 4 5 5 4 6 3 7 2 8 1 9 10 10 11 11 12 12 13 13
REMARK SMILES IDX 14 14 15 15 16 16 17 17 18 18 19 19 20 20 21 21
REMARK H PARENT
REMARK Flexibility Score: inf
ROOT
ATOM      1  C   UNL     1      12.262 -10.942  16.440  1.00  0.00     0.000 C 
ENDROOT
BRANCH   1   2
ATOM      2  C   UNL     1      12.674 -10.982  17.921  1.00  0.00     0.000 C 
BRANCH   2   3
ATOM      3  C   UNL     1      13.096  -9.602  18.451  1.00  0.00     0.000 C 
BRANCH   3   4
ATOM      4  C   UNL     1      14.613  -9.503  18.691  1.00  0.00    -0.000 C 
BRANCH   4   5
ATOM      5  C   UNL     1      15.261  -8.355  17.902  1.00  0.00    -0.000 C 
BRANCH   5   6
ATOM      6  C   UNL     1      16.076  -8.852  16.695  1.00  0.00    -0.000 C 
BRANCH   6   7
ATOM      7  C   UNL     1      16.076 -10.391  16.588  1.00  0.00    -0.000 C 
BRANCH   7   8
ATOM      8  C   UNL     1      16.176 -10.909  15.142  1.00  0.00    -0.003 C 
ATOM      9  C   UNL     1      15.287 -12.122  14.877  1.00  0.00     0.004 C 
ENDBRANCH   7   8
ENDBRANCH   6   7
ENDBRANCH   5   6
ENDBRANCH   4   5
ENDBRANCH   3   4
ENDBRANCH   2   3
ENDBRANCH   1   2
BRANCH   1  10
ATOM     10  C   UNL     1      12.193  -9.511  15.880  1.00  0.00     0.000 C 
BRANCH  10  11
ATOM     11  C   UNL     1      12.665  -9.361  14.420  1.00  0.00     0.000 C 
BRANCH  11  12
ATOM     12  C   UNL     1      13.609  -8.171  14.155  1.00  0.00     0.004 C 
BRANCH  12  13
ATOM     13  C   UNL     1      12.976  -6.791  14.413  1.00  0.00     0.027 C 
BRANCH  13  14
ATOM     14  C   UNL     1      13.575  -6.089  15.605  1.00  0.00    -0.027 C 
ATOM     15  C   UNL     1      13.557  -4.763  15.800  1.00  0.00    -0.004 C 
BRANCH  15  16
ATOM     16  C   UNL     1      12.871  -3.809  14.901  1.00  0.00     0.007 C 
ATOM     17  C   UNL     1      11.639  -3.323  15.110  1.00  0.00     0.093 C 
BRANCH  17  18
ATOM     18  C   UNL     1      10.846  -3.495  16.342  1.00  0.00     0.330 C 
ATOM     19  O   UNL     1      11.264  -2.972  17.411  1.00  0.00    -0.247 OA
BRANCH  18  20
ATOM     20  O   UNL     1       9.690  -4.283  16.352  1.00  0.00    -0.466 OA
ATOM     21  C   UNL     1       9.572  -5.485  15.602  1.00  0.00     0.282 C 
ENDBRANCH  18  20
ENDBRANCH  17  18
ENDBRANCH  15  16
ENDBRANCH  13  14
ENDBRANCH  12  13
ENDBRANCH  11  12
ENDBRANCH  10  11
ENDBRANCH   1  10
TORSDOF 15
ENDMDL
MODEL 8
REMARK VINA RESULT:    -3.149      1.256      2.510
REMARK INTER + INTRA:          -8.669
REMARK INTER:                  -5.895
REMARK INTRA:                  -2.774
REMARK UNBOUND:                -2.759
REMARK SMILES CCCCCCCCCCCCCC=CC=CC(=O)OC
REMARK SMILES IDX 9 1 8 2 7 3 6 4 5 5 4 6 3 7 2 8 1 9 10 10 11 11 12 12 13 13
REMARK SMILES IDX 14 14 15 15 16 16 17 17 18 18 19 19 20 20 21 21
REMARK H PARENT
REMARK Flexibility Score: inf
ROOT
ATOM      1  C   UNL     1       1.062 -16.221  18.870  1.00  0.00     0.000 C 
ENDROOT
BRANCH   1   2
ATOM      2  C   UNL     1       2.542 -16.429  18.505  1.00  0.00     0.000 C 
BRANCH   2   3
ATOM      3  C   UNL     1       2.783 -16.399  16.988  1.00  0.00     0.000 C 
BRANCH   3   4
ATOM      4  C   UNL     1       1.550 -15.914  16.205  1.00  0.00    -0.000 C 
BRANCH   4   5
ATOM      5  C   UNL     1       1.363 -16.661  14.876  1.00  0.00    -0.000 C 
BRANCH   5   6
ATOM      6  C   UNL     1       0.074 -16.250  14.142  1.00  0.00    -0.000 C 
BRANCH   6   7
ATOM      7  C   UNL     1      -0.787 -15.279  14.978  1.00  0.00    -0.000 C 
BRANCH   7   8
ATOM      8  C   UNL     1      -2.014 -15.943  15.625  1.00  0.00    -0.003 C 
ATOM      9  C   UNL     1      -2.327 -15.399  17.017  1.00  0.00     0.004 C 
ENDBRANCH   7   8
ENDBRANCH   6   7
ENDBRANCH   5   6
ENDBRANCH   4   5
ENDBRANCH   3   4
ENDBRANCH   2   3
ENDBRANCH   1   2
BRANCH   1  10
ATOM     10  C   UNL     1       0.442 -17.448  19.560  1.00  0.00     0.000 C 
BRANCH  10  11
ATOM     11  C   UNL     1      -1.099 -17.455  19.611  1.00  0.00     0.000 C 
BRANCH  11  12
ATOM     12  C   UNL     1      -1.729 -18.730  20.208  1.00  0.00     0.004 C 
BRANCH  12  13
ATOM     13  C   UNL     1      -1.667 -19.959  19.282  1.00  0.00     0.027 C 
BRANCH  13  14
ATOM     14  C   UNL     1      -2.530 -19.808  18.056  1.00  0.00    -0.027 C 
ATOM     15  C   UNL     1      -2.083 -19.444  16.846  1.00  0.00    -0.004 C 
BRANCH  15  16
ATOM     16  C   UNL     1      -0.655 -19.215  16.532  1.00  0.00     0.007 C 
ATOM     17  C   UNL     1       0.175 -20.153  16.053  1.00  0.00     0.093 C 
BRANCH  17  18
ATOM     18  C   UNL     1      -0.224 -21.492  15.580  1.00  0.00     0.330 C 
ATOM     19  O   UNL     1      -0.865 -21.587  14.498  1.00  0.00    -0.247 OA
BRANCH  18  20
ATOM     20  O   UNL     1       0.033 -22.634  16.346  1.00  0.00    -0.466 OA
ATOM     21  C   UNL     1      -0.827 -23.068  17.392  1.00  0.00     0.282 C 
ENDBRANCH  18  20
ENDBRANCH  17  18
ENDBRANCH  15  16
ENDBRANCH  13  14
ENDBRANCH  12  13
ENDBRANCH  11  12
ENDBRANCH  10  11
ENDBRANCH   1  10
TORSDOF 15
ENDMDL
MODEL 9
REMARK VINA RESULT:    -3.143      4.402      6.668
REMARK INTER + INTRA:          -8.657
REMARK INTER:                  -6.846
REMARK INTRA:                  -1.811
REMARK UNBOUND:                -2.759
REMARK SMILES CCCCCCCCCCCCCC=CC=CC(=O)OC
REMARK SMILES IDX 9 1 8 2 7 3 6 4 5 5 4 6 3 7 2 8 1 9 10 10 11 11 12 12 13 13
REMARK SMILES IDX 14 14 15 15 16 16 17 17 18 18 19 19 20 20 21 21
REMARK H PARENT
REMARK Flexibility Score: inf
ROOT
ATOM      1  C   UNL     1       1.576 -18.460  15.646  1.00  0.00     0.000 C 
ENDROOT
BRANCH   1   2
ATOM      2  C   UNL     1       1.579 -17.247  14.701  1.00  0.00     0.000 C 
BRANCH   2   3
ATOM      3  C   UNL     1       1.497 -15.912  15.458  1.00  0.00     0.000 C 
BRANCH   3   4
ATOM      4  C   UNL     1       2.621 -15.756  16.497  1.00  0.00    -0.000 C 
BRANCH   4   5
ATOM      5  C   UNL     1       2.085 -15.467  17.908  1.00  0.00    -0.000 C 
BRANCH   5   6
ATOM      6  C   UNL     1       2.306 -16.640  18.877  1.00  0.00    -0.000 C 
BRANCH   6   7
ATOM      7  C   UNL     1       0.987 -17.125  19.514  1.00  0.00    -0.000 C 
BRANCH   7   8
ATOM      8  C   UNL     1      -0.215 -17.078  18.555  1.00  0.00    -0.003 C 
ATOM      9  C   UNL     1      -1.239 -18.180  18.822  1.00  0.00     0.004 C 
ENDBRANCH   7   8
ENDBRANCH   6   7
ENDBRANCH   5   6
ENDBRANCH   4   5
ENDBRANCH   3   4
ENDBRANCH   2   3
ENDBRANCH   1   2
BRANCH   1  10
ATOM     10  C   UNL     1       2.223 -19.706  15.016  1.00  0.00     0.000 C 
BRANCH  10  11
ATOM     11  C   UNL     1       1.284 -20.920  14.865  1.00  0.00     0.000 C 
BRANCH  11  12
ATOM     12  C   UNL     1       1.523 -22.063  15.873  1.00  0.00     0.004 C 
BRANCH  12  13
ATOM     13  C   UNL     1       2.689 -22.999  15.504  1.00  0.00     0.027 C 
BRANCH  13  14
ATOM     14  C   UNL     1       3.818 -22.944  16.502  1.00  0.00    -0.027 C 
ATOM     15  C   UNL     1       4.992 -22.332  16.295  1.00  0.00    -0.004 C 
BRANCH  15  16
ATOM     16  C   UNL     1       5.311 -21.555  15.076  1.00  0.00     0.007 C 
ATOM     17  C   UNL     1       6.406 -20.794  14.927  1.00  0.00     0.093 C 
BRANCH  17  18
ATOM     18  C   UNL     1       7.555 -20.754  15.850  1.00  0.00     0.330 C 
ATOM     19  O   UNL     1       8.446 -21.642  15.750  1.00  0.00    -0.247 OA
BRANCH  18  20
ATOM     20  O   UNL     1       7.629 -19.798  16.869  1.00  0.00    -0.466 OA
ATOM     21  C   UNL     1       8.861 -19.373  17.436  1.00  0.00     0.282 C 
ENDBRANCH  18  20
ENDBRANCH  17  18
ENDBRANCH  15  16
ENDBRANCH  13  14
ENDBRANCH  12  13
ENDBRANCH  11  12
ENDBRANCH  10  11
ENDBRANCH   1  10
TORSDOF 15
ENDMDL
