MODEL 1
REMARK VINA RESULT:    -4.969      0.000      0.000
REMARK INTER + INTRA:         -10.965
REMARK INTER:                  -9.036
REMARK INTRA:                  -1.929
REMARK UNBOUND:                -1.929
REMARK SMILES CCCCCC=CCC=CCCCCCCCC(=O)[O-]
REMARK SMILES IDX 11 1 12 2 13 3 14 4 15 5 16 6 17 7 18 8 19 9 20 10 10 11
REMARK SMILES IDX 9 12 8 13 7 14 6 15 5 16 4 17 3 18 2 19 1 20
REMARK H PARENT
REMARK Flexibility Score: inf
ROOT
ATOM      1  C   UNL     1      -7.731 -12.374  -4.278  1.00  0.00     0.027 C 
ENDROOT
BRANCH   1   2
ATOM      2  C   UNL     1      -7.496 -13.323  -5.466  1.00  0.00     0.004 C 
BRANCH   2   3
ATOM      3  C   UNL     1      -6.011 -13.615  -5.760  1.00  0.00     0.000 C 
BRANCH   3   4
ATOM      4  C   UNL     1      -5.686 -15.084  -6.104  1.00  0.00     0.000 C 
BRANCH   4   5
ATOM      5  C   UNL     1      -6.892 -16.041  -6.090  1.00  0.00     0.000 C 
BRANCH   5   6
ATOM      6  C   UNL     1      -6.510 -17.476  -5.701  1.00  0.00     0.006 C 
BRANCH   6   7
ATOM      7  C   UNL     1      -6.503 -17.651  -4.180  1.00  0.00     0.053 C 
BRANCH   7   8
ATOM      8  C   UNL     1      -5.547 -18.729  -3.779  1.00  0.00     0.041 C 
ATOM      9  O   UNL     1      -4.745 -18.541  -2.828  1.00  0.00    -0.550 OA
ATOM     10  O   UNL     1      -5.581 -19.961  -4.419  1.00  0.00    -0.550 OA
ENDBRANCH   7   8
ENDBRANCH   6   7
ENDBRANCH   5   6
ENDBRANCH   4   5
ENDBRANCH   3   4
ENDBRANCH   2   3
ENDBRANCH   1   2
BRANCH   1  11
ATOM     11  C   UNL     1      -6.523 -11.520  -3.978  1.00  0.00    -0.031 C 
ATOM     12  C   UNL     1      -6.576 -10.258  -3.509  1.00  0.00    -0.027 C 
BRANCH  12  13
ATOM     13  C   UNL     1      -7.850  -9.521  -3.193  1.00  0.00     0.054 C 
BRANCH  13  14
ATOM     14  C   UNL     1      -7.938  -8.240  -3.985  1.00  0.00    -0.027 C 
ATOM     15  C   UNL     1      -8.525  -8.137  -5.191  1.00  0.00    -0.031 C 
BRANCH  15  16
ATOM     16  C   UNL     1      -9.257  -9.258  -5.888  1.00  0.00     0.027 C 
BRANCH  16  17
ATOM     17  C   UNL     1      -8.366 -10.017  -6.888  1.00  0.00     0.004 C 
BRANCH  17  18
ATOM     18  C   UNL     1      -9.132 -10.960  -7.835  1.00  0.00     0.000 C 
BRANCH  18  19
ATOM     19  C   UNL     1     -10.474 -11.425  -7.251  1.00  0.00    -0.003 C 
ATOM     20  C   UNL     1     -10.645 -12.934  -7.405  1.00  0.00     0.004 C 
ENDBRANCH  18  19
ENDBRANCH  17  18
ENDBRANCH  16  17
ENDBRANCH  15  16
ENDBRANCH  13  14
ENDBRANCH  12  13
ENDBRANCH   1  11
TORSDOF 14
ENDMDL
MODEL 2
REMARK VINA RESULT:    -4.882      1.571      4.242
REMARK INTER + INTRA:         -10.807
REMARK INTER:                  -7.949
REMARK INTRA:                  -2.858
REMARK UNBOUND:                -1.929
REMARK SMILES CCCCCC=CCC=CCCCCCCCC(=O)[O-]
REMARK SMILES IDX 11 1 12 2 13 3 14 4 15 5 16 6 17 7 18 8 19 9 20 10 10 11
REMARK SMILES IDX 9 12 8 13 7 14 6 15 5 16 4 17 3 18 2 19 1 20
REMARK H PARENT
REMARK Flexibility Score: inf
ROOT
ATOM      1  C   UNL     1     -10.585 -10.142  -6.327  1.00  0.00     0.027 C 
ENDROOT
BRANCH   1   2
ATOM      2  C   UNL     1     -11.017 -11.286  -5.394  1.00  0.00     0.004 C 
BRANCH   2   3
ATOM      3  C   UNL     1     -10.986 -12.683  -6.046  1.00  0.00     0.000 C 
BRANCH   3   4
ATOM      4  C   UNL     1     -10.215 -13.761  -5.257  1.00  0.00     0.000 C 
BRANCH   4   5
ATOM      5  C   UNL     1      -9.292 -14.655  -6.104  1.00  0.00     0.000 C 
BRANCH   5   6
ATOM      6  C   UNL     1      -8.143 -15.267  -5.289  1.00  0.00     0.006 C 
BRANCH   6   7
ATOM      7  C   UNL     1      -6.997 -15.710  -6.203  1.00  0.00     0.053 C 
BRANCH   7   8
ATOM      8  C   UNL     1      -6.672 -17.153  -5.979  1.00  0.00     0.041 C 
ATOM      9  O   UNL     1      -7.234 -18.042  -6.670  1.00  0.00    -0.550 OA
ATOM     10  O   UNL     1      -5.708 -17.511  -5.046  1.00  0.00    -0.550 OA
ENDBRANCH   7   8
ENDBRANCH   6   7
ENDBRANCH   5   6
ENDBRANCH   4   5
ENDBRANCH   3   4
ENDBRANCH   2   3
ENDBRANCH   1   2
BRANCH   1  11
ATOM     11  C   UNL     1      -9.955 -10.648  -7.602  1.00  0.00    -0.031 C 
ATOM     12  C   UNL     1      -8.628 -10.774  -7.802  1.00  0.00    -0.027 C 
BRANCH  12  13
ATOM     13  C   UNL     1      -7.579 -10.448  -6.774  1.00  0.00     0.054 C 
BRANCH  13  14
ATOM     14  C   UNL     1      -7.232 -11.668  -5.957  1.00  0.00    -0.027 C 
ATOM     15  C   UNL     1      -6.912 -11.635  -4.651  1.00  0.00    -0.031 C 
BRANCH  15  16
ATOM     16  C   UNL     1      -6.939 -10.395  -3.791  1.00  0.00     0.027 C 
BRANCH  16  17
ATOM     17  C   UNL     1      -8.346 -10.076  -3.254  1.00  0.00     0.004 C 
BRANCH  17  18
ATOM     18  C   UNL     1      -8.690  -8.575  -3.219  1.00  0.00     0.000 C 
BRANCH  18  19
ATOM     19  C   UNL     1      -7.846  -7.751  -4.202  1.00  0.00    -0.003 C 
ATOM     20  C   UNL     1      -8.730  -7.064  -5.240  1.00  0.00     0.004 C 
ENDBRANCH  18  19
ENDBRANCH  17  18
ENDBRANCH  16  17
ENDBRANCH  15  16
ENDBRANCH  13  14
ENDBRANCH  12  13
ENDBRANCH   1  11
TORSDOF 14
ENDMDL
MODEL 3
REMARK VINA RESULT:    -4.868      3.619      8.713
REMARK INTER + INTRA:         -10.781
REMARK INTER:                  -8.735
REMARK INTRA:                  -2.046
REMARK UNBOUND:                -1.929
REMARK SMILES CCCCCC=CCC=CCCCCCCCC(=O)[O-]
REMARK SMILES IDX 11 1 12 2 13 3 14 4 15 5 16 6 17 7 18 8 19 9 20 10 10 11
REMARK SMILES IDX 9 12 8 13 7 14 6 15 5 16 4 17 3 18 2 19 1 20
REMARK H PARENT
REMARK Flexibility Score: inf
ROOT
ATOM      1  C   UNL     1      -7.588 -17.582  -5.760  1.00  0.00     0.027 C 
ENDROOT
BRANCH   1   2
ATOM      2  C   UNL     1      -7.382 -16.105  -6.138  1.00  0.00     0.004 C 
BRANCH   2   3
ATOM      3  C   UNL     1      -5.931 -15.607  -5.986  1.00  0.00     0.000 C 
BRANCH   3   4
ATOM      4  C   UNL     1      -5.777 -14.088  -5.768  1.00  0.00     0.000 C 
BRANCH   4   5
ATOM      5  C   UNL     1      -6.840 -13.447  -4.856  1.00  0.00     0.000 C 
BRANCH   5   6
ATOM      6  C   UNL     1      -6.683 -11.924  -4.736  1.00  0.00     0.006 C 
BRANCH   6   7
ATOM      7  C   UNL     1      -8.047 -11.240  -4.608  1.00  0.00     0.053 C 
BRANCH   7   8
ATOM      8  C   UNL     1      -8.429 -10.584  -5.897  1.00  0.00     0.041 C 
ATOM      9  O   UNL     1      -9.442  -9.840  -5.952  1.00  0.00    -0.550 OA
ATOM     10  O   UNL     1      -7.634 -10.752  -7.024  1.00  0.00    -0.550 OA
ENDBRANCH   7   8
ENDBRANCH   6   7
ENDBRANCH   5   6
ENDBRANCH   4   5
ENDBRANCH   3   4
ENDBRANCH   2   3
ENDBRANCH   1   2
BRANCH   1  11
ATOM     11  C   UNL     1      -7.213 -18.519  -6.883  1.00  0.00    -0.031 C 
ATOM     12  C   UNL     1      -7.478 -19.840  -6.898  1.00  0.00    -0.027 C 
BRANCH  12  13
ATOM     13  C   UNL     1      -8.206 -20.574  -5.803  1.00  0.00     0.054 C 
BRANCH  13  14
ATOM     14  C   UNL     1      -7.314 -21.611  -5.168  1.00  0.00    -0.027 C 
ATOM     15  C   UNL     1      -6.577 -21.399  -4.064  1.00  0.00    -0.031 C 
BRANCH  15  16
ATOM     16  C   UNL     1      -6.600 -20.130  -3.247  1.00  0.00     0.027 C 
BRANCH  16  17
ATOM     17  C   UNL     1      -5.366 -19.242  -3.495  1.00  0.00     0.004 C 
BRANCH  17  18
ATOM     18  C   UNL     1      -5.334 -17.949  -2.660  1.00  0.00     0.000 C 
BRANCH  18  19
ATOM     19  C   UNL     1      -6.692 -17.619  -2.025  1.00  0.00    -0.003 C 
ATOM     20  C   UNL     1      -7.097 -16.176  -2.316  1.00  0.00     0.004 C 
ENDBRANCH  18  19
ENDBRANCH  17  18
ENDBRANCH  16  17
ENDBRANCH  15  16
ENDBRANCH  13  14
ENDBRANCH  12  13
ENDBRANCH   1  11
TORSDOF 14
ENDMDL
MODEL 4
REMARK VINA RESULT:    -4.843      3.719      7.972
REMARK INTER + INTRA:         -10.735
REMARK INTER:                  -7.997
REMARK INTRA:                  -2.739
REMARK UNBOUND:                -1.929
REMARK SMILES CCCCCC=CCC=CCCCCCCCC(=O)[O-]
REMARK SMILES IDX 11 1 12 2 13 3 14 4 15 5 16 6 17 7 18 8 19 9 20 10 10 11
REMARK SMILES IDX 9 12 8 13 7 14 6 15 5 16 4 17 3 18 2 19 1 20
REMARK H PARENT
REMARK Flexibility Score: inf
ROOT
ATOM      1  C   UNL     1      -7.410 -19.166  -2.198  1.00  0.00     0.027 C 
ENDROOT
BRANCH   1   2
ATOM      2  C   UNL     1      -8.324 -18.046  -2.726  1.00  0.00     0.004 C 
BRANCH   2   3
ATOM      3  C   UNL     1      -8.665 -16.961  -1.686  1.00  0.00     0.000 C 
BRANCH   3   4
ATOM      4  C   UNL     1      -7.931 -15.617  -1.873  1.00  0.00     0.000 C 
BRANCH   4   5
ATOM      5  C   UNL     1      -8.104 -14.966  -3.257  1.00  0.00     0.000 C 
BRANCH   5   6
ATOM      6  C   UNL     1      -6.770 -14.542  -3.888  1.00  0.00     0.006 C 
BRANCH   6   7
ATOM      7  C   UNL     1      -6.988 -13.922  -5.271  1.00  0.00     0.053 C 
BRANCH   7   8
ATOM      8  C   UNL     1      -6.771 -12.442  -5.223  1.00  0.00     0.041 C 
ATOM      9  O   UNL     1      -6.827 -11.761  -6.279  1.00  0.00    -0.550 OA
ATOM     10  O   UNL     1      -6.564 -11.810  -4.004  1.00  0.00    -0.550 OA
ENDBRANCH   7   8
ENDBRANCH   6   7
ENDBRANCH   5   6
ENDBRANCH   4   5
ENDBRANCH   3   4
ENDBRANCH   2   3
ENDBRANCH   1   2
BRANCH   1  11
ATOM     11  C   UNL     1      -6.015 -18.673  -1.898  1.00  0.00    -0.031 C 
ATOM     12  C   UNL     1      -5.024 -18.582  -2.806  1.00  0.00    -0.027 C 
BRANCH  12  13
ATOM     13  C   UNL     1      -5.169 -18.939  -4.261  1.00  0.00     0.054 C 
BRANCH  13  14
ATOM     14  C   UNL     1      -5.405 -17.705  -5.095  1.00  0.00    -0.027 C 
ATOM     15  C   UNL     1      -6.435 -17.556  -5.948  1.00  0.00    -0.031 C 
BRANCH  15  16
ATOM     16  C   UNL     1      -7.550 -18.557  -6.130  1.00  0.00     0.027 C 
BRANCH  16  17
ATOM     17  C   UNL     1      -7.265 -19.564  -7.260  1.00  0.00     0.004 C 
BRANCH  17  18
ATOM     18  C   UNL     1      -6.967 -20.995  -6.776  1.00  0.00     0.000 C 
BRANCH  18  19
ATOM     19  C   UNL     1      -7.751 -21.369  -5.511  1.00  0.00    -0.003 C 
ATOM     20  C   UNL     1      -6.878 -22.156  -4.536  1.00  0.00     0.004 C 
ENDBRANCH  18  19
ENDBRANCH  17  18
ENDBRANCH  16  17
ENDBRANCH  15  16
ENDBRANCH  13  14
ENDBRANCH  12  13
ENDBRANCH   1  11
TORSDOF 14
ENDMDL
MODEL 5
REMARK VINA RESULT:    -4.817      1.343      3.589
REMARK INTER + INTRA:         -10.688
REMARK INTER:                  -8.201
REMARK INTRA:                  -2.486
REMARK UNBOUND:                -1.929
REMARK SMILES CCCCCC=CCC=CCCCCCCCC(=O)[O-]
REMARK SMILES IDX 11 1 12 2 13 3 14 4 15 5 16 6 17 7 18 8 19 9 20 10 10 11
REMARK SMILES IDX 9 12 8 13 7 14 6 15 5 16 4 17 3 18 2 19 1 20
REMARK H PARENT
REMARK Flexibility Score: inf
ROOT
ATOM      1  C   UNL     1      -8.795 -13.147  -4.250  1.00  0.00     0.027 C 
ENDROOT
BRANCH   1   2
ATOM      2  C   UNL     1      -7.263 -13.270  -4.306  1.00  0.00     0.004 C 
BRANCH   2   3
ATOM      3  C   UNL     1      -6.669 -13.168  -5.725  1.00  0.00     0.000 C 
BRANCH   3   4
ATOM      4  C   UNL     1      -5.593 -14.220  -6.066  1.00  0.00     0.000 C 
BRANCH   4   5
ATOM      5  C   UNL     1      -5.935 -15.662  -5.650  1.00  0.00     0.000 C 
BRANCH   5   6
ATOM      6  C   UNL     1      -7.105 -16.252  -6.450  1.00  0.00     0.006 C 
BRANCH   6   7
ATOM      7  C   UNL     1      -7.109 -17.781  -6.371  1.00  0.00     0.053 C 
BRANCH   7   8
ATOM      8  C   UNL     1      -7.208 -18.234  -4.948  1.00  0.00     0.041 C 
ATOM      9  O   UNL     1      -6.262 -18.873  -4.421  1.00  0.00    -0.550 OA
ATOM     10  O   UNL     1      -8.323 -17.899  -4.190  1.00  0.00    -0.550 OA
ENDBRANCH   7   8
ENDBRANCH   6   7
ENDBRANCH   5   6
ENDBRANCH   4   5
ENDBRANCH   3   4
ENDBRANCH   2   3
ENDBRANCH   1   2
BRANCH   1  11
ATOM     11  C   UNL     1      -9.489 -14.354  -4.835  1.00  0.00    -0.031 C 
ATOM     12  C   UNL     1     -10.441 -14.301  -5.787  1.00  0.00    -0.027 C 
BRANCH  12  13
ATOM     13  C   UNL     1     -10.939 -13.031  -6.423  1.00  0.00     0.054 C 
BRANCH  13  14
ATOM     14  C   UNL     1     -10.037 -12.611  -7.557  1.00  0.00    -0.027 C 
ATOM     15  C   UNL     1      -9.471 -11.395  -7.660  1.00  0.00    -0.031 C 
BRANCH  15  16
ATOM     16  C   UNL     1      -9.579 -10.307  -6.620  1.00  0.00     0.027 C 
BRANCH  16  17
ATOM     17  C   UNL     1      -8.207  -9.871  -6.073  1.00  0.00     0.004 C 
BRANCH  17  18
ATOM     18  C   UNL     1      -8.277  -8.935  -4.851  1.00  0.00     0.000 C 
BRANCH  18  19
ATOM     19  C   UNL     1      -8.042  -9.672  -3.526  1.00  0.00    -0.003 C 
ATOM     20  C   UNL     1      -6.550  -9.821  -3.237  1.00  0.00     0.004 C 
ENDBRANCH  18  19
ENDBRANCH  17  18
ENDBRANCH  16  17
ENDBRANCH  15  16
ENDBRANCH  13  14
ENDBRANCH  12  13
ENDBRANCH   1  11
TORSDOF 14
ENDMDL
MODEL 6
REMARK VINA RESULT:    -4.809      3.874      7.841
REMARK INTER + INTRA:         -10.674
REMARK INTER:                  -8.497
REMARK INTRA:                  -2.177
REMARK UNBOUND:                -1.929
REMARK SMILES CCCCCC=CCC=CCCCCCCCC(=O)[O-]
REMARK SMILES IDX 11 1 12 2 13 3 14 4 15 5 16 6 17 7 18 8 19 9 20 10 10 11
REMARK SMILES IDX 9 12 8 13 7 14 6 15 5 16 4 17 3 18 2 19 1 20
REMARK H PARENT
REMARK Flexibility Score: inf
ROOT
ATOM      1  C   UNL     1      -8.442 -16.752  -4.209  1.00  0.00     0.027 C 
ENDROOT
BRANCH   1   2
ATOM      2  C   UNL     1      -7.867 -16.256  -5.547  1.00  0.00     0.004 C 
BRANCH   2   3
ATOM      3  C   UNL     1      -6.351 -15.978  -5.522  1.00  0.00     0.000 C 
BRANCH   3   4
ATOM      4  C   UNL     1      -5.935 -14.558  -5.959  1.00  0.00     0.000 C 
BRANCH   4   5
ATOM      5  C   UNL     1      -6.335 -13.433  -4.988  1.00  0.00     0.000 C 
BRANCH   5   6
ATOM      6  C   UNL     1      -7.507 -12.586  -5.505  1.00  0.00     0.006 C 
BRANCH   6   7
ATOM      7  C   UNL     1      -7.019 -11.506  -6.474  1.00  0.00     0.053 C 
BRANCH   7   8
ATOM      8  C   UNL     1      -8.138 -10.583  -6.839  1.00  0.00     0.041 C 
ATOM      9  O   UNL     1      -8.398  -9.587  -6.114  1.00  0.00    -0.550 OA
ATOM     10  O   UNL     1      -8.857 -10.790  -8.009  1.00  0.00    -0.550 OA
ENDBRANCH   7   8
ENDBRANCH   6   7
ENDBRANCH   5   6
ENDBRANCH   4   5
ENDBRANCH   3   4
ENDBRANCH   2   3
ENDBRANCH   1   2
BRANCH   1  11
ATOM     11  C   UNL     1      -8.378 -15.697  -3.131  1.00  0.00    -0.031 C 
ATOM     12  C   UNL     1      -7.846 -15.884  -1.907  1.00  0.00    -0.027 C 
BRANCH  12  13
ATOM     13  C   UNL     1      -7.216 -17.169  -1.442  1.00  0.00     0.054 C 
BRANCH  13  14
ATOM     14  C   UNL     1      -5.795 -17.280  -1.937  1.00  0.00    -0.027 C 
ATOM     15  C   UNL     1      -5.315 -18.333  -2.621  1.00  0.00    -0.031 C 
BRANCH  15  16
ATOM     16  C   UNL     1      -6.141 -19.513  -3.072  1.00  0.00     0.027 C 
BRANCH  16  17
ATOM     17  C   UNL     1      -5.998 -19.795  -4.579  1.00  0.00     0.004 C 
BRANCH  17  18
ATOM     18  C   UNL     1      -6.982 -20.847  -5.125  1.00  0.00     0.000 C 
BRANCH  18  19
ATOM     19  C   UNL     1      -7.056 -20.852  -6.658  1.00  0.00    -0.003 C 
ATOM     20  C   UNL     1      -7.380 -19.460  -7.197  1.00  0.00     0.004 C 
ENDBRANCH  18  19
ENDBRANCH  17  18
ENDBRANCH  16  17
ENDBRANCH  15  16
ENDBRANCH  13  14
ENDBRANCH  12  13
ENDBRANCH   1  11
TORSDOF 14
ENDMDL
MODEL 7
REMARK VINA RESULT:    -4.767      3.649      8.154
REMARK INTER + INTRA:         -10.597
REMARK INTER:                  -7.994
REMARK INTRA:                  -2.603
REMARK UNBOUND:                -1.929
REMARK SMILES CCCCCC=CCC=CCCCCCCCC(=O)[O-]
REMARK SMILES IDX 11 1 12 2 13 3 14 4 15 5 16 6 17 7 18 8 19 9 20 10 10 11
REMARK SMILES IDX 9 12 8 13 7 14 6 15 5 16 4 17 3 18 2 19 1 20
REMARK H PARENT
REMARK Flexibility Score: inf
ROOT
ATOM      1  C   UNL     1      -6.927 -19.857  -4.236  1.00  0.00     0.027 C 
ENDROOT
BRANCH   1   2
ATOM      2  C   UNL     1      -7.915 -18.933  -4.967  1.00  0.00     0.004 C 
BRANCH   2   3
ATOM      3  C   UNL     1      -7.313 -18.187  -6.173  1.00  0.00     0.000 C 
BRANCH   3   4
ATOM      4  C   UNL     1      -7.279 -16.650  -6.046  1.00  0.00     0.000 C 
BRANCH   4   5
ATOM      5  C   UNL     1      -5.879 -16.043  -5.843  1.00  0.00     0.000 C 
BRANCH   5   6
ATOM      6  C   UNL     1      -5.851 -14.522  -6.054  1.00  0.00     0.006 C 
BRANCH   6   7
ATOM      7  C   UNL     1      -6.266 -13.782  -4.780  1.00  0.00     0.053 C 
BRANCH   7   8
ATOM      8  C   UNL     1      -7.273 -12.721  -5.092  1.00  0.00     0.041 C 
ATOM      9  O   UNL     1      -8.238 -12.971  -5.860  1.00  0.00    -0.550 OA
ATOM     10  O   UNL     1      -7.176 -11.472  -4.490  1.00  0.00    -0.550 OA
ENDBRANCH   7   8
ENDBRANCH   6   7
ENDBRANCH   5   6
ENDBRANCH   4   5
ENDBRANCH   3   4
ENDBRANCH   2   3
ENDBRANCH   1   2
BRANCH   1  11
ATOM     11  C   UNL     1      -5.495 -19.402  -4.390  1.00  0.00    -0.031 C 
ATOM     12  C   UNL     1      -4.824 -18.667  -3.482  1.00  0.00    -0.027 C 
BRANCH  12  13
ATOM     13  C   UNL     1      -5.398 -18.207  -2.168  1.00  0.00     0.054 C 
BRANCH  13  14
ATOM     14  C   UNL     1      -6.164 -16.919  -2.339  1.00  0.00    -0.027 C 
ATOM     15  C   UNL     1      -7.420 -16.724  -1.901  1.00  0.00    -0.031 C 
BRANCH  15  16
ATOM     16  C   UNL     1      -8.215 -17.726  -1.100  1.00  0.00     0.027 C 
BRANCH  16  17
ATOM     17  C   UNL     1      -8.002 -17.575   0.418  1.00  0.00     0.004 C 
BRANCH  17  18
ATOM     18  C   UNL     1      -7.144 -18.684   1.054  1.00  0.00     0.000 C 
BRANCH  18  19
ATOM     19  C   UNL     1      -7.332 -20.045   0.370  1.00  0.00    -0.003 C 
ATOM     20  C   UNL     1      -6.006 -20.793   0.261  1.00  0.00     0.004 C 
ENDBRANCH  18  19
ENDBRANCH  17  18
ENDBRANCH  16  17
ENDBRANCH  15  16
ENDBRANCH  13  14
ENDBRANCH  12  13
ENDBRANCH   1  11
TORSDOF 14
ENDMDL
MODEL 8
REMARK VINA RESULT:    -4.760      4.172      8.599
REMARK INTER + INTRA:         -10.584
REMARK INTER:                  -7.975
REMARK INTRA:                  -2.609
REMARK UNBOUND:                -1.929
REMARK SMILES CCCCCC=CCC=CCCCCCCCC(=O)[O-]
REMARK SMILES IDX 11 1 12 2 13 3 14 4 15 5 16 6 17 7 18 8 19 9 20 10 10 11
REMARK SMILES IDX 9 12 8 13 7 14 6 15 5 16 4 17 3 18 2 19 1 20
REMARK H PARENT
REMARK Flexibility Score: inf
ROOT
ATOM      1  C   UNL     1      -5.623 -19.355  -3.218  1.00  0.00     0.027 C 
ENDROOT
BRANCH   1   2
ATOM      2  C   UNL     1      -5.666 -18.734  -1.811  1.00  0.00     0.004 C 
BRANCH   2   3
ATOM      3  C   UNL     1      -6.971 -17.981  -1.489  1.00  0.00     0.000 C 
BRANCH   3   4
ATOM      4  C   UNL     1      -7.015 -16.511  -1.954  1.00  0.00     0.000 C 
BRANCH   4   5
ATOM      5  C   UNL     1      -8.286 -16.107  -2.724  1.00  0.00     0.000 C 
BRANCH   5   6
ATOM      6  C   UNL     1      -8.138 -14.765  -3.456  1.00  0.00     0.006 C 
BRANCH   6   7
ATOM      7  C   UNL     1      -6.700 -14.558  -3.939  1.00  0.00     0.053 C 
BRANCH   7   8
ATOM      8  C   UNL     1      -6.667 -14.351  -5.420  1.00  0.00     0.041 C 
ATOM      9  O   UNL     1      -5.566 -14.275  -6.024  1.00  0.00    -0.550 OA
ATOM     10  O   UNL     1      -7.853 -14.299  -6.141  1.00  0.00    -0.550 OA
ENDBRANCH   7   8
ENDBRANCH   6   7
ENDBRANCH   5   6
ENDBRANCH   4   5
ENDBRANCH   3   4
ENDBRANCH   2   3
ENDBRANCH   1   2
BRANCH   1  11
ATOM     11  C   UNL     1      -4.994 -18.432  -4.233  1.00  0.00    -0.031 C 
ATOM     12  C   UNL     1      -5.649 -17.878  -5.273  1.00  0.00    -0.027 C 
BRANCH  12  13
ATOM     13  C   UNL     1      -7.112 -18.082  -5.562  1.00  0.00     0.054 C 
BRANCH  13  14
ATOM     14  C   UNL     1      -7.307 -18.712  -6.919  1.00  0.00    -0.027 C 
ATOM     15  C   UNL     1      -7.394 -20.037  -7.131  1.00  0.00    -0.031 C 
BRANCH  15  16
ATOM     16  C   UNL     1      -7.401 -21.082  -6.041  1.00  0.00     0.027 C 
BRANCH  16  17
ATOM     17  C   UNL     1      -6.073 -21.855  -5.952  1.00  0.00     0.004 C 
BRANCH  17  18
ATOM     18  C   UNL     1      -5.989 -22.842  -4.773  1.00  0.00     0.000 C 
BRANCH  18  19
ATOM     19  C   UNL     1      -7.289 -22.907  -3.960  1.00  0.00    -0.003 C 
ATOM     20  C   UNL     1      -7.042 -22.539  -2.499  1.00  0.00     0.004 C 
ENDBRANCH  18  19
ENDBRANCH  17  18
ENDBRANCH  16  17
ENDBRANCH  15  16
ENDBRANCH  13  14
ENDBRANCH  12  13
ENDBRANCH   1  11
TORSDOF 14
ENDMDL
MODEL 9
REMARK VINA RESULT:    -4.754      2.079      4.692
REMARK INTER + INTRA:         -10.574
REMARK INTER:                  -8.507
REMARK INTRA:                  -2.067
REMARK UNBOUND:                -1.929
REMARK SMILES CCCCCC=CCC=CCCCCCCCC(=O)[O-]
REMARK SMILES IDX 11 1 12 2 13 3 14 4 15 5 16 6 17 7 18 8 19 9 20 10 10 11
REMARK SMILES IDX 9 12 8 13 7 14 6 15 5 16 4 17 3 18 2 19 1 20
REMARK H PARENT
REMARK Flexibility Score: inf
ROOT
ATOM      1  C   UNL     1      -8.099 -16.244  -3.066  1.00  0.00     0.027 C 
ENDROOT
BRANCH   1   2
ATOM      2  C   UNL     1      -6.751 -16.381  -2.338  1.00  0.00     0.004 C 
BRANCH   2   3
ATOM      3  C   UNL     1      -6.696 -17.529  -1.312  1.00  0.00     0.000 C 
BRANCH   3   4
ATOM      4  C   UNL     1      -6.045 -18.833  -1.817  1.00  0.00     0.000 C 
BRANCH   4   5
ATOM      5  C   UNL     1      -4.924 -18.643  -2.855  1.00  0.00     0.000 C 
BRANCH   5   6
ATOM      6  C   UNL     1      -5.281 -19.224  -4.232  1.00  0.00     0.006 C 
BRANCH   6   7
ATOM      7  C   UNL     1      -6.314 -20.347  -4.103  1.00  0.00     0.053 C 
BRANCH   7   8
ATOM      8  C   UNL     1      -6.769 -20.800  -5.454  1.00  0.00     0.041 C 
ATOM      9  O   UNL     1      -7.739 -20.231  -6.018  1.00  0.00    -0.550 OA
ATOM     10  O   UNL     1      -6.086 -21.814  -6.113  1.00  0.00    -0.550 OA
ENDBRANCH   7   8
ENDBRANCH   6   7
ENDBRANCH   5   6
ENDBRANCH   4   5
ENDBRANCH   3   4
ENDBRANCH   2   3
ENDBRANCH   1   2
BRANCH   1  11
ATOM     11  C   UNL     1      -8.189 -17.139  -4.279  1.00  0.00    -0.031 C 
ATOM     12  C   UNL     1      -8.170 -16.703  -5.554  1.00  0.00    -0.027 C 
BRANCH  12  13
ATOM     13  C   UNL     1      -8.034 -15.259  -5.957  1.00  0.00     0.054 C 
BRANCH  13  14
ATOM     14  C   UNL     1      -6.582 -14.880  -6.111  1.00  0.00    -0.027 C 
ATOM     15  C   UNL     1      -5.987 -13.882  -5.433  1.00  0.00    -0.031 C 
BRANCH  15  16
ATOM     16  C   UNL     1      -6.652 -13.058  -4.359  1.00  0.00     0.027 C 
BRANCH  16  17
ATOM     17  C   UNL     1      -7.026 -11.644  -4.841  1.00  0.00     0.004 C 
BRANCH  17  18
ATOM     18  C   UNL     1      -7.034 -11.476  -6.372  1.00  0.00     0.000 C 
BRANCH  18  19
ATOM     19  C   UNL     1      -8.114 -10.499  -6.856  1.00  0.00    -0.003 C 
ATOM     20  C   UNL     1      -9.271 -11.244  -7.517  1.00  0.00     0.004 C 
ENDBRANCH  18  19
ENDBRANCH  17  18
ENDBRANCH  16  17
ENDBRANCH  15  16
ENDBRANCH  13  14
ENDBRANCH  12  13
ENDBRANCH   1  11
TORSDOF 14
ENDMDL
