MODEL 1
REMARK VINA RESULT:    -2.430      0.000      0.000
REMARK INTER + INTRA:          -2.430
REMARK INTER:                  -2.430
REMARK INTRA:                   0.000
REMARK UNBOUND:                 0.000
REMARK SMILES CC(=O)[O-]
REMARK SMILES IDX 1 1 2 2 3 3 4 4
REMARK H PARENT
REMARK Flexibility Score: inf
ROOT
ATOM      1  C   UNL     1     -20.220   8.334  38.393  1.00  0.00     0.063 C 
ATOM      2  C   UNL     1     -20.572   8.962  37.086  1.00  0.00     0.038 C 
ATOM      3  O   UNL     1     -21.701   9.493  36.925  1.00  0.00    -0.550 OA
ATOM      4  O   UNL     1     -19.634   9.010  36.062  1.00  0.00    -0.550 OA
ENDROOT
TORSDOF 0
ENDMDL
MODEL 2
REMARK VINA RESULT:    -2.397      7.514      8.037
REMARK INTER + INTRA:          -2.397
REMARK INTER:                  -2.397
REMARK INTRA:                   0.000
REMARK UNBOUND:                 0.000
REMARK SMILES CC(=O)[O-]
REMARK SMILES IDX 1 1 2 2 3 3 4 4
REMARK H PARENT
REMARK Flexibility Score: inf
ROOT
ATOM      1  C   UNL     1     -15.777   3.388  33.972  1.00  0.00     0.063 C 
ATOM      2  C   UNL     1     -15.019   4.612  33.582  1.00  0.00     0.038 C 
ATOM      3  O   UNL     1     -13.762   4.623  33.646  1.00  0.00    -0.550 OA
ATOM      4  O   UNL     1     -15.695   5.724  33.095  1.00  0.00    -0.550 OA
ENDROOT
TORSDOF 0
ENDMDL
MODEL 3
REMARK VINA RESULT:    -2.381      1.514      2.236
REMARK INTER + INTRA:          -2.381
REMARK INTER:                  -2.381
REMARK INTRA:                   0.000
REMARK UNBOUND:                 0.000
REMARK SMILES CC(=O)[O-]
REMARK SMILES IDX 1 1 2 2 3 3 4 4
REMARK H PARENT
REMARK Flexibility Score: inf
ROOT
ATOM      1  C   UNL     1     -21.382   9.501  36.895  1.00  0.00     0.063 C 
ATOM      2  C   UNL     1     -20.191   8.731  37.358  1.00  0.00     0.038 C 
ATOM      3  O   UNL     1     -19.115   8.782  36.707  1.00  0.00    -0.550 OA
ATOM      4  O   UNL     1     -20.250   8.000  38.538  1.00  0.00    -0.550 OA
ENDROOT
TORSDOF 0
ENDMDL
MODEL 4
REMARK VINA RESULT:    -2.380     12.241     12.691
REMARK INTER + INTRA:          -2.380
REMARK INTER:                  -2.380
REMARK INTRA:                   0.000
REMARK UNBOUND:                 0.000
REMARK SMILES CC(=O)[O-]
REMARK SMILES IDX 1 1 2 2 3 3 4 4
REMARK H PARENT
REMARK Flexibility Score: inf
ROOT
ATOM      1  C   UNL     1      -6.639   9.164  36.026  1.00  0.00     0.063 C 
ATOM      2  C   UNL     1      -8.041   8.944  36.484  1.00  0.00     0.038 C 
ATOM      3  O   UNL     1      -8.589   7.822  36.323  1.00  0.00    -0.550 OA
ATOM      4  O   UNL     1      -8.727   9.959  37.139  1.00  0.00    -0.550 OA
ENDROOT
TORSDOF 0
ENDMDL
MODEL 5
REMARK VINA RESULT:    -2.359     12.191     12.577
REMARK INTER + INTRA:          -2.359
REMARK INTER:                  -2.359
REMARK INTRA:                   0.000
REMARK UNBOUND:                 0.000
REMARK SMILES CC(=O)[O-]
REMARK SMILES IDX 1 1 2 2 3 3 4 4
REMARK H PARENT
REMARK Flexibility Score: inf
ROOT
ATOM      1  C   UNL     1      -6.699   9.147  36.101  1.00  0.00     0.063 C 
ATOM      2  C   UNL     1      -8.108   8.970  36.558  1.00  0.00     0.038 C 
ATOM      3  O   UNL     1      -8.692   9.899  37.175  1.00  0.00    -0.550 OA
ATOM      4  O   UNL     1      -8.796   7.802  36.256  1.00  0.00    -0.550 OA
ENDROOT
TORSDOF 0
ENDMDL
MODEL 6
REMARK VINA RESULT:    -2.342     12.887     13.272
REMARK INTER + INTRA:          -2.342
REMARK INTER:                  -2.342
REMARK INTRA:                   0.000
REMARK UNBOUND:                 0.000
REMARK SMILES CC(=O)[O-]
REMARK SMILES IDX 1 1 2 2 3 3 4 4
REMARK H PARENT
REMARK Flexibility Score: inf
ROOT
ATOM      1  C   UNL     1      -9.443  15.569  32.250  1.00  0.00     0.063 C 
ATOM      2  C   UNL     1     -10.062  16.044  33.522  1.00  0.00     0.038 C 
ATOM      3  O   UNL     1     -10.609  17.176  33.573  1.00  0.00    -0.550 OA
ATOM      4  O   UNL     1     -10.085  15.215  34.636  1.00  0.00    -0.550 OA
ENDROOT
TORSDOF 0
ENDMDL
MODEL 7
REMARK VINA RESULT:    -2.268     12.049     12.683
REMARK INTER + INTRA:          -2.268
REMARK INTER:                  -2.268
REMARK INTRA:                   0.000
REMARK UNBOUND:                 0.000
REMARK SMILES CC(=O)[O-]
REMARK SMILES IDX 1 1 2 2 3 3 4 4
REMARK H PARENT
REMARK Flexibility Score: inf
ROOT
ATOM      1  C   UNL     1      -8.658   7.901  35.852  1.00  0.00     0.063 C 
ATOM      2  C   UNL     1      -7.993   9.035  36.558  1.00  0.00     0.038 C 
ATOM      3  O   UNL     1      -6.741   9.159  36.513  1.00  0.00    -0.550 OA
ATOM      4  O   UNL     1      -8.758   9.986  37.220  1.00  0.00    -0.550 OA
ENDROOT
TORSDOF 0
ENDMDL
MODEL 8
REMARK VINA RESULT:    -2.265     12.730     13.122
REMARK INTER + INTRA:          -2.265
REMARK INTER:                  -2.265
REMARK INTRA:                   0.000
REMARK UNBOUND:                 0.000
REMARK SMILES CC(=O)[O-]
REMARK SMILES IDX 1 1 2 2 3 3 4 4
REMARK H PARENT
REMARK Flexibility Score: inf
ROOT
ATOM      1  C   UNL     1     -11.313  16.456  32.911  1.00  0.00     0.063 C 
ATOM      2  C   UNL     1     -10.087  15.654  33.189  1.00  0.00     0.038 C 
ATOM      3  O   UNL     1      -9.903  15.158  34.332  1.00  0.00    -0.550 OA
ATOM      4  O   UNL     1      -9.172  15.406  32.174  1.00  0.00    -0.550 OA
ENDROOT
TORSDOF 0
ENDMDL
MODEL 9
REMARK VINA RESULT:    -2.212      7.085      7.322
REMARK INTER + INTRA:          -2.212
REMARK INTER:                  -2.212
REMARK INTRA:                   0.000
REMARK UNBOUND:                 0.000
REMARK SMILES CC(=O)[O-]
REMARK SMILES IDX 1 1 2 2 3 3 4 4
REMARK H PARENT
REMARK Flexibility Score: inf
ROOT
ATOM      1  C   UNL     1     -15.829   7.196  33.105  1.00  0.00     0.063 C 
ATOM      2  C   UNL     1     -14.621   6.803  33.886  1.00  0.00     0.038 C 
ATOM      3  O   UNL     1     -13.824   7.683  34.303  1.00  0.00    -0.550 OA
ATOM      4  O   UNL     1     -14.401   5.468  34.202  1.00  0.00    -0.550 OA
ENDROOT
TORSDOF 0
ENDMDL
