MODEL 1
REMARK VINA RESULT:    -2.191      0.000      0.000
REMARK INTER + INTRA:          -2.191
REMARK INTER:                  -2.191
REMARK INTRA:                   0.000
REMARK UNBOUND:                 0.000
REMARK SMILES CC(=O)[O-]
REMARK SMILES IDX 1 1 2 2 3 3 4 4
REMARK H PARENT
REMARK Flexibility Score: inf
ROOT
ATOM      1  C   UNL     1     -29.473  -5.804 -11.393  1.00  0.00     0.063 C 
ATOM      2  C   UNL     1     -29.092  -6.964 -10.538  1.00  0.00     0.038 C 
ATOM      3  O   UNL     1     -28.595  -6.773  -9.398  1.00  0.00    -0.550 OA
ATOM      4  O   UNL     1     -29.234  -8.259 -11.019  1.00  0.00    -0.550 OA
ENDROOT
TORSDOF 0
ENDMDL
MODEL 2
REMARK VINA RESULT:    -2.148      1.389      1.757
REMARK INTER + INTRA:          -2.148
REMARK INTER:                  -2.148
REMARK INTRA:                   0.000
REMARK UNBOUND:                 0.000
REMARK SMILES CC(=O)[O-]
REMARK SMILES IDX 1 1 2 2 3 3 4 4
REMARK H PARENT
REMARK Flexibility Score: inf
ROOT
ATOM      1  C   UNL     1     -29.135  -8.176 -11.364  1.00  0.00     0.063 C 
ATOM      2  C   UNL     1     -29.100  -6.871 -10.644  1.00  0.00     0.038 C 
ATOM      3  O   UNL     1     -28.636  -6.806  -9.476  1.00  0.00    -0.550 OA
ATOM      4  O   UNL     1     -29.629  -5.734 -11.239  1.00  0.00    -0.550 OA
ENDROOT
TORSDOF 0
ENDMDL
MODEL 3
REMARK VINA RESULT:    -2.137     13.487     14.023
REMARK INTER + INTRA:          -2.137
REMARK INTER:                  -2.137
REMARK INTRA:                   0.000
REMARK UNBOUND:                 0.000
REMARK SMILES CC(=O)[O-]
REMARK SMILES IDX 1 1 2 2 3 3 4 4
REMARK H PARENT
REMARK Flexibility Score: inf
ROOT
ATOM      1  C   UNL     1     -22.254 -15.508  -0.065  1.00  0.00     0.063 C 
ATOM      2  C   UNL     1     -23.382 -14.985  -0.888  1.00  0.00     0.038 C 
ATOM      3  O   UNL     1     -23.150 -14.263  -1.892  1.00  0.00    -0.550 OA
ATOM      4  O   UNL     1     -24.694 -15.250  -0.517  1.00  0.00    -0.550 OA
ENDROOT
TORSDOF 0
ENDMDL
MODEL 4
REMARK VINA RESULT:    -2.131     13.488     14.024
REMARK INTER + INTRA:          -2.131
REMARK INTER:                  -2.131
REMARK INTRA:                   0.000
REMARK UNBOUND:                 0.000
REMARK SMILES CC(=O)[O-]
REMARK SMILES IDX 1 1 2 2 3 3 4 4
REMARK H PARENT
REMARK Flexibility Score: inf
ROOT
ATOM      1  C   UNL     1     -24.539 -15.129  -0.198  1.00  0.00     0.063 C 
ATOM      2  C   UNL     1     -23.222 -14.920  -0.865  1.00  0.00     0.038 C 
ATOM      3  O   UNL     1     -23.143 -14.206  -1.898  1.00  0.00    -0.550 OA
ATOM      4  O   UNL     1     -22.087 -15.555  -0.377  1.00  0.00    -0.550 OA
ENDROOT
TORSDOF 0
ENDMDL
MODEL 5
REMARK VINA RESULT:    -2.048      1.633      1.986
REMARK INTER + INTRA:          -2.048
REMARK INTER:                  -2.048
REMARK INTRA:                   0.000
REMARK UNBOUND:                 0.000
REMARK SMILES CC(=O)[O-]
REMARK SMILES IDX 1 1 2 2 3 3 4 4
REMARK H PARENT
REMARK Flexibility Score: inf
ROOT
ATOM      1  C   UNL     1     -29.071  -6.640 -10.442  1.00  0.00     0.063 C 
ATOM      2  C   UNL     1     -29.346  -7.649 -11.505  1.00  0.00     0.038 C 
ATOM      3  O   UNL     1     -28.952  -8.836 -11.366  1.00  0.00    -0.550 OA
ATOM      4  O   UNL     1     -29.992  -7.269 -12.674  1.00  0.00    -0.550 OA
ENDROOT
TORSDOF 0
ENDMDL
MODEL 6
REMARK VINA RESULT:    -1.962      1.497      2.163
REMARK INTER + INTRA:          -1.962
REMARK INTER:                  -1.962
REMARK INTRA:                   0.000
REMARK UNBOUND:                 0.000
REMARK SMILES CC(=O)[O-]
REMARK SMILES IDX 1 1 2 2 3 3 4 4
REMARK H PARENT
REMARK Flexibility Score: inf
ROOT
ATOM      1  C   UNL     1     -29.339  -6.137 -11.219  1.00  0.00     0.063 C 
ATOM      2  C   UNL     1     -29.487  -7.440 -11.929  1.00  0.00     0.038 C 
ATOM      3  O   UNL     1     -30.070  -7.490 -13.043  1.00  0.00    -0.550 OA
ATOM      4  O   UNL     1     -29.028  -8.610 -11.337  1.00  0.00    -0.550 OA
ENDROOT
TORSDOF 0
ENDMDL
MODEL 7
REMARK VINA RESULT:    -1.931      6.446      6.963
REMARK INTER + INTRA:          -1.931
REMARK INTER:                  -1.931
REMARK INTRA:                   0.000
REMARK UNBOUND:                 0.000
REMARK SMILES CC(=O)[O-]
REMARK SMILES IDX 1 1 2 2 3 3 4 4
REMARK H PARENT
REMARK Flexibility Score: inf
ROOT
ATOM      1  C   UNL     1     -27.289  -5.404  -5.353  1.00  0.00     0.063 C 
ATOM      2  C   UNL     1     -26.520  -5.911  -4.181  1.00  0.00     0.038 C 
ATOM      3  O   UNL     1     -26.172  -5.122  -3.264  1.00  0.00    -0.550 OA
ATOM      4  O   UNL     1     -26.139  -7.245  -4.123  1.00  0.00    -0.550 OA
ENDROOT
TORSDOF 0
ENDMDL
MODEL 8
REMARK VINA RESULT:    -1.925     13.701     14.016
REMARK INTER + INTRA:          -1.925
REMARK INTER:                  -1.925
REMARK INTRA:                   0.000
REMARK UNBOUND:                 0.000
REMARK SMILES CC(=O)[O-]
REMARK SMILES IDX 1 1 2 2 3 3 4 4
REMARK H PARENT
REMARK Flexibility Score: inf
ROOT
ATOM      1  C   UNL     1     -23.983 -14.862  -1.018  1.00  0.00     0.063 C 
ATOM      2  C   UNL     1     -24.940 -14.776   0.121  1.00  0.00     0.038 C 
ATOM      3  O   UNL     1     -26.060 -15.346   0.049  1.00  0.00    -0.550 OA
ATOM      4  O   UNL     1     -24.620 -14.023   1.244  1.00  0.00    -0.550 OA
ENDROOT
TORSDOF 0
ENDMDL
MODEL 9
REMARK VINA RESULT:    -1.899     14.607     15.138
REMARK INTER + INTRA:          -1.899
REMARK INTER:                  -1.899
REMARK INTRA:                   0.000
REMARK UNBOUND:                 0.000
REMARK SMILES CC(=O)[O-]
REMARK SMILES IDX 1 1 2 2 3 3 4 4
REMARK H PARENT
REMARK Flexibility Score: inf
ROOT
ATOM      1  C   UNL     1     -22.999 -14.842  -1.080  1.00  0.00     0.063 C 
ATOM      2  C   UNL     1     -22.993 -15.472   0.270  1.00  0.00     0.038 C 
ATOM      3  O   UNL     1     -24.012 -16.081   0.689  1.00  0.00    -0.550 OA
ATOM      4  O   UNL     1     -21.881 -15.344   1.093  1.00  0.00    -0.550 OA
ENDROOT
TORSDOF 0
ENDMDL
