MODEL 1
REMARK VINA RESULT:    -6.410      0.000      0.000
REMARK INTER + INTRA:          -9.564
REMARK INTER:                  -8.659
REMARK INTRA:                  -0.905
REMARK UNBOUND:                -0.905
REMARK SMILES O=c1c(-c2ccc(O)cc2)coc2c([C@H]3O[C@H](CO)[C@H](O)[C@@H](O)[C@H]3O)c(O)ccc12
REMARK SMILES IDX 3 1 11 2 12 3 13 4 30 5 2 6 1 7 29 8 28 9 26 10 14 11 4 12
REMARK SMILES IDX 5 13 6 14 7 15 10 16 9 17 8 18 15 20 24 21 16 22 22 23 17 24
REMARK SMILES IDX 20 25 25 26 23 28 18 30 19 31 21 33 27 35
REMARK H PARENT 8 19 25 27 23 29 19 32 21 34 27 36
REMARK Flexibility Score: inf
ROOT
ATOM      1  C   UNL     1      16.638 -19.503  17.393  1.00  0.00     0.065 A 
ATOM      2  C   UNL     1      15.999 -18.429  18.028  1.00  0.00     0.208 A 
ATOM      3  O   UNL     1      16.433 -17.185  17.867  1.00  0.00    -0.463 OA
ATOM      4  C   UNL     1      17.482 -16.872  17.110  1.00  0.00     0.147 A 
ATOM      5  C   UNL     1      18.187 -17.896  16.432  1.00  0.00     0.066 A 
ATOM      6  C   UNL     1      17.758 -19.226  16.589  1.00  0.00     0.200 A 
ATOM      7  O   UNL     1      18.385 -20.167  16.028  1.00  0.00    -0.288 OA
ATOM      8  C   UNL     1      19.284 -17.564  15.624  1.00  0.00     0.020 A 
ATOM      9  C   UNL     1      19.665 -16.233  15.471  1.00  0.00     0.047 A 
ATOM     10  C   UNL     1      18.975 -15.211  16.133  1.00  0.00     0.125 A 
ATOM     11  C   UNL     1      17.890 -15.522  16.988  1.00  0.00     0.069 A 
ENDROOT
BRANCH   1  12
ATOM     12  C   UNL     1      16.129 -20.885  17.582  1.00  0.00    -0.011 A 
ATOM     13  C   UNL     1      16.870 -21.828  18.317  1.00  0.00     0.013 A 
ATOM     14  C   UNL     1      16.387 -23.129  18.491  1.00  0.00     0.047 A 
ATOM     15  C   UNL     1      15.158 -23.504  17.933  1.00  0.00     0.115 A 
ATOM     16  C   UNL     1      14.902 -21.274  17.015  1.00  0.00     0.013 A 
ATOM     17  C   UNL     1      14.419 -22.574  17.195  1.00  0.00     0.047 A 
BRANCH  15  18
ATOM     18  O   UNL     1      14.665 -24.795  18.105  1.00  0.00    -0.508 OA
ATOM     19  H   UNL     1      14.560 -25.205  19.026  1.00  0.00     0.293 HD
ENDBRANCH  15  18
ENDBRANCH   1  12
BRANCH  11  20
ATOM     20  C   UNL     1      17.118 -14.428  17.717  1.00  0.00     0.188 C 
ATOM     21  C   UNL     1      15.864 -14.024  16.910  1.00  0.00     0.179 C 
ATOM     22  O   UNL     1      17.967 -13.315  17.964  1.00  0.00    -0.362 OA
ATOM     23  C   UNL     1      15.075 -12.966  17.691  1.00  0.00     0.177 C 
ATOM     24  C   UNL     1      17.336 -12.287  18.719  1.00  0.00     0.176 C 
ATOM     25  C   UNL     1      16.008 -11.797  18.077  1.00  0.00     0.177 C 
BRANCH  21  26
ATOM     26  O   UNL     1      16.229 -13.508  15.653  1.00  0.00    -0.387 OA
ATOM     27  H   UNL     1      15.415 -13.521  15.085  1.00  0.00     0.211 HD
ENDBRANCH  21  26
BRANCH  23  28
ATOM     28  O   UNL     1      14.011 -12.501  16.899  1.00  0.00    -0.387 OA
ATOM     29  H   UNL     1      13.786 -13.229  16.262  1.00  0.00     0.211 HD
ENDBRANCH  23  28
BRANCH  24  30
ATOM     30  C   UNL     1      17.287 -12.613  20.231  1.00  0.00     0.191 C 
BRANCH  30  31
ATOM     31  O   UNL     1      16.930 -11.499  20.999  1.00  0.00    -0.394 OA
ATOM     32  H   UNL     1      16.627 -11.851  21.875  1.00  0.00     0.210 HD
ENDBRANCH  30  31
ENDBRANCH  24  30
BRANCH  25  33
ATOM     33  O   UNL     1      15.357 -10.853  18.893  1.00  0.00    -0.388 OA
ATOM     34  H   UNL     1      15.919 -10.696  19.694  1.00  0.00     0.211 HD
ENDBRANCH  25  33
ENDBRANCH  11  20
BRANCH  10  35
ATOM     35  O   UNL     1      19.366 -13.886  15.936  1.00  0.00    -0.507 OA
ATOM     36  H   UNL     1      20.324 -13.588  16.075  1.00  0.00     0.293 HD
ENDBRANCH  10  35
TORSDOF 9
ENDMDL
MODEL 2
REMARK VINA RESULT:    -6.376      2.811      9.926
REMARK INTER + INTRA:          -9.517
REMARK INTER:                  -8.696
REMARK INTRA:                  -0.821
REMARK UNBOUND:                -0.905
REMARK SMILES O=c1c(-c2ccc(O)cc2)coc2c([C@H]3O[C@H](CO)[C@H](O)[C@@H](O)[C@H]3O)c(O)ccc12
REMARK SMILES IDX 3 1 11 2 12 3 13 4 30 5 2 6 1 7 29 8 28 9 26 10 14 11 4 12
REMARK SMILES IDX 5 13 6 14 7 15 10 16 9 17 8 18 15 20 24 21 16 22 22 23 17 24
REMARK SMILES IDX 20 25 25 26 23 28 18 30 19 31 21 33 27 35
REMARK H PARENT 8 19 25 27 23 29 19 32 21 34 27 36
REMARK Flexibility Score: inf
ROOT
ATOM      1  C   UNL     1      15.237 -18.559  18.879  1.00  0.00     0.065 A 
ATOM      2  C   UNL     1      15.895 -19.636  18.268  1.00  0.00     0.208 A 
ATOM      3  O   UNL     1      15.790 -20.865  18.758  1.00  0.00    -0.463 OA
ATOM      4  C   UNL     1      15.073 -21.160  19.839  1.00  0.00     0.147 A 
ATOM      5  C   UNL     1      14.376 -20.132  20.518  1.00  0.00     0.066 A 
ATOM      6  C   UNL     1      14.473 -18.817  20.031  1.00  0.00     0.200 A 
ATOM      7  O   UNL     1      13.894 -17.870  20.634  1.00  0.00    -0.288 OA
ATOM      8  C   UNL     1      13.609 -20.445  21.650  1.00  0.00     0.020 A 
ATOM      9  C   UNL     1      13.514 -21.763  22.090  1.00  0.00     0.047 A 
ATOM     10  C   UNL     1      14.195 -22.790  21.425  1.00  0.00     0.125 A 
ATOM     11  C   UNL     1      15.010 -22.495  20.306  1.00  0.00     0.069 A 
ENDROOT
BRANCH   1  12
ATOM     12  C   UNL     1      15.363 -17.194  18.308  1.00  0.00    -0.011 A 
ATOM     13  C   UNL     1      14.855 -16.901  17.030  1.00  0.00     0.013 A 
ATOM     14  C   UNL     1      14.977 -15.615  16.496  1.00  0.00     0.047 A 
ATOM     15  C   UNL     1      15.608 -14.605  17.233  1.00  0.00     0.115 A 
ATOM     16  C   UNL     1      16.006 -16.177  19.035  1.00  0.00     0.013 A 
ATOM     17  C   UNL     1      16.122 -14.890  18.502  1.00  0.00     0.047 A 
BRANCH  15  18
ATOM     18  O   UNL     1      15.731 -13.318  16.713  1.00  0.00    -0.508 OA
ATOM     19  H   UNL     1      15.102 -12.572  16.991  1.00  0.00     0.293 HD
ENDBRANCH  15  18
ENDBRANCH   1  12
BRANCH  11  20
ATOM     20  C   UNL     1      15.759 -23.595  19.561  1.00  0.00     0.188 C 
ATOM     21  C   UNL     1      14.956 -24.048  18.322  1.00  0.00     0.179 C 
ATOM     22  O   UNL     1      16.031 -24.679  20.438  1.00  0.00    -0.362 OA
ATOM     23  C   UNL     1      15.755 -25.111  17.558  1.00  0.00     0.177 C 
ATOM     24  C   UNL     1      16.806 -25.708  19.832  1.00  0.00     0.176 C 
ATOM     25  C   UNL     1      16.168 -26.247  18.521  1.00  0.00     0.177 C 
BRANCH  21  26
ATOM     26  O   UNL     1      13.710 -24.580  18.706  1.00  0.00    -0.387 OA
ATOM     27  H   UNL     1      13.222 -24.810  17.873  1.00  0.00     0.211 HD
ENDBRANCH  21  26
BRANCH  23  28
ATOM     28  O   UNL     1      14.970 -25.621  16.510  1.00  0.00    -0.387 OA
ATOM     29  H   UNL     1      14.256 -26.173  16.927  1.00  0.00     0.211 HD
ENDBRANCH  23  28
BRANCH  24  30
ATOM     30  C   UNL     1      18.310 -25.352  19.768  1.00  0.00     0.191 C 
BRANCH  30  31
ATOM     31  O   UNL     1      19.108 -26.477  19.530  1.00  0.00    -0.394 OA
ATOM     32  H   UNL     1      18.485 -27.238  19.404  1.00  0.00     0.210 HD
ENDBRANCH  30  31
ENDBRANCH  24  30
BRANCH  25  33
ATOM     33  O   UNL     1      17.001 -27.191  17.892  1.00  0.00    -0.388 OA
ATOM     34  H   UNL     1      16.633 -28.094  18.068  1.00  0.00     0.211 HD
ENDBRANCH  25  33
ENDBRANCH  11  20
BRANCH  10  35
ATOM     35  O   UNL     1      14.056 -24.103  21.877  1.00  0.00    -0.507 OA
ATOM     36  H   UNL     1      14.196 -24.895  21.262  1.00  0.00     0.293 HD
ENDBRANCH  10  35
TORSDOF 9
ENDMDL
MODEL 3
REMARK VINA RESULT:    -6.334      2.916      9.745
REMARK INTER + INTRA:          -9.461
REMARK INTER:                  -8.466
REMARK INTRA:                  -0.994
REMARK UNBOUND:                -0.905
REMARK SMILES O=c1c(-c2ccc(O)cc2)coc2c([C@H]3O[C@H](CO)[C@H](O)[C@@H](O)[C@H]3O)c(O)ccc12
REMARK SMILES IDX 3 1 11 2 12 3 13 4 30 5 2 6 1 7 29 8 28 9 26 10 14 11 4 12
REMARK SMILES IDX 5 13 6 14 7 15 10 16 9 17 8 18 15 20 24 21 16 22 22 23 17 24
REMARK SMILES IDX 20 25 25 26 23 28 18 30 19 31 21 33 27 35
REMARK H PARENT 8 19 25 27 23 29 19 32 21 34 27 36
REMARK Flexibility Score: inf
ROOT
ATOM      1  C   UNL     1      15.826 -18.648  19.082  1.00  0.00     0.065 A 
ATOM      2  C   UNL     1      15.778 -19.480  20.210  1.00  0.00     0.208 A 
ATOM      3  O   UNL     1      15.384 -20.743  20.110  1.00  0.00    -0.463 OA
ATOM      4  C   UNL     1      15.012 -21.301  18.960  1.00  0.00     0.147 A 
ATOM      5  C   UNL     1      15.032 -20.533  17.771  1.00  0.00     0.066 A 
ATOM      6  C   UNL     1      15.435 -19.189  17.844  1.00  0.00     0.200 A 
ATOM      7  O   UNL     1      15.429 -18.465  16.809  1.00  0.00    -0.288 OA
ATOM      8  C   UNL     1      14.654 -21.126  16.557  1.00  0.00     0.020 A 
ATOM      9  C   UNL     1      14.284 -22.468  16.517  1.00  0.00     0.047 A 
ATOM     10  C   UNL     1      14.264 -23.240  17.685  1.00  0.00     0.125 A 
ATOM     11  C   UNL     1      14.601 -22.655  18.929  1.00  0.00     0.069 A 
ENDROOT
BRANCH   1  12
ATOM     12  C   UNL     1      16.278 -17.241  19.218  1.00  0.00    -0.011 A 
ATOM     13  C   UNL     1      17.599 -16.945  19.601  1.00  0.00     0.013 A 
ATOM     14  C   UNL     1      18.019 -15.617  19.729  1.00  0.00     0.047 A 
ATOM     15  C   UNL     1      17.125 -14.569  19.476  1.00  0.00     0.115 A 
ATOM     16  C   UNL     1      15.385 -16.182  18.979  1.00  0.00     0.013 A 
ATOM     17  C   UNL     1      15.809 -14.855  19.102  1.00  0.00     0.047 A 
BRANCH  15  18
ATOM     18  O   UNL     1      17.534 -13.242  19.595  1.00  0.00    -0.508 OA
ATOM     19  H   UNL     1      18.006 -12.763  18.837  1.00  0.00     0.293 HD
ENDBRANCH  15  18
ENDBRANCH   1  12
BRANCH  11  20
ATOM     20  C   UNL     1      14.592 -23.474  20.216  1.00  0.00     0.188 C 
ATOM     21  C   UNL     1      15.963 -24.152  20.431  1.00  0.00     0.179 C 
ATOM     22  O   UNL     1      13.535 -24.422  20.182  1.00  0.00    -0.362 OA
ATOM     23  C   UNL     1      15.948 -24.920  21.758  1.00  0.00     0.177 C 
ATOM     24  C   UNL     1      13.412 -25.167  21.390  1.00  0.00     0.176 C 
ATOM     25  C   UNL     1      14.734 -25.875  21.797  1.00  0.00     0.177 C 
BRANCH  21  26
ATOM     26  O   UNL     1      16.249 -25.038  19.376  1.00  0.00    -0.387 OA
ATOM     27  H   UNL     1      15.385 -25.423  19.077  1.00  0.00     0.211 HD
ENDBRANCH  21  26
BRANCH  23  28
ATOM     28  O   UNL     1      17.145 -25.647  21.890  1.00  0.00    -0.387 OA
ATOM     29  H   UNL     1      17.715 -25.405  21.114  1.00  0.00     0.211 HD
ENDBRANCH  23  28
BRANCH  24  30
ATOM     30  C   UNL     1      12.691 -24.368  22.502  1.00  0.00     0.191 C 
BRANCH  30  31
ATOM     31  O   UNL     1      11.893 -25.190  23.307  1.00  0.00    -0.394 OA
ATOM     32  H   UNL     1      11.933 -24.807  24.220  1.00  0.00     0.210 HD
ENDBRANCH  30  31
ENDBRANCH  24  30
BRANCH  25  33
ATOM     33  O   UNL     1      14.612 -26.520  23.042  1.00  0.00    -0.388 OA
ATOM     34  H   UNL     1      14.575 -25.826  23.748  1.00  0.00     0.211 HD
ENDBRANCH  25  33
ENDBRANCH  11  20
BRANCH  10  35
ATOM     35  O   UNL     1      13.915 -24.589  17.604  1.00  0.00    -0.507 OA
ATOM     36  H   UNL     1      12.957 -24.898  17.713  1.00  0.00     0.293 HD
ENDBRANCH  10  35
TORSDOF 9
ENDMDL
MODEL 4
REMARK VINA RESULT:    -6.293      2.573      8.884
REMARK INTER + INTRA:          -9.405
REMARK INTER:                  -8.459
REMARK INTRA:                  -0.947
REMARK UNBOUND:                -0.905
REMARK SMILES O=c1c(-c2ccc(O)cc2)coc2c([C@H]3O[C@H](CO)[C@H](O)[C@@H](O)[C@H]3O)c(O)ccc12
REMARK SMILES IDX 3 1 11 2 12 3 13 4 30 5 2 6 1 7 29 8 28 9 26 10 14 11 4 12
REMARK SMILES IDX 5 13 6 14 7 15 10 16 9 17 8 18 15 20 24 21 16 22 22 23 17 24
REMARK SMILES IDX 20 25 25 26 23 28 18 30 19 31 21 33 27 35
REMARK H PARENT 8 19 25 27 23 29 19 32 21 34 27 36
REMARK Flexibility Score: inf
ROOT
ATOM      1  C   UNL     1      15.990 -16.215  18.784  1.00  0.00     0.065 A 
ATOM      2  C   UNL     1      16.215 -17.210  19.746  1.00  0.00     0.208 A 
ATOM      3  O   UNL     1      15.908 -18.477  19.501  1.00  0.00    -0.463 OA
ATOM      4  C   UNL     1      15.377 -18.889  18.352  1.00  0.00     0.147 A 
ATOM      5  C   UNL     1      15.117 -17.951  17.325  1.00  0.00     0.066 A 
ATOM      6  C   UNL     1      15.421 -16.598  17.556  1.00  0.00     0.200 A 
ATOM      7  O   UNL     1      15.169 -15.729  16.675  1.00  0.00    -0.288 OA
ATOM      8  C   UNL     1      14.570 -18.388  16.110  1.00  0.00     0.020 A 
ATOM      9  C   UNL     1      14.304 -19.739  15.905  1.00  0.00     0.047 A 
ATOM     10  C   UNL     1      14.560 -20.679  16.912  1.00  0.00     0.125 A 
ATOM     11  C   UNL     1      15.073 -20.259  18.163  1.00  0.00     0.069 A 
ENDROOT
BRANCH   1  12
ATOM     12  C   UNL     1      16.348 -14.804  19.078  1.00  0.00    -0.011 A 
ATOM     13  C   UNL     1      15.364 -13.800  19.080  1.00  0.00     0.013 A 
ATOM     14  C   UNL     1      15.707 -12.473  19.356  1.00  0.00     0.047 A 
ATOM     15  C   UNL     1      17.037 -12.133  19.634  1.00  0.00     0.115 A 
ATOM     16  C   UNL     1      17.683 -14.451  19.346  1.00  0.00     0.013 A 
ATOM     17  C   UNL     1      18.022 -13.125  19.627  1.00  0.00     0.047 A 
BRANCH  15  18
ATOM     18  O   UNL     1      17.389 -10.814  19.917  1.00  0.00    -0.508 OA
ATOM     19  H   UNL     1      16.849 -10.248  20.561  1.00  0.00     0.293 HD
ENDBRANCH  15  18
ENDBRANCH   1  12
BRANCH  11  20
ATOM     20  C   UNL     1      15.365 -21.261  19.274  1.00  0.00     0.188 C 
ATOM     21  C   UNL     1      16.803 -21.809  19.141  1.00  0.00     0.179 C 
ATOM     22  O   UNL     1      14.400 -22.304  19.256  1.00  0.00    -0.362 OA
ATOM     23  C   UNL     1      17.092 -22.769  20.301  1.00  0.00     0.177 C 
ATOM     24  C   UNL     1      14.559 -23.233  20.323  1.00  0.00     0.176 C 
ATOM     25  C   UNL     1      15.987 -23.846  20.378  1.00  0.00     0.177 C 
BRANCH  21  26
ATOM     26  O   UNL     1      16.963 -22.487  17.918  1.00  0.00    -0.387 OA
ATOM     27  H   UNL     1      17.281 -21.820  17.255  1.00  0.00     0.211 HD
ENDBRANCH  21  26
BRANCH  23  28
ATOM     28  O   UNL     1      18.347 -23.371  20.107  1.00  0.00    -0.387 OA
ATOM     29  H   UNL     1      18.190 -24.349  20.041  1.00  0.00     0.211 HD
ENDBRANCH  23  28
BRANCH  24  30
ATOM     30  C   UNL     1      13.989 -22.699  21.658  1.00  0.00     0.191 C 
BRANCH  30  31
ATOM     31  O   UNL     1      13.535 -23.731  22.487  1.00  0.00    -0.394 OA
ATOM     32  H   UNL     1      13.779 -23.472  23.412  1.00  0.00     0.210 HD
ENDBRANCH  30  31
ENDBRANCH  24  30
BRANCH  25  33
ATOM     33  O   UNL     1      16.145 -24.683  21.498  1.00  0.00    -0.388 OA
ATOM     34  H   UNL     1      15.821 -25.588  21.256  1.00  0.00     0.211 HD
ENDBRANCH  25  33
ENDBRANCH  11  20
BRANCH  10  35
ATOM     35  O   UNL     1      14.308 -22.029  16.664  1.00  0.00    -0.507 OA
ATOM     36  H   UNL     1      13.947 -22.348  15.773  1.00  0.00     0.293 HD
ENDBRANCH  10  35
TORSDOF 9
ENDMDL
MODEL 5
REMARK VINA RESULT:    -6.238      3.063      9.353
REMARK INTER + INTRA:          -9.331
REMARK INTER:                  -8.503
REMARK INTRA:                  -0.828
REMARK UNBOUND:                -0.905
REMARK SMILES O=c1c(-c2ccc(O)cc2)coc2c([C@H]3O[C@H](CO)[C@H](O)[C@@H](O)[C@H]3O)c(O)ccc12
REMARK SMILES IDX 3 1 11 2 12 3 13 4 30 5 2 6 1 7 29 8 28 9 26 10 14 11 4 12
REMARK SMILES IDX 5 13 6 14 7 15 10 16 9 17 8 18 15 20 24 21 16 22 22 23 17 24
REMARK SMILES IDX 20 25 25 26 23 28 18 30 19 31 21 33 27 35
REMARK H PARENT 8 19 25 27 23 29 19 32 21 34 27 36
REMARK Flexibility Score: inf
ROOT
ATOM      1  C   UNL     1      15.836 -19.141  17.644  1.00  0.00     0.065 A 
ATOM      2  C   UNL     1      16.438 -19.504  18.857  1.00  0.00     0.208 A 
ATOM      3  O   UNL     1      16.370 -20.751  19.306  1.00  0.00    -0.463 OA
ATOM      4  C   UNL     1      15.738 -21.726  18.656  1.00  0.00     0.147 A 
ATOM      5  C   UNL     1      15.102 -21.447  17.422  1.00  0.00     0.066 A 
ATOM      6  C   UNL     1      15.148 -20.134  16.923  1.00  0.00     0.200 A 
ATOM      7  O   UNL     1      14.560 -19.843  15.844  1.00  0.00    -0.288 OA
ATOM      8  C   UNL     1      14.449 -22.478  16.731  1.00  0.00     0.020 A 
ATOM      9  C   UNL     1      14.445 -23.773  17.242  1.00  0.00     0.047 A 
ATOM     10  C   UNL     1      15.074 -24.064  18.460  1.00  0.00     0.125 A 
ATOM     11  C   UNL     1      15.704 -23.034  19.198  1.00  0.00     0.069 A 
ENDROOT
BRANCH   1  12
ATOM     12  C   UNL     1      15.933 -17.742  17.158  1.00  0.00    -0.011 A 
ATOM     13  C   UNL     1      17.170 -17.203  16.765  1.00  0.00     0.013 A 
ATOM     14  C   UNL     1      17.257 -15.884  16.310  1.00  0.00     0.047 A 
ATOM     15  C   UNL     1      16.107 -15.086  16.242  1.00  0.00     0.115 A 
ATOM     16  C   UNL     1      14.786 -16.930  17.098  1.00  0.00     0.013 A 
ATOM     17  C   UNL     1      14.874 -15.613  16.637  1.00  0.00     0.047 A 
BRANCH  15  18
ATOM     18  O   UNL     1      16.180 -13.772  15.784  1.00  0.00    -0.508 OA
ATOM     19  H   UNL     1      16.628 -13.541  14.904  1.00  0.00     0.293 HD
ENDBRANCH  15  18
ENDBRANCH   1  12
BRANCH  11  20
ATOM     20  C   UNL     1      16.399 -23.323  20.524  1.00  0.00     0.188 C 
ATOM     21  C   UNL     1      17.878 -23.700  20.284  1.00  0.00     0.179 C 
ATOM     22  O   UNL     1      15.703 -24.342  21.227  1.00  0.00    -0.362 OA
ATOM     23  C   UNL     1      18.570 -23.929  21.634  1.00  0.00     0.177 C 
ATOM     24  C   UNL     1      16.248 -24.605  22.516  1.00  0.00     0.176 C 
ATOM     25  C   UNL     1      17.763 -24.947  22.470  1.00  0.00     0.177 C 
BRANCH  21  26
ATOM     26  O   UNL     1      17.972 -24.867  19.503  1.00  0.00    -0.387 OA
ATOM     27  H   UNL     1      18.830 -25.307  19.736  1.00  0.00     0.211 HD
ENDBRANCH  21  26
BRANCH  23  28
ATOM     28  O   UNL     1      19.875 -24.404  21.414  1.00  0.00    -0.387 OA
ATOM     29  H   UNL     1      19.820 -25.068  20.678  1.00  0.00     0.211 HD
ENDBRANCH  23  28
BRANCH  24  30
ATOM     30  C   UNL     1      15.813 -23.553  23.564  1.00  0.00     0.191 C 
BRANCH  30  31
ATOM     31  O   UNL     1      14.441 -23.282  23.500  1.00  0.00    -0.394 OA
ATOM     32  H   UNL     1      13.984 -24.063  23.905  1.00  0.00     0.210 HD
ENDBRANCH  30  31
ENDBRANCH  24  30
BRANCH  25  33
ATOM     33  O   UNL     1      18.296 -25.106  23.763  1.00  0.00    -0.388 OA
ATOM     34  H   UNL     1      19.278 -25.214  23.682  1.00  0.00     0.211 HD
ENDBRANCH  25  33
ENDBRANCH  11  20
BRANCH  10  35
ATOM     35  O   UNL     1      15.074 -25.378  18.929  1.00  0.00    -0.507 OA
ATOM     36  H   UNL     1      15.435 -26.142  18.372  1.00  0.00     0.293 HD
ENDBRANCH  10  35
TORSDOF 9
ENDMDL
MODEL 6
REMARK VINA RESULT:    -6.230      2.152      4.180
REMARK INTER + INTRA:          -9.320
REMARK INTER:                  -8.193
REMARK INTRA:                  -1.127
REMARK UNBOUND:                -0.905
REMARK SMILES O=c1c(-c2ccc(O)cc2)coc2c([C@H]3O[C@H](CO)[C@H](O)[C@@H](O)[C@H]3O)c(O)ccc12
REMARK SMILES IDX 3 1 11 2 12 3 13 4 30 5 2 6 1 7 29 8 28 9 26 10 14 11 4 12
REMARK SMILES IDX 5 13 6 14 7 15 10 16 9 17 8 18 15 20 24 21 16 22 22 23 17 24
REMARK SMILES IDX 20 25 25 26 23 28 18 30 19 31 21 33 27 35
REMARK H PARENT 8 19 25 27 23 29 19 32 21 34 27 36
REMARK Flexibility Score: inf
ROOT
ATOM      1  C   UNL     1      16.620 -21.871  18.204  1.00  0.00     0.065 A 
ATOM      2  C   UNL     1      17.583 -20.868  18.384  1.00  0.00     0.208 A 
ATOM      3  O   UNL     1      17.353 -19.623  17.984  1.00  0.00    -0.463 OA
ATOM      4  C   UNL     1      16.221 -19.244  17.396  1.00  0.00     0.147 A 
ATOM      5  C   UNL     1      15.195 -20.193  17.175  1.00  0.00     0.066 A 
ATOM      6  C   UNL     1      15.410 -21.523  17.578  1.00  0.00     0.200 A 
ATOM      7  O   UNL     1      14.530 -22.403  17.364  1.00  0.00    -0.288 OA
ATOM      8  C   UNL     1      13.997 -19.790  16.568  1.00  0.00     0.020 A 
ATOM      9  C   UNL     1      13.808 -18.459  16.204  1.00  0.00     0.047 A 
ATOM     10  C   UNL     1      14.814 -17.509  16.420  1.00  0.00     0.125 A 
ATOM     11  C   UNL     1      16.048 -17.897  16.993  1.00  0.00     0.069 A 
ENDROOT
BRANCH   1  12
ATOM     12  C   UNL     1      16.897 -23.255  18.666  1.00  0.00    -0.011 A 
ATOM     13  C   UNL     1      17.270 -24.255  17.752  1.00  0.00     0.013 A 
ATOM     14  C   UNL     1      17.528 -25.557  18.191  1.00  0.00     0.047 A 
ATOM     15  C   UNL     1      17.416 -25.876  19.551  1.00  0.00     0.115 A 
ATOM     16  C   UNL     1      16.775 -23.586  20.027  1.00  0.00     0.013 A 
ATOM     17  C   UNL     1      17.038 -24.887  20.465  1.00  0.00     0.047 A 
BRANCH  15  18
ATOM     18  O   UNL     1      17.675 -27.168  20.002  1.00  0.00    -0.508 OA
ATOM     19  H   UNL     1      18.396 -27.355  20.690  1.00  0.00     0.293 HD
ENDBRANCH  15  18
ENDBRANCH   1  12
BRANCH  11  20
ATOM     20  C   UNL     1      17.158 -16.883  17.244  1.00  0.00     0.188 C 
ATOM     21  C   UNL     1      16.930 -16.156  18.587  1.00  0.00     0.179 C 
ATOM     22  O   UNL     1      17.238 -15.970  16.158  1.00  0.00    -0.362 OA
ATOM     23  C   UNL     1      18.088 -15.184  18.844  1.00  0.00     0.177 C 
ATOM     24  C   UNL     1      18.311 -15.043  16.283  1.00  0.00     0.176 C 
ATOM     25  C   UNL     1      18.273 -14.256  17.623  1.00  0.00     0.177 C 
BRANCH  21  26
ATOM     26  O   UNL     1      15.715 -15.446  18.567  1.00  0.00    -0.387 OA
ATOM     27  H   UNL     1      15.011 -16.082  18.274  1.00  0.00     0.211 HD
ENDBRANCH  21  26
BRANCH  23  28
ATOM     28  O   UNL     1      17.814 -14.426  19.996  1.00  0.00    -0.387 OA
ATOM     29  H   UNL     1      17.101 -14.906  20.494  1.00  0.00     0.211 HD
ENDBRANCH  23  28
BRANCH  24  30
ATOM     30  C   UNL     1      19.673 -15.664  15.890  1.00  0.00     0.191 C 
BRANCH  30  31
ATOM     31  O   UNL     1      20.559 -14.708  15.379  1.00  0.00    -0.394 OA
ATOM     32  H   UNL     1      21.041 -15.147  14.632  1.00  0.00     0.210 HD
ENDBRANCH  30  31
ENDBRANCH  24  30
BRANCH  25  33
ATOM     33  O   UNL     1      19.398 -13.421  17.763  1.00  0.00    -0.388 OA
ATOM     34  H   UNL     1      19.105 -12.577  18.193  1.00  0.00     0.211 HD
ENDBRANCH  25  33
ENDBRANCH  11  20
BRANCH  10  35
ATOM     35  O   UNL     1      14.580 -16.178  16.069  1.00  0.00    -0.507 OA
ATOM     36  H   UNL     1      14.646 -15.429  16.748  1.00  0.00     0.293 HD
ENDBRANCH  10  35
TORSDOF 9
ENDMDL
MODEL 7
REMARK VINA RESULT:    -6.185      2.022      4.158
REMARK INTER + INTRA:          -9.259
REMARK INTER:                  -8.967
REMARK INTRA:                  -0.292
REMARK UNBOUND:                -0.905
REMARK SMILES O=c1c(-c2ccc(O)cc2)coc2c([C@H]3O[C@H](CO)[C@H](O)[C@@H](O)[C@H]3O)c(O)ccc12
REMARK SMILES IDX 3 1 11 2 12 3 13 4 30 5 2 6 1 7 29 8 28 9 26 10 14 11 4 12
REMARK SMILES IDX 5 13 6 14 7 15 10 16 9 17 8 18 15 20 24 21 16 22 22 23 17 24
REMARK SMILES IDX 20 25 25 26 23 28 18 30 19 31 21 33 27 35
REMARK H PARENT 8 19 25 27 23 29 19 32 21 34 27 36
REMARK Flexibility Score: inf
ROOT
ATOM      1  C   UNL     1      16.141 -19.892  17.107  1.00  0.00     0.065 A 
ATOM      2  C   UNL     1      17.452 -19.429  16.928  1.00  0.00     0.208 A 
ATOM      3  O   UNL     1      17.694 -18.148  16.680  1.00  0.00    -0.463 OA
ATOM      4  C   UNL     1      16.735 -17.230  16.584  1.00  0.00     0.147 A 
ATOM      5  C   UNL     1      15.382 -17.611  16.752  1.00  0.00     0.066 A 
ATOM      6  C   UNL     1      15.090 -18.962  17.006  1.00  0.00     0.200 A 
ATOM      7  O   UNL     1      13.892 -19.343  17.125  1.00  0.00    -0.288 OA
ATOM      8  C   UNL     1      14.374 -16.641  16.664  1.00  0.00     0.020 A 
ATOM      9  C   UNL     1      14.701 -15.307  16.436  1.00  0.00     0.047 A 
ATOM     10  C   UNL     1      16.035 -14.915  16.272  1.00  0.00     0.125 A 
ATOM     11  C   UNL     1      17.070 -15.881  16.314  1.00  0.00     0.069 A 
ENDROOT
BRANCH   1  12
ATOM     12  C   UNL     1      15.894 -21.328  17.391  1.00  0.00    -0.011 A 
ATOM     13  C   UNL     1      16.883 -22.118  18.004  1.00  0.00     0.013 A 
ATOM     14  C   UNL     1      16.647 -23.471  18.268  1.00  0.00     0.047 A 
ATOM     15  C   UNL     1      15.420 -24.051  17.923  1.00  0.00     0.115 A 
ATOM     16  C   UNL     1      14.670 -21.923  17.038  1.00  0.00     0.013 A 
ATOM     17  C   UNL     1      14.434 -23.274  17.308  1.00  0.00     0.047 A 
BRANCH  15  18
ATOM     18  O   UNL     1      15.171 -25.397  18.187  1.00  0.00    -0.508 OA
ATOM     19  H   UNL     1      14.556 -25.685  18.939  1.00  0.00     0.293 HD
ENDBRANCH  15  18
ENDBRANCH   1  12
BRANCH  11  20
ATOM     20  C   UNL     1      18.532 -15.482  16.143  1.00  0.00     0.188 C 
ATOM     21  C   UNL     1      19.114 -14.984  17.484  1.00  0.00     0.179 C 
ATOM     22  O   UNL     1      18.653 -14.503  15.120  1.00  0.00    -0.362 OA
ATOM     23  C   UNL     1      20.598 -14.645  17.300  1.00  0.00     0.177 C 
ATOM     24  C   UNL     1      20.003 -14.145  14.845  1.00  0.00     0.176 C 
ATOM     25  C   UNL     1      20.769 -13.672  16.112  1.00  0.00     0.177 C 
BRANCH  21  26
ATOM     26  O   UNL     1      18.422 -13.844  17.933  1.00  0.00    -0.387 OA
ATOM     27  H   UNL     1      18.856 -13.552  18.776  1.00  0.00     0.211 HD
ENDBRANCH  21  26
BRANCH  23  28
ATOM     28  O   UNL     1      21.094 -14.066  18.481  1.00  0.00    -0.387 OA
ATOM     29  H   UNL     1      20.551 -14.428  19.229  1.00  0.00     0.211 HD
ENDBRANCH  23  28
BRANCH  24  30
ATOM     30  C   UNL     1      20.720 -15.191  13.960  1.00  0.00     0.191 C 
BRANCH  30  31
ATOM     31  O   UNL     1      20.666 -14.857  12.601  1.00  0.00    -0.394 OA
ATOM     32  H   UNL     1      19.824 -14.349  12.473  1.00  0.00     0.210 HD
ENDBRANCH  30  31
ENDBRANCH  24  30
BRANCH  25  33
ATOM     33  O   UNL     1      22.125 -13.419  15.831  1.00  0.00    -0.388 OA
ATOM     34  H   UNL     1      22.170 -12.750  15.101  1.00  0.00     0.211 HD
ENDBRANCH  25  33
ENDBRANCH  11  20
BRANCH  10  35
ATOM     35  O   UNL     1      16.330 -13.566  16.072  1.00  0.00    -0.507 OA
ATOM     36  H   UNL     1      15.609 -12.856  16.089  1.00  0.00     0.293 HD
ENDBRANCH  10  35
TORSDOF 9
ENDMDL
MODEL 8
REMARK VINA RESULT:    -6.161      2.827      3.677
REMARK INTER + INTRA:          -9.227
REMARK INTER:                  -8.241
REMARK INTRA:                  -0.986
REMARK UNBOUND:                -0.905
REMARK SMILES O=c1c(-c2ccc(O)cc2)coc2c([C@H]3O[C@H](CO)[C@H](O)[C@@H](O)[C@H]3O)c(O)ccc12
REMARK SMILES IDX 3 1 11 2 12 3 13 4 30 5 2 6 1 7 29 8 28 9 26 10 14 11 4 12
REMARK SMILES IDX 5 13 6 14 7 15 10 16 9 17 8 18 15 20 24 21 16 22 22 23 17 24
REMARK SMILES IDX 20 25 25 26 23 28 18 30 19 31 21 33 27 35
REMARK H PARENT 8 19 25 27 23 29 19 32 21 34 27 36
REMARK Flexibility Score: inf
ROOT
ATOM      1  C   UNL     1      14.753 -18.797  19.962  1.00  0.00     0.065 A 
ATOM      2  C   UNL     1      15.537 -17.795  20.552  1.00  0.00     0.208 A 
ATOM      3  O   UNL     1      15.910 -16.726  19.860  1.00  0.00    -0.463 OA
ATOM      4  C   UNL     1      15.578 -16.530  18.586  1.00  0.00     0.147 A 
ATOM      5  C   UNL     1      14.788 -17.492  17.913  1.00  0.00     0.066 A 
ATOM      6  C   UNL     1      14.384 -18.641  18.614  1.00  0.00     0.200 A 
ATOM      7  O   UNL     1      13.708 -19.537  18.034  1.00  0.00    -0.288 OA
ATOM      8  C   UNL     1      14.426 -17.278  16.575  1.00  0.00     0.020 A 
ATOM      9  C   UNL     1      14.823 -16.116  15.918  1.00  0.00     0.047 A 
ATOM     10  C   UNL     1      15.602 -15.154  16.573  1.00  0.00     0.125 A 
ATOM     11  C   UNL     1      16.015 -15.365  17.911  1.00  0.00     0.069 A 
ENDROOT
BRANCH   1  12
ATOM     12  C   UNL     1      14.342 -19.981  20.759  1.00  0.00    -0.011 A 
ATOM     13  C   UNL     1      13.510 -19.835  21.883  1.00  0.00     0.013 A 
ATOM     14  C   UNL     1      13.127 -20.952  22.631  1.00  0.00     0.047 A 
ATOM     15  C   UNL     1      13.569 -22.230  22.264  1.00  0.00     0.115 A 
ATOM     16  C   UNL     1      14.791 -21.265  20.406  1.00  0.00     0.013 A 
ATOM     17  C   UNL     1      14.402 -22.382  21.151  1.00  0.00     0.047 A 
BRANCH  15  18
ATOM     18  O   UNL     1      13.189 -23.351  22.998  1.00  0.00    -0.508 OA
ATOM     19  H   UNL     1      13.782 -24.171  23.059  1.00  0.00     0.293 HD
ENDBRANCH  15  18
ENDBRANCH   1  12
BRANCH  11  20
ATOM     20  C   UNL     1      16.860 -14.332  18.650  1.00  0.00     0.188 C 
ATOM     21  C   UNL     1      15.962 -13.211  19.220  1.00  0.00     0.179 C 
ATOM     22  O   UNL     1      17.863 -13.815  17.786  1.00  0.00    -0.362 OA
ATOM     23  C   UNL     1      16.826 -12.218  20.007  1.00  0.00     0.177 C 
ATOM     24  C   UNL     1      18.746 -12.906  18.435  1.00  0.00     0.176 C 
ATOM     25  C   UNL     1      17.998 -11.731  19.126  1.00  0.00     0.177 C 
BRANCH  21  26
ATOM     26  O   UNL     1      15.293 -12.536  18.182  1.00  0.00    -0.387 OA
ATOM     27  H   UNL     1      15.538 -12.989  17.334  1.00  0.00     0.211 HD
ENDBRANCH  21  26
BRANCH  23  28
ATOM     28  O   UNL     1      16.034 -11.129  20.410  1.00  0.00    -0.387 OA
ATOM     29  H   UNL     1      15.762 -11.303  21.349  1.00  0.00     0.211 HD
ENDBRANCH  23  28
BRANCH  24  30
ATOM     30  C   UNL     1      19.817 -13.631  19.283  1.00  0.00     0.191 C 
BRANCH  30  31
ATOM     31  O   UNL     1      20.986 -12.872  19.415  1.00  0.00    -0.394 OA
ATOM     32  H   UNL     1      20.790 -12.175  20.091  1.00  0.00     0.210 HD
ENDBRANCH  30  31
ENDBRANCH  24  30
BRANCH  25  33
ATOM     33  O   UNL     1      18.885 -10.905  19.840  1.00  0.00    -0.388 OA
ATOM     34  H   UNL     1      19.562 -11.482  20.277  1.00  0.00     0.211 HD
ENDBRANCH  25  33
ENDBRANCH  11  20
BRANCH  10  35
ATOM     35  O   UNL     1      15.958 -13.988  15.894  1.00  0.00    -0.507 OA
ATOM     36  H   UNL     1      16.472 -13.243  16.349  1.00  0.00     0.293 HD
ENDBRANCH  10  35
TORSDOF 9
ENDMDL
MODEL 9
REMARK VINA RESULT:    -5.905      3.111      6.170
REMARK INTER + INTRA:          -8.882
REMARK INTER:                  -7.729
REMARK INTRA:                  -1.153
REMARK UNBOUND:                -0.905
REMARK SMILES O=c1c(-c2ccc(O)cc2)coc2c([C@H]3O[C@H](CO)[C@H](O)[C@@H](O)[C@H]3O)c(O)ccc12
REMARK SMILES IDX 3 1 11 2 12 3 13 4 30 5 2 6 1 7 29 8 28 9 26 10 14 11 4 12
REMARK SMILES IDX 5 13 6 14 7 15 10 16 9 17 8 18 15 20 24 21 16 22 22 23 17 24
REMARK SMILES IDX 20 25 25 26 23 28 18 30 19 31 21 33 27 35
REMARK H PARENT 8 19 25 27 23 29 19 32 21 34 27 36
REMARK Flexibility Score: inf
ROOT
ATOM      1  C   UNL     1      16.362 -24.004  18.942  1.00  0.00     0.065 A 
ATOM      2  C   UNL     1      16.792 -22.855  18.264  1.00  0.00     0.208 A 
ATOM      3  O   UNL     1      16.364 -21.651  18.623  1.00  0.00    -0.463 OA
ATOM      4  C   UNL     1      15.513 -21.449  19.627  1.00  0.00     0.147 A 
ATOM      5  C   UNL     1      15.029 -22.555  20.366  1.00  0.00     0.066 A 
ATOM      6  C   UNL     1      15.455 -23.845  20.006  1.00  0.00     0.200 A 
ATOM      7  O   UNL     1      15.014 -24.856  20.620  1.00  0.00    -0.288 OA
ATOM      8  C   UNL     1      14.144 -22.341  21.433  1.00  0.00     0.020 A 
ATOM      9  C   UNL     1      13.762 -21.047  21.779  1.00  0.00     0.047 A 
ATOM     10  C   UNL     1      14.237 -19.944  21.059  1.00  0.00     0.125 A 
ATOM     11  C   UNL     1      15.098 -20.136  19.951  1.00  0.00     0.069 A 
ENDROOT
BRANCH   1  12
ATOM     12  C   UNL     1      16.861 -25.340  18.527  1.00  0.00    -0.011 A 
ATOM     13  C   UNL     1      17.902 -25.967  19.234  1.00  0.00     0.013 A 
ATOM     14  C   UNL     1      18.370 -27.224  18.838  1.00  0.00     0.047 A 
ATOM     15  C   UNL     1      17.803 -27.870  17.733  1.00  0.00     0.115 A 
ATOM     16  C   UNL     1      16.306 -25.990  17.411  1.00  0.00     0.013 A 
ATOM     17  C   UNL     1      16.771 -27.249  17.021  1.00  0.00     0.047 A 
BRANCH  15  18
ATOM     18  O   UNL     1      18.257 -29.125  17.333  1.00  0.00    -0.508 OA
ATOM     19  H   UNL     1      17.952 -29.547  16.463  1.00  0.00     0.293 HD
ENDBRANCH  15  18
ENDBRANCH   1  12
BRANCH  11  20
ATOM     20  C   UNL     1      15.634 -18.952  19.152  1.00  0.00     0.188 C 
ATOM     21  C   UNL     1      16.899 -18.377  19.826  1.00  0.00     0.179 C 
ATOM     22  O   UNL     1      14.621 -17.966  19.004  1.00  0.00    -0.362 OA
ATOM     23  C   UNL     1      17.452 -17.228  18.975  1.00  0.00     0.177 C 
ATOM     24  C   UNL     1      15.025 -16.868  18.194  1.00  0.00     0.176 C 
ATOM     25  C   UNL     1      16.334 -16.198  18.697  1.00  0.00     0.177 C 
BRANCH  21  26
ATOM     26  O   UNL     1      16.602 -17.906  21.119  1.00  0.00    -0.387 OA
ATOM     27  H   UNL     1      15.784 -17.348  21.045  1.00  0.00     0.211 HD
ENDBRANCH  21  26
BRANCH  23  28
ATOM     28  O   UNL     1      18.520 -16.617  19.653  1.00  0.00    -0.387 OA
ATOM     29  H   UNL     1      18.319 -15.645  19.692  1.00  0.00     0.211 HD
ENDBRANCH  23  28
BRANCH  24  30
ATOM     30  C   UNL     1      14.958 -17.196  16.683  1.00  0.00     0.191 C 
BRANCH  30  31
ATOM     31  O   UNL     1      14.906 -16.040  15.895  1.00  0.00    -0.394 OA
ATOM     32  H   UNL     1      14.143 -15.506  16.235  1.00  0.00     0.210 HD
ENDBRANCH  30  31
ENDBRANCH  24  30
BRANCH  25  33
ATOM     33  O   UNL     1      16.762 -15.181  17.824  1.00  0.00    -0.388 OA
ATOM     34  H   UNL     1      17.726 -15.316  17.639  1.00  0.00     0.211 HD
ENDBRANCH  25  33
ENDBRANCH  11  20
BRANCH  10  35
ATOM     35  O   UNL     1      13.856 -18.660  21.449  1.00  0.00    -0.507 OA
ATOM     36  H   UNL     1      14.538 -17.954  21.697  1.00  0.00     0.293 HD
ENDBRANCH  10  35
TORSDOF 9
ENDMDL
