MODEL 1
REMARK VINA RESULT:    -3.521      0.000      0.000
REMARK INTER + INTRA:          -4.232
REMARK INTER:                  -4.138
REMARK INTRA:                  -0.094
REMARK UNBOUND:                -0.094
REMARK SMILES CCCCC(=O)[O-]
REMARK SMILES IDX 4 1 5 2 6 3 7 4 3 5 2 6 1 7
REMARK H PARENT
REMARK Flexibility Score: inf
ROOT
ATOM      1  C   UNL     1      50.124  57.619  93.208  1.00  0.00     0.053 C 
ENDROOT
BRANCH   1   2
ATOM      2  C   UNL     1      50.467  57.983  94.621  1.00  0.00     0.041 C 
ATOM      3  O   UNL     1      49.743  58.789  95.260  1.00  0.00    -0.550 OA
ATOM      4  O   UNL     1      51.604  57.455  95.218  1.00  0.00    -0.550 OA
ENDBRANCH   1   2
BRANCH   1   5
ATOM      5  C   UNL     1      51.154  56.656  92.597  1.00  0.00     0.006 C 
BRANCH   5   6
ATOM      6  C   UNL     1      51.967  57.257  91.436  1.00  0.00    -0.003 C 
ATOM      7  C   UNL     1      52.905  58.376  91.885  1.00  0.00     0.004 C 
ENDBRANCH   5   6
ENDBRANCH   1   5
TORSDOF 3
ENDMDL
MODEL 2
REMARK VINA RESULT:    -3.516      1.969      3.250
REMARK INTER + INTRA:          -4.226
REMARK INTER:                  -4.120
REMARK INTRA:                  -0.106
REMARK UNBOUND:                -0.094
REMARK SMILES CCCCC(=O)[O-]
REMARK SMILES IDX 4 1 5 2 6 3 7 4 3 5 2 6 1 7
REMARK H PARENT
REMARK Flexibility Score: inf
ROOT
ATOM      1  C   UNL     1      51.883  57.221  91.688  1.00  0.00     0.053 C 
ENDROOT
BRANCH   1   2
ATOM      2  C   UNL     1      52.884  58.188  92.244  1.00  0.00     0.041 C 
ATOM      3  O   UNL     1      53.195  59.220  91.595  1.00  0.00    -0.550 OA
ATOM      4  O   UNL     1      53.494  57.931  93.464  1.00  0.00    -0.550 OA
ENDBRANCH   1   2
BRANCH   1   5
ATOM      5  C   UNL     1      50.678  57.040  92.624  1.00  0.00     0.006 C 
BRANCH   5   6
ATOM      6  C   UNL     1      50.127  58.357  93.202  1.00  0.00    -0.003 C 
ATOM      7  C   UNL     1      50.029  58.341  94.727  1.00  0.00     0.004 C 
ENDBRANCH   5   6
ENDBRANCH   1   5
TORSDOF 3
ENDMDL
MODEL 3
REMARK VINA RESULT:    -3.489      1.498      2.404
REMARK INTER + INTRA:          -4.195
REMARK INTER:                  -4.101
REMARK INTRA:                  -0.094
REMARK UNBOUND:                -0.094
REMARK SMILES CCCCC(=O)[O-]
REMARK SMILES IDX 4 1 5 2 6 3 7 4 3 5 2 6 1 7
REMARK H PARENT
REMARK Flexibility Score: inf
ROOT
ATOM      1  C   UNL     1      53.123  57.036  94.027  1.00  0.00     0.053 C 
ENDROOT
BRANCH   1   2
ATOM      2  C   UNL     1      52.117  57.014  95.138  1.00  0.00     0.041 C 
ATOM      3  O   UNL     1      52.318  56.308  96.160  1.00  0.00    -0.550 OA
ATOM      4  O   UNL     1      50.944  57.748  95.027  1.00  0.00    -0.550 OA
ENDBRANCH   1   2
BRANCH   1   5
ATOM      5  C   UNL     1      53.177  58.404  93.329  1.00  0.00     0.006 C 
BRANCH   5   6
ATOM      6  C   UNL     1      52.831  58.360  91.829  1.00  0.00    -0.003 C 
ATOM      7  C   UNL     1      51.922  57.187  91.464  1.00  0.00     0.004 C 
ENDBRANCH   5   6
ENDBRANCH   1   5
TORSDOF 3
ENDMDL
MODEL 4
REMARK VINA RESULT:    -3.475      1.432      1.831
REMARK INTER + INTRA:          -4.178
REMARK INTER:                  -4.055
REMARK INTRA:                  -0.123
REMARK UNBOUND:                -0.094
REMARK SMILES CCCCC(=O)[O-]
REMARK SMILES IDX 4 1 5 2 6 3 7 4 3 5 2 6 1 7
REMARK H PARENT
REMARK Flexibility Score: inf
ROOT
ATOM      1  C   UNL     1      51.656  57.300  94.975  1.00  0.00     0.053 C 
ENDROOT
BRANCH   1   2
ATOM      2  C   UNL     1      50.417  57.973  94.466  1.00  0.00     0.041 C 
ATOM      3  O   UNL     1      49.811  58.810  95.184  1.00  0.00    -0.550 OA
ATOM      4  O   UNL     1      49.917  57.650  93.211  1.00  0.00    -0.550 OA
ENDBRANCH   1   2
BRANCH   1   5
ATOM      5  C   UNL     1      52.676  57.050  93.853  1.00  0.00     0.006 C 
BRANCH   5   6
ATOM      6  C   UNL     1      53.383  58.322  93.350  1.00  0.00    -0.003 C 
ATOM      7  C   UNL     1      53.125  58.599  91.870  1.00  0.00     0.004 C 
ENDBRANCH   5   6
ENDBRANCH   1   5
TORSDOF 3
ENDMDL
MODEL 5
REMARK VINA RESULT:    -3.374      2.227      3.461
REMARK INTER + INTRA:          -4.060
REMARK INTER:                  -3.963
REMARK INTRA:                  -0.097
REMARK UNBOUND:                -0.094
REMARK SMILES CCCCC(=O)[O-]
REMARK SMILES IDX 4 1 5 2 6 3 7 4 3 5 2 6 1 7
REMARK H PARENT
REMARK Flexibility Score: inf
ROOT
ATOM      1  C   UNL     1      50.165  57.661  92.989  1.00  0.00     0.053 C 
ENDROOT
BRANCH   1   2
ATOM      2  C   UNL     1      51.434  57.534  92.201  1.00  0.00     0.041 C 
ATOM      3  O   UNL     1      51.437  56.921  91.102  1.00  0.00    -0.550 OA
ATOM      4  O   UNL     1      52.616  58.066  92.696  1.00  0.00    -0.550 OA
ENDBRANCH   1   2
BRANCH   1   5
ATOM      5  C   UNL     1      50.439  57.948  94.474  1.00  0.00     0.006 C 
BRANCH   5   6
ATOM      6  C   UNL     1      49.724  59.200  95.015  1.00  0.00    -0.003 C 
ATOM      7  C   UNL     1      49.969  60.441  94.158  1.00  0.00     0.004 C 
ENDBRANCH   5   6
ENDBRANCH   1   5
TORSDOF 3
ENDMDL
MODEL 6
REMARK VINA RESULT:    -3.367      2.558      3.447
REMARK INTER + INTRA:          -4.051
REMARK INTER:                  -4.069
REMARK INTRA:                   0.019
REMARK UNBOUND:                -0.094
REMARK SMILES CCCCC(=O)[O-]
REMARK SMILES IDX 4 1 5 2 6 3 7 4 3 5 2 6 1 7
REMARK H PARENT
REMARK Flexibility Score: inf
ROOT
ATOM      1  C   UNL     1      52.811  58.270  92.290  1.00  0.00     0.053 C 
ENDROOT
BRANCH   1   2
ATOM      2  C   UNL     1      51.684  57.392  91.837  1.00  0.00     0.041 C 
ATOM      3  O   UNL     1      50.527  57.555  92.305  1.00  0.00    -0.550 OA
ATOM      4  O   UNL     1      51.920  56.375  90.922  1.00  0.00    -0.550 OA
ENDBRANCH   1   2
BRANCH   1   5
ATOM      5  C   UNL     1      53.159  58.040  93.769  1.00  0.00     0.006 C 
BRANCH   5   6
ATOM      6  C   UNL     1      52.897  56.604  94.261  1.00  0.00    -0.003 C 
ATOM      7  C   UNL     1      52.290  56.559  95.663  1.00  0.00     0.004 C 
ENDBRANCH   5   6
ENDBRANCH   1   5
TORSDOF 3
ENDMDL
MODEL 7
REMARK VINA RESULT:    -3.348      2.118      3.109
REMARK INTER + INTRA:          -4.029
REMARK INTER:                  -3.949
REMARK INTRA:                  -0.081
REMARK UNBOUND:                -0.094
REMARK SMILES CCCCC(=O)[O-]
REMARK SMILES IDX 4 1 5 2 6 3 7 4 3 5 2 6 1 7
REMARK H PARENT
REMARK Flexibility Score: inf
ROOT
ATOM      1  C   UNL     1      50.886  57.794  93.839  1.00  0.00     0.053 C 
ENDROOT
BRANCH   1   2
ATOM      2  C   UNL     1      52.213  57.537  94.487  1.00  0.00     0.041 C 
ATOM      3  O   UNL     1      53.269  57.984  93.967  1.00  0.00    -0.550 OA
ATOM      4  O   UNL     1      52.284  56.778  95.647  1.00  0.00    -0.550 OA
ENDBRANCH   1   2
BRANCH   1   5
ATOM      5  C   UNL     1      49.859  58.352  94.836  1.00  0.00     0.006 C 
BRANCH   5   6
ATOM      6  C   UNL     1      49.726  59.886  94.811  1.00  0.00    -0.003 C 
ATOM      7  C   UNL     1      50.153  60.497  93.477  1.00  0.00     0.004 C 
ENDBRANCH   5   6
ENDBRANCH   1   5
TORSDOF 3
ENDMDL
MODEL 8
REMARK VINA RESULT:    -3.326      2.044      2.538
REMARK INTER + INTRA:          -4.003
REMARK INTER:                  -3.868
REMARK INTRA:                  -0.135
REMARK UNBOUND:                -0.094
REMARK SMILES CCCCC(=O)[O-]
REMARK SMILES IDX 4 1 5 2 6 3 7 4 3 5 2 6 1 7
REMARK H PARENT
REMARK Flexibility Score: inf
ROOT
ATOM      1  C   UNL     1      50.078  59.119  94.515  1.00  0.00     0.053 C 
ENDROOT
BRANCH   1   2
ATOM      2  C   UNL     1      50.394  60.258  93.595  1.00  0.00     0.041 C 
ATOM      3  O   UNL     1      49.472  60.999  93.164  1.00  0.00    -0.550 OA
ATOM      4  O   UNL     1      51.703  60.480  93.189  1.00  0.00    -0.550 OA
ENDBRANCH   1   2
BRANCH   1   5
ATOM      5  C   UNL     1      50.789  57.824  94.092  1.00  0.00     0.006 C 
BRANCH   5   6
ATOM      6  C   UNL     1      50.293  57.242  92.756  1.00  0.00    -0.003 C 
ATOM      7  C   UNL     1      51.414  57.065  91.733  1.00  0.00     0.004 C 
ENDBRANCH   5   6
ENDBRANCH   1   5
TORSDOF 3
ENDMDL
MODEL 9
REMARK VINA RESULT:    -3.294      2.439      3.309
REMARK INTER + INTRA:          -3.966
REMARK INTER:                  -3.890
REMARK INTRA:                  -0.076
REMARK UNBOUND:                -0.094
REMARK SMILES CCCCC(=O)[O-]
REMARK SMILES IDX 4 1 5 2 6 3 7 4 3 5 2 6 1 7
REMARK H PARENT
REMARK Flexibility Score: inf
ROOT
ATOM      1  C   UNL     1      52.799  58.710  92.602  1.00  0.00     0.053 C 
ENDROOT
BRANCH   1   2
ATOM      2  C   UNL     1      51.926  59.851  93.031  1.00  0.00     0.041 C 
ATOM      3  O   UNL     1      52.367  61.030  93.003  1.00  0.00    -0.550 OA
ATOM      4  O   UNL     1      50.639  59.608  93.489  1.00  0.00    -0.550 OA
ENDBRANCH   1   2
BRANCH   1   5
ATOM      5  C   UNL     1      53.369  57.941  93.804  1.00  0.00     0.006 C 
BRANCH   5   6
ATOM      6  C   UNL     1      52.570  56.680  94.182  1.00  0.00    -0.003 C 
ATOM      7  C   UNL     1      52.277  56.589  95.679  1.00  0.00     0.004 C 
ENDBRANCH   5   6
ENDBRANCH   1   5
TORSDOF 3
ENDMDL
