MODEL 1
REMARK VINA RESULT:     1.985      0.000      0.000
REMARK INTER + INTRA:           2.729
REMARK INTER:                   3.029
REMARK INTRA:                  -0.300
REMARK UNBOUND:                -0.300
REMARK SMILES O=C([O-])CCCCCCCCC(=O)[O-]
REMARK SMILES IDX 7 1 6 2 5 3 4 4 2 5 1 6 3 7 8 8 9 9 10 10 11 11 12 12 13 13
REMARK SMILES IDX 14 14
REMARK H PARENT
REMARK Flexibility Score: inf
ROOT
ATOM      1  C   UNL     1     -18.994  17.568  16.930  1.00  0.00     0.000 C 
ENDROOT
BRANCH   1   2
ATOM      2  C   UNL     1     -19.124  17.109  15.469  1.00  0.00     0.000 C 
BRANCH   2   3
ATOM      3  C   UNL     1     -17.857  17.397  14.644  1.00  0.00     0.006 C 
BRANCH   3   4
ATOM      4  C   UNL     1     -18.176  18.116  13.326  1.00  0.00     0.053 C 
BRANCH   4   5
ATOM      5  C   UNL     1     -18.382  17.152  12.199  1.00  0.00     0.041 C 
ATOM      6  O   UNL     1     -18.045  15.945  12.327  1.00  0.00    -0.550 OA
ATOM      7  O   UNL     1     -18.975  17.578  11.017  1.00  0.00    -0.550 OA
ENDBRANCH   4   5
ENDBRANCH   3   4
ENDBRANCH   2   3
ENDBRANCH   1   2
BRANCH   1   8
ATOM      8  C   UNL     1     -18.841  16.389  17.909  1.00  0.00     0.000 C 
BRANCH   8   9
ATOM      9  C   UNL     1     -19.037  16.811  19.374  1.00  0.00     0.000 C 
BRANCH   9  10
ATOM     10  C   UNL     1     -19.119  18.335  19.543  1.00  0.00     0.006 C 
BRANCH  10  11
ATOM     11  C   UNL     1     -18.770  18.746  20.977  1.00  0.00     0.053 C 
BRANCH  11  12
ATOM     12  C   UNL     1     -18.626  20.233  21.076  1.00  0.00     0.041 C 
ATOM     13  O   UNL     1     -19.087  20.976  20.171  1.00  0.00    -0.550 OA
ATOM     14  O   UNL     1     -17.939  20.794  22.145  1.00  0.00    -0.550 OA
ENDBRANCH  11  12
ENDBRANCH  10  11
ENDBRANCH   9  10
ENDBRANCH   8   9
ENDBRANCH   1   8
TORSDOF 9
ENDMDL
MODEL 2
REMARK VINA RESULT:     3.814      5.769      8.357
REMARK INTER + INTRA:           5.521
REMARK INTER:                   5.720
REMARK INTRA:                  -0.199
REMARK UNBOUND:                -0.300
REMARK SMILES O=C([O-])CCCCCCCCC(=O)[O-]
REMARK SMILES IDX 7 1 6 2 5 3 4 4 2 5 1 6 3 7 8 8 9 9 10 10 11 11 12 12 13 13
REMARK SMILES IDX 14 14
REMARK H PARENT
REMARK Flexibility Score: inf
ROOT
ATOM      1  C   UNL     1     -18.843  22.945  18.513  1.00  0.00     0.000 C 
ENDROOT
BRANCH   1   2
ATOM      2  C   UNL     1     -18.474  22.427  19.912  1.00  0.00     0.000 C 
BRANCH   2   3
ATOM      3  C   UNL     1     -19.123  21.067  20.228  1.00  0.00     0.006 C 
BRANCH   3   4
ATOM      4  C   UNL     1     -18.815  20.597  21.655  1.00  0.00     0.053 C 
BRANCH   4   5
ATOM      5  C   UNL     1     -18.241  19.213  21.676  1.00  0.00     0.041 C 
ATOM      6  O   UNL     1     -18.746  18.307  20.961  1.00  0.00    -0.550 OA
ATOM      7  O   UNL     1     -17.130  18.931  22.460  1.00  0.00    -0.550 OA
ENDBRANCH   4   5
ENDBRANCH   3   4
ENDBRANCH   2   3
ENDBRANCH   1   2
BRANCH   1   8
ATOM      8  C   UNL     1     -17.943  24.109  18.058  1.00  0.00     0.000 C 
BRANCH   8   9
ATOM      9  C   UNL     1     -18.594  24.961  16.956  1.00  0.00     0.000 C 
BRANCH   9  10
ATOM     10  C   UNL     1     -17.707  26.136  16.517  1.00  0.00     0.006 C 
BRANCH  10  11
ATOM     11  C   UNL     1     -16.564  25.652  15.618  1.00  0.00     0.053 C 
BRANCH  11  12
ATOM     12  C   UNL     1     -15.273  25.638  16.374  1.00  0.00     0.041 C 
ATOM     13  O   UNL     1     -14.316  24.919  15.982  1.00  0.00    -0.550 OA
ATOM     14  O   UNL     1     -15.143  26.382  17.539  1.00  0.00    -0.550 OA
ENDBRANCH  11  12
ENDBRANCH  10  11
ENDBRANCH   9  10
ENDBRANCH   8   9
ENDBRANCH   1   8
TORSDOF 9
ENDMDL
MODEL 3
REMARK VINA RESULT:     4.970      1.350      1.944
REMARK INTER + INTRA:           7.284
REMARK INTER:                   7.592
REMARK INTRA:                  -0.308
REMARK UNBOUND:                -0.300
REMARK SMILES O=C([O-])CCCCCCCCC(=O)[O-]
REMARK SMILES IDX 7 1 6 2 5 3 4 4 2 5 1 6 3 7 8 8 9 9 10 10 11 11 12 12 13 13
REMARK SMILES IDX 14 14
REMARK H PARENT
REMARK Flexibility Score: inf
ROOT
ATOM      1  C   UNL     1     -18.159  16.937  18.864  1.00  0.00     0.000 C 
ENDROOT
BRANCH   1   2
ATOM      2  C   UNL     1     -19.124  17.550  17.836  1.00  0.00     0.000 C 
BRANCH   2   3
ATOM      3  C   UNL     1     -19.078  16.827  16.478  1.00  0.00     0.006 C 
BRANCH   3   4
ATOM      4  C   UNL     1     -19.071  17.809  15.299  1.00  0.00     0.053 C 
BRANCH   4   5
ATOM      5  C   UNL     1     -19.056  17.099  13.981  1.00  0.00     0.041 C 
ATOM      6  O   UNL     1     -19.011  15.841  13.938  1.00  0.00    -0.550 OA
ATOM      7  O   UNL     1     -19.125  17.824  12.798  1.00  0.00    -0.550 OA
ENDBRANCH   4   5
ENDBRANCH   3   4
ENDBRANCH   2   3
ENDBRANCH   1   2
BRANCH   1   8
ATOM      8  C   UNL     1     -18.838  16.655  20.217  1.00  0.00     0.000 C 
BRANCH   8   9
ATOM      9  C   UNL     1     -19.123  17.939  21.012  1.00  0.00     0.000 C 
BRANCH   9  10
ATOM     10  C   UNL     1     -17.851  18.751  21.299  1.00  0.00     0.006 C 
BRANCH  10  11
ATOM     11  C   UNL     1     -18.150  19.922  22.240  1.00  0.00     0.053 C 
BRANCH  11  12
ATOM     12  C   UNL     1     -18.127  21.216  21.489  1.00  0.00     0.041 C 
ATOM     13  O   UNL     1     -18.894  21.393  20.507  1.00  0.00    -0.550 OA
ATOM     14  O   UNL     1     -17.222  22.208  21.844  1.00  0.00    -0.550 OA
ENDBRANCH  11  12
ENDBRANCH  10  11
ENDBRANCH   9  10
ENDBRANCH   8   9
ENDBRANCH   1   8
TORSDOF 9
ENDMDL
