MODEL 1
REMARK VINA RESULT:    -4.782      0.000      0.000
REMARK INTER + INTRA:          -7.836
REMARK INTER:                  -6.879
REMARK INTRA:                  -0.957
REMARK UNBOUND:                -0.957
REMARK SMILES O=C(CO)[C@H](O)[C@H](O)[C@@H](O)CO
REMARK SMILES IDX 7 1 9 2 11 3 12 4 10 6 5 8 2 9 1 10 3 11 4 12 6 14 8 16
REMARK H PARENT 12 5 10 7 4 13 6 15 8 17
REMARK Flexibility Score: inf
ROOT
ATOM      1  C   UNL     1      -9.173   4.132  19.030  1.00  0.00     0.181 C 
ENDROOT
BRANCH   1   2
ATOM      2  C   UNL     1      -9.878   2.772  18.760  1.00  0.00     0.171 C 
BRANCH   2   3
ATOM      3  C   UNL     1     -11.337   2.954  18.294  1.00  0.00     0.190 C 
BRANCH   3   4
ATOM      4  O   UNL     1     -11.404   3.108  16.902  1.00  0.00    -0.394 OA
ATOM      5  H   UNL     1     -11.029   2.279  16.505  1.00  0.00     0.210 HD
ENDBRANCH   3   4
ENDBRANCH   2   3
BRANCH   2   6
ATOM      6  O   UNL     1      -9.820   1.924  19.881  1.00  0.00    -0.388 OA
ATOM      7  H   UNL     1      -9.348   2.407  20.608  1.00  0.00     0.211 HD
ENDBRANCH   2   6
ENDBRANCH   1   2
BRANCH   1   8
ATOM      8  C   UNL     1      -9.333   4.653  20.483  1.00  0.00     0.214 C 
BRANCH   8   9
ATOM      9  C   UNL     1     -10.024   5.998  20.515  1.00  0.00     0.189 C 
ATOM     10  O   UNL     1     -11.231   6.070  20.335  1.00  0.00    -0.294 OA
BRANCH   9  11
ATOM     11  C   UNL     1      -9.248   7.254  20.801  1.00  0.00     0.234 C 
BRANCH  11  12
ATOM     12  O   UNL     1      -8.027   7.234  20.115  1.00  0.00    -0.388 OA
ATOM     13  H   UNL     1      -7.638   6.332  20.257  1.00  0.00     0.211 HD
ENDBRANCH  11  12
ENDBRANCH   9  11
ENDBRANCH   8   9
BRANCH   8  14
ATOM     14  O   UNL     1      -8.084   4.727  21.125  1.00  0.00    -0.382 OA
ATOM     15  H   UNL     1      -8.097   5.547  21.685  1.00  0.00     0.211 HD
ENDBRANCH   8  14
ENDBRANCH   1   8
BRANCH   1  16
ATOM     16  O   UNL     1      -9.577   5.110  18.103  1.00  0.00    -0.387 OA
ATOM     17  H   UNL     1      -8.849   5.225  17.439  1.00  0.00     0.211 HD
ENDBRANCH   1  16
TORSDOF 10
ENDMDL
MODEL 2
REMARK VINA RESULT:    -4.722      1.600      2.349
REMARK INTER + INTRA:          -7.749
REMARK INTER:                  -7.086
REMARK INTRA:                  -0.663
REMARK UNBOUND:                -0.957
REMARK SMILES O=C(CO)[C@H](O)[C@H](O)[C@@H](O)CO
REMARK SMILES IDX 7 1 9 2 11 3 12 4 10 6 5 8 2 9 1 10 3 11 4 12 6 14 8 16
REMARK H PARENT 12 5 10 7 4 13 6 15 8 17
REMARK Flexibility Score: inf
ROOT
ATOM      1  C   UNL     1     -10.393   3.491  19.669  1.00  0.00     0.181 C 
ENDROOT
BRANCH   1   2
ATOM      2  C   UNL     1      -9.603   2.511  18.753  1.00  0.00     0.171 C 
BRANCH   2   3
ATOM      3  C   UNL     1      -8.484   3.223  17.967  1.00  0.00     0.190 C 
BRANCH   3   4
ATOM      4  O   UNL     1      -7.890   2.354  17.040  1.00  0.00    -0.394 OA
ATOM      5  H   UNL     1      -7.983   2.781  16.149  1.00  0.00     0.210 HD
ENDBRANCH   3   4
ENDBRANCH   2   3
BRANCH   2   6
ATOM      6  O   UNL     1     -10.457   1.816  17.876  1.00  0.00    -0.388 OA
ATOM      7  H   UNL     1     -10.921   1.109  18.395  1.00  0.00     0.211 HD
ENDBRANCH   2   6
ENDBRANCH   1   2
BRANCH   1   8
ATOM      8  C   UNL     1     -10.353   4.969  19.202  1.00  0.00     0.214 C 
BRANCH   8   9
ATOM      9  C   UNL     1     -10.228   5.916  20.375  1.00  0.00     0.189 C 
ATOM     10  O   UNL     1     -11.189   6.115  21.105  1.00  0.00    -0.294 OA
BRANCH   9  11
ATOM     11  C   UNL     1      -8.921   6.595  20.680  1.00  0.00     0.234 C 
BRANCH  11  12
ATOM     12  O   UNL     1      -7.948   5.642  21.009  1.00  0.00    -0.388 OA
ATOM     13  H   UNL     1      -7.910   5.610  22.001  1.00  0.00     0.211 HD
ENDBRANCH  11  12
ENDBRANCH   9  11
ENDBRANCH   8   9
BRANCH   8  14
ATOM     14  O   UNL     1     -11.493   5.280  18.439  1.00  0.00    -0.382 OA
ATOM     15  H   UNL     1     -12.256   5.335  19.072  1.00  0.00     0.211 HD
ENDBRANCH   8  14
ENDBRANCH   1   8
BRANCH   1  16
ATOM     16  O   UNL     1      -9.981   3.380  21.010  1.00  0.00    -0.387 OA
ATOM     17  H   UNL     1     -10.766   3.557  21.590  1.00  0.00     0.211 HD
ENDBRANCH   1  16
TORSDOF 10
ENDMDL
MODEL 3
REMARK VINA RESULT:    -4.640      1.205      4.278
REMARK INTER + INTRA:          -7.632
REMARK INTER:                  -6.850
REMARK INTRA:                  -0.782
REMARK UNBOUND:                -0.957
REMARK SMILES O=C(CO)[C@H](O)[C@H](O)[C@@H](O)CO
REMARK SMILES IDX 7 1 9 2 11 3 12 4 10 6 5 8 2 9 1 10 3 11 4 12 6 14 8 16
REMARK H PARENT 12 5 10 7 4 13 6 15 8 17
REMARK Flexibility Score: inf
ROOT
ATOM      1  C   UNL     1      -9.495   4.902  19.138  1.00  0.00     0.181 C 
ENDROOT
BRANCH   1   2
ATOM      2  C   UNL     1      -9.170   5.349  20.593  1.00  0.00     0.171 C 
BRANCH   2   3
ATOM      3  C   UNL     1      -9.080   6.883  20.726  1.00  0.00     0.190 C 
BRANCH   3   4
ATOM      4  O   UNL     1      -7.827   7.350  20.305  1.00  0.00    -0.394 OA
ATOM      5  H   UNL     1      -7.861   8.341  20.353  1.00  0.00     0.210 HD
ENDBRANCH   3   4
ENDBRANCH   2   3
BRANCH   2   6
ATOM      6  O   UNL     1      -7.994   4.742  21.073  1.00  0.00    -0.388 OA
ATOM      7  H   UNL     1      -7.805   3.949  20.508  1.00  0.00     0.211 HD
ENDBRANCH   2   6
ENDBRANCH   1   2
BRANCH   1   8
ATOM      8  C   UNL     1      -9.995   3.438  19.020  1.00  0.00     0.214 C 
BRANCH   8   9
ATOM      9  C   UNL     1     -11.409   3.379  18.485  1.00  0.00     0.189 C 
ATOM     10  O   UNL     1     -12.125   4.369  18.540  1.00  0.00    -0.294 OA
BRANCH   9  11
ATOM     11  C   UNL     1     -11.939   2.124  17.851  1.00  0.00     0.234 C 
BRANCH  11  12
ATOM     12  O   UNL     1     -11.054   1.060  18.072  1.00  0.00    -0.388 OA
ATOM     13  H   UNL     1     -11.302   0.348  17.427  1.00  0.00     0.211 HD
ENDBRANCH  11  12
ENDBRANCH   9  11
ENDBRANCH   8   9
BRANCH   8  14
ATOM     14  O   UNL     1      -9.913   2.784  20.262  1.00  0.00    -0.382 OA
ATOM     15  H   UNL     1      -8.954   2.783  20.523  1.00  0.00     0.211 HD
ENDBRANCH   8  14
ENDBRANCH   1   8
BRANCH   1  16
ATOM     16  O   UNL     1      -8.403   5.127  18.279  1.00  0.00    -0.387 OA
ATOM     17  H   UNL     1      -8.626   4.747  17.391  1.00  0.00     0.211 HD
ENDBRANCH   1  16
TORSDOF 10
ENDMDL
MODEL 4
REMARK VINA RESULT:    -4.481      1.003      1.834
REMARK INTER + INTRA:          -7.403
REMARK INTER:                  -6.616
REMARK INTRA:                  -0.786
REMARK UNBOUND:                -0.957
REMARK SMILES O=C(CO)[C@H](O)[C@H](O)[C@@H](O)CO
REMARK SMILES IDX 7 1 9 2 11 3 12 4 10 6 5 8 2 9 1 10 3 11 4 12 6 14 8 16
REMARK H PARENT 12 5 10 7 4 13 6 15 8 17
REMARK Flexibility Score: inf
ROOT
ATOM      1  C   UNL     1      -9.094   4.053  19.097  1.00  0.00     0.181 C 
ENDROOT
BRANCH   1   2
ATOM      2  C   UNL     1      -9.771   2.683  18.798  1.00  0.00     0.171 C 
BRANCH   2   3
ATOM      3  C   UNL     1     -11.157   2.849  18.143  1.00  0.00     0.190 C 
BRANCH   3   4
ATOM      4  O   UNL     1     -11.035   3.213  16.794  1.00  0.00    -0.394 OA
ATOM      5  H   UNL     1     -10.097   3.510  16.663  1.00  0.00     0.210 HD
ENDBRANCH   3   4
ENDBRANCH   2   3
BRANCH   2   6
ATOM      6  O   UNL     1      -9.862   1.885  19.953  1.00  0.00    -0.388 OA
ATOM      7  H   UNL     1      -9.023   1.363  20.033  1.00  0.00     0.211 HD
ENDBRANCH   2   6
ENDBRANCH   1   2
BRANCH   1   8
ATOM      8  C   UNL     1      -9.342   4.583  20.534  1.00  0.00     0.214 C 
BRANCH   8   9
ATOM      9  C   UNL     1     -10.435   5.629  20.555  1.00  0.00     0.189 C 
ATOM     10  O   UNL     1     -10.228   6.740  20.088  1.00  0.00    -0.294 OA
BRANCH   9  11
ATOM     11  C   UNL     1     -11.794   5.309  21.114  1.00  0.00     0.234 C 
BRANCH  11  12
ATOM     12  O   UNL     1     -11.997   3.923  21.124  1.00  0.00    -0.388 OA
ATOM     13  H   UNL     1     -11.513   3.573  21.918  1.00  0.00     0.211 HD
ENDBRANCH  11  12
ENDBRANCH   9  11
ENDBRANCH   8   9
BRANCH   8  14
ATOM     14  O   UNL     1      -8.156   5.102  21.083  1.00  0.00    -0.382 OA
ATOM     15  H   UNL     1      -8.404   5.538  21.941  1.00  0.00     0.211 HD
ENDBRANCH   8  14
ENDBRANCH   1   8
BRANCH   1  16
ATOM     16  O   UNL     1      -9.453   5.019  18.139  1.00  0.00    -0.387 OA
ATOM     17  H   UNL     1      -9.315   4.627  17.239  1.00  0.00     0.211 HD
ENDBRANCH   1  16
TORSDOF 10
ENDMDL
MODEL 5
REMARK VINA RESULT:    -4.458      1.422      2.098
REMARK INTER + INTRA:          -7.370
REMARK INTER:                  -6.406
REMARK INTRA:                  -0.963
REMARK UNBOUND:                -0.957
REMARK SMILES O=C(CO)[C@H](O)[C@H](O)[C@@H](O)CO
REMARK SMILES IDX 7 1 9 2 11 3 12 4 10 6 5 8 2 9 1 10 3 11 4 12 6 14 8 16
REMARK H PARENT 12 5 10 7 4 13 6 15 8 17
REMARK Flexibility Score: inf
ROOT
ATOM      1  C   UNL     1     -10.569   2.956  19.717  1.00  0.00     0.181 C 
ENDROOT
BRANCH   1   2
ATOM      2  C   UNL     1     -11.075   3.190  18.264  1.00  0.00     0.171 C 
BRANCH   2   3
ATOM      3  C   UNL     1     -12.092   2.118  17.821  1.00  0.00     0.190 C 
BRANCH   3   4
ATOM      4  O   UNL     1     -11.491   0.853  17.755  1.00  0.00    -0.394 OA
ATOM      5  H   UNL     1     -10.541   0.975  18.017  1.00  0.00     0.210 HD
ENDBRANCH   3   4
ENDBRANCH   2   3
BRANCH   2   6
ATOM      6  O   UNL     1     -10.009   3.267  17.348  1.00  0.00    -0.388 OA
ATOM      7  H   UNL     1     -10.391   3.300  16.434  1.00  0.00     0.211 HD
ENDBRANCH   2   6
ENDBRANCH   1   2
BRANCH   1   8
ATOM      8  C   UNL     1      -9.802   4.161  20.324  1.00  0.00     0.214 C 
BRANCH   8   9
ATOM      9  C   UNL     1     -10.643   5.418  20.301  1.00  0.00     0.189 C 
ATOM     10  O   UNL     1     -11.668   5.481  20.964  1.00  0.00    -0.294 OA
BRANCH   9  11
ATOM     11  C   UNL     1     -10.215   6.614  19.496  1.00  0.00     0.234 C 
BRANCH  11  12
ATOM     12  O   UNL     1     -10.247   6.313  18.129  1.00  0.00    -0.388 OA
ATOM     13  H   UNL     1      -9.934   7.126  17.653  1.00  0.00     0.211 HD
ENDBRANCH  11  12
ENDBRANCH   9  11
ENDBRANCH   8   9
BRANCH   8  14
ATOM     14  O   UNL     1      -8.589   4.369  19.645  1.00  0.00    -0.382 OA
ATOM     15  H   UNL     1      -7.966   3.655  19.944  1.00  0.00     0.211 HD
ENDBRANCH   8  14
ENDBRANCH   1   8
BRANCH   1  16
ATOM     16  O   UNL     1      -9.802   1.780  19.807  1.00  0.00    -0.387 OA
ATOM     17  H   UNL     1     -10.391   1.011  19.593  1.00  0.00     0.211 HD
ENDBRANCH   1  16
TORSDOF 10
ENDMDL
MODEL 6
REMARK VINA RESULT:    -4.455      1.251      2.208
REMARK INTER + INTRA:          -7.366
REMARK INTER:                  -6.692
REMARK INTRA:                  -0.674
REMARK UNBOUND:                -0.957
REMARK SMILES O=C(CO)[C@H](O)[C@H](O)[C@@H](O)CO
REMARK SMILES IDX 7 1 9 2 11 3 12 4 10 6 5 8 2 9 1 10 3 11 4 12 6 14 8 16
REMARK H PARENT 12 5 10 7 4 13 6 15 8 17
REMARK Flexibility Score: inf
ROOT
ATOM      1  C   UNL     1     -10.241   3.334  19.731  1.00  0.00     0.181 C 
ENDROOT
BRANCH   1   2
ATOM      2  C   UNL     1      -9.842   3.716  18.276  1.00  0.00     0.171 C 
BRANCH   2   3
ATOM      3  C   UNL     1      -8.658   2.875  17.756  1.00  0.00     0.190 C 
BRANCH   3   4
ATOM      4  O   UNL     1      -7.474   3.625  17.750  1.00  0.00    -0.394 OA
ATOM      5  H   UNL     1      -6.881   3.216  17.067  1.00  0.00     0.210 HD
ENDBRANCH   3   4
ENDBRANCH   2   3
BRANCH   2   6
ATOM      6  O   UNL     1      -9.561   5.090  18.157  1.00  0.00    -0.388 OA
ATOM      7  H   UNL     1      -9.275   5.423  19.047  1.00  0.00     0.211 HD
ENDBRANCH   2   6
ENDBRANCH   1   2
BRANCH   1   8
ATOM      8  C   UNL     1      -9.707   4.310  20.812  1.00  0.00     0.214 C 
BRANCH   8   9
ATOM      9  C   UNL     1     -10.585   5.535  20.933  1.00  0.00     0.189 C 
ATOM     10  O   UNL     1     -11.802   5.421  20.904  1.00  0.00    -0.294 OA
BRANCH   9  11
ATOM     11  C   UNL     1      -9.980   6.899  21.125  1.00  0.00     0.234 C 
BRANCH  11  12
ATOM     12  O   UNL     1      -9.187   7.235  20.020  1.00  0.00    -0.388 OA
ATOM     13  H   UNL     1      -9.528   6.701  19.256  1.00  0.00     0.211 HD
ENDBRANCH  11  12
ENDBRANCH   9  11
ENDBRANCH   8   9
BRANCH   8  14
ATOM     14  O   UNL     1      -8.380   4.682  20.533  1.00  0.00    -0.382 OA
ATOM     15  H   UNL     1      -8.124   5.364  21.209  1.00  0.00     0.211 HD
ENDBRANCH   8  14
ENDBRANCH   1   8
BRANCH   1  16
ATOM     16  O   UNL     1      -9.874   2.009  20.029  1.00  0.00    -0.387 OA
ATOM     17  H   UNL     1      -9.444   1.620  19.225  1.00  0.00     0.211 HD
ENDBRANCH   1  16
TORSDOF 10
ENDMDL
MODEL 7
REMARK VINA RESULT:    -4.419      1.131      2.580
REMARK INTER + INTRA:          -7.315
REMARK INTER:                  -6.509
REMARK INTRA:                  -0.805
REMARK UNBOUND:                -0.957
REMARK SMILES O=C(CO)[C@H](O)[C@H](O)[C@@H](O)CO
REMARK SMILES IDX 7 1 9 2 11 3 12 4 10 6 5 8 2 9 1 10 3 11 4 12 6 14 8 16
REMARK H PARENT 12 5 10 7 4 13 6 15 8 17
REMARK Flexibility Score: inf
ROOT
ATOM      1  C   UNL     1      -9.234   4.142  18.899  1.00  0.00     0.181 C 
ENDROOT
BRANCH   1   2
ATOM      2  C   UNL     1     -10.478   3.373  18.365  1.00  0.00     0.171 C 
BRANCH   2   3
ATOM      3  C   UNL     1     -10.621   1.978  19.009  1.00  0.00     0.190 C 
BRANCH   3   4
ATOM      4  O   UNL     1      -9.667   1.792  20.020  1.00  0.00    -0.394 OA
ATOM      5  H   UNL     1      -9.249   2.677  20.184  1.00  0.00     0.210 HD
ENDBRANCH   3   4
ENDBRANCH   2   3
BRANCH   2   6
ATOM      6  O   UNL     1     -10.462   3.269  16.961  1.00  0.00    -0.388 OA
ATOM      7  H   UNL     1     -10.319   2.317  16.725  1.00  0.00     0.211 HD
ENDBRANCH   2   6
ENDBRANCH   1   2
BRANCH   1   8
ATOM      8  C   UNL     1      -9.388   5.686  18.881  1.00  0.00     0.214 C 
BRANCH   8   9
ATOM      9  C   UNL     1      -9.361   6.260  20.281  1.00  0.00     0.189 C 
ATOM     10  O   UNL     1      -8.295   6.409  20.860  1.00  0.00    -0.294 OA
BRANCH   9  11
ATOM     11  C   UNL     1     -10.633   6.685  20.961  1.00  0.00     0.234 C 
BRANCH  11  12
ATOM     12  O   UNL     1     -11.534   5.614  21.015  1.00  0.00    -0.388 OA
ATOM     13  H   UNL     1     -11.022   4.803  20.758  1.00  0.00     0.211 HD
ENDBRANCH  11  12
ENDBRANCH   9  11
ENDBRANCH   8   9
BRANCH   8  14
ATOM     14  O   UNL     1     -10.571   6.060  18.220  1.00  0.00    -0.382 OA
ATOM     15  H   UNL     1     -10.765   5.349  17.553  1.00  0.00     0.211 HD
ENDBRANCH   8  14
ENDBRANCH   1   8
BRANCH   1  16
ATOM     16  O   UNL     1      -8.063   3.749  18.226  1.00  0.00    -0.387 OA
ATOM     17  H   UNL     1      -8.307   3.515  17.294  1.00  0.00     0.211 HD
ENDBRANCH   1  16
TORSDOF 10
ENDMDL
MODEL 8
REMARK VINA RESULT:    -4.216      1.243      4.127
REMARK INTER + INTRA:          -7.021
REMARK INTER:                  -6.059
REMARK INTRA:                  -0.963
REMARK UNBOUND:                -0.957
REMARK SMILES O=C(CO)[C@H](O)[C@H](O)[C@@H](O)CO
REMARK SMILES IDX 7 1 9 2 11 3 12 4 10 6 5 8 2 9 1 10 3 11 4 12 6 14 8 16
REMARK H PARENT 12 5 10 7 4 13 6 15 8 17
REMARK Flexibility Score: inf
ROOT
ATOM      1  C   UNL     1      -9.458   4.942  20.516  1.00  0.00     0.181 C 
ENDROOT
BRANCH   1   2
ATOM      2  C   UNL     1      -9.289   6.482  20.665  1.00  0.00     0.171 C 
BRANCH   2   3
ATOM      3  C   UNL     1     -10.382   7.264  19.909  1.00  0.00     0.190 C 
BRANCH   3   4
ATOM      4  O   UNL     1     -11.593   7.246  20.617  1.00  0.00    -0.394 OA
ATOM      5  H   UNL     1     -11.415   7.671  21.496  1.00  0.00     0.210 HD
ENDBRANCH   3   4
ENDBRANCH   2   3
BRANCH   2   6
ATOM      6  O   UNL     1      -8.009   6.906  20.261  1.00  0.00    -0.388 OA
ATOM      7  H   UNL     1      -7.338   6.336  20.717  1.00  0.00     0.211 HD
ENDBRANCH   2   6
ENDBRANCH   1   2
BRANCH   1   8
ATOM      8  C   UNL     1      -9.365   4.432  19.054  1.00  0.00     0.214 C 
BRANCH   8   9
ATOM      9  C   UNL     1     -10.582   3.617  18.675  1.00  0.00     0.189 C 
ATOM     10  O   UNL     1     -11.591   4.176  18.271  1.00  0.00    -0.294 OA
BRANCH   9  11
ATOM     11  C   UNL     1     -10.556   2.115  18.754  1.00  0.00     0.234 C 
BRANCH  11  12
ATOM     12  O   UNL     1      -9.792   1.703  19.854  1.00  0.00    -0.388 OA
ATOM     13  H   UNL     1      -9.933   2.381  20.565  1.00  0.00     0.211 HD
ENDBRANCH  11  12
ENDBRANCH   9  11
ENDBRANCH   8   9
BRANCH   8  14
ATOM     14  O   UNL     1      -8.192   3.680  18.863  1.00  0.00    -0.382 OA
ATOM     15  H   UNL     1      -7.512   4.045  19.490  1.00  0.00     0.211 HD
ENDBRANCH   8  14
ENDBRANCH   1   8
BRANCH   1  16
ATOM     16  O   UNL     1     -10.646   4.498  21.125  1.00  0.00    -0.387 OA
ATOM     17  H   UNL     1     -10.405   3.848  21.834  1.00  0.00     0.211 HD
ENDBRANCH   1  16
TORSDOF 10
ENDMDL
MODEL 9
REMARK VINA RESULT:    -4.173      1.131      4.462
REMARK INTER + INTRA:          -6.960
REMARK INTER:                  -6.216
REMARK INTRA:                  -0.744
REMARK UNBOUND:                -0.957
REMARK SMILES O=C(CO)[C@H](O)[C@H](O)[C@@H](O)CO
REMARK SMILES IDX 7 1 9 2 11 3 12 4 10 6 5 8 2 9 1 10 3 11 4 12 6 14 8 16
REMARK H PARENT 12 5 10 7 4 13 6 15 8 17
REMARK Flexibility Score: inf
ROOT
ATOM      1  C   UNL     1      -9.924   5.401  19.166  1.00  0.00     0.181 C 
ENDROOT
BRANCH   1   2
ATOM      2  C   UNL     1      -9.364   5.636  20.599  1.00  0.00     0.171 C 
BRANCH   2   3
ATOM      3  C   UNL     1      -9.013   7.116  20.852  1.00  0.00     0.190 C 
BRANCH   3   4
ATOM      4  O   UNL     1      -7.760   7.436  20.308  1.00  0.00    -0.394 OA
ATOM      5  H   UNL     1      -7.556   8.366  20.589  1.00  0.00     0.210 HD
ENDBRANCH   3   4
ENDBRANCH   2   3
BRANCH   2   6
ATOM      6  O   UNL     1      -8.253   4.813  20.864  1.00  0.00    -0.388 OA
ATOM      7  H   UNL     1      -8.013   4.342  20.025  1.00  0.00     0.211 HD
ENDBRANCH   2   6
ENDBRANCH   1   2
BRANCH   1   8
ATOM      8  C   UNL     1     -11.259   4.612  19.128  1.00  0.00     0.214 C 
BRANCH   8   9
ATOM      9  C   UNL     1     -11.022   3.139  18.871  1.00  0.00     0.189 C 
ATOM     10  O   UNL     1     -10.191   2.530  19.528  1.00  0.00    -0.294 OA
BRANCH   9  11
ATOM     11  C   UNL     1     -11.826   2.401  17.837  1.00  0.00     0.234 C 
BRANCH  11  12
ATOM     12  O   UNL     1     -11.588   2.940  16.566  1.00  0.00    -0.388 OA
ATOM     13  H   UNL     1     -11.376   3.901  16.702  1.00  0.00     0.211 HD
ENDBRANCH  11  12
ENDBRANCH   9  11
ENDBRANCH   8   9
BRANCH   8  14
ATOM     14  O   UNL     1     -12.125   5.146  18.157  1.00  0.00    -0.382 OA
ATOM     15  H   UNL     1     -12.893   4.521  18.082  1.00  0.00     0.211 HD
ENDBRANCH   8  14
ENDBRANCH   1   8
BRANCH   1  16
ATOM     16  O   UNL     1      -8.963   4.797  18.334  1.00  0.00    -0.387 OA
ATOM     17  H   UNL     1      -9.258   3.870  18.145  1.00  0.00     0.211 HD
ENDBRANCH   1  16
TORSDOF 10
ENDMDL
