MODEL 1
REMARK VINA RESULT:    -4.021      0.000      0.000
REMARK INTER + INTRA:          -5.075
REMARK INTER:                  -4.609
REMARK INTRA:                  -0.467
REMARK UNBOUND:                -0.467
REMARK SMILES O=C1C[C@H](c2ccc(O)cc2)Oc2cc(O)cc(O)c21
REMARK SMILES IDX 3 1 4 2 12 3 13 4 14 5 15 6 17 7 18 8 20 9 2 10 1 11 5 12
REMARK SMILES IDX 6 13 11 14 7 15 10 16 8 17 9 18 19 20 16 22
REMARK H PARENT 9 19 19 21 16 23
REMARK Flexibility Score: inf
ROOT
ATOM      1  C   UNL     1      42.369   0.337  -1.069  1.00  0.00     0.131 C 
ATOM      2  C   UNL     1      42.840  -0.544  -2.239  1.00  0.00     0.211 C 
ATOM      3  O   UNL     1      43.264  -1.837  -1.786  1.00  0.00    -0.484 OA
ATOM      4  C   UNL     1      42.740  -2.483  -0.655  1.00  0.00     0.138 A 
ATOM      5  C   UNL     1      43.113  -3.805  -0.399  1.00  0.00     0.093 A 
ATOM      6  C   UNL     1      42.589  -4.486   0.703  1.00  0.00     0.123 A 
ATOM      7  C   UNL     1      41.708  -3.833   1.567  1.00  0.00     0.093 A 
ATOM      8  C   UNL     1      41.346  -2.498   1.349  1.00  0.00     0.133 A 
ATOM      9  C   UNL     1      41.841  -1.819   0.205  1.00  0.00     0.102 A 
ATOM     10  C   UNL     1      41.460  -0.439  -0.166  1.00  0.00     0.174 C 
ATOM     11  O   UNL     1      40.372   0.073   0.209  1.00  0.00    -0.294 OA
ENDROOT
BRANCH   2  12
ATOM     12  C   UNL     1      41.772  -0.659  -3.311  1.00  0.00    -0.007 A 
ATOM     13  C   UNL     1      40.931   0.423  -3.637  1.00  0.00     0.011 A 
ATOM     14  C   UNL     1      41.656  -1.853  -4.046  1.00  0.00     0.011 A 
ATOM     15  C   UNL     1      39.980   0.301  -4.654  1.00  0.00     0.046 A 
ATOM     16  C   UNL     1      40.704  -1.971  -5.064  1.00  0.00     0.046 A 
ATOM     17  C   UNL     1      39.864  -0.898  -5.369  1.00  0.00     0.115 A 
BRANCH  17  18
ATOM     18  O   UNL     1      38.920  -1.030  -6.386  1.00  0.00    -0.508 OA
ATOM     19  H   UNL     1      39.180  -1.353  -7.310  1.00  0.00     0.293 HD
ENDBRANCH  17  18
ENDBRANCH   2  12
BRANCH   8  20
ATOM     20  O   UNL     1      40.529  -1.886   2.302  1.00  0.00    -0.507 OA
ATOM     21  H   UNL     1      40.337  -0.895   2.324  1.00  0.00     0.293 HD
ENDBRANCH   8  20
BRANCH   6  22
ATOM     22  O   UNL     1      42.942  -5.810   0.954  1.00  0.00    -0.508 OA
ATOM     23  H   UNL     1      42.356  -6.581   0.656  1.00  0.00     0.293 HD
ENDBRANCH   6  22
TORSDOF 4
ENDMDL
MODEL 2
REMARK VINA RESULT:    -4.020      3.927      6.915
REMARK INTER + INTRA:          -5.075
REMARK INTER:                  -4.613
REMARK INTRA:                  -0.462
REMARK UNBOUND:                -0.467
REMARK SMILES O=C1C[C@H](c2ccc(O)cc2)Oc2cc(O)cc(O)c21
REMARK SMILES IDX 3 1 4 2 12 3 13 4 14 5 15 6 17 7 18 8 20 9 2 10 1 11 5 12
REMARK SMILES IDX 6 13 11 14 7 15 10 16 8 17 9 18 19 20 16 22
REMARK H PARENT 9 19 19 21 16 23
REMARK Flexibility Score: inf
ROOT
ATOM      1  C   UNL     1      38.904  -1.632  -8.618  1.00  0.00     0.131 C 
ATOM      2  C   UNL     1      39.198  -3.141  -8.682  1.00  0.00     0.211 C 
ATOM      3  O   UNL     1      40.263  -3.507  -7.795  1.00  0.00    -0.484 OA
ATOM      4  C   UNL     1      40.548  -2.840  -6.593  1.00  0.00     0.138 A 
ATOM      5  C   UNL     1      41.507  -3.379  -5.732  1.00  0.00     0.093 A 
ATOM      6  C   UNL     1      41.796  -2.754  -4.515  1.00  0.00     0.123 A 
ATOM      7  C   UNL     1      41.141  -1.570  -4.172  1.00  0.00     0.093 A 
ATOM      8  C   UNL     1      40.201  -0.993  -5.035  1.00  0.00     0.133 A 
ATOM      9  C   UNL     1      39.873  -1.650  -6.249  1.00  0.00     0.102 A 
ATOM     10  C   UNL     1      38.838  -1.175  -7.193  1.00  0.00     0.174 C 
ATOM     11  O   UNL     1      37.881  -0.448  -6.817  1.00  0.00    -0.294 OA
ENDROOT
BRANCH   2  12
ATOM     12  C   UNL     1      37.950  -3.961  -8.412  1.00  0.00    -0.007 A 
ATOM     13  C   UNL     1      37.981  -5.110  -7.599  1.00  0.00     0.011 A 
ATOM     14  C   UNL     1      36.715  -3.531  -8.931  1.00  0.00     0.011 A 
ATOM     15  C   UNL     1      36.809  -5.826  -7.337  1.00  0.00     0.046 A 
ATOM     16  C   UNL     1      35.544  -4.248  -8.666  1.00  0.00     0.046 A 
ATOM     17  C   UNL     1      35.587  -5.396  -7.871  1.00  0.00     0.115 A 
BRANCH  17  18
ATOM     18  O   UNL     1      34.413  -6.101  -7.616  1.00  0.00    -0.508 OA
ATOM     19  H   UNL     1      34.056  -6.210  -6.674  1.00  0.00     0.293 HD
ENDBRANCH  17  18
ENDBRANCH   2  12
BRANCH   8  20
ATOM     20  O   UNL     1      39.651   0.235  -4.662  1.00  0.00    -0.507 OA
ATOM     21  H   UNL     1      39.111   0.820  -5.283  1.00  0.00     0.293 HD
ENDBRANCH   8  20
BRANCH   6  22
ATOM     22  O   UNL     1      42.737  -3.297  -3.644  1.00  0.00    -0.508 OA
ATOM     23  H   UNL     1      43.034  -4.263  -3.719  1.00  0.00     0.293 HD
ENDBRANCH   6  22
TORSDOF 4
ENDMDL
MODEL 3
REMARK VINA RESULT:    -3.890     11.598     14.004
REMARK INTER + INTRA:          -4.926
REMARK INTER:                  -4.468
REMARK INTRA:                  -0.458
REMARK UNBOUND:                -0.467
REMARK SMILES O=C1C[C@H](c2ccc(O)cc2)Oc2cc(O)cc(O)c21
REMARK SMILES IDX 3 1 4 2 12 3 13 4 14 5 15 6 17 7 18 8 20 9 2 10 1 11 5 12
REMARK SMILES IDX 6 13 11 14 7 15 10 16 8 17 9 18 19 20 16 22
REMARK H PARENT 9 19 19 21 16 23
REMARK Flexibility Score: inf
ROOT
ATOM      1  C   UNL     1      36.193   6.112   7.708  1.00  0.00     0.131 C 
ATOM      2  C   UNL     1      34.715   5.920   7.323  1.00  0.00     0.211 C 
ATOM      3  O   UNL     1      34.059   7.178   7.115  1.00  0.00    -0.484 OA
ATOM      4  C   UNL     1      34.707   8.335   6.653  1.00  0.00     0.138 A 
ATOM      5  C   UNL     1      33.939   9.458   6.337  1.00  0.00     0.093 A 
ATOM      6  C   UNL     1      34.550  10.617   5.848  1.00  0.00     0.123 A 
ATOM      7  C   UNL     1      35.937  10.659   5.700  1.00  0.00     0.093 A 
ATOM      8  C   UNL     1      36.730   9.557   6.042  1.00  0.00     0.133 A 
ATOM      9  C   UNL     1      36.108   8.364   6.495  1.00  0.00     0.102 A 
ATOM     10  C   UNL     1      36.840   7.117   6.805  1.00  0.00     0.174 C 
ATOM     11  O   UNL     1      37.958   6.857   6.286  1.00  0.00    -0.294 OA
ENDROOT
BRANCH   2  12
ATOM     12  C   UNL     1      34.571   5.017   6.112  1.00  0.00    -0.007 A 
ATOM     13  C   UNL     1      35.474   3.965   5.862  1.00  0.00     0.011 A 
ATOM     14  C   UNL     1      33.473   5.188   5.249  1.00  0.00     0.011 A 
ATOM     15  C   UNL     1      35.296   3.126   4.759  1.00  0.00     0.046 A 
ATOM     16  C   UNL     1      33.298   4.345   4.147  1.00  0.00     0.046 A 
ATOM     17  C   UNL     1      34.207   3.315   3.897  1.00  0.00     0.115 A 
BRANCH  17  18
ATOM     18  O   UNL     1      34.020   2.483   2.796  1.00  0.00    -0.508 OA
ATOM     19  H   UNL     1      33.165   2.509   2.253  1.00  0.00     0.293 HD
ENDBRANCH  17  18
ENDBRANCH   2  12
BRANCH   8  20
ATOM     20  O   UNL     1      38.116   9.704   5.949  1.00  0.00    -0.507 OA
ATOM     21  H   UNL     1      38.629   9.653   5.081  1.00  0.00     0.293 HD
ENDBRANCH   8  20
BRANCH   6  22
ATOM     22  O   UNL     1      33.788  11.735   5.514  1.00  0.00    -0.508 OA
ATOM     23  H   UNL     1      32.885  11.645   5.063  1.00  0.00     0.293 HD
ENDBRANCH   6  22
TORSDOF 4
ENDMDL
MODEL 4
REMARK VINA RESULT:    -3.869      1.738      6.282
REMARK INTER + INTRA:          -4.901
REMARK INTER:                  -4.523
REMARK INTRA:                  -0.378
REMARK UNBOUND:                -0.467
REMARK SMILES O=C1C[C@H](c2ccc(O)cc2)Oc2cc(O)cc(O)c21
REMARK SMILES IDX 3 1 4 2 12 3 13 4 14 5 15 6 17 7 18 8 20 9 2 10 1 11 5 12
REMARK SMILES IDX 6 13 11 14 7 15 10 16 8 17 9 18 19 20 16 22
REMARK H PARENT 9 19 19 21 16 23
REMARK Flexibility Score: inf
ROOT
ATOM      1  C   UNL     1      43.509  -1.533  -3.272  1.00  0.00     0.131 C 
ATOM      2  C   UNL     1      42.794  -0.404  -2.509  1.00  0.00     0.211 C 
ATOM      3  O   UNL     1      41.757   0.192  -3.300  1.00  0.00    -0.484 OA
ATOM      4  C   UNL     1      41.023  -0.498  -4.279  1.00  0.00     0.138 A 
ATOM      5  C   UNL     1      39.932   0.138  -4.878  1.00  0.00     0.093 A 
ATOM      6  C   UNL     1      39.165  -0.530  -5.837  1.00  0.00     0.123 A 
ATOM      7  C   UNL     1      39.507  -1.828  -6.217  1.00  0.00     0.093 A 
ATOM      8  C   UNL     1      40.617  -2.472  -5.656  1.00  0.00     0.133 A 
ATOM      9  C   UNL     1      41.370  -1.814  -4.649  1.00  0.00     0.102 A 
ATOM     10  C   UNL     1      42.507  -2.430  -3.932  1.00  0.00     0.174 C 
ATOM     11  O   UNL     1      42.621  -3.679  -3.816  1.00  0.00    -0.294 OA
ENDROOT
BRANCH   2  12
ATOM     12  C   UNL     1      42.258  -0.890  -1.175  1.00  0.00    -0.007 A 
ATOM     13  C   UNL     1      42.753  -2.057  -0.560  1.00  0.00     0.011 A 
ATOM     14  C   UNL     1      41.288  -0.127  -0.500  1.00  0.00     0.011 A 
ATOM     15  C   UNL     1      42.266  -2.461   0.687  1.00  0.00     0.046 A 
ATOM     16  C   UNL     1      40.805  -0.534   0.748  1.00  0.00     0.046 A 
ATOM     17  C   UNL     1      41.290  -1.701   1.343  1.00  0.00     0.115 A 
BRANCH  17  18
ATOM     18  O   UNL     1      40.799  -2.095   2.586  1.00  0.00    -0.508 OA
ATOM     19  H   UNL     1      41.201  -2.876   3.090  1.00  0.00     0.293 HD
ENDBRANCH  17  18
ENDBRANCH   2  12
BRANCH   8  20
ATOM     20  O   UNL     1      40.947  -3.736  -6.148  1.00  0.00    -0.507 OA
ATOM     21  H   UNL     1      41.774  -3.928  -6.695  1.00  0.00     0.293 HD
ENDBRANCH   8  20
BRANCH   6  22
ATOM     22  O   UNL     1      38.064   0.091  -6.423  1.00  0.00    -0.508 OA
ATOM     23  H   UNL     1      38.024   1.097  -6.541  1.00  0.00     0.293 HD
ENDBRANCH   6  22
TORSDOF 4
ENDMDL
MODEL 5
REMARK VINA RESULT:    -3.803     11.661     14.336
REMARK INTER + INTRA:          -4.825
REMARK INTER:                  -4.507
REMARK INTRA:                  -0.319
REMARK UNBOUND:                -0.467
REMARK SMILES O=C1C[C@H](c2ccc(O)cc2)Oc2cc(O)cc(O)c21
REMARK SMILES IDX 3 1 4 2 12 3 13 4 14 5 15 6 17 7 18 8 20 9 2 10 1 11 5 12
REMARK SMILES IDX 6 13 11 14 7 15 10 16 8 17 9 18 19 20 16 22
REMARK H PARENT 9 19 19 21 16 23
REMARK Flexibility Score: inf
ROOT
ATOM      1  C   UNL     1      33.322   6.630  -8.895  1.00  0.00     0.131 C 
ATOM      2  C   UNL     1      33.452   8.024  -8.257  1.00  0.00     0.211 C 
ATOM      3  O   UNL     1      32.241   8.414  -7.595  1.00  0.00    -0.484 OA
ATOM      4  C   UNL     1      31.342   7.510  -7.005  1.00  0.00     0.138 A 
ATOM      5  C   UNL     1      30.278   8.011  -6.252  1.00  0.00     0.093 A 
ATOM      6  C   UNL     1      29.380   7.138  -5.630  1.00  0.00     0.123 A 
ATOM      7  C   UNL     1      29.534   5.760  -5.784  1.00  0.00     0.093 A 
ATOM      8  C   UNL     1      30.574   5.236  -6.563  1.00  0.00     0.133 A 
ATOM      9  C   UNL     1      31.513   6.118  -7.158  1.00  0.00     0.102 A 
ATOM     10  C   UNL     1      32.693   5.672  -7.930  1.00  0.00     0.174 C 
ATOM     11  O   UNL     1      33.210   4.537  -7.753  1.00  0.00    -0.294 OA
ENDROOT
BRANCH   2  12
ATOM     12  C   UNL     1      34.641   8.094  -7.317  1.00  0.00    -0.007 A 
ATOM     13  C   UNL     1      35.639   7.100  -7.311  1.00  0.00     0.011 A 
ATOM     14  C   UNL     1      34.789   9.209  -6.471  1.00  0.00     0.011 A 
ATOM     15  C   UNL     1      36.743   7.209  -6.460  1.00  0.00     0.046 A 
ATOM     16  C   UNL     1      35.895   9.314  -5.622  1.00  0.00     0.046 A 
ATOM     17  C   UNL     1      36.873   8.317  -5.612  1.00  0.00     0.115 A 
BRANCH  17  18
ATOM     18  O   UNL     1      37.969   8.436  -4.761  1.00  0.00    -0.508 OA
ATOM     19  H   UNL     1      38.917   8.354  -5.105  1.00  0.00     0.293 HD
ENDBRANCH  17  18
ENDBRANCH   2  12
BRANCH   8  20
ATOM     20  O   UNL     1      30.612   3.852  -6.742  1.00  0.00    -0.507 OA
ATOM     21  H   UNL     1      31.209   3.233  -6.212  1.00  0.00     0.293 HD
ENDBRANCH   8  20
BRANCH   6  22
ATOM     22  O   UNL     1      28.328   7.631  -4.861  1.00  0.00    -0.508 OA
ATOM     23  H   UNL     1      27.365   7.554  -5.170  1.00  0.00     0.293 HD
ENDBRANCH   6  22
TORSDOF 4
ENDMDL
MODEL 6
REMARK VINA RESULT:    -3.721      9.583     11.209
REMARK INTER + INTRA:          -4.731
REMARK INTER:                  -4.265
REMARK INTRA:                  -0.466
REMARK UNBOUND:                -0.467
REMARK SMILES O=C1C[C@H](c2ccc(O)cc2)Oc2cc(O)cc(O)c21
REMARK SMILES IDX 3 1 4 2 12 3 13 4 14 5 15 6 17 7 18 8 20 9 2 10 1 11 5 12
REMARK SMILES IDX 6 13 11 14 7 15 10 16 8 17 9 18 19 20 16 22
REMARK H PARENT 9 19 19 21 16 23
REMARK Flexibility Score: inf
ROOT
ATOM      1  C   UNL     1      33.847   3.754   5.293  1.00  0.00     0.131 C 
ATOM      2  C   UNL     1      34.555   3.056   6.467  1.00  0.00     0.211 C 
ATOM      3  O   UNL     1      34.049   1.730   6.673  1.00  0.00    -0.484 OA
ATOM      4  C   UNL     1      33.533   0.919   5.650  1.00  0.00     0.138 A 
ATOM      5  C   UNL     1      33.215  -0.411   5.938  1.00  0.00     0.093 A 
ATOM      6  C   UNL     1      32.725  -1.253   4.935  1.00  0.00     0.123 A 
ATOM      7  C   UNL     1      32.527  -0.754   3.647  1.00  0.00     0.093 A 
ATOM      8  C   UNL     1      32.807   0.584   3.343  1.00  0.00     0.133 A 
ATOM      9  C   UNL     1      33.348   1.428   4.347  1.00  0.00     0.102 A 
ATOM     10  C   UNL     1      33.756   2.831   4.116  1.00  0.00     0.174 C 
ATOM     11  O   UNL     1      34.082   3.247   2.973  1.00  0.00    -0.294 OA
ENDROOT
BRANCH   2  12
ATOM     12  C   UNL     1      36.061   3.048   6.279  1.00  0.00    -0.007 A 
ATOM     13  C   UNL     1      36.738   4.128   5.680  1.00  0.00     0.011 A 
ATOM     14  C   UNL     1      36.813   1.965   6.770  1.00  0.00     0.011 A 
ATOM     15  C   UNL     1      38.130   4.109   5.553  1.00  0.00     0.046 A 
ATOM     16  C   UNL     1      38.206   1.951   6.642  1.00  0.00     0.046 A 
ATOM     17  C   UNL     1      38.867   3.019   6.033  1.00  0.00     0.115 A 
BRANCH  17  18
ATOM     18  O   UNL     1      40.255   2.991   5.912  1.00  0.00    -0.508 OA
ATOM     19  H   UNL     1      40.742   2.158   5.604  1.00  0.00     0.293 HD
ENDBRANCH  17  18
ENDBRANCH   2  12
BRANCH   8  20
ATOM     20  O   UNL     1      32.503   1.032   2.056  1.00  0.00    -0.507 OA
ATOM     21  H   UNL     1      32.321   0.417   1.276  1.00  0.00     0.293 HD
ENDBRANCH   8  20
BRANCH   6  22
ATOM     22  O   UNL     1      32.423  -2.585   5.211  1.00  0.00    -0.508 OA
ATOM     23  H   UNL     1      33.038  -3.338   4.923  1.00  0.00     0.293 HD
ENDBRANCH   6  22
TORSDOF 4
ENDMDL
MODEL 7
REMARK VINA RESULT:    -3.718     10.724     11.977
REMARK INTER + INTRA:          -4.728
REMARK INTER:                  -4.291
REMARK INTRA:                  -0.437
REMARK UNBOUND:                -0.467
REMARK SMILES O=C1C[C@H](c2ccc(O)cc2)Oc2cc(O)cc(O)c21
REMARK SMILES IDX 3 1 4 2 12 3 13 4 14 5 15 6 17 7 18 8 20 9 2 10 1 11 5 12
REMARK SMILES IDX 6 13 11 14 7 15 10 16 8 17 9 18 19 20 16 22
REMARK H PARENT 9 19 19 21 16 23
REMARK Flexibility Score: inf
ROOT
ATOM      1  C   UNL     1      28.645  -0.843   2.697  1.00  0.00     0.131 C 
ATOM      2  C   UNL     1      28.832   0.008   1.429  1.00  0.00     0.211 C 
ATOM      3  O   UNL     1      29.869   0.984   1.599  1.00  0.00    -0.484 OA
ATOM      4  C   UNL     1      30.984   0.807   2.434  1.00  0.00     0.138 A 
ATOM      5  C   UNL     1      32.010   1.755   2.401  1.00  0.00     0.093 A 
ATOM      6  C   UNL     1      33.146   1.595   3.200  1.00  0.00     0.123 A 
ATOM      7  C   UNL     1      33.244   0.495   4.053  1.00  0.00     0.093 A 
ATOM      8  C   UNL     1      32.213  -0.450   4.128  1.00  0.00     0.133 A 
ATOM      9  C   UNL     1      31.079  -0.314   3.285  1.00  0.00     0.102 A 
ATOM     10  C   UNL     1      29.974  -1.294   3.222  1.00  0.00     0.174 C 
ATOM     11  O   UNL     1      30.139  -2.502   3.542  1.00  0.00    -0.294 OA
ENDROOT
BRANCH   2  12
ATOM     12  C   UNL     1      29.088  -0.860   0.211  1.00  0.00    -0.007 A 
ATOM     13  C   UNL     1      28.596  -2.178   0.126  1.00  0.00     0.011 A 
ATOM     14  C   UNL     1      29.777  -0.321  -0.890  1.00  0.00     0.011 A 
ATOM     15  C   UNL     1      28.815  -2.943  -1.023  1.00  0.00     0.046 A 
ATOM     16  C   UNL     1      29.993  -1.090  -2.038  1.00  0.00     0.046 A 
ATOM     17  C   UNL     1      29.516  -2.400  -2.108  1.00  0.00     0.115 A 
BRANCH  17  18
ATOM     18  O   UNL     1      29.738  -3.154  -3.258  1.00  0.00    -0.508 OA
ATOM     19  H   UNL     1      30.616  -3.104  -3.762  1.00  0.00     0.293 HD
ENDBRANCH  17  18
ENDBRANCH   2  12
BRANCH   8  20
ATOM     20  O   UNL     1      32.344  -1.475   5.067  1.00  0.00    -0.507 OA
ATOM     21  H   UNL     1      32.441  -1.319   6.060  1.00  0.00     0.293 HD
ENDBRANCH   8  20
BRANCH   6  22
ATOM     22  O   UNL     1      34.181   2.527   3.158  1.00  0.00    -0.508 OA
ATOM     23  H   UNL     1      34.699   2.781   3.991  1.00  0.00     0.293 HD
ENDBRANCH   6  22
TORSDOF 4
ENDMDL
MODEL 8
REMARK VINA RESULT:    -3.707      1.881      6.521
REMARK INTER + INTRA:          -4.715
REMARK INTER:                  -4.265
REMARK INTRA:                  -0.450
REMARK UNBOUND:                -0.467
REMARK SMILES O=C1C[C@H](c2ccc(O)cc2)Oc2cc(O)cc(O)c21
REMARK SMILES IDX 3 1 4 2 12 3 13 4 14 5 15 6 17 7 18 8 20 9 2 10 1 11 5 12
REMARK SMILES IDX 6 13 11 14 7 15 10 16 8 17 9 18 19 20 16 22
REMARK H PARENT 9 19 19 21 16 23
REMARK Flexibility Score: inf
ROOT
ATOM      1  C   UNL     1      44.480  -3.320  -3.143  1.00  0.00     0.131 C 
ATOM      2  C   UNL     1      43.887  -2.496  -1.987  1.00  0.00     0.211 C 
ATOM      3  O   UNL     1      42.934  -1.535  -2.460  1.00  0.00    -0.484 OA
ATOM      4  C   UNL     1      42.140  -1.716  -3.604  1.00  0.00     0.138 A 
ATOM      5  C   UNL     1      41.135  -0.786  -3.882  1.00  0.00     0.093 A 
ATOM      6  C   UNL     1      40.310  -0.950  -4.998  1.00  0.00     0.123 A 
ATOM      7  C   UNL     1      40.508  -2.035  -5.854  1.00  0.00     0.093 A 
ATOM      8  C   UNL     1      41.531  -2.960  -5.614  1.00  0.00     0.133 A 
ATOM      9  C   UNL     1      42.341  -2.821  -4.457  1.00  0.00     0.102 A 
ATOM     10  C   UNL     1      43.393  -3.784  -4.063  1.00  0.00     0.174 C 
ATOM     11  O   UNL     1      43.363  -4.987  -4.434  1.00  0.00    -0.294 OA
ENDROOT
BRANCH   2  12
ATOM     12  C   UNL     1      43.283  -3.393  -0.921  1.00  0.00    -0.007 A 
ATOM     13  C   UNL     1      43.784  -4.685  -0.671  1.00  0.00     0.011 A 
ATOM     14  C   UNL     1      42.238  -2.902  -0.117  1.00  0.00     0.011 A 
ATOM     15  C   UNL     1      43.231  -5.475   0.342  1.00  0.00     0.046 A 
ATOM     16  C   UNL     1      41.689  -3.696   0.896  1.00  0.00     0.046 A 
ATOM     17  C   UNL     1      42.181  -4.982   1.127  1.00  0.00     0.115 A 
BRANCH  17  18
ATOM     18  O   UNL     1      41.625  -5.760   2.139  1.00  0.00    -0.508 OA
ATOM     19  H   UNL     1      42.201  -6.336   2.741  1.00  0.00     0.293 HD
ENDBRANCH  17  18
ENDBRANCH   2  12
BRANCH   8  20
ATOM     20  O   UNL     1      41.724  -3.969  -6.560  1.00  0.00    -0.507 OA
ATOM     21  H   UNL     1      41.554  -4.948  -6.379  1.00  0.00     0.293 HD
ENDBRANCH   8  20
BRANCH   6  22
ATOM     22  O   UNL     1      39.293  -0.036  -5.270  1.00  0.00    -0.508 OA
ATOM     23  H   UNL     1      38.996   0.157  -6.220  1.00  0.00     0.293 HD
ENDBRANCH   6  22
TORSDOF 4
ENDMDL
MODEL 9
REMARK VINA RESULT:    -3.649      2.220      6.183
REMARK INTER + INTRA:          -4.649
REMARK INTER:                  -4.239
REMARK INTRA:                  -0.410
REMARK UNBOUND:                -0.467
REMARK SMILES O=C1C[C@H](c2ccc(O)cc2)Oc2cc(O)cc(O)c21
REMARK SMILES IDX 3 1 4 2 12 3 13 4 14 5 15 6 17 7 18 8 20 9 2 10 1 11 5 12
REMARK SMILES IDX 6 13 11 14 7 15 10 16 8 17 9 18 19 20 16 22
REMARK H PARENT 9 19 19 21 16 23
REMARK Flexibility Score: inf
ROOT
ATOM      1  C   UNL     1      44.106  -3.620   1.074  1.00  0.00     0.131 C 
ATOM      2  C   UNL     1      43.269  -2.342   1.255  1.00  0.00     0.211 C 
ATOM      3  O   UNL     1      42.973  -1.724  -0.005  1.00  0.00    -0.484 OA
ATOM      4  C   UNL     1      42.832  -2.429  -1.211  1.00  0.00     0.138 A 
ATOM      5  C   UNL     1      42.389  -1.744  -2.345  1.00  0.00     0.093 A 
ATOM      6  C   UNL     1      42.212  -2.422  -3.555  1.00  0.00     0.123 A 
ATOM      7  C   UNL     1      42.504  -3.784  -3.636  1.00  0.00     0.093 A 
ATOM      8  C   UNL     1      42.982  -4.484  -2.521  1.00  0.00     0.133 A 
ATOM      9  C   UNL     1      43.119  -3.808  -1.280  1.00  0.00     0.102 A 
ATOM     10  C   UNL     1      43.535  -4.466  -0.022  1.00  0.00     0.174 C 
ATOM     11  O   UNL     1      43.368  -5.700   0.168  1.00  0.00    -0.294 OA
ENDROOT
BRANCH   2  12
ATOM     12  C   UNL     1      42.002  -2.618   2.044  1.00  0.00    -0.007 A 
ATOM     13  C   UNL     1      42.040  -3.208   3.322  1.00  0.00     0.011 A 
ATOM     14  C   UNL     1      40.760  -2.218   1.519  1.00  0.00     0.011 A 
ATOM     15  C   UNL     1      40.860  -3.417   4.042  1.00  0.00     0.046 A 
ATOM     16  C   UNL     1      39.582  -2.427   2.242  1.00  0.00     0.046 A 
ATOM     17  C   UNL     1      39.627  -3.027   3.502  1.00  0.00     0.115 A 
BRANCH  17  18
ATOM     18  O   UNL     1      38.445  -3.230   4.211  1.00  0.00    -0.508 OA
ATOM     19  H   UNL     1      38.372  -2.997   5.195  1.00  0.00     0.293 HD
ENDBRANCH  17  18
ENDBRANCH   2  12
BRANCH   8  20
ATOM     20  O   UNL     1      43.334  -5.823  -2.700  1.00  0.00    -0.507 OA
ATOM     21  H   UNL     1      43.062  -6.565  -2.072  1.00  0.00     0.293 HD
ENDBRANCH   8  20
BRANCH   6  22
ATOM     22  O   UNL     1      41.752  -1.749  -4.685  1.00  0.00    -0.508 OA
ATOM     23  H   UNL     1      40.819  -1.902  -5.050  1.00  0.00     0.293 HD
ENDBRANCH   6  22
TORSDOF 4
ENDMDL
