MODEL 1
REMARK VINA RESULT:    -4.134      0.000      0.000
REMARK INTER + INTRA:          -4.791
REMARK INTER:                  -4.738
REMARK INTRA:                  -0.053
REMARK UNBOUND:                -0.053
REMARK SMILES O=C([O-])c1cc(O)c(O)c(O)c1
REMARK SMILES IDX 4 1 5 2 12 3 6 4 10 5 8 6 2 7 1 8 3 9 7 10 11 12 9 14
REMARK H PARENT 7 11 11 13 9 15
REMARK Flexibility Score: inf
ROOT
ATOM      1  C   UNL     1      22.101  43.290  28.116  1.00  0.00     0.005 A 
ATOM      2  C   UNL     1      22.601  44.589  27.925  1.00  0.00     0.060 A 
ATOM      3  C   UNL     1      21.622  42.925  29.384  1.00  0.00     0.060 A 
ATOM      4  C   UNL     1      22.625  45.509  28.982  1.00  0.00     0.162 A 
ATOM      5  C   UNL     1      21.641  43.836  30.446  1.00  0.00     0.162 A 
ATOM      6  C   UNL     1      22.144  45.133  30.248  1.00  0.00     0.200 A 
ENDROOT
BRANCH   1   7
ATOM      7  C   UNL     1      22.076  42.319  26.999  1.00  0.00     0.072 C 
ATOM      8  O   UNL     1      21.698  41.133  27.190  1.00  0.00    -0.545 OA
ATOM      9  O   UNL     1      22.469  42.705  25.722  1.00  0.00    -0.545 OA
ENDBRANCH   1   7
BRANCH   4  10
ATOM     10  O   UNL     1      23.125  46.795  28.780  1.00  0.00    -0.504 OA
ATOM     11  H   UNL     1      22.620  47.616  29.090  1.00  0.00     0.293 HD
ENDBRANCH   4  10
BRANCH   5  12
ATOM     12  O   UNL     1      21.157  43.433  31.690  1.00  0.00    -0.504 OA
ATOM     13  H   UNL     1      20.678  44.071  32.315  1.00  0.00     0.293 HD
ENDBRANCH   5  12
BRANCH   6  14
ATOM     14  O   UNL     1      22.159  46.036  31.313  1.00  0.00    -0.502 OA
ATOM     15  H   UNL     1      21.822  46.987  31.219  1.00  0.00     0.293 HD
ENDBRANCH   6  14
TORSDOF 4
ENDMDL
MODEL 2
REMARK VINA RESULT:    -4.110      0.061      2.430
REMARK INTER + INTRA:          -4.763
REMARK INTER:                  -4.710
REMARK INTRA:                  -0.053
REMARK UNBOUND:                -0.053
REMARK SMILES O=C([O-])c1cc(O)c(O)c(O)c1
REMARK SMILES IDX 4 1 5 2 12 3 6 4 10 5 8 6 2 7 1 8 3 9 7 10 11 12 9 14
REMARK H PARENT 7 11 11 13 9 15
REMARK Flexibility Score: inf
ROOT
ATOM      1  C   UNL     1      22.077  43.254  28.119  1.00  0.00     0.005 A 
ATOM      2  C   UNL     1      21.610  42.911  29.399  1.00  0.00     0.060 A 
ATOM      3  C   UNL     1      22.580  44.547  27.901  1.00  0.00     0.060 A 
ATOM      4  C   UNL     1      21.644  43.842  30.446  1.00  0.00     0.162 A 
ATOM      5  C   UNL     1      22.618  45.483  28.940  1.00  0.00     0.162 A 
ATOM      6  C   UNL     1      22.149  45.134  30.218  1.00  0.00     0.200 A 
ENDROOT
BRANCH   1   7
ATOM      7  C   UNL     1      22.041  42.271  27.013  1.00  0.00     0.072 C 
ATOM      8  O   UNL     1      21.656  41.089  27.219  1.00  0.00    -0.545 OA
ATOM      9  O   UNL     1      22.434  42.639  25.731  1.00  0.00    -0.545 OA
ENDBRANCH   1   7
BRANCH   4  10
ATOM     10  O   UNL     1      21.177  43.489  31.711  1.00  0.00    -0.504 OA
ATOM     11  H   UNL     1      21.079  44.173  32.451  1.00  0.00     0.293 HD
ENDBRANCH   4  10
BRANCH   5  12
ATOM     12  O   UNL     1      23.125  46.757  28.683  1.00  0.00    -0.504 OA
ATOM     13  H   UNL     1      22.756  47.346  27.945  1.00  0.00     0.293 HD
ENDBRANCH   5  12
BRANCH   6  14
ATOM     14  O   UNL     1      22.190  46.074  31.249  1.00  0.00    -0.502 OA
ATOM     15  H   UNL     1      22.998  46.179  31.851  1.00  0.00     0.293 HD
ENDBRANCH   6  14
TORSDOF 4
ENDMDL
MODEL 3
REMARK VINA RESULT:    -4.023      1.506      4.975
REMARK INTER + INTRA:          -4.664
REMARK INTER:                  -4.618
REMARK INTRA:                  -0.046
REMARK UNBOUND:                -0.053
REMARK SMILES O=C([O-])c1cc(O)c(O)c(O)c1
REMARK SMILES IDX 4 1 5 2 12 3 6 4 10 5 8 6 2 7 1 8 3 9 7 10 11 12 9 14
REMARK H PARENT 7 11 11 13 9 15
REMARK Flexibility Score: inf
ROOT
ATOM      1  C   UNL     1      21.985  44.889  30.986  1.00  0.00     0.005 A 
ATOM      2  C   UNL     1      21.568  43.551  31.090  1.00  0.00     0.060 A 
ATOM      3  C   UNL     1      22.384  45.383  29.734  1.00  0.00     0.060 A 
ATOM      4  C   UNL     1      21.550  42.718  29.963  1.00  0.00     0.162 A 
ATOM      5  C   UNL     1      22.369  44.559  28.603  1.00  0.00     0.162 A 
ATOM      6  C   UNL     1      21.952  43.222  28.714  1.00  0.00     0.200 A 
ENDROOT
BRANCH   1   7
ATOM      7  C   UNL     1      22.004  45.769  32.176  1.00  0.00     0.072 C 
ATOM      8  O   UNL     1      23.084  46.273  32.583  1.00  0.00    -0.545 OA
ATOM      9  O   UNL     1      20.827  46.051  32.862  1.00  0.00    -0.545 OA
ENDBRANCH   1   7
BRANCH   4  10
ATOM     10  O   UNL     1      21.134  41.393  30.080  1.00  0.00    -0.504 OA
ATOM     11  H   UNL     1      20.521  40.966  29.397  1.00  0.00     0.293 HD
ENDBRANCH   4  10
BRANCH   5  12
ATOM     12  O   UNL     1      22.773  45.088  27.377  1.00  0.00    -0.504 OA
ATOM     13  H   UNL     1      23.682  45.518  27.249  1.00  0.00     0.293 HD
ENDBRANCH   5  12
BRANCH   6  14
ATOM     14  O   UNL     1      21.940  42.407  27.580  1.00  0.00    -0.502 OA
ATOM     15  H   UNL     1      22.185  42.756  26.662  1.00  0.00     0.293 HD
ENDBRANCH   6  14
TORSDOF 4
ENDMDL
MODEL 4
REMARK VINA RESULT:    -3.989      1.512      4.291
REMARK INTER + INTRA:          -4.625
REMARK INTER:                  -4.579
REMARK INTRA:                  -0.046
REMARK UNBOUND:                -0.053
REMARK SMILES O=C([O-])c1cc(O)c(O)c(O)c1
REMARK SMILES IDX 4 1 5 2 12 3 6 4 10 5 8 6 2 7 1 8 3 9 7 10 11 12 9 14
REMARK H PARENT 7 11 11 13 9 15
REMARK Flexibility Score: inf
ROOT
ATOM      1  C   UNL     1      21.980  44.901  30.987  1.00  0.00     0.005 A 
ATOM      2  C   UNL     1      22.390  45.466  29.767  1.00  0.00     0.060 A 
ATOM      3  C   UNL     1      21.608  43.548  31.020  1.00  0.00     0.060 A 
ATOM      4  C   UNL     1      22.427  44.694  28.598  1.00  0.00     0.162 A 
ATOM      5  C   UNL     1      21.642  42.769  29.858  1.00  0.00     0.162 A 
ATOM      6  C   UNL     1      22.051  43.340  28.641  1.00  0.00     0.200 A 
ENDROOT
BRANCH   1   7
ATOM      7  C   UNL     1      21.942  45.717  32.222  1.00  0.00     0.072 C 
ATOM      8  O   UNL     1      20.855  45.911  32.828  1.00  0.00    -0.545 OA
ATOM      9  O   UNL     1      23.108  46.279  32.730  1.00  0.00    -0.545 OA
ENDBRANCH   1   7
BRANCH   4  10
ATOM     10  O   UNL     1      22.834  45.267  27.395  1.00  0.00    -0.504 OA
ATOM     11  H   UNL     1      22.499  44.925  26.503  1.00  0.00     0.293 HD
ENDBRANCH   4  10
BRANCH   5  12
ATOM     12  O   UNL     1      21.264  41.429  29.933  1.00  0.00    -0.504 OA
ATOM     13  H   UNL     1      21.010  40.987  30.809  1.00  0.00     0.293 HD
ENDBRANCH   5  12
BRANCH   6  14
ATOM     14  O   UNL     1      22.082  42.556  27.487  1.00  0.00    -0.502 OA
ATOM     15  H   UNL     1      22.824  42.632  26.802  1.00  0.00     0.293 HD
ENDBRANCH   6  14
TORSDOF 4
ENDMDL
MODEL 5
REMARK VINA RESULT:    -3.865      1.349      3.464
REMARK INTER + INTRA:          -4.483
REMARK INTER:                  -4.430
REMARK INTRA:                  -0.053
REMARK UNBOUND:                -0.053
REMARK SMILES O=C([O-])c1cc(O)c(O)c(O)c1
REMARK SMILES IDX 4 1 5 2 12 3 6 4 10 5 8 6 2 7 1 8 3 9 7 10 11 12 9 14
REMARK H PARENT 7 11 11 13 9 15
REMARK Flexibility Score: inf
ROOT
ATOM      1  C   UNL     1      22.369  44.830  28.668  1.00  0.00     0.005 A 
ATOM      2  C   UNL     1      22.120  45.083  30.028  1.00  0.00     0.060 A 
ATOM      3  C   UNL     1      22.114  43.547  28.157  1.00  0.00     0.060 A 
ATOM      4  C   UNL     1      21.627  44.073  30.865  1.00  0.00     0.162 A 
ATOM      5  C   UNL     1      21.622  42.532  28.984  1.00  0.00     0.162 A 
ATOM      6  C   UNL     1      21.377  42.792  30.344  1.00  0.00     0.200 A 
ENDROOT
BRANCH   1   7
ATOM      7  C   UNL     1      22.889  45.897  27.784  1.00  0.00     0.072 C 
ATOM      8  O   UNL     1      23.125  47.047  28.239  1.00  0.00    -0.545 OA
ATOM      9  O   UNL     1      23.125  45.642  26.438  1.00  0.00    -0.545 OA
ENDBRANCH   1   7
BRANCH   4  10
ATOM     10  O   UNL     1      21.385  44.337  32.212  1.00  0.00    -0.504 OA
ATOM     11  H   UNL     1      22.082  44.777  32.800  1.00  0.00     0.293 HD
ENDBRANCH   4  10
BRANCH   5  12
ATOM     12  O   UNL     1      21.384  41.271  28.438  1.00  0.00    -0.504 OA
ATOM     13  H   UNL     1      21.301  41.123  27.439  1.00  0.00     0.293 HD
ENDBRANCH   5  12
BRANCH   6  14
ATOM     14  O   UNL     1      20.885  41.773  31.162  1.00  0.00    -0.502 OA
ATOM     15  H   UNL     1      21.481  41.041  31.529  1.00  0.00     0.293 HD
ENDBRANCH   6  14
TORSDOF 4
ENDMDL
MODEL 6
REMARK VINA RESULT:    -3.790     16.566     18.250
REMARK INTER + INTRA:          -4.396
REMARK INTER:                  -4.349
REMARK INTRA:                  -0.048
REMARK UNBOUND:                -0.053
REMARK SMILES O=C([O-])c1cc(O)c(O)c(O)c1
REMARK SMILES IDX 4 1 5 2 12 3 6 4 10 5 8 6 2 7 1 8 3 9 7 10 11 12 9 14
REMARK H PARENT 7 11 11 13 9 15
REMARK Flexibility Score: inf
ROOT
ATOM      1  C   UNL     1      15.417  29.125  22.435  1.00  0.00     0.005 A 
ATOM      2  C   UNL     1      16.441  29.909  21.877  1.00  0.00     0.060 A 
ATOM      3  C   UNL     1      14.530  28.452  21.578  1.00  0.00     0.060 A 
ATOM      4  C   UNL     1      16.579  30.021  20.487  1.00  0.00     0.162 A 
ATOM      5  C   UNL     1      14.660  28.558  20.189  1.00  0.00     0.162 A 
ATOM      6  C   UNL     1      15.686  29.345  19.638  1.00  0.00     0.200 A 
ENDROOT
BRANCH   1   7
ATOM      7  C   UNL     1      15.272  29.006  23.903  1.00  0.00     0.072 C 
ATOM      8  O   UNL     1      15.167  27.875  24.447  1.00  0.00    -0.545 OA
ATOM      9  O   UNL     1      15.250  30.144  24.703  1.00  0.00    -0.545 OA
ENDBRANCH   1   7
BRANCH   4  10
ATOM     10  O   UNL     1      17.599  30.802  19.946  1.00  0.00    -0.504 OA
ATOM     11  H   UNL     1      17.925  30.668  18.997  1.00  0.00     0.293 HD
ENDBRANCH   4  10
BRANCH   5  12
ATOM     12  O   UNL     1      13.759  27.875  19.373  1.00  0.00    -0.504 OA
ATOM     13  H   UNL     1      13.881  27.811  18.369  1.00  0.00     0.293 HD
ENDBRANCH   5  12
BRANCH   6  14
ATOM     14  O   UNL     1      15.808  29.445  18.251  1.00  0.00    -0.502 OA
ATOM     15  H   UNL     1      15.696  28.644  17.640  1.00  0.00     0.293 HD
ENDBRANCH   6  14
TORSDOF 4
ENDMDL
MODEL 7
REMARK VINA RESULT:    -3.627      1.675      3.339
REMARK INTER + INTRA:          -4.210
REMARK INTER:                  -4.157
REMARK INTRA:                  -0.053
REMARK UNBOUND:                -0.053
REMARK SMILES O=C([O-])c1cc(O)c(O)c(O)c1
REMARK SMILES IDX 4 1 5 2 12 3 6 4 10 5 8 6 2 7 1 8 3 9 7 10 11 12 9 14
REMARK H PARENT 7 11 11 13 9 15
REMARK Flexibility Score: inf
ROOT
ATOM      1  C   UNL     1      22.015  42.873  27.650  1.00  0.00     0.005 A 
ATOM      2  C   UNL     1      21.603  41.557  27.923  1.00  0.00     0.060 A 
ATOM      3  C   UNL     1      22.022  43.814  28.693  1.00  0.00     0.060 A 
ATOM      4  C   UNL     1      21.205  41.185  29.214  1.00  0.00     0.162 A 
ATOM      5  C   UNL     1      21.627  43.452  29.985  1.00  0.00     0.162 A 
ATOM      6  C   UNL     1      21.215  42.134  30.251  1.00  0.00     0.200 A 
ENDROOT
BRANCH   1   7
ATOM      7  C   UNL     1      22.436  43.266  26.287  1.00  0.00     0.072 C 
ATOM      8  O   UNL     1      22.866  44.427  26.059  1.00  0.00    -0.545 OA
ATOM      9  O   UNL     1      22.363  42.355  25.238  1.00  0.00    -0.545 OA
ENDBRANCH   1   7
BRANCH   4  10
ATOM     10  O   UNL     1      20.799  39.877  29.470  1.00  0.00    -0.504 OA
ATOM     11  H   UNL     1      21.113  39.101  28.900  1.00  0.00     0.293 HD
ENDBRANCH   4  10
BRANCH   5  12
ATOM     12  O   UNL     1      21.648  44.416  30.993  1.00  0.00    -0.504 OA
ATOM     13  H   UNL     1      21.426  44.195  31.957  1.00  0.00     0.293 HD
ENDBRANCH   5  12
BRANCH   6  14
ATOM     14  O   UNL     1      20.822  41.782  31.543  1.00  0.00    -0.502 OA
ATOM     15  H   UNL     1      19.971  41.263  31.726  1.00  0.00     0.293 HD
ENDBRANCH   6  14
TORSDOF 4
ENDMDL
