MODEL 1
REMARK VINA RESULT:    -6.205      0.000      0.000
REMARK INTER + INTRA:         -10.174
REMARK INTER:                  -9.107
REMARK INTRA:                  -1.066
REMARK UNBOUND:                -1.066
REMARK SMILES O=c1c(O[C@@H]2O[C@@H](CO)[C@@H](O)[C@@H](O)[C@H]2O)c(-c2ccc(O)c(O)c2)oc2cc(O)cc(O)c12
REMARK SMILES IDX 4 1 3 2 16 3 25 4 2 5 26 6 1 7 33 8 27 9 31 10 28 11 30 12
REMARK SMILES IDX 17 13 18 14 19 15 20 16 24 17 22 18 21 19 23 21 32 23 29 25
REMARK SMILES IDX 5 27 14 28 6 29 12 30 7 31 10 32 15 33 13 35 8 37 9 38 11 40
REMARK H PARENT 21 20 23 22 32 24 29 26 15 34 13 36 9 39 11 41
REMARK Flexibility Score: inf
ROOT
ATOM      1  O   UNL     1      12.020   2.410   1.375  1.00  0.00    -0.454 OA
ENDROOT
BRANCH   1   2
ATOM      2  C   UNL     1      11.845   3.472   0.481  1.00  0.00     0.214 A 
ATOM      3  C   UNL     1      12.234   3.375  -0.883  1.00  0.00     0.180 A 
ATOM      4  O   UNL     1      11.559   4.098  -1.782  1.00  0.00    -0.452 OA
ATOM      5  C   UNL     1      11.027   4.547   0.868  1.00  0.00     0.239 A 
ATOM      6  C   UNL     1      10.611   4.974  -1.472  1.00  0.00     0.146 A 
ATOM      7  O   UNL     1      10.836   4.772   2.095  1.00  0.00    -0.285 OA
ATOM      8  C   UNL     1      10.380   5.327  -0.122  1.00  0.00     0.111 A 
ATOM      9  C   UNL     1       9.876   5.585  -2.498  1.00  0.00     0.094 A 
ATOM     10  C   UNL     1       9.446   6.340   0.170  1.00  0.00     0.134 A 
ATOM     11  C   UNL     1       8.895   6.537  -2.196  1.00  0.00     0.123 A 
ATOM     12  C   UNL     1       8.708   6.941  -0.879  1.00  0.00     0.093 A 
BRANCH   3  13
ATOM     13  C   UNL     1      13.421   2.609  -1.396  1.00  0.00     0.025 A 
ATOM     14  C   UNL     1      13.354   1.333  -1.991  1.00  0.00     0.016 A 
ATOM     15  C   UNL     1      14.528   0.618  -2.263  1.00  0.00     0.051 A 
ATOM     16  C   UNL     1      15.785   1.126  -1.915  1.00  0.00     0.157 A 
ATOM     17  C   UNL     1      14.689   3.147  -1.120  1.00  0.00     0.062 A 
ATOM     18  C   UNL     1      15.867   2.413  -1.370  1.00  0.00     0.158 A 
BRANCH  16  19
ATOM     19  O   UNL     1      16.949   0.373  -2.099  1.00  0.00    -0.504 OA
ATOM     20  H   UNL     1      16.991  -0.599  -1.830  1.00  0.00     0.293 HD
ENDBRANCH  16  19
BRANCH  18  21
ATOM     21  O   UNL     1      17.120   2.950  -1.035  1.00  0.00    -0.504 OA
ATOM     22  H   UNL     1      17.308   3.943  -1.130  1.00  0.00     0.293 HD
ENDBRANCH  18  21
ENDBRANCH   3  13
BRANCH  10  23
ATOM     23  O   UNL     1       9.274   6.809   1.478  1.00  0.00    -0.507 OA
ATOM     24  H   UNL     1       8.354   6.989   1.850  1.00  0.00     0.293 HD
ENDBRANCH  10  23
BRANCH  11  25
ATOM     25  O   UNL     1       8.089   7.076  -3.202  1.00  0.00    -0.508 OA
ATOM     26  H   UNL     1       7.143   6.759  -3.340  1.00  0.00     0.293 HD
ENDBRANCH  11  25
ENDBRANCH   1   2
BRANCH   1  27
ATOM     27  C   UNL     1      11.356   1.165   1.111  1.00  0.00     0.339 C 
ATOM     28  C   UNL     1      11.269   0.225   2.361  1.00  0.00     0.214 C 
ATOM     29  O   UNL     1      10.117   1.390   0.459  1.00  0.00    -0.332 OA
ATOM     30  C   UNL     1       9.990   0.430   3.241  1.00  0.00     0.180 C 
ATOM     31  C   UNL     1       9.118   1.835   1.368  1.00  0.00     0.179 C 
ATOM     32  C   UNL     1       8.764   0.697   2.352  1.00  0.00     0.177 C 
BRANCH  28  33
ATOM     33  O   UNL     1      11.367  -1.117   1.921  1.00  0.00    -0.384 OA
ATOM     34  H   UNL     1      12.048  -1.579   2.491  1.00  0.00     0.211 HD
ENDBRANCH  28  33
BRANCH  30  35
ATOM     35  O   UNL     1       9.779  -0.711   4.047  1.00  0.00    -0.387 OA
ATOM     36  H   UNL     1       9.458  -0.418   4.942  1.00  0.00     0.211 HD
ENDBRANCH  30  35
BRANCH  31  37
ATOM     37  C   UNL     1       7.876   2.305   0.567  1.00  0.00     0.191 C 
BRANCH  37  38
ATOM     38  O   UNL     1       8.213   2.540  -0.781  1.00  0.00    -0.394 OA
ATOM     39  H   UNL     1       9.190   2.710  -0.809  1.00  0.00     0.210 HD
ENDBRANCH  37  38
ENDBRANCH  31  37
BRANCH  32  40
ATOM     40  O   UNL     1       8.386  -0.501   1.693  1.00  0.00    -0.387 OA
ATOM     41  H   UNL     1       8.926  -1.251   2.071  1.00  0.00     0.211 HD
ENDBRANCH  32  40
ENDBRANCH   1  27
TORSDOF 12
ENDMDL
MODEL 2
REMARK VINA RESULT:    -6.107      1.130      2.290
REMARK INTER + INTRA:         -10.030
REMARK INTER:                  -8.903
REMARK INTRA:                  -1.126
REMARK UNBOUND:                -1.066
REMARK SMILES O=c1c(O[C@@H]2O[C@@H](CO)[C@@H](O)[C@@H](O)[C@H]2O)c(-c2ccc(O)c(O)c2)oc2cc(O)cc(O)c12
REMARK SMILES IDX 4 1 3 2 16 3 25 4 2 5 26 6 1 7 33 8 27 9 31 10 28 11 30 12
REMARK SMILES IDX 17 13 18 14 19 15 20 16 24 17 22 18 21 19 23 21 32 23 29 25
REMARK SMILES IDX 5 27 14 28 6 29 12 30 7 31 10 32 15 33 13 35 8 37 9 38 11 40
REMARK H PARENT 21 20 23 22 32 24 29 26 15 34 13 36 9 39 11 41
REMARK Flexibility Score: inf
ROOT
ATOM      1  O   UNL     1      11.446   2.691   1.825  1.00  0.00    -0.454 OA
ENDROOT
BRANCH   1   2
ATOM      2  C   UNL     1      11.402   3.666   0.823  1.00  0.00     0.214 A 
ATOM      3  C   UNL     1      11.849   3.402  -0.501  1.00  0.00     0.180 A 
ATOM      4  O   UNL     1      11.279   4.077  -1.503  1.00  0.00    -0.452 OA
ATOM      5  C   UNL     1      10.655   4.833   1.055  1.00  0.00     0.239 A 
ATOM      6  C   UNL     1      10.391   5.049  -1.336  1.00  0.00     0.146 A 
ATOM      7  O   UNL     1      10.422   5.197   2.240  1.00  0.00    -0.285 OA
ATOM      8  C   UNL     1      10.123   5.554  -0.042  1.00  0.00     0.111 A 
ATOM      9  C   UNL     1       9.759   5.605  -2.457  1.00  0.00     0.094 A 
ATOM     10  C   UNL     1       9.259   6.660   0.095  1.00  0.00     0.134 A 
ATOM     11  C   UNL     1       8.844   6.655  -2.307  1.00  0.00     0.123 A 
ATOM     12  C   UNL     1       8.625   7.204  -1.049  1.00  0.00     0.093 A 
BRANCH   3  13
ATOM     13  C   UNL     1      12.995   2.500  -0.867  1.00  0.00     0.025 A 
ATOM     14  C   UNL     1      12.977   1.096  -0.749  1.00  0.00     0.016 A 
ATOM     15  C   UNL     1      14.153   0.356  -0.933  1.00  0.00     0.051 A 
ATOM     16  C   UNL     1      15.375   0.989  -1.193  1.00  0.00     0.157 A 
ATOM     17  C   UNL     1      14.207   3.123  -1.204  1.00  0.00     0.062 A 
ATOM     18  C   UNL     1      15.395   2.379  -1.361  1.00  0.00     0.158 A 
BRANCH  16  19
ATOM     19  O   UNL     1      16.565   0.260  -1.282  1.00  0.00    -0.504 OA
ATOM     20  H   UNL     1      17.219   0.415  -2.036  1.00  0.00     0.293 HD
ENDBRANCH  16  19
BRANCH  18  21
ATOM     21  O   UNL     1      16.606   3.029  -1.644  1.00  0.00    -0.504 OA
ATOM     22  H   UNL     1      17.497   2.625  -1.370  1.00  0.00     0.293 HD
ENDBRANCH  18  21
ENDBRANCH   3  13
BRANCH  10  23
ATOM     23  O   UNL     1       9.061   7.271   1.339  1.00  0.00    -0.507 OA
ATOM     24  H   UNL     1       9.712   7.956   1.691  1.00  0.00     0.293 HD
ENDBRANCH  10  23
BRANCH  11  25
ATOM     25  O   UNL     1       8.135   7.147  -3.405  1.00  0.00    -0.508 OA
ATOM     26  H   UNL     1       7.560   6.542  -3.970  1.00  0.00     0.293 HD
ENDBRANCH  11  25
ENDBRANCH   1   2
BRANCH   1  27
ATOM     27  C   UNL     1      10.213   2.161   2.333  1.00  0.00     0.339 C 
ATOM     28  C   UNL     1       9.194   1.762   1.213  1.00  0.00     0.214 C 
ATOM     29  O   UNL     1      10.465   1.143   3.288  1.00  0.00    -0.332 OA
ATOM     30  C   UNL     1       9.326   0.285   0.710  1.00  0.00     0.180 C 
ATOM     31  C   UNL     1      10.838  -0.080   2.666  1.00  0.00     0.179 C 
ATOM     32  C   UNL     1       9.636  -0.657   1.886  1.00  0.00     0.177 C 
BRANCH  28  33
ATOM     33  O   UNL     1       7.884   2.016   1.686  1.00  0.00    -0.384 OA
ATOM     34  H   UNL     1       7.726   3.003   1.640  1.00  0.00     0.211 HD
ENDBRANCH  28  33
BRANCH  30  35
ATOM     35  O   UNL     1       8.134  -0.106   0.062  1.00  0.00    -0.387 OA
ATOM     36  H   UNL     1       8.340  -0.845  -0.573  1.00  0.00     0.211 HD
ENDBRANCH  30  35
BRANCH  31  37
ATOM     37  C   UNL     1      11.343  -1.067   3.750  1.00  0.00     0.191 C 
BRANCH  37  38
ATOM     38  O   UNL     1      10.443  -1.120   4.833  1.00  0.00    -0.394 OA
ATOM     39  H   UNL     1      10.556  -2.007   5.261  1.00  0.00     0.210 HD
ENDBRANCH  37  38
ENDBRANCH  31  37
BRANCH  32  40
ATOM     40  O   UNL     1       8.477  -0.804   2.692  1.00  0.00    -0.387 OA
ATOM     41  H   UNL     1       8.619  -0.300   3.541  1.00  0.00     0.211 HD
ENDBRANCH  32  40
ENDBRANCH   1  27
TORSDOF 12
ENDMDL
MODEL 3
REMARK VINA RESULT:    -6.074      1.790      6.263
REMARK INTER + INTRA:          -9.981
REMARK INTER:                  -9.059
REMARK INTRA:                  -0.922
REMARK UNBOUND:                -1.066
REMARK SMILES O=c1c(O[C@@H]2O[C@@H](CO)[C@@H](O)[C@@H](O)[C@H]2O)c(-c2ccc(O)c(O)c2)oc2cc(O)cc(O)c12
REMARK SMILES IDX 4 1 3 2 16 3 25 4 2 5 26 6 1 7 33 8 27 9 31 10 28 11 30 12
REMARK SMILES IDX 17 13 18 14 19 15 20 16 24 17 22 18 21 19 23 21 32 23 29 25
REMARK SMILES IDX 5 27 14 28 6 29 12 30 7 31 10 32 15 33 13 35 8 37 9 38 11 40
REMARK H PARENT 21 20 23 22 32 24 29 26 15 34 13 36 9 39 11 41
REMARK Flexibility Score: inf
ROOT
ATOM      1  O   UNL     1      12.006   3.785   0.985  1.00  0.00    -0.454 OA
ENDROOT
BRANCH   1   2
ATOM      2  C   UNL     1      13.069   2.893   0.808  1.00  0.00     0.214 A 
ATOM      3  C   UNL     1      12.860   1.491   0.697  1.00  0.00     0.180 A 
ATOM      4  O   UNL     1      13.732   0.781  -0.024  1.00  0.00    -0.452 OA
ATOM      5  C   UNL     1      14.329   3.410   0.464  1.00  0.00     0.239 A 
ATOM      6  C   UNL     1      14.836   1.284  -0.563  1.00  0.00     0.146 A 
ATOM      7  O   UNL     1      14.607   4.608   0.744  1.00  0.00    -0.285 OA
ATOM      8  C   UNL     1      15.249   2.599  -0.247  1.00  0.00     0.111 A 
ATOM      9  C   UNL     1      15.617   0.482  -1.408  1.00  0.00     0.094 A 
ATOM     10  C   UNL     1      16.481   3.069  -0.744  1.00  0.00     0.134 A 
ATOM     11  C   UNL     1      16.803   0.981  -1.961  1.00  0.00     0.123 A 
ATOM     12  C   UNL     1      17.252   2.247  -1.602  1.00  0.00     0.093 A 
BRANCH   3  13
ATOM     13  C   UNL     1      11.795   0.711   1.416  1.00  0.00     0.025 A 
ATOM     14  C   UNL     1      11.322  -0.554   1.016  1.00  0.00     0.016 A 
ATOM     15  C   UNL     1      10.197  -1.117   1.636  1.00  0.00     0.051 A 
ATOM     16  C   UNL     1       9.494  -0.424   2.629  1.00  0.00     0.157 A 
ATOM     17  C   UNL     1      11.132   1.366   2.467  1.00  0.00     0.062 A 
ATOM     18  C   UNL     1       9.984   0.810   3.069  1.00  0.00     0.158 A 
BRANCH  16  19
ATOM     19  O   UNL     1       8.318  -0.943   3.181  1.00  0.00    -0.504 OA
ATOM     20  H   UNL     1       7.952  -1.837   2.887  1.00  0.00     0.293 HD
ENDBRANCH  16  19
BRANCH  18  21
ATOM     21  O   UNL     1       9.307   1.509   4.081  1.00  0.00    -0.504 OA
ATOM     22  H   UNL     1       8.523   1.092   4.574  1.00  0.00     0.293 HD
ENDBRANCH  18  21
ENDBRANCH   3  13
BRANCH  10  23
ATOM     23  O   UNL     1      16.988   4.315  -0.358  1.00  0.00    -0.507 OA
ATOM     24  H   UNL     1      17.002   5.093  -1.000  1.00  0.00     0.293 HD
ENDBRANCH  10  23
BRANCH  11  25
ATOM     25  O   UNL     1      17.534   0.227  -2.882  1.00  0.00    -0.508 OA
ATOM     26  H   UNL     1      18.431  -0.165  -2.643  1.00  0.00     0.293 HD
ENDBRANCH  11  25
ENDBRANCH   1   2
BRANCH   1  27
ATOM     27  C   UNL     1      11.200   4.137  -0.149  1.00  0.00     0.339 C 
ATOM     28  C   UNL     1      10.211   3.004  -0.591  1.00  0.00     0.214 C 
ATOM     29  O   UNL     1      10.591   5.403   0.046  1.00  0.00    -0.332 OA
ATOM     30  C   UNL     1       8.809   3.059   0.104  1.00  0.00     0.180 C 
ATOM     31  C   UNL     1       9.478   5.321   0.926  1.00  0.00     0.179 C 
ATOM     32  C   UNL     1       8.342   4.515   0.257  1.00  0.00     0.177 C 
BRANCH  28  33
ATOM     33  O   UNL     1      10.077   3.049  -1.999  1.00  0.00    -0.384 OA
ATOM     34  H   UNL     1      10.995   3.026  -2.397  1.00  0.00     0.211 HD
ENDBRANCH  28  33
BRANCH  30  35
ATOM     35  O   UNL     1       7.875   2.315  -0.651  1.00  0.00    -0.387 OA
ATOM     36  H   UNL     1       7.702   1.451  -0.189  1.00  0.00     0.211 HD
ENDBRANCH  30  35
BRANCH  31  37
ATOM     37  C   UNL     1       9.019   6.755   1.300  1.00  0.00     0.191 C 
BRANCH  37  38
ATOM     38  O   UNL     1       8.553   7.440   0.160  1.00  0.00    -0.394 OA
ATOM     39  H   UNL     1       7.698   7.874   0.413  1.00  0.00     0.210 HD
ENDBRANCH  37  38
ENDBRANCH  31  37
BRANCH  32  40
ATOM     40  O   UNL     1       7.977   5.032  -1.013  1.00  0.00    -0.387 OA
ATOM     41  H   UNL     1       8.693   5.657  -1.316  1.00  0.00     0.211 HD
ENDBRANCH  32  40
ENDBRANCH   1  27
TORSDOF 12
ENDMDL
MODEL 4
REMARK VINA RESULT:    -5.935      2.888      6.373
REMARK INTER + INTRA:          -9.778
REMARK INTER:                  -8.664
REMARK INTRA:                  -1.114
REMARK UNBOUND:                -1.066
REMARK SMILES O=c1c(O[C@@H]2O[C@@H](CO)[C@@H](O)[C@@H](O)[C@H]2O)c(-c2ccc(O)c(O)c2)oc2cc(O)cc(O)c12
REMARK SMILES IDX 4 1 3 2 16 3 25 4 2 5 26 6 1 7 33 8 27 9 31 10 28 11 30 12
REMARK SMILES IDX 17 13 18 14 19 15 20 16 24 17 22 18 21 19 23 21 32 23 29 25
REMARK SMILES IDX 5 27 14 28 6 29 12 30 7 31 10 32 15 33 13 35 8 37 9 38 11 40
REMARK H PARENT 21 20 23 22 32 24 29 26 15 34 13 36 9 39 11 41
REMARK Flexibility Score: inf
ROOT
ATOM      1  O   UNL     1      14.065  -0.332  -0.854  1.00  0.00    -0.454 OA
ENDROOT
BRANCH   1   2
ATOM      2  C   UNL     1      12.956  -0.058  -0.047  1.00  0.00     0.214 A 
ATOM      3  C   UNL     1      13.094   0.513   1.248  1.00  0.00     0.180 A 
ATOM      4  O   UNL     1      12.095   1.272   1.710  1.00  0.00    -0.452 OA
ATOM      5  C   UNL     1      11.678  -0.093  -0.629  1.00  0.00     0.239 A 
ATOM      6  C   UNL     1      10.941   1.448   1.078  1.00  0.00     0.146 A 
ATOM      7  O   UNL     1      11.490  -0.770  -1.677  1.00  0.00    -0.285 OA
ATOM      8  C   UNL     1      10.630   0.679  -0.068  1.00  0.00     0.111 A 
ATOM      9  C   UNL     1      10.010   2.365   1.587  1.00  0.00     0.094 A 
ATOM     10  C   UNL     1       9.354   0.806  -0.653  1.00  0.00     0.134 A 
ATOM     11  C   UNL     1       8.772   2.542   0.956  1.00  0.00     0.123 A 
ATOM     12  C   UNL     1       8.431   1.743  -0.128  1.00  0.00     0.093 A 
BRANCH   3  13
ATOM     13  C   UNL     1      14.227   0.248   2.199  1.00  0.00     0.025 A 
ATOM     14  C   UNL     1      14.525  -1.012   2.755  1.00  0.00     0.016 A 
ATOM     15  C   UNL     1      15.479  -1.125   3.777  1.00  0.00     0.051 A 
ATOM     16  C   UNL     1      16.123   0.005   4.297  1.00  0.00     0.157 A 
ATOM     17  C   UNL     1      14.932   1.367   2.671  1.00  0.00     0.062 A 
ATOM     18  C   UNL     1      15.871   1.254   3.717  1.00  0.00     0.158 A 
BRANCH  16  19
ATOM     19  O   UNL     1      17.003  -0.096   5.379  1.00  0.00    -0.504 OA
ATOM     20  H   UNL     1      16.970   0.564   6.143  1.00  0.00     0.293 HD
ENDBRANCH  16  19
BRANCH  18  21
ATOM     21  O   UNL     1      16.524   2.395   4.209  1.00  0.00    -0.504 OA
ATOM     22  H   UNL     1      17.146   2.939   3.620  1.00  0.00     0.293 HD
ENDBRANCH  18  21
ENDBRANCH   3  13
BRANCH  10  23
ATOM     23  O   UNL     1       8.959  -0.022  -1.710  1.00  0.00    -0.507 OA
ATOM     24  H   UNL     1       9.249  -0.987  -1.751  1.00  0.00     0.293 HD
ENDBRANCH  10  23
BRANCH  11  25
ATOM     25  O   UNL     1       7.881   3.524   1.395  1.00  0.00    -0.508 OA
ATOM     26  H   UNL     1       7.033   3.281   1.881  1.00  0.00     0.293 HD
ENDBRANCH  11  25
ENDBRANCH   1   2
BRANCH   1  27
ATOM     27  C   UNL     1      14.471   0.639  -1.830  1.00  0.00     0.339 C 
ATOM     28  C   UNL     1      13.974   2.091  -1.512  1.00  0.00     0.214 C 
ATOM     29  O   UNL     1      15.862   0.538  -2.085  1.00  0.00    -0.332 OA
ATOM     30  C   UNL     1      14.957   2.936  -0.634  1.00  0.00     0.180 C 
ATOM     31  C   UNL     1      16.631   1.128  -1.045  1.00  0.00     0.179 C 
ATOM     32  C   UNL     1      16.414   2.658  -1.039  1.00  0.00     0.177 C 
BRANCH  28  33
ATOM     33  O   UNL     1      13.700   2.749  -2.736  1.00  0.00    -0.384 OA
ATOM     34  H   UNL     1      13.017   3.459  -2.557  1.00  0.00     0.211 HD
ENDBRANCH  28  33
BRANCH  30  35
ATOM     35  O   UNL     1      14.657   4.310  -0.773  1.00  0.00    -0.387 OA
ATOM     36  H   UNL     1      14.659   4.732   0.128  1.00  0.00     0.211 HD
ENDBRANCH  30  35
BRANCH  31  37
ATOM     37  C   UNL     1      18.125   0.764  -1.249  1.00  0.00     0.191 C 
BRANCH  37  38
ATOM     38  O   UNL     1      18.782   1.759  -2.000  1.00  0.00    -0.394 OA
ATOM     39  H   UNL     1      18.157   2.038  -2.717  1.00  0.00     0.210 HD
ENDBRANCH  37  38
ENDBRANCH  31  37
BRANCH  32  40
ATOM     40  O   UNL     1      16.678   3.255  -2.298  1.00  0.00    -0.387 OA
ATOM     41  H   UNL     1      16.780   4.239  -2.164  1.00  0.00     0.211 HD
ENDBRANCH  32  40
ENDBRANCH   1  27
TORSDOF 12
ENDMDL
MODEL 5
REMARK VINA RESULT:    -5.862      2.490      5.610
REMARK INTER + INTRA:          -9.670
REMARK INTER:                  -8.659
REMARK INTRA:                  -1.012
REMARK UNBOUND:                -1.066
REMARK SMILES O=c1c(O[C@@H]2O[C@@H](CO)[C@@H](O)[C@@H](O)[C@H]2O)c(-c2ccc(O)c(O)c2)oc2cc(O)cc(O)c12
REMARK SMILES IDX 4 1 3 2 16 3 25 4 2 5 26 6 1 7 33 8 27 9 31 10 28 11 30 12
REMARK SMILES IDX 17 13 18 14 19 15 20 16 24 17 22 18 21 19 23 21 32 23 29 25
REMARK SMILES IDX 5 27 14 28 6 29 12 30 7 31 10 32 15 33 13 35 8 37 9 38 11 40
REMARK H PARENT 21 20 23 22 32 24 29 26 15 34 13 36 9 39 11 41
REMARK Flexibility Score: inf
ROOT
ATOM      1  O   UNL     1      12.656   0.295  -0.054  1.00  0.00    -0.454 OA
ENDROOT
BRANCH   1   2
ATOM      2  C   UNL     1      11.909   1.281   0.600  1.00  0.00     0.214 A 
ATOM      3  C   UNL     1      12.500   2.168   1.542  1.00  0.00     0.180 A 
ATOM      4  O   UNL     1      11.966   3.385   1.679  1.00  0.00    -0.452 OA
ATOM      5  C   UNL     1      10.623   1.577   0.119  1.00  0.00     0.239 A 
ATOM      6  C   UNL     1      10.861   3.787   1.064  1.00  0.00     0.146 A 
ATOM      7  O   UNL     1       9.995   0.713  -0.552  1.00  0.00    -0.285 OA
ATOM      8  C   UNL     1      10.069   2.862   0.343  1.00  0.00     0.111 A 
ATOM      9  C   UNL     1      10.457   5.125   1.176  1.00  0.00     0.094 A 
ATOM     10  C   UNL     1       8.845   3.292  -0.207  1.00  0.00     0.134 A 
ATOM     11  C   UNL     1       9.277   5.564   0.564  1.00  0.00     0.123 A 
ATOM     12  C   UNL     1       8.457   4.649  -0.088  1.00  0.00     0.093 A 
BRANCH   3  13
ATOM     13  C   UNL     1      13.615   1.815   2.486  1.00  0.00     0.025 A 
ATOM     14  C   UNL     1      14.839   2.508   2.572  1.00  0.00     0.016 A 
ATOM     15  C   UNL     1      15.890   1.993   3.343  1.00  0.00     0.051 A 
ATOM     16  C   UNL     1      15.768   0.766   4.008  1.00  0.00     0.157 A 
ATOM     17  C   UNL     1      13.473   0.625   3.217  1.00  0.00     0.062 A 
ATOM     18  C   UNL     1      14.541   0.095   3.970  1.00  0.00     0.158 A 
BRANCH  16  19
ATOM     19  O   UNL     1      16.847   0.205   4.699  1.00  0.00    -0.504 OA
ATOM     20  H   UNL     1      17.389   0.751   5.354  1.00  0.00     0.293 HD
ENDBRANCH  16  19
BRANCH  18  21
ATOM     21  O   UNL     1      14.392  -1.125   4.649  1.00  0.00    -0.504 OA
ATOM     22  H   UNL     1      15.040  -1.892   4.500  1.00  0.00     0.293 HD
ENDBRANCH  18  21
ENDBRANCH   3  13
BRANCH  10  23
ATOM     23  O   UNL     1       7.971   2.385  -0.819  1.00  0.00    -0.507 OA
ATOM     24  H   UNL     1       7.431   2.650  -1.629  1.00  0.00     0.293 HD
ENDBRANCH  10  23
BRANCH  11  25
ATOM     25  O   UNL     1       8.920   6.914   0.585  1.00  0.00    -0.508 OA
ATOM     26  H   UNL     1       9.153   7.504   1.368  1.00  0.00     0.293 HD
ENDBRANCH  11  25
ENDBRANCH   1   2
BRANCH   1  27
ATOM     27  C   UNL     1      13.301   0.622  -1.293  1.00  0.00     0.339 C 
ATOM     28  C   UNL     1      13.248   2.147  -1.645  1.00  0.00     0.214 C 
ATOM     29  O   UNL     1      14.600   0.053  -1.343  1.00  0.00    -0.332 OA
ATOM     30  C   UNL     1      14.450   2.984  -1.092  1.00  0.00     0.180 C 
ATOM     31  C   UNL     1      15.528   0.794  -0.561  1.00  0.00     0.179 C 
ATOM     32  C   UNL     1      15.757   2.182  -1.199  1.00  0.00     0.177 C 
BRANCH  28  33
ATOM     33  O   UNL     1      13.147   2.281  -3.051  1.00  0.00    -0.384 OA
ATOM     34  H   UNL     1      13.970   1.883  -3.458  1.00  0.00     0.211 HD
ENDBRANCH  28  33
BRANCH  30  35
ATOM     35  O   UNL     1      14.552   4.199  -1.806  1.00  0.00    -0.387 OA
ATOM     36  H   UNL     1      15.109   4.049  -2.617  1.00  0.00     0.211 HD
ENDBRANCH  30  35
BRANCH  31  37
ATOM     37  C   UNL     1      16.850  -0.009  -0.447  1.00  0.00     0.191 C 
BRANCH  37  38
ATOM     38  O   UNL     1      17.849   0.561  -1.262  1.00  0.00    -0.394 OA
ATOM     39  H   UNL     1      17.560   0.438  -2.202  1.00  0.00     0.210 HD
ENDBRANCH  37  38
ENDBRANCH  31  37
BRANCH  32  40
ATOM     40  O   UNL     1      16.154   2.103  -2.558  1.00  0.00    -0.387 OA
ATOM     41  H   UNL     1      16.659   2.933  -2.787  1.00  0.00     0.211 HD
ENDBRANCH  32  40
ENDBRANCH   1  27
TORSDOF 12
ENDMDL
MODEL 6
REMARK VINA RESULT:    -5.826      1.813      3.161
REMARK INTER + INTRA:          -9.617
REMARK INTER:                  -9.733
REMARK INTRA:                   0.117
REMARK UNBOUND:                -1.066
REMARK SMILES O=c1c(O[C@@H]2O[C@@H](CO)[C@@H](O)[C@@H](O)[C@H]2O)c(-c2ccc(O)c(O)c2)oc2cc(O)cc(O)c12
REMARK SMILES IDX 4 1 3 2 16 3 25 4 2 5 26 6 1 7 33 8 27 9 31 10 28 11 30 12
REMARK SMILES IDX 17 13 18 14 19 15 20 16 24 17 22 18 21 19 23 21 32 23 29 25
REMARK SMILES IDX 5 27 14 28 6 29 12 30 7 31 10 32 15 33 13 35 8 37 9 38 11 40
REMARK H PARENT 21 20 23 22 32 24 29 26 15 34 13 36 9 39 11 41
REMARK Flexibility Score: inf
ROOT
ATOM      1  O   UNL     1      11.594   1.639   1.036  1.00  0.00    -0.454 OA
ENDROOT
BRANCH   1   2
ATOM      2  C   UNL     1      11.594   2.838   0.316  1.00  0.00     0.214 A 
ATOM      3  C   UNL     1      12.076   2.909  -1.021  1.00  0.00     0.180 A 
ATOM      4  O   UNL     1      11.546   3.830  -1.831  1.00  0.00    -0.452 OA
ATOM      5  C   UNL     1      10.860   3.924   0.819  1.00  0.00     0.239 A 
ATOM      6  C   UNL     1      10.669   4.747  -1.443  1.00  0.00     0.146 A 
ATOM      7  O   UNL     1      10.598   3.979   2.052  1.00  0.00    -0.285 OA
ATOM      8  C   UNL     1      10.371   4.913  -0.070  1.00  0.00     0.111 A 
ATOM      9  C   UNL     1      10.079   5.584  -2.400  1.00  0.00     0.094 A 
ATOM     10  C   UNL     1       9.521   5.966   0.323  1.00  0.00     0.134 A 
ATOM     11  C   UNL     1       9.176   6.581  -2.010  1.00  0.00     0.123 A 
ATOM     12  C   UNL     1       8.929   6.797  -0.659  1.00  0.00     0.093 A 
BRANCH   3  13
ATOM     13  C   UNL     1      13.217   2.104  -1.577  1.00  0.00     0.025 A 
ATOM     14  C   UNL     1      13.161   0.725  -1.858  1.00  0.00     0.016 A 
ATOM     15  C   UNL     1      14.328   0.024  -2.193  1.00  0.00     0.051 A 
ATOM     16  C   UNL     1      15.576   0.660  -2.213  1.00  0.00     0.157 A 
ATOM     17  C   UNL     1      14.459   2.752  -1.675  1.00  0.00     0.062 A 
ATOM     18  C   UNL     1      15.636   2.039  -1.985  1.00  0.00     0.158 A 
BRANCH  16  19
ATOM     19  O   UNL     1      16.752  -0.058  -2.454  1.00  0.00    -0.504 OA
ATOM     20  H   UNL     1      17.634   0.414  -2.591  1.00  0.00     0.293 HD
ENDBRANCH  16  19
BRANCH  18  21
ATOM     21  O   UNL     1      16.874   2.699  -2.024  1.00  0.00    -0.504 OA
ATOM     22  H   UNL     1      17.656   2.384  -1.458  1.00  0.00     0.293 HD
ENDBRANCH  18  21
ENDBRANCH   3  13
BRANCH  10  23
ATOM     23  O   UNL     1       9.297   6.245   1.677  1.00  0.00    -0.507 OA
ATOM     24  H   UNL     1       9.444   5.542   2.384  1.00  0.00     0.293 HD
ENDBRANCH  10  23
BRANCH  11  25
ATOM     25  O   UNL     1       8.507   7.352  -2.963  1.00  0.00    -0.508 OA
ATOM     26  H   UNL     1       8.915   8.196  -3.333  1.00  0.00     0.293 HD
ENDBRANCH  11  25
ENDBRANCH   1   2
BRANCH   1  27
ATOM     27  C   UNL     1      12.432   1.526   2.196  1.00  0.00     0.339 C 
ATOM     28  C   UNL     1      13.232   0.181   2.262  1.00  0.00     0.214 C 
ATOM     29  O   UNL     1      13.227   2.691   2.350  1.00  0.00    -0.332 OA
ATOM     30  C   UNL     1      14.634   0.224   1.566  1.00  0.00     0.180 C 
ATOM     31  C   UNL     1      14.325   2.701   1.447  1.00  0.00     0.179 C 
ATOM     32  C   UNL     1      15.318   1.578   1.820  1.00  0.00     0.177 C 
BRANCH  28  33
ATOM     33  O   UNL     1      13.357  -0.201   3.620  1.00  0.00    -0.384 OA
ATOM     34  H   UNL     1      12.772   0.402   4.165  1.00  0.00     0.211 HD
ENDBRANCH  28  33
BRANCH  30  35
ATOM     35  O   UNL     1      15.437  -0.835   2.046  1.00  0.00    -0.387 OA
ATOM     36  H   UNL     1      15.091  -1.125   2.933  1.00  0.00     0.211 HD
ENDBRANCH  30  35
BRANCH  31  37
ATOM     37  C   UNL     1      15.000   4.097   1.484  1.00  0.00     0.191 C 
BRANCH  37  38
ATOM     38  O   UNL     1      14.120   5.087   1.002  1.00  0.00    -0.394 OA
ATOM     39  H   UNL     1      13.801   4.783   0.114  1.00  0.00     0.210 HD
ENDBRANCH  37  38
ENDBRANCH  31  37
BRANCH  32  40
ATOM     40  O   UNL     1      15.744   1.647   3.171  1.00  0.00    -0.387 OA
ATOM     41  H   UNL     1      16.437   2.362   3.246  1.00  0.00     0.211 HD
ENDBRANCH  32  40
ENDBRANCH   1  27
TORSDOF 12
ENDMDL
MODEL 7
REMARK VINA RESULT:    -5.761      2.608      5.629
REMARK INTER + INTRA:          -9.522
REMARK INTER:                  -8.746
REMARK INTRA:                  -0.776
REMARK UNBOUND:                -1.066
REMARK SMILES O=c1c(O[C@@H]2O[C@@H](CO)[C@@H](O)[C@@H](O)[C@H]2O)c(-c2ccc(O)c(O)c2)oc2cc(O)cc(O)c12
REMARK SMILES IDX 4 1 3 2 16 3 25 4 2 5 26 6 1 7 33 8 27 9 31 10 28 11 30 12
REMARK SMILES IDX 17 13 18 14 19 15 20 16 24 17 22 18 21 19 23 21 32 23 29 25
REMARK SMILES IDX 5 27 14 28 6 29 12 30 7 31 10 32 15 33 13 35 8 37 9 38 11 40
REMARK H PARENT 21 20 23 22 32 24 29 26 15 34 13 36 9 39 11 41
REMARK Flexibility Score: inf
ROOT
ATOM      1  O   UNL     1      12.899   0.004  -0.133  1.00  0.00    -0.454 OA
ENDROOT
BRANCH   1   2
ATOM      2  C   UNL     1      12.132   0.896   0.623  1.00  0.00     0.214 A 
ATOM      3  C   UNL     1      12.663   1.563   1.761  1.00  0.00     0.180 A 
ATOM      4  O   UNL     1      12.167   2.764   2.074  1.00  0.00    -0.452 OA
ATOM      5  C   UNL     1      10.911   1.347   0.094  1.00  0.00     0.239 A 
ATOM      6  C   UNL     1      11.144   3.333   1.448  1.00  0.00     0.146 A 
ATOM      7  O   UNL     1      10.318   0.655  -0.779  1.00  0.00    -0.285 OA
ATOM      8  C   UNL     1      10.390   2.600   0.502  1.00  0.00     0.111 A 
ATOM      9  C   UNL     1      10.785   4.649   1.771  1.00  0.00     0.094 A 
ATOM     10  C   UNL     1       9.243   3.190  -0.064  1.00  0.00     0.134 A 
ATOM     11  C   UNL     1       9.688   5.258   1.148  1.00  0.00     0.123 A 
ATOM     12  C   UNL     1       8.900   4.523   0.269  1.00  0.00     0.093 A 
BRANCH   3  13
ATOM     13  C   UNL     1      13.666   0.984   2.719  1.00  0.00     0.025 A 
ATOM     14  C   UNL     1      13.529  -0.261   3.365  1.00  0.00     0.016 A 
ATOM     15  C   UNL     1      14.419  -0.631   4.382  1.00  0.00     0.051 A 
ATOM     16  C   UNL     1      15.432   0.236   4.811  1.00  0.00     0.157 A 
ATOM     17  C   UNL     1      14.731   1.816   3.099  1.00  0.00     0.062 A 
ATOM     18  C   UNL     1      15.608   1.453   4.143  1.00  0.00     0.158 A 
BRANCH  16  19
ATOM     19  O   UNL     1      16.260  -0.092   5.889  1.00  0.00    -0.504 OA
ATOM     20  H   UNL     1      17.246  -0.263   5.759  1.00  0.00     0.293 HD
ENDBRANCH  16  19
BRANCH  18  21
ATOM     21  O   UNL     1      16.633   2.326   4.542  1.00  0.00    -0.504 OA
ATOM     22  H   UNL     1      16.916   2.393   5.515  1.00  0.00     0.293 HD
ENDBRANCH  18  21
ENDBRANCH   3  13
BRANCH  10  23
ATOM     23  O   UNL     1       8.397   2.461  -0.909  1.00  0.00    -0.507 OA
ATOM     24  H   UNL     1       7.909   1.644  -0.576  1.00  0.00     0.293 HD
ENDBRANCH  10  23
BRANCH  11  25
ATOM     25  O   UNL     1       9.384   6.600   1.388  1.00  0.00    -0.508 OA
ATOM     26  H   UNL     1       9.904   7.142   2.059  1.00  0.00     0.293 HD
ENDBRANCH  11  25
ENDBRANCH   1   2
BRANCH   1  27
ATOM     27  C   UNL     1      14.319   0.200  -0.208  1.00  0.00     0.339 C 
ATOM     28  C   UNL     1      15.045  -0.828  -1.140  1.00  0.00     0.214 C 
ATOM     29  O   UNL     1      14.620   1.558  -0.484  1.00  0.00    -0.332 OA
ATOM     30  C   UNL     1      15.161  -0.380  -2.636  1.00  0.00     0.180 C 
ATOM     31  C   UNL     1      14.413   1.873  -1.855  1.00  0.00     0.179 C 
ATOM     32  C   UNL     1      15.451   1.127  -2.724  1.00  0.00     0.177 C 
BRANCH  28  33
ATOM     33  O   UNL     1      16.324  -1.101  -0.597  1.00  0.00    -0.384 OA
ATOM     34  H   UNL     1      16.935  -0.352  -0.856  1.00  0.00     0.211 HD
ENDBRANCH  28  33
BRANCH  30  35
ATOM     35  O   UNL     1      16.178  -1.120  -3.277  1.00  0.00    -0.387 OA
ATOM     36  H   UNL     1      16.132  -0.950  -4.257  1.00  0.00     0.211 HD
ENDBRANCH  30  35
BRANCH  31  37
ATOM     37  C   UNL     1      14.509   3.410  -2.043  1.00  0.00     0.191 C 
BRANCH  37  38
ATOM     38  O   UNL     1      15.732   3.897  -1.542  1.00  0.00    -0.394 OA
ATOM     39  H   UNL     1      15.529   4.375  -0.698  1.00  0.00     0.210 HD
ENDBRANCH  37  38
ENDBRANCH  31  37
BRANCH  32  40
ATOM     40  O   UNL     1      16.787   1.377  -2.318  1.00  0.00    -0.387 OA
ATOM     41  H   UNL     1      17.401   1.010  -3.015  1.00  0.00     0.211 HD
ENDBRANCH  32  40
ENDBRANCH   1  27
TORSDOF 12
ENDMDL
MODEL 8
REMARK VINA RESULT:    -5.645      3.149      6.054
REMARK INTER + INTRA:          -9.351
REMARK INTER:                  -8.507
REMARK INTRA:                  -0.844
REMARK UNBOUND:                -1.066
REMARK SMILES O=c1c(O[C@@H]2O[C@@H](CO)[C@@H](O)[C@@H](O)[C@H]2O)c(-c2ccc(O)c(O)c2)oc2cc(O)cc(O)c12
REMARK SMILES IDX 4 1 3 2 16 3 25 4 2 5 26 6 1 7 33 8 27 9 31 10 28 11 30 12
REMARK SMILES IDX 17 13 18 14 19 15 20 16 24 17 22 18 21 19 23 21 32 23 29 25
REMARK SMILES IDX 5 27 14 28 6 29 12 30 7 31 10 32 15 33 13 35 8 37 9 38 11 40
REMARK H PARENT 21 20 23 22 32 24 29 26 15 34 13 36 9 39 11 41
REMARK Flexibility Score: inf
ROOT
ATOM      1  O   UNL     1      12.165   0.861   1.036  1.00  0.00    -0.454 OA
ENDROOT
BRANCH   1   2
ATOM      2  C   UNL     1      13.479   1.001   1.495  1.00  0.00     0.214 A 
ATOM      3  C   UNL     1      14.324   2.050   1.040  1.00  0.00     0.180 A 
ATOM      4  O   UNL     1      15.271   2.499   1.868  1.00  0.00    -0.452 OA
ATOM      5  C   UNL     1      13.879   0.262   2.621  1.00  0.00     0.239 A 
ATOM      6  C   UNL     1      15.539   1.963   3.053  1.00  0.00     0.146 A 
ATOM      7  O   UNL     1      13.261  -0.796   2.922  1.00  0.00    -0.285 OA
ATOM      8  C   UNL     1      14.933   0.743   3.437  1.00  0.00     0.111 A 
ATOM      9  C   UNL     1      16.466   2.588   3.898  1.00  0.00     0.094 A 
ATOM     10  C   UNL     1      15.319   0.140   4.650  1.00  0.00     0.134 A 
ATOM     11  C   UNL     1      16.789   2.022   5.138  1.00  0.00     0.123 A 
ATOM     12  C   UNL     1      16.252   0.790   5.494  1.00  0.00     0.093 A 
BRANCH   3  13
ATOM     13  C   UNL     1      14.317   2.632  -0.346  1.00  0.00     0.025 A 
ATOM     14  C   UNL     1      15.464   2.805  -1.147  1.00  0.00     0.016 A 
ATOM     15  C   UNL     1      15.386   3.529  -2.345  1.00  0.00     0.051 A 
ATOM     16  C   UNL     1      14.190   4.132  -2.753  1.00  0.00     0.157 A 
ATOM     17  C   UNL     1      13.103   3.173  -0.800  1.00  0.00     0.062 A 
ATOM     18  C   UNL     1      13.034   3.924  -1.991  1.00  0.00     0.158 A 
BRANCH  16  19
ATOM     19  O   UNL     1      14.134   4.933  -3.897  1.00  0.00    -0.504 OA
ATOM     20  H   UNL     1      14.547   5.854  -3.912  1.00  0.00     0.293 HD
ENDBRANCH  16  19
BRANCH  18  21
ATOM     21  O   UNL     1      11.819   4.501  -2.396  1.00  0.00    -0.504 OA
ATOM     22  H   UNL     1      11.758   5.054  -3.245  1.00  0.00     0.293 HD
ENDBRANCH  18  21
ENDBRANCH   3  13
BRANCH  10  23
ATOM     23  O   UNL     1      14.840  -1.125   5.012  1.00  0.00    -0.507 OA
ATOM     24  H   UNL     1      15.199  -1.604   5.824  1.00  0.00     0.293 HD
ENDBRANCH  10  23
BRANCH  11  25
ATOM     25  O   UNL     1      17.633   2.688   6.029  1.00  0.00    -0.508 OA
ATOM     26  H   UNL     1      17.454   2.686   7.020  1.00  0.00     0.293 HD
ENDBRANCH  11  25
ENDBRANCH   1   2
BRANCH   1  27
ATOM     27  C   UNL     1      11.086   1.288   1.880  1.00  0.00     0.339 C 
ATOM     28  C   UNL     1      10.931   2.845   1.960  1.00  0.00     0.214 C 
ATOM     29  O   UNL     1       9.893   0.596   1.551  1.00  0.00    -0.332 OA
ATOM     30  C   UNL     1       9.988   3.460   0.872  1.00  0.00     0.180 C 
ATOM     31  C   UNL     1       9.294   1.114   0.371  1.00  0.00     0.179 C 
ATOM     32  C   UNL     1       8.776   2.545   0.633  1.00  0.00     0.177 C 
BRANCH  28  33
ATOM     33  O   UNL     1      10.489   3.186   3.261  1.00  0.00    -0.384 OA
ATOM     34  H   UNL     1       9.649   2.674   3.446  1.00  0.00     0.211 HD
ENDBRANCH  28  33
BRANCH  30  35
ATOM     35  O   UNL     1       9.567   4.746   1.280  1.00  0.00    -0.387 OA
ATOM     36  H   UNL     1       9.265   5.254   0.480  1.00  0.00     0.211 HD
ENDBRANCH  30  35
BRANCH  31  37
ATOM     37  C   UNL     1       8.150   0.165  -0.076  1.00  0.00     0.191 C 
BRANCH  37  38
ATOM     38  O   UNL     1       8.309  -0.203  -1.427  1.00  0.00    -0.394 OA
ATOM     39  H   UNL     1       8.902  -0.997  -1.443  1.00  0.00     0.210 HD
ENDBRANCH  37  38
ENDBRANCH  31  37
BRANCH  32  40
ATOM     40  O   UNL     1       7.900   2.617   1.747  1.00  0.00    -0.387 OA
ATOM     41  H   UNL     1       6.962   2.626   1.409  1.00  0.00     0.211 HD
ENDBRANCH  32  40
ENDBRANCH   1  27
TORSDOF 12
ENDMDL
MODEL 9
REMARK VINA RESULT:    -3.335      1.699      7.076
REMARK INTER + INTRA:          -5.962
REMARK INTER:                  -5.117
REMARK INTRA:                  -0.845
REMARK UNBOUND:                -1.066
REMARK SMILES O=c1c(O[C@@H]2O[C@@H](CO)[C@@H](O)[C@@H](O)[C@H]2O)c(-c2ccc(O)c(O)c2)oc2cc(O)cc(O)c12
REMARK SMILES IDX 4 1 3 2 16 3 25 4 2 5 26 6 1 7 33 8 27 9 31 10 28 11 30 12
REMARK SMILES IDX 17 13 18 14 19 15 20 16 24 17 22 18 21 19 23 21 32 23 29 25
REMARK SMILES IDX 5 27 14 28 6 29 12 30 7 31 10 32 15 33 13 35 8 37 9 38 11 40
REMARK H PARENT 21 20 23 22 32 24 29 26 15 34 13 36 9 39 11 41
REMARK Flexibility Score: inf
ROOT
ATOM      1  O   UNL     1      12.406   2.053  -0.557  1.00  0.00    -0.454 OA
ENDROOT
BRANCH   1   2
ATOM      2  C   UNL     1      11.730   2.009   0.667  1.00  0.00     0.214 A 
ATOM      3  C   UNL     1      10.554   2.775   0.901  1.00  0.00     0.180 A 
ATOM      4  O   UNL     1       9.655   2.297   1.766  1.00  0.00    -0.452 OA
ATOM      5  C   UNL     1      12.057   0.992   1.579  1.00  0.00     0.239 A 
ATOM      6  C   UNL     1       9.832   1.202   2.495  1.00  0.00     0.146 A 
ATOM      7  O   UNL     1      13.188   0.438   1.512  1.00  0.00    -0.285 OA
ATOM      8  C   UNL     1      11.092   0.559   2.522  1.00  0.00     0.111 A 
ATOM      9  C   UNL     1       8.775   0.716   3.277  1.00  0.00     0.094 A 
ATOM     10  C   UNL     1      11.284  -0.535   3.389  1.00  0.00     0.134 A 
ATOM     11  C   UNL     1       8.949  -0.418   4.079  1.00  0.00     0.123 A 
ATOM     12  C   UNL     1      10.202  -1.015   4.166  1.00  0.00     0.093 A 
BRANCH   3  13
ATOM     13  C   UNL     1      10.281   4.142   0.339  1.00  0.00     0.025 A 
ATOM     14  C   UNL     1       9.974   5.279   1.113  1.00  0.00     0.016 A 
ATOM     15  C   UNL     1       9.548   6.462   0.493  1.00  0.00     0.051 A 
ATOM     16  C   UNL     1       9.375   6.532  -0.895  1.00  0.00     0.157 A 
ATOM     17  C   UNL     1      10.180   4.243  -1.058  1.00  0.00     0.062 A 
ATOM     18  C   UNL     1       9.725   5.425  -1.677  1.00  0.00     0.158 A 
BRANCH  16  19
ATOM     19  O   UNL     1       8.860   7.680  -1.504  1.00  0.00    -0.504 OA
ATOM     20  H   UNL     1       7.917   7.992  -1.320  1.00  0.00     0.293 HD
ENDBRANCH  16  19
BRANCH  18  21
ATOM     21  O   UNL     1       9.580   5.484  -3.072  1.00  0.00    -0.504 OA
ATOM     22  H   UNL     1       9.643   4.647  -3.643  1.00  0.00     0.293 HD
ENDBRANCH  18  21
ENDBRANCH   3  13
BRANCH  10  23
ATOM     23  O   UNL     1      12.546  -1.123   3.542  1.00  0.00    -0.507 OA
ATOM     24  H   UNL     1      12.641  -2.072   3.869  1.00  0.00     0.293 HD
ENDBRANCH  10  23
BRANCH  11  25
ATOM     25  O   UNL     1       7.875  -0.968   4.783  1.00  0.00    -0.508 OA
ATOM     26  H   UNL     1       8.011  -1.434   5.666  1.00  0.00     0.293 HD
ENDBRANCH  11  25
ENDBRANCH   1   2
BRANCH   1  27
ATOM     27  C   UNL     1      13.443   3.027  -0.742  1.00  0.00     0.339 C 
ATOM     28  C   UNL     1      14.106   3.499   0.597  1.00  0.00     0.214 C 
ATOM     29  O   UNL     1      14.363   2.593  -1.730  1.00  0.00    -0.332 OA
ATOM     30  C   UNL     1      15.338   2.645   1.049  1.00  0.00     0.180 C 
ATOM     31  C   UNL     1      15.254   1.608  -1.223  1.00  0.00     0.179 C 
ATOM     32  C   UNL     1      16.187   2.243  -0.168  1.00  0.00     0.177 C 
BRANCH  28  33
ATOM     33  O   UNL     1      14.460   4.863   0.467  1.00  0.00    -0.384 OA
ATOM     34  H   UNL     1      14.141   5.344   1.285  1.00  0.00     0.211 HD
ENDBRANCH  28  33
BRANCH  30  35
ATOM     35  O   UNL     1      16.112   3.379   1.974  1.00  0.00    -0.387 OA
ATOM     36  H   UNL     1      15.667   4.252   2.145  1.00  0.00     0.211 HD
ENDBRANCH  30  35
BRANCH  31  37
ATOM     37  C   UNL     1      16.055   0.994  -2.401  1.00  0.00     0.191 C 
BRANCH  37  38
ATOM     38  O   UNL     1      17.366   0.673  -1.996  1.00  0.00    -0.394 OA
ATOM     39  H   UNL     1      17.293  -0.059  -1.331  1.00  0.00     0.210 HD
ENDBRANCH  37  38
ENDBRANCH  31  37
BRANCH  32  40
ATOM     40  O   UNL     1      16.879   3.380  -0.659  1.00  0.00    -0.387 OA
ATOM     41  H   UNL     1      16.755   4.128  -0.010  1.00  0.00     0.211 HD
ENDBRANCH  32  40
ENDBRANCH   1  27
TORSDOF 12
ENDMDL
