MODEL 1
REMARK VINA RESULT:    -3.697      0.000      0.000
REMARK INTER + INTRA:          -6.645
REMARK INTER:                  -5.641
REMARK INTRA:                  -1.004
REMARK UNBOUND:                -1.004
REMARK SMILES CCCCCCCCCCC(=O)[O-]
REMARK SMILES IDX 7 1 8 2 9 3 10 4 11 5 12 6 13 7 6 8 5 9 4 10 3 11 2 12 1 13
REMARK H PARENT
REMARK Flexibility Score: inf
ROOT
ATOM      1  C   UNL     1       5.278  -0.399 400.130  1.00  0.00     0.000 C 
ENDROOT
BRANCH   1   2
ATOM      2  C   UNL     1       3.829  -0.905 400.036  1.00  0.00     0.000 C 
BRANCH   2   3
ATOM      3  C   UNL     1       3.747  -2.433 399.888  1.00  0.00     0.006 C 
BRANCH   3   4
ATOM      4  C   UNL     1       3.188  -3.121 401.140  1.00  0.00     0.053 C 
BRANCH   4   5
ATOM      5  C   UNL     1       4.263  -3.899 401.832  1.00  0.00     0.041 C 
ATOM      6  O   UNL     1       5.155  -3.301 402.491  1.00  0.00    -0.550 OA
ATOM      7  O   UNL     1       4.311  -5.282 401.707  1.00  0.00    -0.550 OA
ENDBRANCH   4   5
ENDBRANCH   3   4
ENDBRANCH   2   3
ENDBRANCH   1   2
BRANCH   1   8
ATOM      8  C   UNL     1       5.360   1.124 400.327  1.00  0.00     0.000 C 
BRANCH   8   9
ATOM      9  C   UNL     1       3.984   1.770 400.550  1.00  0.00    -0.000 C 
BRANCH   9  10
ATOM     10  C   UNL     1       3.977   2.619 401.827  1.00  0.00    -0.000 C 
BRANCH  10  11
ATOM     11  C   UNL     1       5.059   2.146 402.810  1.00  0.00    -0.000 C 
BRANCH  11  12
ATOM     12  C   UNL     1       4.476   1.379 404.005  1.00  0.00    -0.003 C 
ATOM     13  C   UNL     1       4.217  -0.095 403.694  1.00  0.00     0.004 C 
ENDBRANCH  11  12
ENDBRANCH  10  11
ENDBRANCH   9  10
ENDBRANCH   8   9
ENDBRANCH   1   8
TORSDOF 9
ENDMDL
MODEL 2
REMARK VINA RESULT:    -3.659      2.023      3.823
REMARK INTER + INTRA:          -6.589
REMARK INTER:                  -5.635
REMARK INTRA:                  -0.954
REMARK UNBOUND:                -1.004
REMARK SMILES CCCCCCCCCCC(=O)[O-]
REMARK SMILES IDX 7 1 8 2 9 3 10 4 11 5 12 6 13 7 6 8 5 9 4 10 3 11 2 12 1 13
REMARK H PARENT
REMARK Flexibility Score: inf
ROOT
ATOM      1  C   UNL     1       4.053   1.328 403.265  1.00  0.00     0.000 C 
ENDROOT
BRANCH   1   2
ATOM      2  C   UNL     1       5.258   0.581 403.861  1.00  0.00     0.000 C 
BRANCH   2   3
ATOM      3  C   UNL     1       4.838  -0.619 404.727  1.00  0.00     0.006 C 
BRANCH   3   4
ATOM      4  C   UNL     1       3.780  -1.497 404.048  1.00  0.00     0.053 C 
BRANCH   4   5
ATOM      5  C   UNL     1       2.964  -2.219 405.075  1.00  0.00     0.041 C 
ATOM      6  O   UNL     1       3.224  -2.084 406.300  1.00  0.00    -0.550 OA
ATOM      7  O   UNL     1       1.949  -3.080 404.677  1.00  0.00    -0.550 OA
ENDBRANCH   4   5
ENDBRANCH   3   4
ENDBRANCH   2   3
ENDBRANCH   1   2
BRANCH   1   8
ATOM      8  C   UNL     1       4.468   2.396 402.240  1.00  0.00     0.000 C 
BRANCH   8   9
ATOM      9  C   UNL     1       3.763   2.226 400.886  1.00  0.00    -0.000 C 
BRANCH   9  10
ATOM     10  C   UNL     1       3.384   0.761 400.644  1.00  0.00    -0.000 C 
BRANCH  10  11
ATOM     11  C   UNL     1       4.499   0.020 399.890  1.00  0.00    -0.000 C 
BRANCH  11  12
ATOM     12  C   UNL     1       4.808  -1.357 400.496  1.00  0.00    -0.003 C 
ATOM     13  C   UNL     1       3.785  -2.421 400.101  1.00  0.00     0.004 C 
ENDBRANCH  11  12
ENDBRANCH  10  11
ENDBRANCH   9  10
ENDBRANCH   8   9
ENDBRANCH   1   8
TORSDOF 9
ENDMDL
MODEL 3
REMARK VINA RESULT:    -3.632      2.693      5.894
REMARK INTER + INTRA:          -6.546
REMARK INTER:                  -6.096
REMARK INTRA:                  -0.450
REMARK UNBOUND:                -1.004
REMARK SMILES CCCCCCCCCCC(=O)[O-]
REMARK SMILES IDX 7 1 8 2 9 3 10 4 11 5 12 6 13 7 6 8 5 9 4 10 3 11 2 12 1 13
REMARK H PARENT
REMARK Flexibility Score: inf
ROOT
ATOM      1  C   UNL     1       5.013  -1.710 400.581  1.00  0.00     0.000 C 
ENDROOT
BRANCH   1   2
ATOM      2  C   UNL     1       5.004  -0.247 400.106  1.00  0.00     0.000 C 
BRANCH   2   3
ATOM      3  C   UNL     1       3.590   0.359 400.094  1.00  0.00     0.006 C 
BRANCH   3   4
ATOM      4  C   UNL     1       3.560   1.802 400.613  1.00  0.00     0.053 C 
BRANCH   4   5
ATOM      5  C   UNL     1       3.998   1.852 402.043  1.00  0.00     0.041 C 
ATOM      6  O   UNL     1       4.950   2.599 402.390  1.00  0.00    -0.550 OA
ATOM      7  O   UNL     1       3.387   1.034 402.986  1.00  0.00    -0.550 OA
ENDBRANCH   4   5
ENDBRANCH   3   4
ENDBRANCH   2   3
ENDBRANCH   1   2
BRANCH   1   8
ATOM      8  C   UNL     1       3.756  -2.480 400.144  1.00  0.00     0.000 C 
BRANCH   8   9
ATOM      9  C   UNL     1       3.257  -3.461 401.216  1.00  0.00    -0.000 C 
BRANCH   9  10
ATOM     10  C   UNL     1       4.388  -4.385 401.683  1.00  0.00    -0.000 C 
BRANCH  10  11
ATOM     11  C   UNL     1       3.848  -5.778 402.041  1.00  0.00    -0.000 C 
BRANCH  11  12
ATOM     12  C   UNL     1       4.728  -6.911 401.495  1.00  0.00    -0.003 C 
ATOM     13  C   UNL     1       3.969  -8.228 401.338  1.00  0.00     0.004 C 
ENDBRANCH  11  12
ENDBRANCH  10  11
ENDBRANCH   9  10
ENDBRANCH   8   9
ENDBRANCH   1   8
TORSDOF 9
ENDMDL
MODEL 4
REMARK VINA RESULT:    -3.530      2.110      3.242
REMARK INTER + INTRA:          -6.391
REMARK INTER:                  -5.240
REMARK INTRA:                  -1.151
REMARK UNBOUND:                -1.004
REMARK SMILES CCCCCCCCCCC(=O)[O-]
REMARK SMILES IDX 7 1 8 2 9 3 10 4 11 5 12 6 13 7 6 8 5 9 4 10 3 11 2 12 1 13
REMARK H PARENT
REMARK Flexibility Score: inf
ROOT
ATOM      1  C   UNL     1       3.940  -1.838 401.654  1.00  0.00     0.000 C 
ENDROOT
BRANCH   1   2
ATOM      2  C   UNL     1       5.176  -2.184 402.501  1.00  0.00     0.000 C 
BRANCH   2   3
ATOM      3  C   UNL     1       5.101  -1.594 403.920  1.00  0.00     0.006 C 
BRANCH   3   4
ATOM      4  C   UNL     1       3.680  -1.166 404.308  1.00  0.00     0.053 C 
BRANCH   4   5
ATOM      5  C   UNL     1       3.075  -2.159 405.251  1.00  0.00     0.041 C 
ATOM      6  O   UNL     1       3.299  -2.077 406.487  1.00  0.00    -0.550 OA
ATOM      7  O   UNL     1       2.304  -3.204 404.759  1.00  0.00    -0.550 OA
ENDBRANCH   4   5
ENDBRANCH   3   4
ENDBRANCH   2   3
ENDBRANCH   1   2
BRANCH   1   8
ATOM      8  C   UNL     1       4.298  -1.516 400.193  1.00  0.00     0.000 C 
BRANCH   8   9
ATOM      9  C   UNL     1       4.579  -0.023 399.966  1.00  0.00    -0.000 C 
BRANCH   9  10
ATOM     10  C   UNL     1       3.436   0.841 400.510  1.00  0.00    -0.000 C 
BRANCH  10  11
ATOM     11  C   UNL     1       3.967   2.171 401.067  1.00  0.00    -0.000 C 
BRANCH  11  12
ATOM     12  C   UNL     1       4.409   2.063 402.533  1.00  0.00    -0.003 C 
ATOM     13  C   UNL     1       5.918   2.231 402.711  1.00  0.00     0.004 C 
ENDBRANCH  11  12
ENDBRANCH  10  11
ENDBRANCH   9  10
ENDBRANCH   8   9
ENDBRANCH   1   8
TORSDOF 9
ENDMDL
MODEL 5
REMARK VINA RESULT:    -3.524      1.206      1.955
REMARK INTER + INTRA:          -6.382
REMARK INTER:                  -5.391
REMARK INTRA:                  -0.991
REMARK UNBOUND:                -1.004
REMARK SMILES CCCCCCCCCCC(=O)[O-]
REMARK SMILES IDX 7 1 8 2 9 3 10 4 11 5 12 6 13 7 6 8 5 9 4 10 3 11 2 12 1 13
REMARK H PARENT
REMARK Flexibility Score: inf
ROOT
ATOM      1  C   UNL     1       3.521   0.411 400.956  1.00  0.00     0.000 C 
ENDROOT
BRANCH   1   2
ATOM      2  C   UNL     1       3.973  -0.561 399.852  1.00  0.00     0.000 C 
BRANCH   2   3
ATOM      3  C   UNL     1       3.905  -2.031 400.297  1.00  0.00     0.006 C 
BRANCH   3   4
ATOM      4  C   UNL     1       4.039  -2.197 401.816  1.00  0.00     0.053 C 
BRANCH   4   5
ATOM      5  C   UNL     1       4.339  -3.622 402.161  1.00  0.00     0.041 C 
ATOM      6  O   UNL     1       3.848  -4.557 401.475  1.00  0.00    -0.550 OA
ATOM      7  O   UNL     1       5.120  -3.920 403.271  1.00  0.00    -0.550 OA
ENDBRANCH   4   5
ENDBRANCH   3   4
ENDBRANCH   2   3
ENDBRANCH   1   2
BRANCH   1   8
ATOM      8  C   UNL     1       3.517   1.875 400.488  1.00  0.00     0.000 C 
BRANCH   8   9
ATOM      9  C   UNL     1       3.875   2.860 401.611  1.00  0.00    -0.000 C 
BRANCH   9  10
ATOM     10  C   UNL     1       4.540   2.133 402.786  1.00  0.00    -0.000 C 
BRANCH  10  11
ATOM     11  C   UNL     1       6.066   2.311 402.751  1.00  0.00    -0.000 C 
BRANCH  11  12
ATOM     12  C   UNL     1       6.810   0.985 402.534  1.00  0.00    -0.003 C 
ATOM     13  C   UNL     1       7.224   0.769 401.079  1.00  0.00     0.004 C 
ENDBRANCH  11  12
ENDBRANCH  10  11
ENDBRANCH   9  10
ENDBRANCH   8   9
ENDBRANCH   1   8
TORSDOF 9
ENDMDL
MODEL 6
REMARK VINA RESULT:    -3.501      2.719      5.393
REMARK INTER + INTRA:          -6.347
REMARK INTER:                  -5.740
REMARK INTRA:                  -0.607
REMARK UNBOUND:                -1.004
REMARK SMILES CCCCCCCCCCC(=O)[O-]
REMARK SMILES IDX 7 1 8 2 9 3 10 4 11 5 12 6 13 7 6 8 5 9 4 10 3 11 2 12 1 13
REMARK H PARENT
REMARK Flexibility Score: inf
ROOT
ATOM      1  C   UNL     1       4.322  -0.006 399.900  1.00  0.00     0.000 C 
ENDROOT
BRANCH   1   2
ATOM      2  C   UNL     1       3.304   0.993 400.477  1.00  0.00     0.000 C 
BRANCH   2   3
ATOM      3  C   UNL     1       3.968   2.290 400.970  1.00  0.00     0.006 C 
BRANCH   3   4
ATOM      4  C   UNL     1       4.315   2.247 402.463  1.00  0.00     0.053 C 
BRANCH   4   5
ATOM      5  C   UNL     1       5.792   2.385 402.660  1.00  0.00     0.041 C 
ATOM      6  O   UNL     1       6.583   1.566 402.121  1.00  0.00    -0.550 OA
ATOM      7  O   UNL     1       6.294   3.388 403.480  1.00  0.00    -0.550 OA
ENDBRANCH   4   5
ENDBRANCH   3   4
ENDBRANCH   2   3
ENDBRANCH   1   2
BRANCH   1   8
ATOM      8  C   UNL     1       4.481  -1.258 400.779  1.00  0.00     0.000 C 
BRANCH   8   9
ATOM      9  C   UNL     1       3.962  -2.533 400.097  1.00  0.00    -0.000 C 
BRANCH   9  10
ATOM     10  C   UNL     1       3.070  -3.340 401.048  1.00  0.00    -0.000 C 
BRANCH  10  11
ATOM     11  C   UNL     1       3.610  -3.290 402.486  1.00  0.00    -0.000 C 
BRANCH  11  12
ATOM     12  C   UNL     1       3.950  -4.681 403.038  1.00  0.00    -0.003 C 
ATOM     13  C   UNL     1       4.083  -5.737 401.940  1.00  0.00     0.004 C 
ENDBRANCH  11  12
ENDBRANCH  10  11
ENDBRANCH   9  10
ENDBRANCH   8   9
ENDBRANCH   1   8
TORSDOF 9
ENDMDL
MODEL 7
REMARK VINA RESULT:    -3.500      1.204      3.054
REMARK INTER + INTRA:          -6.345
REMARK INTER:                  -5.141
REMARK INTRA:                  -1.204
REMARK UNBOUND:                -1.004
REMARK SMILES CCCCCCCCCCC(=O)[O-]
REMARK SMILES IDX 7 1 8 2 9 3 10 4 11 5 12 6 13 7 6 8 5 9 4 10 3 11 2 12 1 13
REMARK H PARENT
REMARK Flexibility Score: inf
ROOT
ATOM      1  C   UNL     1       5.078   0.453 403.811  1.00  0.00     0.000 C 
ENDROOT
BRANCH   1   2
ATOM      2  C   UNL     1       4.825  -1.011 404.209  1.00  0.00     0.000 C 
BRANCH   2   3
ATOM      3  C   UNL     1       3.978  -1.766 403.170  1.00  0.00     0.006 C 
BRANCH   3   4
ATOM      4  C   UNL     1       4.779  -2.836 402.419  1.00  0.00     0.053 C 
BRANCH   4   5
ATOM      5  C   UNL     1       3.857  -3.759 401.686  1.00  0.00     0.041 C 
ATOM      6  O   UNL     1       3.971  -5.007 401.817  1.00  0.00    -0.550 OA
ATOM      7  O   UNL     1       2.903  -3.243 400.817  1.00  0.00    -0.550 OA
ENDBRANCH   4   5
ENDBRANCH   3   4
ENDBRANCH   2   3
ENDBRANCH   1   2
BRANCH   1   8
ATOM      8  C   UNL     1       3.844   1.114 403.174  1.00  0.00     0.000 C 
BRANCH   8   9
ATOM      9  C   UNL     1       4.194   2.368 402.361  1.00  0.00    -0.000 C 
BRANCH   9  10
ATOM     10  C   UNL     1       4.079   2.097 400.856  1.00  0.00    -0.000 C 
BRANCH  10  11
ATOM     11  C   UNL     1       3.352   0.770 400.589  1.00  0.00    -0.000 C 
BRANCH  11  12
ATOM     12  C   UNL     1       4.196  -0.210 399.762  1.00  0.00    -0.003 C 
ATOM     13  C   UNL     1       5.693  -0.087 400.046  1.00  0.00     0.004 C 
ENDBRANCH  11  12
ENDBRANCH  10  11
ENDBRANCH   9  10
ENDBRANCH   8   9
ENDBRANCH   1   8
TORSDOF 9
ENDMDL
MODEL 8
REMARK VINA RESULT:    -3.434      2.661      5.717
REMARK INTER + INTRA:          -6.245
REMARK INTER:                  -5.197
REMARK INTRA:                  -1.048
REMARK UNBOUND:                -1.004
REMARK SMILES CCCCCCCCCCC(=O)[O-]
REMARK SMILES IDX 7 1 8 2 9 3 10 4 11 5 12 6 13 7 6 8 5 9 4 10 3 11 2 12 1 13
REMARK H PARENT
REMARK Flexibility Score: inf
ROOT
ATOM      1  C   UNL     1       3.216  -3.359 400.891  1.00  0.00     0.000 C 
ENDROOT
BRANCH   1   2
ATOM      2  C   UNL     1       3.620  -2.156 400.022  1.00  0.00     0.000 C 
BRANCH   2   3
ATOM      3  C   UNL     1       4.808  -1.377 400.611  1.00  0.00     0.006 C 
BRANCH   3   4
ATOM      4  C   UNL     1       4.852   0.082 400.141  1.00  0.00     0.053 C 
BRANCH   4   5
ATOM      5  C   UNL     1       3.800   0.887 400.838  1.00  0.00     0.041 C 
ATOM      6  O   UNL     1       3.140   1.753 400.205  1.00  0.00    -0.550 OA
ATOM      7  O   UNL     1       3.583   0.716 402.200  1.00  0.00    -0.550 OA
ENDBRANCH   4   5
ENDBRANCH   3   4
ENDBRANCH   2   3
ENDBRANCH   1   2
BRANCH   1   8
ATOM      8  C   UNL     1       3.675  -3.214 402.351  1.00  0.00     0.000 C 
BRANCH   8   9
ATOM      9  C   UNL     1       4.185  -4.534 402.948  1.00  0.00    -0.000 C 
BRANCH   9  10
ATOM     10  C   UNL     1       4.240  -5.634 401.881  1.00  0.00    -0.000 C 
BRANCH  10  11
ATOM     11  C   UNL     1       5.690  -6.062 401.605  1.00  0.00    -0.000 C 
BRANCH  11  12
ATOM     12  C   UNL     1       6.656  -4.870 401.547  1.00  0.00    -0.003 C 
ATOM     13  C   UNL     1       6.936  -4.402 400.119  1.00  0.00     0.004 C 
ENDBRANCH  11  12
ENDBRANCH  10  11
ENDBRANCH   9  10
ENDBRANCH   8   9
ENDBRANCH   1   8
TORSDOF 9
ENDMDL
