MODEL 1
REMARK VINA RESULT:    -3.099      0.000      0.000
REMARK INTER + INTRA:          -3.747
REMARK INTER:                  -3.643
REMARK INTRA:                  -0.104
REMARK UNBOUND:                -0.104
REMARK SMILES CCCCC(=O)[O-]
REMARK SMILES IDX 4 1 5 2 6 3 7 4 3 5 2 6 1 7
REMARK H PARENT
REMARK Flexibility Score: inf
ROOT
ATOM      1  C   UNL     1     300.086 324.602 647.946  1.00  0.00     0.053 C 
ENDROOT
BRANCH   1   2
ATOM      2  C   UNL     1     301.514 324.477 647.510  1.00  0.00     0.041 C 
ATOM      3  O   UNL     1     302.169 325.499 647.176  1.00  0.00    -0.550 OA
ATOM      4  O   UNL     1     302.132 323.233 647.501  1.00  0.00    -0.550 OA
ENDBRANCH   1   2
BRANCH   1   5
ATOM      5  C   UNL     1     299.100 324.001 646.928  1.00  0.00     0.006 C 
BRANCH   5   6
ATOM      6  C   UNL     1     299.028 324.776 645.600  1.00  0.00    -0.003 C 
ATOM      7  C   UNL     1     298.875 326.284 645.791  1.00  0.00     0.004 C 
ENDBRANCH   5   6
ENDBRANCH   1   5
TORSDOF 3
ENDMDL
MODEL 2
REMARK VINA RESULT:    -3.066      2.243      3.429
REMARK INTER + INTRA:          -3.708
REMARK INTER:                  -3.605
REMARK INTRA:                  -0.102
REMARK UNBOUND:                -0.104
REMARK SMILES CCCCC(=O)[O-]
REMARK SMILES IDX 4 1 5 2 6 3 7 4 3 5 2 6 1 7
REMARK H PARENT
REMARK Flexibility Score: inf
ROOT
ATOM      1  C   UNL     1     298.950 324.476 645.961  1.00  0.00     0.053 C 
ENDROOT
BRANCH   1   2
ATOM      2  C   UNL     1     299.031 325.926 645.592  1.00  0.00     0.041 C 
ATOM      3  O   UNL     1     298.875 326.287 644.396  1.00  0.00    -0.550 OA
ATOM      4  O   UNL     1     299.248 326.882 646.576  1.00  0.00    -0.550 OA
ENDBRANCH   1   2
BRANCH   1   5
ATOM      5  C   UNL     1     299.437 324.200 647.394  1.00  0.00     0.006 C 
BRANCH   5   6
ATOM      6  C   UNL     1     300.869 323.641 647.468  1.00  0.00    -0.003 C 
ATOM      7  C   UNL     1     301.935 324.731 647.559  1.00  0.00     0.004 C 
ENDBRANCH   5   6
ENDBRANCH   1   5
TORSDOF 3
ENDMDL
MODEL 3
REMARK VINA RESULT:    -3.054      1.152      1.756
REMARK INTER + INTRA:          -3.694
REMARK INTER:                  -3.596
REMARK INTRA:                  -0.098
REMARK UNBOUND:                -0.104
REMARK SMILES CCCCC(=O)[O-]
REMARK SMILES IDX 4 1 5 2 6 3 7 4 3 5 2 6 1 7
REMARK H PARENT
REMARK Flexibility Score: inf
ROOT
ATOM      1  C   UNL     1     301.158 323.574 647.420  1.00  0.00     0.053 C 
ENDROOT
BRANCH   1   2
ATOM      2  C   UNL     1     302.355 324.362 647.858  1.00  0.00     0.041 C 
ATOM      3  O   UNL     1     303.131 323.904 648.737  1.00  0.00    -0.550 OA
ATOM      4  O   UNL     1     302.629 325.592 647.273  1.00  0.00    -0.550 OA
ENDBRANCH   1   2
BRANCH   1   5
ATOM      5  C   UNL     1     299.846 324.368 647.547  1.00  0.00     0.006 C 
BRANCH   5   6
ATOM      6  C   UNL     1     299.011 324.399 646.254  1.00  0.00    -0.003 C 
ATOM      7  C   UNL     1     299.863 324.484 644.989  1.00  0.00     0.004 C 
ENDBRANCH   5   6
ENDBRANCH   1   5
TORSDOF 3
ENDMDL
MODEL 4
REMARK VINA RESULT:    -2.997      2.042      3.173
REMARK INTER + INTRA:          -3.626
REMARK INTER:                  -3.519
REMARK INTRA:                  -0.107
REMARK UNBOUND:                -0.104
REMARK SMILES CCCCC(=O)[O-]
REMARK SMILES IDX 4 1 5 2 6 3 7 4 3 5 2 6 1 7
REMARK H PARENT
REMARK Flexibility Score: inf
ROOT
ATOM      1  C   UNL     1     298.899 326.287 646.197  1.00  0.00     0.053 C 
ENDROOT
BRANCH   1   2
ATOM      2  C   UNL     1     299.989 327.014 645.469  1.00  0.00     0.041 C 
ATOM      3  O   UNL     1     300.083 328.266 645.553  1.00  0.00    -0.550 OA
ATOM      4  O   UNL     1     300.919 326.303 644.722  1.00  0.00    -0.550 OA
ENDBRANCH   1   2
BRANCH   1   5
ATOM      5  C   UNL     1     298.936 324.768 645.958  1.00  0.00     0.006 C 
BRANCH   5   6
ATOM      6  C   UNL     1     299.311 323.950 647.207  1.00  0.00    -0.003 C 
ATOM      7  C   UNL     1     300.810 323.957 647.502  1.00  0.00     0.004 C 
ENDBRANCH   5   6
ENDBRANCH   1   5
TORSDOF 3
ENDMDL
MODEL 5
REMARK VINA RESULT:    -2.966      2.349      3.564
REMARK INTER + INTRA:          -3.590
REMARK INTER:                  -3.486
REMARK INTRA:                  -0.104
REMARK UNBOUND:                -0.104
REMARK SMILES CCCCC(=O)[O-]
REMARK SMILES IDX 4 1 5 2 6 3 7 4 3 5 2 6 1 7
REMARK H PARENT
REMARK Flexibility Score: inf
ROOT
ATOM      1  C   UNL     1     299.838 325.171 645.180  1.00  0.00     0.053 C 
ENDROOT
BRANCH   1   2
ATOM      2  C   UNL     1     299.489 326.627 645.121  1.00  0.00     0.041 C 
ATOM      3  O   UNL     1     299.770 327.387 646.085  1.00  0.00    -0.550 OA
ATOM      4  O   UNL     1     298.879 327.151 643.988  1.00  0.00    -0.550 OA
ENDBRANCH   1   2
BRANCH   1   5
ATOM      5  C   UNL     1     298.875 324.365 646.070  1.00  0.00     0.006 C 
BRANCH   5   6
ATOM      6  C   UNL     1     299.437 324.050 647.468  1.00  0.00    -0.003 C 
ATOM      7  C   UNL     1     300.963 323.986 647.502  1.00  0.00     0.004 C 
ENDBRANCH   5   6
ENDBRANCH   1   5
TORSDOF 3
ENDMDL
MODEL 6
REMARK VINA RESULT:    -2.785      1.702      2.399
REMARK INTER + INTRA:          -3.377
REMARK INTER:                  -3.284
REMARK INTRA:                  -0.093
REMARK UNBOUND:                -0.104
REMARK SMILES CCCCC(=O)[O-]
REMARK SMILES IDX 4 1 5 2 6 3 7 4 3 5 2 6 1 7
REMARK H PARENT
REMARK Flexibility Score: inf
ROOT
ATOM      1  C   UNL     1     301.681 324.680 646.575  1.00  0.00     0.053 C 
ENDROOT
BRANCH   1   2
ATOM      2  C   UNL     1     302.114 326.107 646.424  1.00  0.00     0.041 C 
ATOM      3  O   UNL     1     303.260 326.467 646.801  1.00  0.00    -0.550 OA
ATOM      4  O   UNL     1     301.260 327.033 645.838  1.00  0.00    -0.550 OA
ENDBRANCH   1   2
BRANCH   1   5
ATOM      5  C   UNL     1     300.700 324.478 647.743  1.00  0.00     0.006 C 
BRANCH   5   6
ATOM      6  C   UNL     1     299.364 323.836 647.329  1.00  0.00    -0.003 C 
ATOM      7  C   UNL     1     298.877 324.292 645.955  1.00  0.00     0.004 C 
ENDBRANCH   5   6
ENDBRANCH   1   5
TORSDOF 3
ENDMDL
MODEL 7
REMARK VINA RESULT:    -2.675      4.489      5.826
REMARK INTER + INTRA:          -3.248
REMARK INTER:                  -3.202
REMARK INTRA:                  -0.046
REMARK UNBOUND:                -0.104
REMARK SMILES CCCCC(=O)[O-]
REMARK SMILES IDX 4 1 5 2 6 3 7 4 3 5 2 6 1 7
REMARK H PARENT
REMARK Flexibility Score: inf
ROOT
ATOM      1  C   UNL     1     305.622 322.349 649.282  1.00  0.00     0.053 C 
ENDROOT
BRANCH   1   2
ATOM      2  C   UNL     1     305.580 321.471 650.495  1.00  0.00     0.041 C 
ATOM      3  O   UNL     1     304.958 320.376 650.466  1.00  0.00    -0.550 OA
ATOM      4  O   UNL     1     306.253 321.848 651.650  1.00  0.00    -0.550 OA
ENDBRANCH   1   2
BRANCH   1   5
ATOM      5  C   UNL     1     304.316 323.135 649.072  1.00  0.00     0.006 C 
BRANCH   5   6
ATOM      6  C   UNL     1     303.463 322.622 647.898  1.00  0.00    -0.003 C 
ATOM      7  C   UNL     1     302.224 323.477 647.636  1.00  0.00     0.004 C 
ENDBRANCH   5   6
ENDBRANCH   1   5
TORSDOF 3
ENDMDL
MODEL 8
REMARK VINA RESULT:    -2.621      1.707      2.272
REMARK INTER + INTRA:          -3.185
REMARK INTER:                  -3.116
REMARK INTRA:                  -0.068
REMARK UNBOUND:                -0.104
REMARK SMILES CCCCC(=O)[O-]
REMARK SMILES IDX 4 1 5 2 6 3 7 4 3 5 2 6 1 7
REMARK H PARENT
REMARK Flexibility Score: inf
ROOT
ATOM      1  C   UNL     1     299.081 324.375 645.992  1.00  0.00     0.053 C 
ENDROOT
BRANCH   1   2
ATOM      2  C   UNL     1     299.890 324.151 647.233  1.00  0.00     0.041 C 
ATOM      3  O   UNL     1     299.393 324.384 648.366  1.00  0.00    -0.550 OA
ATOM      4  O   UNL     1     301.185 323.657 647.139  1.00  0.00    -0.550 OA
ENDBRANCH   1   2
BRANCH   1   5
ATOM      5  C   UNL     1     298.876 325.867 645.677  1.00  0.00     0.006 C 
BRANCH   5   6
ATOM      6  C   UNL     1     299.286 326.264 644.248  1.00  0.00    -0.003 C 
ATOM      7  C   UNL     1     300.316 325.318 643.633  1.00  0.00     0.004 C 
ENDBRANCH   5   6
ENDBRANCH   1   5
TORSDOF 3
ENDMDL
MODEL 9
REMARK VINA RESULT:    -2.391      2.388      3.969
REMARK INTER + INTRA:          -2.914
REMARK INTER:                  -2.873
REMARK INTRA:                  -0.041
REMARK UNBOUND:                -0.104
REMARK SMILES CCCCC(=O)[O-]
REMARK SMILES IDX 4 1 5 2 6 3 7 4 3 5 2 6 1 7
REMARK H PARENT
REMARK Flexibility Score: inf
ROOT
ATOM      1  C   UNL     1     301.122 324.335 646.641  1.00  0.00     0.053 C 
ENDROOT
BRANCH   1   2
ATOM      2  C   UNL     1     299.646 324.173 646.840  1.00  0.00     0.041 C 
ATOM      3  O   UNL     1     298.875 324.095 645.848  1.00  0.00    -0.550 OA
ATOM      4  O   UNL     1     299.125 324.079 648.125  1.00  0.00    -0.550 OA
ENDBRANCH   1   2
BRANCH   1   5
ATOM      5  C   UNL     1     301.950 323.434 647.574  1.00  0.00     0.006 C 
BRANCH   5   6
ATOM      6  C   UNL     1     302.960 324.201 648.446  1.00  0.00    -0.003 C 
ATOM      7  C   UNL     1     304.169 323.359 648.848  1.00  0.00     0.004 C 
ENDBRANCH   5   6
ENDBRANCH   1   5
TORSDOF 3
ENDMDL
