MODEL 1
REMARK VINA RESULT:    -3.655      0.000      0.000
REMARK INTER + INTRA:          -5.841
REMARK INTER:                  -5.364
REMARK INTRA:                  -0.477
REMARK UNBOUND:                -0.477
REMARK SMILES O=C([O-])CCCCCCCC(=O)[O-]
REMARK SMILES IDX 7 1 6 2 5 3 4 4 2 5 1 6 3 7 8 8 9 9 10 10 11 11 12 12 13 13
REMARK H PARENT
REMARK Flexibility Score: inf
ROOT
ATOM      1  C   UNL     1      -5.012 -68.784 -11.278  1.00  0.00     0.000 C 
ENDROOT
BRANCH   1   2
ATOM      2  C   UNL     1      -3.910 -69.829 -11.530  1.00  0.00     0.000 C 
BRANCH   2   3
ATOM      3  C   UNL     1      -4.280 -70.832 -12.631  1.00  0.00     0.006 C 
BRANCH   3   4
ATOM      4  C   UNL     1      -3.473 -72.126 -12.488  1.00  0.00     0.053 C 
BRANCH   4   5
ATOM      5  C   UNL     1      -4.274 -73.168 -11.773  1.00  0.00     0.041 C 
ATOM      6  O   UNL     1      -5.520 -73.034 -11.649  1.00  0.00    -0.550 OA
ATOM      7  O   UNL     1      -3.651 -74.310 -11.288  1.00  0.00    -0.550 OA
ENDBRANCH   4   5
ENDBRANCH   3   4
ENDBRANCH   2   3
ENDBRANCH   1   2
BRANCH   1   8
ATOM      8  C   UNL     1      -6.440 -69.353 -11.161  1.00  0.00     0.000 C 
BRANCH   8   9
ATOM      9  C   UNL     1      -6.816 -69.890  -9.768  1.00  0.00     0.006 C 
BRANCH   9  10
ATOM     10  C   UNL     1      -7.912 -70.962  -9.820  1.00  0.00     0.053 C 
BRANCH  10  11
ATOM     11  C   UNL     1      -8.498 -71.175  -8.460  1.00  0.00     0.041 C 
ATOM     12  O   UNL     1      -9.746 -71.151  -8.298  1.00  0.00    -0.550 OA
ATOM     13  O   UNL     1      -7.669 -71.452  -7.380  1.00  0.00    -0.550 OA
ENDBRANCH  10  11
ENDBRANCH   9  10
ENDBRANCH   8   9
ENDBRANCH   1   8
TORSDOF 8
ENDMDL
MODEL 2
REMARK VINA RESULT:    -3.629      7.002      8.189
REMARK INTER + INTRA:          -5.803
REMARK INTER:                  -5.315
REMARK INTRA:                  -0.488
REMARK UNBOUND:                -0.477
REMARK SMILES O=C([O-])CCCCCCCC(=O)[O-]
REMARK SMILES IDX 7 1 6 2 5 3 4 4 2 5 1 6 3 7 8 8 9 9 10 10 11 11 12 12 13 13
REMARK H PARENT
REMARK Flexibility Score: inf
ROOT
ATOM      1  C   UNL     1      -7.079 -64.759  -8.605  1.00  0.00     0.000 C 
ENDROOT
BRANCH   1   2
ATOM      2  C   UNL     1      -6.075 -65.867  -8.240  1.00  0.00     0.000 C 
BRANCH   2   3
ATOM      3  C   UNL     1      -5.333 -65.589  -6.925  1.00  0.00     0.006 C 
BRANCH   3   4
ATOM      4  C   UNL     1      -4.765 -66.882  -6.333  1.00  0.00     0.053 C 
BRANCH   4   5
ATOM      5  C   UNL     1      -3.448 -66.624  -5.672  1.00  0.00     0.041 C 
ATOM      6  O   UNL     1      -3.131 -67.248  -4.625  1.00  0.00    -0.550 OA
ATOM      7  O   UNL     1      -2.549 -65.731  -6.241  1.00  0.00    -0.550 OA
ENDBRANCH   4   5
ENDBRANCH   3   4
ENDBRANCH   2   3
ENDBRANCH   1   2
BRANCH   1   8
ATOM      8  C   UNL     1      -8.523 -64.997  -8.119  1.00  0.00     0.000 C 
BRANCH   8   9
ATOM      9  C   UNL     1      -8.908 -64.254  -6.827  1.00  0.00     0.006 C 
BRANCH   9  10
ATOM     10  C   UNL     1      -8.463 -62.786  -6.830  1.00  0.00     0.053 C 
BRANCH  10  11
ATOM     11  C   UNL     1      -7.411 -62.557  -5.791  1.00  0.00     0.041 C 
ATOM     12  O   UNL     1      -6.653 -61.555  -5.867  1.00  0.00    -0.550 OA
ATOM     13  O   UNL     1      -7.300 -63.423  -4.710  1.00  0.00    -0.550 OA
ENDBRANCH  10  11
ENDBRANCH   9  10
ENDBRANCH   8   9
ENDBRANCH   1   8
TORSDOF 8
ENDMDL
MODEL 3
REMARK VINA RESULT:    -3.617      9.309     12.027
REMARK INTER + INTRA:          -5.786
REMARK INTER:                  -5.471
REMARK INTRA:                  -0.315
REMARK UNBOUND:                -0.477
REMARK SMILES O=C([O-])CCCCCCCC(=O)[O-]
REMARK SMILES IDX 7 1 6 2 5 3 4 4 2 5 1 6 3 7 8 8 9 9 10 10 11 11 12 12 13 13
REMARK H PARENT
REMARK Flexibility Score: inf
ROOT
ATOM      1  C   UNL     1      -6.163 -64.147  -2.753  1.00  0.00     0.000 C 
ENDROOT
BRANCH   1   2
ATOM      2  C   UNL     1      -7.212 -63.635  -1.748  1.00  0.00     0.000 C 
BRANCH   2   3
ATOM      3  C   UNL     1      -8.206 -64.722  -1.317  1.00  0.00     0.006 C 
BRANCH   3   4
ATOM      4  C   UNL     1      -8.329 -64.779   0.208  1.00  0.00     0.053 C 
BRANCH   4   5
ATOM      5  C   UNL     1      -9.277 -63.731   0.699  1.00  0.00     0.041 C 
ATOM      6  O   UNL     1     -10.238 -63.358  -0.025  1.00  0.00    -0.550 OA
ATOM      7  O   UNL     1      -9.130 -63.204   1.975  1.00  0.00    -0.550 OA
ENDBRANCH   4   5
ENDBRANCH   3   4
ENDBRANCH   2   3
ENDBRANCH   1   2
BRANCH   1   8
ATOM      8  C   UNL     1      -5.036 -65.005  -2.143  1.00  0.00     0.000 C 
BRANCH   8   9
ATOM      9  C   UNL     1      -4.644 -66.247  -2.963  1.00  0.00     0.006 C 
BRANCH   9  10
ATOM     10  C   UNL     1      -4.452 -65.940  -4.453  1.00  0.00     0.053 C 
BRANCH  10  11
ATOM     11  C   UNL     1      -3.909 -67.137  -5.167  1.00  0.00     0.041 C 
ATOM     12  O   UNL     1      -4.644 -67.794  -5.951  1.00  0.00    -0.550 OA
ATOM     13  O   UNL     1      -2.577 -67.498  -5.008  1.00  0.00    -0.550 OA
ENDBRANCH  10  11
ENDBRANCH   9  10
ENDBRANCH   8   9
ENDBRANCH   1   8
TORSDOF 8
ENDMDL
MODEL 4
REMARK VINA RESULT:    -3.576      8.942     10.037
REMARK INTER + INTRA:          -5.726
REMARK INTER:                  -5.263
REMARK INTRA:                  -0.463
REMARK UNBOUND:                -0.477
REMARK SMILES O=C([O-])CCCCCCCC(=O)[O-]
REMARK SMILES IDX 7 1 6 2 5 3 4 4 2 5 1 6 3 7 8 8 9 9 10 10 11 11 12 12 13 13
REMARK H PARENT
REMARK Flexibility Score: inf
ROOT
ATOM      1  C   UNL     1      -5.644 -63.808  -3.163  1.00  0.00     0.000 C 
ENDROOT
BRANCH   1   2
ATOM      2  C   UNL     1      -4.991 -64.734  -4.205  1.00  0.00     0.000 C 
BRANCH   2   3
ATOM      3  C   UNL     1      -4.095 -65.806  -3.571  1.00  0.00     0.006 C 
BRANCH   3   4
ATOM      4  C   UNL     1      -4.265 -67.153  -4.280  1.00  0.00     0.053 C 
BRANCH   4   5
ATOM      5  C   UNL     1      -3.503 -67.168  -5.568  1.00  0.00     0.041 C 
ATOM      6  O   UNL     1      -3.875 -67.911  -6.515  1.00  0.00    -0.550 OA
ATOM      7  O   UNL     1      -2.415 -66.324  -5.741  1.00  0.00    -0.550 OA
ENDBRANCH   4   5
ENDBRANCH   3   4
ENDBRANCH   2   3
ENDBRANCH   1   2
BRANCH   1   8
ATOM      8  C   UNL     1      -5.140 -63.990  -1.718  1.00  0.00     0.000 C 
BRANCH   8   9
ATOM      9  C   UNL     1      -6.227 -64.342  -0.686  1.00  0.00     0.006 C 
BRANCH   9  10
ATOM     10  C   UNL     1      -7.612 -64.520  -1.319  1.00  0.00     0.053 C 
BRANCH  10  11
ATOM     11  C   UNL     1      -8.525 -63.412  -0.899  1.00  0.00     0.041 C 
ATOM     12  O   UNL     1      -9.646 -63.674  -0.389  1.00  0.00    -0.550 OA
ATOM     13  O   UNL     1      -8.118 -62.090  -1.022  1.00  0.00    -0.550 OA
ENDBRANCH  10  11
ENDBRANCH   9  10
ENDBRANCH   8   9
ENDBRANCH   1   8
TORSDOF 8
ENDMDL
MODEL 5
REMARK VINA RESULT:    -3.544      0.847      5.071
REMARK INTER + INTRA:          -5.679
REMARK INTER:                  -5.163
REMARK INTRA:                  -0.516
REMARK UNBOUND:                -0.477
REMARK SMILES O=C([O-])CCCCCCCC(=O)[O-]
REMARK SMILES IDX 7 1 6 2 5 3 4 4 2 5 1 6 3 7 8 8 9 9 10 10 11 11 12 12 13 13
REMARK H PARENT
REMARK Flexibility Score: inf
ROOT
ATOM      1  C   UNL     1      -5.387 -69.332 -10.624  1.00  0.00     0.000 C 
ENDROOT
BRANCH   1   2
ATOM      2  C   UNL     1      -6.751 -69.978 -10.931  1.00  0.00     0.000 C 
BRANCH   2   3
ATOM      3  C   UNL     1      -7.401 -70.615  -9.695  1.00  0.00     0.006 C 
BRANCH   3   4
ATOM      4  C   UNL     1      -8.431 -71.673 -10.102  1.00  0.00     0.053 C 
BRANCH   4   5
ATOM      5  C   UNL     1      -9.553 -71.721  -9.113  1.00  0.00     0.041 C 
ATOM      6  O   UNL     1      -9.532 -70.979  -8.096  1.00  0.00    -0.550 OA
ATOM      7  O   UNL     1     -10.645 -72.548  -9.341  1.00  0.00    -0.550 OA
ENDBRANCH   4   5
ENDBRANCH   3   4
ENDBRANCH   2   3
ENDBRANCH   1   2
BRANCH   1   8
ATOM      8  C   UNL     1      -4.204 -69.876 -11.450  1.00  0.00     0.000 C 
BRANCH   8   9
ATOM      9  C   UNL     1      -4.563 -70.996 -12.443  1.00  0.00     0.006 C 
BRANCH   9  10
ATOM     10  C   UNL     1      -3.637 -72.213 -12.328  1.00  0.00     0.053 C 
BRANCH  10  11
ATOM     11  C   UNL     1      -4.358 -73.360 -11.694  1.00  0.00     0.041 C 
ATOM     12  O   UNL     1      -5.617 -73.366 -11.644  1.00  0.00    -0.550 OA
ATOM     13  O   UNL     1      -3.645 -74.447 -11.204  1.00  0.00    -0.550 OA
ENDBRANCH  10  11
ENDBRANCH   9  10
ENDBRANCH   8   9
ENDBRANCH   1   8
TORSDOF 8
ENDMDL
MODEL 6
REMARK VINA RESULT:    -3.516      9.381     10.582
REMARK INTER + INTRA:          -5.637
REMARK INTER:                  -5.342
REMARK INTRA:                  -0.295
REMARK UNBOUND:                -0.477
REMARK SMILES O=C([O-])CCCCCCCC(=O)[O-]
REMARK SMILES IDX 7 1 6 2 5 3 4 4 2 5 1 6 3 7 8 8 9 9 10 10 11 11 12 12 13 13
REMARK H PARENT
REMARK Flexibility Score: inf
ROOT
ATOM      1  C   UNL     1      -5.382 -63.859  -2.195  1.00  0.00     0.000 C 
ENDROOT
BRANCH   1   2
ATOM      2  C   UNL     1      -4.364 -65.013  -2.148  1.00  0.00     0.000 C 
BRANCH   2   3
ATOM      3  C   UNL     1      -4.658 -66.110  -3.181  1.00  0.00     0.006 C 
BRANCH   3   4
ATOM      4  C   UNL     1      -4.362 -65.619  -4.601  1.00  0.00     0.053 C 
BRANCH   4   5
ATOM      5  C   UNL     1      -3.650 -66.676  -5.385  1.00  0.00     0.041 C 
ATOM      6  O   UNL     1      -2.819 -67.433  -4.817  1.00  0.00    -0.550 OA
ATOM      7  O   UNL     1      -3.943 -66.858  -6.730  1.00  0.00    -0.550 OA
ENDBRANCH   4   5
ENDBRANCH   3   4
ENDBRANCH   2   3
ENDBRANCH   1   2
BRANCH   1   8
ATOM      8  C   UNL     1      -6.850 -64.272  -1.967  1.00  0.00     0.000 C 
BRANCH   8   9
ATOM      9  C   UNL     1      -7.304 -64.282  -0.495  1.00  0.00     0.006 C 
BRANCH   9  10
ATOM     10  C   UNL     1      -8.723 -64.833  -0.314  1.00  0.00     0.053 C 
BRANCH  10  11
ATOM     11  C   UNL     1      -9.456 -64.054   0.732  1.00  0.00     0.041 C 
ATOM     12  O   UNL     1     -10.166 -63.066   0.405  1.00  0.00    -0.550 OA
ATOM     13  O   UNL     1      -9.397 -64.448   2.063  1.00  0.00    -0.550 OA
ENDBRANCH  10  11
ENDBRANCH   9  10
ENDBRANCH   8   9
ENDBRANCH   1   8
TORSDOF 8
ENDMDL
MODEL 7
REMARK VINA RESULT:    -3.512     13.910     15.301
REMARK INTER + INTRA:          -5.631
REMARK INTER:                  -5.101
REMARK INTRA:                  -0.530
REMARK UNBOUND:                -0.477
REMARK SMILES O=C([O-])CCCCCCCC(=O)[O-]
REMARK SMILES IDX 7 1 6 2 5 3 4 4 2 5 1 6 3 7 8 8 9 9 10 10 11 11 12 12 13 13
REMARK H PARENT
REMARK Flexibility Score: inf
ROOT
ATOM      1  C   UNL     1      -7.354 -65.407   3.702  1.00  0.00     0.000 C 
ENDROOT
BRANCH   1   2
ATOM      2  C   UNL     1      -8.691 -66.078   3.335  1.00  0.00     0.000 C 
BRANCH   2   3
ATOM      3  C   UNL     1      -9.284 -65.548   2.023  1.00  0.00     0.006 C 
BRANCH   3   4
ATOM      4  C   UNL     1      -8.433 -64.406   1.459  1.00  0.00     0.053 C 
BRANCH   4   5
ATOM      5  C   UNL     1      -9.302 -63.370   0.818  1.00  0.00     0.041 C 
ATOM      6  O   UNL     1      -9.906 -63.628  -0.257  1.00  0.00    -0.550 OA
ATOM      7  O   UNL     1      -9.485 -62.140   1.434  1.00  0.00    -0.550 OA
ENDBRANCH   4   5
ENDBRANCH   3   4
ENDBRANCH   2   3
ENDBRANCH   1   2
BRANCH   1   8
ATOM      8  C   UNL     1      -6.284 -66.353   4.282  1.00  0.00     0.000 C 
BRANCH   8   9
ATOM      9  C   UNL     1      -4.991 -66.461   3.453  1.00  0.00     0.006 C 
BRANCH   9  10
ATOM     10  C   UNL     1      -5.030 -65.613   2.176  1.00  0.00     0.053 C 
BRANCH  10  11
ATOM     11  C   UNL     1      -3.735 -64.886   1.991  1.00  0.00     0.041 C 
ATOM     12  O   UNL     1      -3.156 -64.364   2.980  1.00  0.00    -0.550 OA
ATOM     13  O   UNL     1      -3.141 -64.829   0.737  1.00  0.00    -0.550 OA
ENDBRANCH  10  11
ENDBRANCH   9  10
ENDBRANCH   8   9
ENDBRANCH   1   8
TORSDOF 8
ENDMDL
MODEL 8
REMARK VINA RESULT:    -3.476     13.671     14.593
REMARK INTER + INTRA:          -5.579
REMARK INTER:                  -5.029
REMARK INTRA:                  -0.550
REMARK UNBOUND:                -0.477
REMARK SMILES O=C([O-])CCCCCCCC(=O)[O-]
REMARK SMILES IDX 7 1 6 2 5 3 4 4 2 5 1 6 3 7 8 8 9 9 10 10 11 11 12 12 13 13
REMARK H PARENT
REMARK Flexibility Score: inf
ROOT
ATOM      1  C   UNL     1      -7.100 -65.328   3.571  1.00  0.00     0.000 C 
ENDROOT
BRANCH   1   2
ATOM      2  C   UNL     1      -6.192 -66.407   4.189  1.00  0.00     0.000 C 
BRANCH   2   3
ATOM      3  C   UNL     1      -4.796 -66.449   3.552  1.00  0.00     0.006 C 
BRANCH   3   4
ATOM      4  C   UNL     1      -4.819 -65.847   2.144  1.00  0.00     0.053 C 
BRANCH   4   5
ATOM      5  C   UNL     1      -3.849 -64.712   2.042  1.00  0.00     0.041 C 
ATOM      6  O   UNL     1      -3.870 -63.950   1.039  1.00  0.00    -0.550 OA
ATOM      7  O   UNL     1      -2.959 -64.464   3.078  1.00  0.00    -0.550 OA
ENDBRANCH   4   5
ENDBRANCH   3   4
ENDBRANCH   2   3
ENDBRANCH   1   2
BRANCH   1   8
ATOM      8  C   UNL     1      -8.491 -65.820   3.124  1.00  0.00     0.000 C 
BRANCH   8   9
ATOM      9  C   UNL     1      -8.794 -65.645   1.625  1.00  0.00     0.006 C 
BRANCH   9  10
ATOM     10  C   UNL     1      -8.052 -64.456   1.002  1.00  0.00     0.053 C 
BRANCH  10  11
ATOM     11  C   UNL     1      -8.997 -63.606   0.215  1.00  0.00     0.041 C 
ATOM     12  O   UNL     1     -10.132 -63.322   0.681  1.00  0.00    -0.550 OA
ATOM     13  O   UNL     1      -8.607 -63.083  -1.012  1.00  0.00    -0.550 OA
ENDBRANCH  10  11
ENDBRANCH   9  10
ENDBRANCH   8   9
ENDBRANCH   1   8
TORSDOF 8
ENDMDL
MODEL 9
REMARK VINA RESULT:    -3.413      8.494      9.703
REMARK INTER + INTRA:          -5.486
REMARK INTER:                  -4.775
REMARK INTRA:                  -0.711
REMARK UNBOUND:                -0.477
REMARK SMILES O=C([O-])CCCCCCCC(=O)[O-]
REMARK SMILES IDX 7 1 6 2 5 3 4 4 2 5 1 6 3 7 8 8 9 9 10 10 11 11 12 12 13 13
REMARK H PARENT
REMARK Flexibility Score: inf
ROOT
ATOM      1  C   UNL     1      -5.374 -63.096  -5.286  1.00  0.00     0.000 C 
ENDROOT
BRANCH   1   2
ATOM      2  C   UNL     1      -6.014 -64.300  -6.001  1.00  0.00     0.000 C 
BRANCH   2   3
ATOM      3  C   UNL     1      -5.003 -65.111  -6.824  1.00  0.00     0.006 C 
BRANCH   3   4
ATOM      4  C   UNL     1      -4.749 -66.479  -6.185  1.00  0.00     0.053 C 
BRANCH   4   5
ATOM      5  C   UNL     1      -3.393 -66.519  -5.552  1.00  0.00     0.041 C 
ATOM      6  O   UNL     1      -3.182 -67.260  -4.555  1.00  0.00    -0.550 OA
ATOM      7  O   UNL     1      -2.352 -65.778  -6.094  1.00  0.00    -0.550 OA
ENDBRANCH   4   5
ENDBRANCH   3   4
ENDBRANCH   2   3
ENDBRANCH   1   2
BRANCH   1   8
ATOM      8  C   UNL     1      -4.733 -63.412  -3.919  1.00  0.00     0.000 C 
BRANCH   8   9
ATOM      9  C   UNL     1      -5.538 -64.375  -3.028  1.00  0.00     0.006 C 
BRANCH   9  10
ATOM     10  C   UNL     1      -4.685 -65.024  -1.931  1.00  0.00     0.053 C 
BRANCH  10  11
ATOM     11  C   UNL     1      -3.980 -63.975  -1.129  1.00  0.00     0.041 C 
ATOM     12  O   UNL     1      -4.639 -63.186  -0.401  1.00  0.00    -0.550 OA
ATOM     13  O   UNL     1      -2.593 -63.902  -1.144  1.00  0.00    -0.550 OA
ENDBRANCH  10  11
ENDBRANCH   9  10
ENDBRANCH   8   9
ENDBRANCH   1   8
TORSDOF 8
ENDMDL
