MODEL 1
REMARK VINA RESULT:    -7.275      0.000      0.000
REMARK INTER + INTRA:          -7.947
REMARK INTER:                  -7.700
REMARK INTRA:                  -0.247
REMARK UNBOUND:                -0.247
REMARK SMILES O=c1cc(-c2ccccc2)oc2ccccc12
REMARK SMILES IDX 4 1 3 2 2 3 1 4 17 5 16 6 15 7 14 8 13 9 12 10 11 11 5 12
REMARK SMILES IDX 8 13 7 14 9 15 6 16 10 17
REMARK H PARENT
REMARK Flexibility Score: inf
ROOT
ATOM      1  C   UNL     1      23.673  63.025  31.408  1.00  0.00     0.138 A 
ATOM      2  C   UNL     1      24.024  61.980  30.527  1.00  0.00     0.100 A 
ATOM      3  C   UNL     1      24.001  62.205  29.149  1.00  0.00     0.193 A 
ATOM      4  O   UNL     1      24.315  61.271  28.362  1.00  0.00    -0.289 OA
ATOM      5  C   UNL     1      23.630  63.466  28.661  1.00  0.00     0.065 A 
ATOM      6  C   UNL     1      23.587  63.758  27.286  1.00  0.00     0.016 A 
ATOM      7  C   UNL     1      23.209  65.033  26.853  1.00  0.00     0.001 A 
ATOM      8  C   UNL     1      22.874  66.021  27.783  1.00  0.00     0.004 A 
ATOM      9  C   UNL     1      22.915  65.739  29.152  1.00  0.00     0.048 A 
ATOM     10  C   UNL     1      23.292  64.467  29.597  1.00  0.00     0.138 A 
ATOM     11  O   UNL     1      23.327  64.209  30.899  1.00  0.00    -0.456 OA
ENDROOT
BRANCH   1  12
ATOM     12  C   UNL     1      23.671  62.870  32.896  1.00  0.00     0.017 A 
ATOM     13  C   UNL     1      23.750  62.528  35.697  1.00  0.00     0.000 A 
ATOM     14  C   UNL     1      22.691  63.218  35.108  1.00  0.00     0.001 A 
ATOM     15  C   UNL     1      24.769  62.007  34.901  1.00  0.00     0.001 A 
ATOM     16  C   UNL     1      22.646  63.391  33.720  1.00  0.00     0.012 A 
ATOM     17  C   UNL     1      24.732  62.175  33.514  1.00  0.00     0.012 A 
ENDBRANCH   1  12
TORSDOF 1
ENDMDL
MODEL 2
REMARK VINA RESULT:    -7.260      1.533      1.956
REMARK INTER + INTRA:          -7.931
REMARK INTER:                  -7.710
REMARK INTRA:                  -0.221
REMARK UNBOUND:                -0.247
REMARK SMILES O=c1cc(-c2ccccc2)oc2ccccc12
REMARK SMILES IDX 4 1 3 2 2 3 1 4 17 5 16 6 15 7 14 8 13 9 12 10 11 11 5 12
REMARK SMILES IDX 8 13 7 14 9 15 6 16 10 17
REMARK H PARENT
REMARK Flexibility Score: inf
ROOT
ATOM      1  C   UNL     1      22.587  63.205  31.502  1.00  0.00     0.138 A 
ATOM      2  C   UNL     1      21.651  62.375  30.849  1.00  0.00     0.100 A 
ATOM      3  C   UNL     1      21.261  62.673  29.542  1.00  0.00     0.193 A 
ATOM      4  O   UNL     1      20.424  61.932  28.958  1.00  0.00    -0.289 OA
ATOM      5  C   UNL     1      21.807  63.792  28.896  1.00  0.00     0.065 A 
ATOM      6  C   UNL     1      21.458  64.147  27.581  1.00  0.00     0.016 A 
ATOM      7  C   UNL     1      22.033  65.274  26.984  1.00  0.00     0.001 A 
ATOM      8  C   UNL     1      22.955  66.051  27.691  1.00  0.00     0.004 A 
ATOM      9  C   UNL     1      23.307  65.705  28.999  1.00  0.00     0.048 A 
ATOM     10  C   UNL     1      22.739  64.579  29.606  1.00  0.00     0.138 A 
ATOM     11  O   UNL     1      23.080  64.259  30.849  1.00  0.00    -0.456 OA
ENDROOT
BRANCH   1  12
ATOM     12  C   UNL     1      23.057  62.959  32.900  1.00  0.00     0.017 A 
ATOM     13  C   UNL     1      23.864  62.535  35.572  1.00  0.00     0.000 A 
ATOM     14  C   UNL     1      24.684  62.124  34.522  1.00  0.00     0.001 A 
ATOM     15  C   UNL     1      22.646  63.157  35.301  1.00  0.00     0.001 A 
ATOM     16  C   UNL     1      24.290  62.331  33.195  1.00  0.00     0.012 A 
ATOM     17  C   UNL     1      22.245  63.368  33.979  1.00  0.00     0.012 A 
ENDBRANCH   1  12
TORSDOF 1
ENDMDL
MODEL 3
REMARK VINA RESULT:    -7.179      1.287      2.623
REMARK INTER + INTRA:          -7.846
REMARK INTER:                  -7.580
REMARK INTRA:                  -0.265
REMARK UNBOUND:                -0.247
REMARK SMILES O=c1cc(-c2ccccc2)oc2ccccc12
REMARK SMILES IDX 4 1 3 2 2 3 1 4 17 5 16 6 15 7 14 8 13 9 12 10 11 11 5 12
REMARK SMILES IDX 8 13 7 14 9 15 6 16 10 17
REMARK H PARENT
REMARK Flexibility Score: inf
ROOT
ATOM      1  C   UNL     1      22.935  63.633  31.270  1.00  0.00     0.138 A 
ATOM      2  C   UNL     1      21.945  64.632  31.157  1.00  0.00     0.100 A 
ATOM      3  C   UNL     1      21.676  65.196  29.908  1.00  0.00     0.193 A 
ATOM      4  O   UNL     1      20.791  66.090  29.807  1.00  0.00    -0.289 OA
ATOM      5  C   UNL     1      22.392  64.760  28.785  1.00  0.00     0.065 A 
ATOM      6  C   UNL     1      22.169  65.286  27.499  1.00  0.00     0.016 A 
ATOM      7  C   UNL     1      22.913  64.815  26.412  1.00  0.00     0.001 A 
ATOM      8  C   UNL     1      23.878  63.821  26.598  1.00  0.00     0.004 A 
ATOM      9  C   UNL     1      24.106  63.293  27.873  1.00  0.00     0.048 A 
ATOM     10  C   UNL     1      23.368  63.756  28.967  1.00  0.00     0.138 A 
ATOM     11  O   UNL     1      23.591  63.249  30.174  1.00  0.00    -0.456 OA
ENDROOT
BRANCH   1  12
ATOM     12  C   UNL     1      23.286  62.978  32.568  1.00  0.00     0.017 A 
ATOM     13  C   UNL     1      23.890  61.803  35.063  1.00  0.00     0.000 A 
ATOM     14  C   UNL     1      24.477  61.309  33.899  1.00  0.00     0.001 A 
ATOM     15  C   UNL     1      23.006  62.879  34.993  1.00  0.00     0.001 A 
ATOM     16  C   UNL     1      24.181  61.886  32.659  1.00  0.00     0.012 A 
ATOM     17  C   UNL     1      22.705  63.462  33.759  1.00  0.00     0.012 A 
ENDBRANCH   1  12
TORSDOF 1
ENDMDL
MODEL 4
REMARK VINA RESULT:    -7.083      1.183      5.877
REMARK INTER + INTRA:          -7.743
REMARK INTER:                  -7.485
REMARK INTRA:                  -0.258
REMARK UNBOUND:                -0.247
REMARK SMILES O=c1cc(-c2ccccc2)oc2ccccc12
REMARK SMILES IDX 4 1 3 2 2 3 1 4 17 5 16 6 15 7 14 8 13 9 12 10 11 11 5 12
REMARK SMILES IDX 8 13 7 14 9 15 6 16 10 17
REMARK H PARENT
REMARK Flexibility Score: inf
ROOT
ATOM      1  C   UNL     1      23.652  63.282  30.604  1.00  0.00     0.138 A 
ATOM      2  C   UNL     1      24.525  62.174  30.643  1.00  0.00     0.100 A 
ATOM      3  C   UNL     1      24.773  61.536  31.860  1.00  0.00     0.193 A 
ATOM      4  O   UNL     1      25.554  60.547  31.895  1.00  0.00    -0.289 OA
ATOM      5  C   UNL     1      24.149  62.005  33.025  1.00  0.00     0.065 A 
ATOM      6  C   UNL     1      24.355  61.408  34.282  1.00  0.00     0.016 A 
ATOM      7  C   UNL     1      23.707  61.915  35.413  1.00  0.00     0.001 A 
ATOM      8  C   UNL     1      22.854  63.017  35.299  1.00  0.00     0.004 A 
ATOM      9  C   UNL     1      22.644  63.616  34.053  1.00  0.00     0.048 A 
ATOM     10  C   UNL     1      23.286  63.117  32.916  1.00  0.00     0.138 A 
ATOM     11  O   UNL     1      23.080  63.693  31.737  1.00  0.00    -0.456 OA
ENDROOT
BRANCH   1  12
ATOM     12  C   UNL     1      23.332  64.023  29.344  1.00  0.00     0.017 A 
ATOM     13  C   UNL     1      22.709  65.499  27.020  1.00  0.00     0.000 A 
ATOM     14  C   UNL     1      23.111  64.168  26.914  1.00  0.00     0.001 A 
ATOM     15  C   UNL     1      22.614  66.099  28.275  1.00  0.00     0.001 A 
ATOM     16  C   UNL     1      23.422  63.431  28.062  1.00  0.00     0.012 A 
ATOM     17  C   UNL     1      22.922  65.370  29.427  1.00  0.00     0.012 A 
ENDBRANCH   1  12
TORSDOF 1
ENDMDL
MODEL 5
REMARK VINA RESULT:    -6.980      1.279      6.214
REMARK INTER + INTRA:          -7.634
REMARK INTER:                  -7.397
REMARK INTRA:                  -0.237
REMARK UNBOUND:                -0.247
REMARK SMILES O=c1cc(-c2ccccc2)oc2ccccc12
REMARK SMILES IDX 4 1 3 2 2 3 1 4 17 5 16 6 15 7 14 8 13 9 12 10 11 11 5 12
REMARK SMILES IDX 8 13 7 14 9 15 6 16 10 17
REMARK H PARENT
REMARK Flexibility Score: inf
ROOT
ATOM      1  C   UNL     1      23.467  63.697  30.818  1.00  0.00     0.138 A 
ATOM      2  C   UNL     1      22.394  63.821  31.726  1.00  0.00     0.100 A 
ATOM      3  C   UNL     1      22.529  63.327  33.024  1.00  0.00     0.193 A 
ATOM      4  O   UNL     1      21.570  63.437  33.835  1.00  0.00    -0.289 OA
ATOM      5  C   UNL     1      23.731  62.715  33.408  1.00  0.00     0.065 A 
ATOM      6  C   UNL     1      23.933  62.197  34.700  1.00  0.00     0.016 A 
ATOM      7  C   UNL     1      25.152  61.596  35.031  1.00  0.00     0.001 A 
ATOM      8  C   UNL     1      26.173  61.508  34.080  1.00  0.00     0.004 A 
ATOM      9  C   UNL     1      25.980  62.021  32.793  1.00  0.00     0.048 A 
ATOM     10  C   UNL     1      24.766  62.624  32.452  1.00  0.00     0.138 A 
ATOM     11  O   UNL     1      24.592  63.108  31.227  1.00  0.00    -0.456 OA
ENDROOT
BRANCH   1  12
ATOM     12  C   UNL     1      23.406  64.198  29.410  1.00  0.00     0.017 A 
ATOM     13  C   UNL     1      23.265  65.231  26.787  1.00  0.00     0.000 A 
ATOM     14  C   UNL     1      23.607  63.895  26.993  1.00  0.00     0.001 A 
ATOM     15  C   UNL     1      22.990  66.055  27.877  1.00  0.00     0.001 A 
ATOM     16  C   UNL     1      23.679  63.377  28.291  1.00  0.00     0.012 A 
ATOM     17  C   UNL     1      23.060  65.546  29.177  1.00  0.00     0.012 A 
ENDBRANCH   1  12
TORSDOF 1
ENDMDL
MODEL 6
REMARK VINA RESULT:    -6.853      2.215      3.237
REMARK INTER + INTRA:          -7.500
REMARK INTER:                  -7.277
REMARK INTRA:                  -0.223
REMARK UNBOUND:                -0.247
REMARK SMILES O=c1cc(-c2ccccc2)oc2ccccc12
REMARK SMILES IDX 4 1 3 2 2 3 1 4 17 5 16 6 15 7 14 8 13 9 12 10 11 11 5 12
REMARK SMILES IDX 8 13 7 14 9 15 6 16 10 17
REMARK H PARENT
REMARK Flexibility Score: inf
ROOT
ATOM      1  C   UNL     1      22.573  63.164  31.941  1.00  0.00     0.138 A 
ATOM      2  C   UNL     1      22.535  64.406  31.272  1.00  0.00     0.100 A 
ATOM      3  C   UNL     1      21.928  64.494  30.018  1.00  0.00     0.193 A 
ATOM      4  O   UNL     1      21.895  65.604  29.420  1.00  0.00    -0.289 OA
ATOM      5  C   UNL     1      21.363  63.347  29.442  1.00  0.00     0.065 A 
ATOM      6  C   UNL     1      20.737  63.367  28.183  1.00  0.00     0.016 A 
ATOM      7  C   UNL     1      20.190  62.193  27.654  1.00  0.00     0.001 A 
ATOM      8  C   UNL     1      20.264  60.997  28.374  1.00  0.00     0.004 A 
ATOM      9  C   UNL     1      20.885  60.969  29.626  1.00  0.00     0.048 A 
ATOM     10  C   UNL     1      21.435  62.137  30.165  1.00  0.00     0.138 A 
ATOM     11  O   UNL     1      22.023  62.099  31.356  1.00  0.00    -0.456 OA
ENDROOT
BRANCH   1  12
ATOM     12  C   UNL     1      23.203  62.982  33.285  1.00  0.00     0.017 A 
ATOM     13  C   UNL     1      24.316  62.684  35.862  1.00  0.00     0.000 A 
ATOM     14  C   UNL     1      24.995  62.193  34.748  1.00  0.00     0.001 A 
ATOM     15  C   UNL     1      23.087  63.323  35.702  1.00  0.00     0.001 A 
ATOM     16  C   UNL     1      24.449  62.338  33.468  1.00  0.00     0.012 A 
ATOM     17  C   UNL     1      22.534  63.472  34.428  1.00  0.00     0.012 A 
ENDBRANCH   1  12
TORSDOF 1
ENDMDL
MODEL 7
REMARK VINA RESULT:    -6.847      1.989      6.335
REMARK INTER + INTRA:          -7.494
REMARK INTER:                  -7.240
REMARK INTRA:                  -0.254
REMARK UNBOUND:                -0.247
REMARK SMILES O=c1cc(-c2ccccc2)oc2ccccc12
REMARK SMILES IDX 4 1 3 2 2 3 1 4 17 5 16 6 15 7 14 8 13 9 12 10 11 11 5 12
REMARK SMILES IDX 8 13 7 14 9 15 6 16 10 17
REMARK H PARENT
REMARK Flexibility Score: inf
ROOT
ATOM      1  C   UNL     1      23.271  63.914  28.177  1.00  0.00     0.138 A 
ATOM      2  C   UNL     1      21.903  64.253  28.250  1.00  0.00     0.100 A 
ATOM      3  C   UNL     1      21.242  64.185  29.478  1.00  0.00     0.193 A 
ATOM      4  O   UNL     1      20.019  64.488  29.543  1.00  0.00    -0.289 OA
ATOM      5  C   UNL     1      21.947  63.782  30.621  1.00  0.00     0.065 A 
ATOM      6  C   UNL     1      21.341  63.694  31.887  1.00  0.00     0.016 A 
ATOM      7  C   UNL     1      22.091  63.286  32.995  1.00  0.00     0.001 A 
ATOM      8  C   UNL     1      23.444  62.965  32.849  1.00  0.00     0.004 A 
ATOM      9  C   UNL     1      24.054  63.051  31.593  1.00  0.00     0.048 A 
ATOM     10  C   UNL     1      23.313  63.458  30.479  1.00  0.00     0.138 A 
ATOM     11  O   UNL     1      23.902  63.536  29.290  1.00  0.00    -0.456 OA
ENDROOT
BRANCH   1  12
ATOM     12  C   UNL     1      24.054  63.958  26.904  1.00  0.00     0.017 A 
ATOM     13  C   UNL     1      25.585  63.967  24.532  1.00  0.00     0.000 A 
ATOM     14  C   UNL     1      24.562  64.898  24.705  1.00  0.00     0.001 A 
ATOM     15  C   UNL     1      25.853  63.034  25.532  1.00  0.00     0.001 A 
ATOM     16  C   UNL     1      23.799  64.899  25.879  1.00  0.00     0.012 A 
ATOM     17  C   UNL     1      25.096  63.027  26.707  1.00  0.00     0.012 A 
ENDBRANCH   1  12
TORSDOF 1
ENDMDL
MODEL 8
REMARK VINA RESULT:    -6.798      1.527      6.237
REMARK INTER + INTRA:          -7.442
REMARK INTER:                  -7.191
REMARK INTRA:                  -0.251
REMARK UNBOUND:                -0.247
REMARK SMILES O=c1cc(-c2ccccc2)oc2ccccc12
REMARK SMILES IDX 4 1 3 2 2 3 1 4 17 5 16 6 15 7 14 8 13 9 12 10 11 11 5 12
REMARK SMILES IDX 8 13 7 14 9 15 6 16 10 17
REMARK H PARENT
REMARK Flexibility Score: inf
ROOT
ATOM      1  C   UNL     1      23.319  63.609  29.304  1.00  0.00     0.138 A 
ATOM      2  C   UNL     1      22.005  64.029  29.601  1.00  0.00     0.100 A 
ATOM      3  C   UNL     1      21.546  63.977  30.918  1.00  0.00     0.193 A 
ATOM      4  O   UNL     1      20.372  64.352  31.183  1.00  0.00    -0.289 OA
ATOM      5  C   UNL     1      22.399  63.510  31.928  1.00  0.00     0.065 A 
ATOM      6  C   UNL     1      22.001  63.433  33.275  1.00  0.00     0.016 A 
ATOM      7  C   UNL     1      22.892  62.958  34.243  1.00  0.00     0.001 A 
ATOM      8  C   UNL     1      24.181  62.559  33.877  1.00  0.00     0.004 A 
ATOM      9  C   UNL     1      24.585  62.632  32.540  1.00  0.00     0.048 A 
ATOM     10  C   UNL     1      23.702  63.106  31.563  1.00  0.00     0.138 A 
ATOM     11  O   UNL     1      24.095  63.172  30.296  1.00  0.00    -0.456 OA
ENDROOT
BRANCH   1  12
ATOM     12  C   UNL     1      23.888  63.631  27.921  1.00  0.00     0.017 A 
ATOM     13  C   UNL     1      24.915  63.755  25.294  1.00  0.00     0.000 A 
ATOM     14  C   UNL     1      25.273  62.702  26.134  1.00  0.00     0.001 A 
ATOM     15  C   UNL     1      24.048  64.746  25.753  1.00  0.00     0.001 A 
ATOM     16  C   UNL     1      24.768  62.634  27.438  1.00  0.00     0.012 A 
ATOM     17  C   UNL     1      23.539  64.687  27.053  1.00  0.00     0.012 A 
ENDBRANCH   1  12
TORSDOF 1
ENDMDL
MODEL 9
REMARK VINA RESULT:    -6.727      9.212     10.788
REMARK INTER + INTRA:          -7.366
REMARK INTER:                  -7.131
REMARK INTRA:                  -0.236
REMARK UNBOUND:                -0.247
REMARK SMILES O=c1cc(-c2ccccc2)oc2ccccc12
REMARK SMILES IDX 4 1 3 2 2 3 1 4 17 5 16 6 15 7 14 8 13 9 12 10 11 11 5 12
REMARK SMILES IDX 8 13 7 14 9 15 6 16 10 17
REMARK H PARENT
REMARK Flexibility Score: inf
ROOT
ATOM      1  C   UNL     1      17.578  57.888  25.487  1.00  0.00     0.138 A 
ATOM      2  C   UNL     1      16.934  58.051  24.242  1.00  0.00     0.100 A 
ATOM      3  C   UNL     1      15.596  58.446  24.206  1.00  0.00     0.193 A 
ATOM      4  O   UNL     1      15.020  58.591  23.093  1.00  0.00    -0.289 OA
ATOM      5  C   UNL     1      14.911  58.678  25.407  1.00  0.00     0.065 A 
ATOM      6  C   UNL     1      13.563  59.078  25.441  1.00  0.00     0.016 A 
ATOM      7  C   UNL     1      12.927  59.295  26.668  1.00  0.00     0.001 A 
ATOM      8  C   UNL     1      13.628  59.115  27.864  1.00  0.00     0.004 A 
ATOM      9  C   UNL     1      14.969  58.717  27.839  1.00  0.00     0.048 A 
ATOM     10  C   UNL     1      15.614  58.498  26.618  1.00  0.00     0.138 A 
ATOM     11  O   UNL     1      16.888  58.120  26.605  1.00  0.00    -0.456 OA
ENDROOT
BRANCH   1  12
ATOM     12  C   UNL     1      19.007  57.468  25.616  1.00  0.00     0.017 A 
ATOM     13  C   UNL     1      21.685  56.595  25.806  1.00  0.00     0.000 A 
ATOM     14  C   UNL     1      21.295  57.786  26.417  1.00  0.00     0.001 A 
ATOM     15  C   UNL     1      20.752  55.835  25.104  1.00  0.00     0.001 A 
ATOM     16  C   UNL     1      19.969  58.225  26.326  1.00  0.00     0.012 A 
ATOM     17  C   UNL     1      19.425  56.265  25.008  1.00  0.00     0.012 A 
ENDBRANCH   1  12
TORSDOF 1
ENDMDL
