MODEL 1
REMARK VINA RESULT:    -3.841      0.000      0.000
REMARK INTER + INTRA:          -5.778
REMARK INTER:                  -5.862
REMARK INTRA:                   0.084
REMARK UNBOUND:                 0.084
REMARK SMILES CC1=CCC[C@@H](C)C(=O)C[C@@H](C(C)C)C(=O)C1
REMARK SMILES IDX 8 1 9 2 6 3 7 4 5 5 4 6 3 7 2 8 1 9 10 11 11 12 15 13 16 14
REMARK SMILES IDX 17 15 12 17 13 18 14 19
REMARK H PARENT
REMARK Flexibility Score: 70.00
ROOT
ATOM      1  C   UNL     1      17.767  28.499  29.117  1.00  0.00     0.136 C 
ATOM      2  O   UNL     1      16.702  27.929  28.926  1.00  0.00    -0.299 OA
ENDROOT
BRANCH   1   3
ATOM      3  C   UNL     1      18.954  28.086  28.250  1.00  0.00     0.053 C 
ATOM      4  C   UNL     1      18.542  26.887  27.380  1.00  0.00     0.016 C 
BRANCH   3   5
ATOM      5  C   UNL     1      20.281  27.743  28.986  1.00  0.00     0.015 C 
BRANCH   5   6
ATOM      6  C   UNL     1      21.447  28.745  28.830  1.00  0.00     0.028 C 
BRANCH   6   7
ATOM      7  C   UNL     1      21.802  29.461  30.110  1.00  0.00    -0.028 C 
ATOM      8  C   UNL     1      21.391  30.703  30.459  1.00  0.00    -0.070 CG0
ATOM      9  C   UNL     1      21.872  31.257  31.777  1.00  0.00     0.039 C 
ATOM     10  G   UNL     1      20.507  31.579  29.586  1.00  0.00     0.000 G0
ENDBRANCH   6   7
ENDBRANCH   5   6
ENDBRANCH   3   5
ENDBRANCH   1   3
BRANCH   1  11
ATOM     11  C   UNL     1      17.808  29.546  30.211  1.00  0.00     0.087 C 
BRANCH  11  12
ATOM     12  C   UNL     1      17.892  30.992  29.648  1.00  0.00     0.066 C 
BRANCH  12  13
ATOM     13  C   UNL     1      19.121  31.734  30.171  1.00  0.00     0.140 C 
ATOM     14  O   UNL     1      18.982  32.486  31.125  1.00  0.00    -0.299 OA
BRANCH  13  15
ATOM     15  C   UNL     1      20.502  31.573  29.580  1.00  0.00     0.106 CG0
ATOM     16  G   UNL     1      21.381  30.708  30.469  1.00  0.00     0.000 G0
ENDBRANCH  13  15
ENDBRANCH  12  13
BRANCH  12  17
ATOM     17  C   UNL     1      16.571  31.798  29.860  1.00  0.00    -0.006 C 
ATOM     18  C   UNL     1      15.328  30.896  29.760  1.00  0.00     0.008 C 
ATOM     19  C   UNL     1      16.438  32.942  28.836  1.00  0.00     0.008 C 
ENDBRANCH  12  17
ENDBRANCH  11  12
ENDBRANCH   1  11
TORSDOF 1
ENDMDL
MODEL 2
REMARK VINA RESULT:    -3.739      2.701      4.205
REMARK INTER + INTRA:          -5.621
REMARK INTER:                  -5.829
REMARK INTRA:                   0.208
REMARK UNBOUND:                 0.084
REMARK SMILES CC1=CCC[C@@H](C)C(=O)C[C@@H](C(C)C)C(=O)C1
REMARK SMILES IDX 8 1 9 2 6 3 7 4 5 5 4 6 3 7 2 8 1 9 10 11 11 12 15 13 16 14
REMARK SMILES IDX 17 15 12 17 13 18 14 19
REMARK H PARENT
REMARK Flexibility Score: 70.00
ROOT
ATOM      1  C   UNL     1      19.620  29.149  29.445  1.00  0.00     0.136 C 
ATOM      2  O   UNL     1      20.512  29.652  30.113  1.00  0.00    -0.299 OA
ENDROOT
BRANCH   1   3
ATOM      3  C   UNL     1      19.622  27.631  29.291  1.00  0.00     0.053 C 
ATOM      4  C   UNL     1      21.072  27.124  29.376  1.00  0.00     0.016 C 
BRANCH   3   5
ATOM      5  C   UNL     1      18.959  27.049  28.009  1.00  0.00     0.015 C 
BRANCH   5   6
ATOM      6  C   UNL     1      17.422  27.153  27.907  1.00  0.00     0.028 C 
BRANCH   6   7
ATOM      7  C   UNL     1      16.702  26.683  29.146  1.00  0.00    -0.028 C 
ATOM      8  C   UNL     1      15.958  27.461  29.969  1.00  0.00    -0.070 CG0
ATOM      9  C   UNL     1      15.331  26.809  31.176  1.00  0.00     0.039 C 
ATOM     10  G   UNL     1      15.750  28.953  29.764  1.00  0.00     0.000 G0
ENDBRANCH   6   7
ENDBRANCH   5   6
ENDBRANCH   3   5
ENDBRANCH   1   3
BRANCH   1  11
ATOM     11  C   UNL     1      18.609  30.088  28.819  1.00  0.00     0.087 C 
BRANCH  11  12
ATOM     12  C   UNL     1      17.700  30.775  29.876  1.00  0.00     0.066 C 
BRANCH  12  13
ATOM     13  C   UNL     1      16.754  29.780  30.545  1.00  0.00     0.140 C 
ATOM     14  O   UNL     1      16.814  29.649  31.760  1.00  0.00    -0.299 OA
BRANCH  13  15
ATOM     15  C   UNL     1      15.736  28.962  29.786  1.00  0.00     0.106 CG0
ATOM     16  G   UNL     1      15.975  27.473  29.980  1.00  0.00     0.000 G0
ENDBRANCH  13  15
ENDBRANCH  12  13
BRANCH  12  17
ATOM     17  C   UNL     1      16.952  32.023  29.307  1.00  0.00    -0.006 C 
ATOM     18  C   UNL     1      17.922  33.175  28.986  1.00  0.00     0.008 C 
ATOM     19  C   UNL     1      15.881  32.535  30.288  1.00  0.00     0.008 C 
ENDBRANCH  12  17
ENDBRANCH  11  12
ENDBRANCH   1  11
TORSDOF 1
ENDMDL
MODEL 3
REMARK VINA RESULT:    -3.709      1.826      4.079
REMARK INTER + INTRA:          -5.576
REMARK INTER:                  -5.283
REMARK INTRA:                  -0.293
REMARK UNBOUND:                 0.084
REMARK SMILES CC1=CCC[C@@H](C)C(=O)C[C@@H](C(C)C)C(=O)C1
REMARK SMILES IDX 8 1 9 2 6 3 7 4 5 5 4 6 3 7 2 8 1 9 10 11 11 12 15 13 16 14
REMARK SMILES IDX 17 15 12 17 13 18 14 19
REMARK H PARENT
REMARK Flexibility Score: 70.00
ROOT
ATOM      1  C   UNL     1      19.773  32.176  29.747  1.00  0.00     0.136 C 
ATOM      2  O   UNL     1      19.923  33.386  29.659  1.00  0.00    -0.299 OA
ENDROOT
BRANCH   1   3
ATOM      3  C   UNL     1      20.912  31.366  30.361  1.00  0.00     0.053 C 
ATOM      4  C   UNL     1      22.132  32.284  30.545  1.00  0.00     0.016 C 
BRANCH   3   5
ATOM      5  C   UNL     1      21.357  30.083  29.602  1.00  0.00     0.015 C 
BRANCH   5   6
ATOM      6  C   UNL     1      20.795  28.737  30.112  1.00  0.00     0.028 C 
BRANCH   6   7
ATOM      7  C   UNL     1      19.937  28.020  29.100  1.00  0.00    -0.028 C 
ATOM      8  C   UNL     1      18.595  27.850  29.182  1.00  0.00    -0.070 CG0
ATOM      9  C   UNL     1      17.916  27.083  28.076  1.00  0.00     0.039 C 
ATOM     10  G   UNL     1      17.747  28.357  30.337  1.00  0.00     0.000 G0
ENDBRANCH   6   7
ENDBRANCH   5   6
ENDBRANCH   3   5
ENDBRANCH   1   3
BRANCH   1  11
ATOM     11  C   UNL     1      18.477  31.596  29.219  1.00  0.00     0.087 C 
BRANCH  11  12
ATOM     12  C   UNL     1      17.576  31.024  30.348  1.00  0.00     0.066 C 
BRANCH  12  13
ATOM     13  C   UNL     1      17.020  29.648  29.988  1.00  0.00     0.140 C 
ATOM     14  O   UNL     1      15.963  29.593  29.374  1.00  0.00    -0.299 OA
BRANCH  13  15
ATOM     15  C   UNL     1      17.715  28.353  30.335  1.00  0.00     0.106 CG0
ATOM     16  G   UNL     1      18.582  27.871  29.184  1.00  0.00     0.000 G0
ENDBRANCH  13  15
ENDBRANCH  12  13
BRANCH  12  17
ATOM     17  C   UNL     1      16.462  32.024  30.794  1.00  0.00    -0.006 C 
ATOM     18  C   UNL     1      16.047  32.967  29.651  1.00  0.00     0.008 C 
ATOM     19  C   UNL     1      16.914  32.871  31.999  1.00  0.00     0.008 C 
ENDBRANCH  12  17
ENDBRANCH  11  12
ENDBRANCH   1  11
TORSDOF 1
ENDMDL
MODEL 4
REMARK VINA RESULT:    -3.651      1.857      3.287
REMARK INTER + INTRA:          -5.487
REMARK INTER:                  -5.243
REMARK INTRA:                  -0.243
REMARK UNBOUND:                 0.084
REMARK SMILES CC1=CCC[C@@H](C)C(=O)C[C@@H](C(C)C)C(=O)C1
REMARK SMILES IDX 8 1 9 2 6 3 7 4 5 5 4 6 3 7 2 8 1 9 10 11 11 12 15 13 16 14
REMARK SMILES IDX 17 15 12 17 13 18 14 19
REMARK H PARENT
REMARK Flexibility Score: 70.00
ROOT
ATOM      1  C   UNL     1      21.263  28.186  29.712  1.00  0.00     0.136 C 
ATOM      2  O   UNL     1      21.500  26.991  29.820  1.00  0.00    -0.299 OA
ENDROOT
BRANCH   1   3
ATOM      3  C   UNL     1      22.357  29.073  29.125  1.00  0.00     0.053 C 
ATOM      4  C   UNL     1      23.242  28.224  28.197  1.00  0.00     0.016 C 
BRANCH   3   5
ATOM      5  C   UNL     1      23.267  29.833  30.133  1.00  0.00     0.015 C 
BRANCH   5   6
ATOM      6  C   UNL     1      22.581  30.865  31.056  1.00  0.00     0.028 C 
BRANCH   6   7
ATOM      7  C   UNL     1      22.064  32.078  30.324  1.00  0.00    -0.028 C 
ATOM      8  C   UNL     1      20.760  32.407  30.166  1.00  0.00    -0.070 CG0
ATOM      9  C   UNL     1      20.441  33.655  29.381  1.00  0.00     0.039 C 
ATOM     10  G   UNL     1      19.606  31.576  30.701  1.00  0.00     0.000 G0
ENDBRANCH   6   7
ENDBRANCH   5   6
ENDBRANCH   3   5
ENDBRANCH   1   3
BRANCH   1  11
ATOM     11  C   UNL     1      19.909  28.671  30.189  1.00  0.00     0.087 C 
BRANCH  11  12
ATOM     12  C   UNL     1      19.153  29.489  29.106  1.00  0.00     0.066 C 
BRANCH  12  13
ATOM     13  C   UNL     1      18.833  30.904  29.584  1.00  0.00     0.140 C 
ATOM     14  O   UNL     1      17.908  31.501  29.050  1.00  0.00    -0.299 OA
BRANCH  13  15
ATOM     15  C   UNL     1      19.587  31.597  30.694  1.00  0.00     0.106 CG0
ATOM     16  G   UNL     1      20.760  32.392  30.145  1.00  0.00     0.000 G0
ENDBRANCH  13  15
ENDBRANCH  12  13
BRANCH  12  17
ATOM     17  C   UNL     1      17.896  28.743  28.555  1.00  0.00    -0.006 C 
ATOM     18  C   UNL     1      16.981  28.249  29.690  1.00  0.00     0.008 C 
ATOM     19  C   UNL     1      18.293  27.541  27.677  1.00  0.00     0.008 C 
ENDBRANCH  12  17
ENDBRANCH  11  12
ENDBRANCH   1  11
TORSDOF 1
ENDMDL
MODEL 5
REMARK VINA RESULT:    -3.638      1.733      4.172
REMARK INTER + INTRA:          -5.468
REMARK INTER:                  -5.067
REMARK INTRA:                  -0.401
REMARK UNBOUND:                 0.084
REMARK SMILES CC1=CCC[C@@H](C)C(=O)C[C@@H](C(C)C)C(=O)C1
REMARK SMILES IDX 8 1 9 2 6 3 7 4 5 5 4 6 3 7 2 8 1 9 10 11 11 12 15 13 16 14
REMARK SMILES IDX 17 15 12 17 13 18 14 19
REMARK H PARENT
REMARK Flexibility Score: 70.00
ROOT
ATOM      1  C   UNL     1      19.742  33.191  30.049  1.00  0.00     0.136 C 
ATOM      2  O   UNL     1      20.323  34.024  29.368  1.00  0.00    -0.299 OA
ENDROOT
BRANCH   1   3
ATOM      3  C   UNL     1      20.163  33.053  31.509  1.00  0.00     0.053 C 
ATOM      4  C   UNL     1      20.259  34.455  32.134  1.00  0.00     0.016 C 
BRANCH   3   5
ATOM      5  C   UNL     1      21.484  32.283  31.794  1.00  0.00     0.015 C 
BRANCH   5   6
ATOM      6  C   UNL     1      21.360  30.781  32.135  1.00  0.00     0.028 C 
BRANCH   6   7
ATOM      7  C   UNL     1      21.396  29.883  30.924  1.00  0.00    -0.028 C 
ATOM      8  C   UNL     1      20.343  29.196  30.420  1.00  0.00    -0.070 CG0
ATOM      9  C   UNL     1      20.585  28.330  29.209  1.00  0.00     0.039 C 
ATOM     10  G   UNL     1      18.949  29.222  31.024  1.00  0.00     0.000 G0
ENDBRANCH   6   7
ENDBRANCH   5   6
ENDBRANCH   3   5
ENDBRANCH   1   3
BRANCH   1  11
ATOM     11  C   UNL     1      18.671  32.363  29.368  1.00  0.00     0.087 C 
BRANCH  11  12
ATOM     12  C   UNL     1      17.814  31.551  30.378  1.00  0.00     0.066 C 
BRANCH  12  13
ATOM     13  C   UNL     1      17.996  30.046  30.195  1.00  0.00     0.140 C 
ATOM     14  O   UNL     1      17.354  29.486  29.317  1.00  0.00    -0.299 OA
BRANCH  13  15
ATOM     15  C   UNL     1      18.940  29.215  31.032  1.00  0.00     0.106 CG0
ATOM     16  G   UNL     1      20.334  29.193  30.426  1.00  0.00     0.000 G0
ENDBRANCH  13  15
ENDBRANCH  12  13
BRANCH  12  17
ATOM     17  C   UNL     1      16.311  31.978  30.373  1.00  0.00    -0.006 C 
ATOM     18  C   UNL     1      16.029  33.068  29.324  1.00  0.00     0.008 C 
ATOM     19  C   UNL     1      15.866  32.490  31.756  1.00  0.00     0.008 C 
ENDBRANCH  12  17
ENDBRANCH  11  12
ENDBRANCH   1  11
TORSDOF 1
ENDMDL
MODEL 6
REMARK VINA RESULT:    -3.593      2.483      3.826
REMARK INTER + INTRA:          -5.400
REMARK INTER:                  -5.244
REMARK INTRA:                  -0.156
REMARK UNBOUND:                 0.084
REMARK SMILES CC1=CCC[C@@H](C)C(=O)C[C@@H](C(C)C)C(=O)C1
REMARK SMILES IDX 8 1 9 2 6 3 7 4 5 5 4 6 3 7 2 8 1 9 10 11 11 12 15 13 16 14
REMARK SMILES IDX 17 15 12 17 13 18 14 19
REMARK H PARENT
REMARK Flexibility Score: 70.00
ROOT
ATOM      1  C   UNL     1      22.411  28.328  29.403  1.00  0.00     0.136 C 
ATOM      2  O   UNL     1      22.055  27.179  29.180  1.00  0.00    -0.299 OA
ENDROOT
BRANCH   1   3
ATOM      3  C   UNL     1      23.675  28.823  28.707  1.00  0.00     0.053 C 
ATOM      4  C   UNL     1      23.974  27.909  27.507  1.00  0.00     0.016 C 
BRANCH   3   5
ATOM      5  C   UNL     1      24.959  28.947  29.578  1.00  0.00     0.015 C 
BRANCH   5   6
ATOM      6  C   UNL     1      24.900  29.918  30.778  1.00  0.00     0.028 C 
BRANCH   6   7
ATOM      7  C   UNL     1      24.822  31.370  30.375  1.00  0.00    -0.028 C 
ATOM      8  C   UNL     1      23.780  32.201  30.620  1.00  0.00    -0.070 CG0
ATOM      9  C   UNL     1      23.881  33.619  30.118  1.00  0.00     0.039 C 
ATOM     10  G   UNL     1      22.509  31.777  31.338  1.00  0.00     0.000 G0
ENDBRANCH   6   7
ENDBRANCH   5   6
ENDBRANCH   3   5
ENDBRANCH   1   3
BRANCH   1  11
ATOM     11  C   UNL     1      21.569  29.140  30.366  1.00  0.00     0.087 C 
BRANCH  11  12
ATOM     12  C   UNL     1      20.932  30.388  29.693  1.00  0.00     0.066 C 
BRANCH  12  13
ATOM     13  C   UNL     1      21.327  31.680  30.405  1.00  0.00     0.140 C 
ATOM     14  O   UNL     1      20.650  32.680  30.210  1.00  0.00    -0.299 OA
BRANCH  13  15
ATOM     15  C   UNL     1      22.501  31.783  31.349  1.00  0.00     0.106 CG0
ATOM     16  G   UNL     1      23.764  32.195  30.611  1.00  0.00     0.000 G0
ENDBRANCH  13  15
ENDBRANCH  12  13
BRANCH  12  17
ATOM     17  C   UNL     1      19.386  30.252  29.513  1.00  0.00    -0.006 C 
ATOM     18  C   UNL     1      18.686  29.879  30.832  1.00  0.00     0.008 C 
ATOM     19  C   UNL     1      19.034  29.196  28.448  1.00  0.00     0.008 C 
ENDBRANCH  12  17
ENDBRANCH  11  12
ENDBRANCH   1  11
TORSDOF 1
ENDMDL
MODEL 7
REMARK VINA RESULT:    -3.533      2.113      5.503
REMARK INTER + INTRA:          -5.307
REMARK INTER:                  -5.169
REMARK INTRA:                  -0.138
REMARK UNBOUND:                 0.084
REMARK SMILES CC1=CCC[C@@H](C)C(=O)C[C@@H](C(C)C)C(=O)C1
REMARK SMILES IDX 8 1 9 2 6 3 7 4 5 5 4 6 3 7 2 8 1 9 10 11 11 12 15 13 16 14
REMARK SMILES IDX 17 15 12 17 13 18 14 19
REMARK H PARENT
REMARK Flexibility Score: 70.00
ROOT
ATOM      1  C   UNL     1      20.253  32.982  31.358  1.00  0.00     0.136 C 
ATOM      2  O   UNL     1      20.701  33.738  32.208  1.00  0.00    -0.299 OA
ENDROOT
BRANCH   1   3
ATOM      3  C   UNL     1      20.041  33.542  29.955  1.00  0.00     0.053 C 
ATOM      4  C   UNL     1      21.005  34.720  29.739  1.00  0.00     0.016 C 
BRANCH   3   5
ATOM      5  C   UNL     1      18.599  33.996  29.585  1.00  0.00     0.015 C 
BRANCH   5   6
ATOM      6  C   UNL     1      17.756  33.024  28.732  1.00  0.00     0.028 C 
BRANCH   6   7
ATOM      7  C   UNL     1      16.500  32.550  29.420  1.00  0.00    -0.028 C 
ATOM      8  C   UNL     1      16.241  31.275  29.797  1.00  0.00    -0.070 CG0
ATOM      9  C   UNL     1      14.914  30.994  30.457  1.00  0.00     0.039 C 
ATOM     10  G   UNL     1      17.190  30.112  29.561  1.00  0.00     0.000 G0
ENDBRANCH   6   7
ENDBRANCH   5   6
ENDBRANCH   3   5
ENDBRANCH   1   3
BRANCH   1  11
ATOM     11  C   UNL     1      19.933  31.565  31.789  1.00  0.00     0.087 C 
BRANCH  11  12
ATOM     12  C   UNL     1      19.620  30.632  30.586  1.00  0.00     0.066 C 
BRANCH  12  13
ATOM     13  C   UNL     1      18.219  30.033  30.682  1.00  0.00     0.140 C 
ATOM     14  O   UNL     1      17.897  29.473  31.721  1.00  0.00    -0.299 OA
BRANCH  13  15
ATOM     15  C   UNL     1      17.203  30.111  29.567  1.00  0.00     0.106 CG0
ATOM     16  G   UNL     1      16.235  31.262  29.788  1.00  0.00     0.000 G0
ENDBRANCH  13  15
ENDBRANCH  12  13
BRANCH  12  17
ATOM     17  C   UNL     1      20.722  29.548  30.361  1.00  0.00    -0.006 C 
ATOM     18  C   UNL     1      22.130  30.094  30.654  1.00  0.00     0.008 C 
ATOM     19  C   UNL     1      20.690  29.002  28.921  1.00  0.00     0.008 C 
ENDBRANCH  12  17
ENDBRANCH  11  12
ENDBRANCH   1  11
TORSDOF 1
ENDMDL
MODEL 8
REMARK VINA RESULT:    -3.482      9.363     12.176
REMARK INTER + INTRA:          -5.230
REMARK INTER:                  -4.882
REMARK INTRA:                  -0.347
REMARK UNBOUND:                 0.084
REMARK SMILES CC1=CCC[C@@H](C)C(=O)C[C@@H](C(C)C)C(=O)C1
REMARK SMILES IDX 8 1 9 2 6 3 7 4 5 5 4 6 3 7 2 8 1 9 10 11 11 12 15 13 16 14
REMARK SMILES IDX 17 15 12 17 13 18 14 19
REMARK H PARENT
REMARK Flexibility Score: 70.00
ROOT
ATOM      1  C   UNL     1      32.214  32.685  29.209  1.00  0.00     0.136 C 
ATOM      2  O   UNL     1      33.376  32.960  28.945  1.00  0.00    -0.299 OA
ENDROOT
BRANCH   1   3
ATOM      3  C   UNL     1      31.702  31.308  28.797  1.00  0.00     0.053 C 
ATOM      4  C   UNL     1      32.904  30.367  28.607  1.00  0.00     0.016 C 
BRANCH   3   5
ATOM      5  C   UNL     1      30.803  31.239  27.529  1.00  0.00     0.015 C 
BRANCH   5   6
ATOM      6  C   UNL     1      29.385  31.840  27.643  1.00  0.00     0.028 C 
BRANCH   6   7
ATOM      7  C   UNL     1      28.557  31.228  28.747  1.00  0.00    -0.028 C 
ATOM      8  C   UNL     1      28.052  31.892  29.814  1.00  0.00    -0.070 CG0
ATOM      9  C   UNL     1      27.265  31.098  30.826  1.00  0.00     0.039 C 
ATOM     10  G   UNL     1      28.263  33.376  30.065  1.00  0.00     0.000 G0
ENDBRANCH   6   7
ENDBRANCH   5   6
ENDBRANCH   3   5
ENDBRANCH   1   3
BRANCH   1  11
ATOM     11  C   UNL     1      31.390  33.749  29.905  1.00  0.00     0.087 C 
BRANCH  11  12
ATOM     12  C   UNL     1      30.697  33.220  31.192  1.00  0.00     0.066 C 
BRANCH  12  13
ATOM     13  C   UNL     1      29.219  33.601  31.238  1.00  0.00     0.140 C 
ATOM     14  O   UNL     1      28.788  34.128  32.254  1.00  0.00    -0.299 OA
BRANCH  13  15
ATOM     15  C   UNL     1      28.267  33.376  30.087  1.00  0.00     0.106 CG0
ATOM     16  G   UNL     1      28.065  31.893  29.824  1.00  0.00     0.000 G0
ENDBRANCH  13  15
ENDBRANCH  12  13
BRANCH  12  17
ATOM     17  C   UNL     1      31.461  33.620  32.495  1.00  0.00    -0.006 C 
ATOM     18  C   UNL     1      32.320  34.881  32.291  1.00  0.00     0.008 C 
ATOM     19  C   UNL     1      32.365  32.477  32.992  1.00  0.00     0.008 C 
ENDBRANCH  12  17
ENDBRANCH  11  12
ENDBRANCH   1  11
TORSDOF 1
ENDMDL
MODEL 9
REMARK VINA RESULT:    -3.417      2.377      4.328
REMARK INTER + INTRA:          -5.131
REMARK INTER:                  -4.968
REMARK INTRA:                  -0.163
REMARK UNBOUND:                 0.084
REMARK SMILES CC1=CCC[C@@H](C)C(=O)C[C@@H](C(C)C)C(=O)C1
REMARK SMILES IDX 8 1 9 2 6 3 7 4 5 5 4 6 3 7 2 8 1 9 10 11 11 12 15 13 16 14
REMARK SMILES IDX 17 15 12 17 13 18 14 19
REMARK H PARENT
REMARK Flexibility Score: 70.00
ROOT
ATOM      1  C   UNL     1      20.734  28.316  28.840  1.00  0.00     0.136 C 
ATOM      2  O   UNL     1      21.934  28.395  28.619  1.00  0.00    -0.299 OA
ENDROOT
BRANCH   1   3
ATOM      3  C   UNL     1      20.096  26.930  28.793  1.00  0.00     0.053 C 
ATOM      4  C   UNL     1      21.210  25.872  28.725  1.00  0.00     0.016 C 
BRANCH   3   5
ATOM      5  C   UNL     1      19.074  26.659  27.652  1.00  0.00     0.015 C 
BRANCH   5   6
ATOM      6  C   UNL     1      17.712  27.381  27.746  1.00  0.00     0.028 C 
BRANCH   6   7
ATOM      7  C   UNL     1      16.990  27.140  29.049  1.00  0.00    -0.028 C 
ATOM      8  C   UNL     1      16.720  28.080  29.986  1.00  0.00    -0.070 CG0
ATOM      9  C   UNL     1      16.004  27.638  31.238  1.00  0.00     0.039 C 
ATOM     10  G   UNL     1      17.126  29.540  29.864  1.00  0.00     0.000 G0
ENDBRANCH   6   7
ENDBRANCH   5   6
ENDBRANCH   3   5
ENDBRANCH   1   3
BRANCH   1  11
ATOM     11  C   UNL     1      19.993  29.607  29.119  1.00  0.00     0.087 C 
BRANCH  11  12
ATOM     12  C   UNL     1      19.678  29.799  30.629  1.00  0.00     0.066 C 
BRANCH  12  13
ATOM     13  C   UNL     1      18.177  29.918  30.885  1.00  0.00     0.140 C 
ATOM     14  O   UNL     1      17.806  30.355  31.965  1.00  0.00    -0.299 OA
BRANCH  13  15
ATOM     15  C   UNL     1      17.128  29.539  29.867  1.00  0.00     0.106 CG0
ATOM     16  G   UNL     1      16.737  28.076  30.001  1.00  0.00     0.000 G0
ENDBRANCH  13  15
ENDBRANCH  12  13
BRANCH  12  17
ATOM     17  C   UNL     1      20.490  30.970  31.269  1.00  0.00    -0.006 C 
ATOM     18  C   UNL     1      20.986  31.970  30.210  1.00  0.00     0.008 C 
ATOM     19  C   UNL     1      21.701  30.447  32.065  1.00  0.00     0.008 C 
ENDBRANCH  12  17
ENDBRANCH  11  12
ENDBRANCH   1  11
TORSDOF 1
ENDMDL
