MODEL 1
REMARK VINA RESULT:    -3.954      0.000      0.000
REMARK INTER + INTRA:          -4.681
REMARK INTER:                  -4.532
REMARK INTRA:                  -0.149
REMARK UNBOUND:                -0.149
REMARK SMILES O=C([O-])C=Cc1ccc(O)cc1
REMARK SMILES IDX 6 1 7 2 12 3 8 4 11 5 9 6 5 7 4 8 2 9 1 10 3 11 10 12
REMARK H PARENT 10 13
REMARK Flexibility Score: inf
ROOT
ATOM      1  C   UNL     1      20.250 -23.842  13.783  1.00  0.00    -0.025 A 
ATOM      2  C   UNL     1      21.171 -23.236  14.653  1.00  0.00     0.012 A 
ATOM      3  C   UNL     1      19.093 -23.125  13.412  1.00  0.00     0.012 A 
ATOM      4  C   UNL     1      20.958 -21.936  15.125  1.00  0.00     0.047 A 
ATOM      5  C   UNL     1      18.883 -21.826  13.886  1.00  0.00     0.047 A 
ATOM      6  C   UNL     1      19.816 -21.227  14.741  1.00  0.00     0.115 A 
ENDROOT
BRANCH   1   7
ATOM      7  C   UNL     1      20.515 -25.226  13.319  1.00  0.00     0.010 C 
ATOM      8  C   UNL     1      21.230 -26.121  14.015  1.00  0.00     0.025 C 
BRANCH   8   9
ATOM      9  C   UNL     1      21.463 -27.490  13.527  1.00  0.00     0.064 C 
ATOM     10  O   UNL     1      22.573 -28.062  13.691  1.00  0.00    -0.545 OA
ATOM     11  O   UNL     1      20.438 -28.165  12.875  1.00  0.00    -0.545 OA
ENDBRANCH   8   9
ENDBRANCH   1   7
BRANCH   6  12
ATOM     12  O   UNL     1      19.617 -19.933  15.218  1.00  0.00    -0.508 OA
ATOM     13  H   UNL     1      18.733 -19.455  15.096  1.00  0.00     0.293 HD
ENDBRANCH   6  12
TORSDOF 3
ENDMDL
MODEL 2
REMARK VINA RESULT:    -3.791      1.451      6.175
REMARK INTER + INTRA:          -4.494
REMARK INTER:                  -4.360
REMARK INTRA:                  -0.134
REMARK UNBOUND:                -0.149
REMARK SMILES O=C([O-])C=Cc1ccc(O)cc1
REMARK SMILES IDX 6 1 7 2 12 3 8 4 11 5 9 6 5 7 4 8 2 9 1 10 3 11 10 12
REMARK H PARENT 10 13
REMARK Flexibility Score: inf
ROOT
ATOM      1  C   UNL     1      19.929 -22.534  14.145  1.00  0.00    -0.025 A 
ATOM      2  C   UNL     1      19.131 -23.221  13.216  1.00  0.00     0.012 A 
ATOM      3  C   UNL     1      21.008 -23.214  14.748  1.00  0.00     0.012 A 
ATOM      4  C   UNL     1      19.415 -24.548  12.875  1.00  0.00     0.047 A 
ATOM      5  C   UNL     1      21.289 -24.540  14.406  1.00  0.00     0.047 A 
ATOM      6  C   UNL     1      20.495 -25.209  13.466  1.00  0.00     0.115 A 
ENDROOT
BRANCH   1   7
ATOM      7  C   UNL     1      19.580 -21.131  14.481  1.00  0.00     0.010 C 
ATOM      8  C   UNL     1      20.487 -20.183  14.756  1.00  0.00     0.025 C 
BRANCH   8   9
ATOM      9  C   UNL     1      20.103 -18.798  15.075  1.00  0.00     0.064 C 
ATOM     10  O   UNL     1      19.904 -18.432  16.263  1.00  0.00    -0.545 OA
ATOM     11  O   UNL     1      19.958 -17.876  14.044  1.00  0.00    -0.545 OA
ENDBRANCH   8   9
ENDBRANCH   1   7
BRANCH   6  12
ATOM     12  O   UNL     1      20.767 -26.530  13.117  1.00  0.00    -0.508 OA
ATOM     13  H   UNL     1      20.176 -27.292  13.427  1.00  0.00     0.293 HD
ENDBRANCH   6  12
TORSDOF 3
ENDMDL
MODEL 3
REMARK VINA RESULT:    -3.593     15.550     16.680
REMARK INTER + INTRA:          -4.267
REMARK INTER:                  -4.116
REMARK INTRA:                  -0.151
REMARK UNBOUND:                -0.149
REMARK SMILES O=C([O-])C=Cc1ccc(O)cc1
REMARK SMILES IDX 6 1 7 2 12 3 8 4 11 5 9 6 5 7 4 8 2 9 1 10 3 11 10 12
REMARK H PARENT 10 13
REMARK Flexibility Score: inf
ROOT
ATOM      1  C   UNL     1       7.674 -34.645  16.381  1.00  0.00    -0.025 A 
ATOM      2  C   UNL     1       8.470 -33.591  15.904  1.00  0.00     0.012 A 
ATOM      3  C   UNL     1       7.162 -34.569  17.693  1.00  0.00     0.012 A 
ATOM      4  C   UNL     1       8.729 -32.474  16.705  1.00  0.00     0.047 A 
ATOM      5  C   UNL     1       7.423 -33.451  18.491  1.00  0.00     0.047 A 
ATOM      6  C   UNL     1       8.205 -32.399  17.998  1.00  0.00     0.115 A 
ENDROOT
BRANCH   1   7
ATOM      7  C   UNL     1       7.438 -35.813  15.497  1.00  0.00     0.010 C 
ATOM      8  C   UNL     1       8.143 -36.061  14.384  1.00  0.00     0.025 C 
BRANCH   8   9
ATOM      9  C   UNL     1       7.887 -37.237  13.537  1.00  0.00     0.064 C 
ATOM     10  O   UNL     1       6.746 -37.454  13.050  1.00  0.00    -0.545 OA
ATOM     11  O   UNL     1       8.923 -38.124  13.270  1.00  0.00    -0.545 OA
ENDBRANCH   8   9
ENDBRANCH   1   7
BRANCH   6  12
ATOM     12  O   UNL     1       8.470 -31.281  18.785  1.00  0.00    -0.508 OA
ATOM     13  H   UNL     1       9.368 -30.812  18.754  1.00  0.00     0.293 HD
ENDBRANCH   6  12
TORSDOF 3
ENDMDL
MODEL 4
REMARK VINA RESULT:    -3.558     15.602     16.715
REMARK INTER + INTRA:          -4.226
REMARK INTER:                  -4.088
REMARK INTRA:                  -0.139
REMARK UNBOUND:                -0.149
REMARK SMILES O=C([O-])C=Cc1ccc(O)cc1
REMARK SMILES IDX 6 1 7 2 12 3 8 4 11 5 9 6 5 7 4 8 2 9 1 10 3 11 10 12
REMARK H PARENT 10 13
REMARK Flexibility Score: inf
ROOT
ATOM      1  C   UNL     1       7.769 -34.673  16.358  1.00  0.00    -0.025 A 
ATOM      2  C   UNL     1       7.215 -34.586  17.647  1.00  0.00     0.012 A 
ATOM      3  C   UNL     1       8.532 -33.590  15.873  1.00  0.00     0.012 A 
ATOM      4  C   UNL     1       7.437 -33.458  18.444  1.00  0.00     0.047 A 
ATOM      5  C   UNL     1       8.751 -32.464  16.673  1.00  0.00     0.047 A 
ATOM      6  C   UNL     1       8.206 -32.397  17.961  1.00  0.00     0.115 A 
ENDROOT
BRANCH   1   7
ATOM      7  C   UNL     1       7.496 -35.885  15.548  1.00  0.00     0.010 C 
ATOM      8  C   UNL     1       8.047 -36.119  14.347  1.00  0.00     0.025 C 
BRANCH   8   9
ATOM      9  C   UNL     1       7.761 -37.340  13.577  1.00  0.00     0.064 C 
ATOM     10  O   UNL     1       8.686 -38.109  13.206  1.00  0.00    -0.545 OA
ATOM     11  O   UNL     1       6.445 -37.650  13.254  1.00  0.00    -0.545 OA
ENDBRANCH   8   9
ENDBRANCH   1   7
BRANCH   6  12
ATOM     12  O   UNL     1       8.420 -31.280  18.766  1.00  0.00    -0.508 OA
ATOM     13  H   UNL     1       7.772 -30.501  18.774  1.00  0.00     0.293 HD
ENDBRANCH   6  12
TORSDOF 3
ENDMDL
MODEL 5
REMARK VINA RESULT:    -3.461     14.826     16.376
REMARK INTER + INTRA:          -4.116
REMARK INTER:                  -3.972
REMARK INTRA:                  -0.144
REMARK UNBOUND:                -0.149
REMARK SMILES O=C([O-])C=Cc1ccc(O)cc1
REMARK SMILES IDX 6 1 7 2 12 3 8 4 11 5 9 6 5 7 4 8 2 9 1 10 3 11 10 12
REMARK H PARENT 10 13
REMARK Flexibility Score: inf
ROOT
ATOM      1  C   UNL     1       8.098 -33.498  15.195  1.00  0.00    -0.025 A 
ATOM      2  C   UNL     1       8.137 -34.858  15.544  1.00  0.00     0.012 A 
ATOM      3  C   UNL     1       7.365 -33.109  14.054  1.00  0.00     0.012 A 
ATOM      4  C   UNL     1       7.441 -35.808  14.787  1.00  0.00     0.047 A 
ATOM      5  C   UNL     1       6.672 -34.062  13.300  1.00  0.00     0.047 A 
ATOM      6  C   UNL     1       6.706 -35.413  13.667  1.00  0.00     0.115 A 
ENDROOT
BRANCH   1   7
ATOM      7  C   UNL     1       8.860 -32.530  16.023  1.00  0.00     0.010 C 
ATOM      8  C   UNL     1       8.827 -32.507  17.363  1.00  0.00     0.025 C 
BRANCH   8   9
ATOM      9  C   UNL     1       9.608 -31.539  18.151  1.00  0.00     0.064 C 
ATOM     10  O   UNL     1       9.496 -31.477  19.404  1.00  0.00    -0.545 OA
ATOM     11  O   UNL     1      10.484 -30.679  17.500  1.00  0.00    -0.545 OA
ENDBRANCH   8   9
ENDBRANCH   1   7
BRANCH   6  12
ATOM     12  O   UNL     1       6.018 -36.369  12.923  1.00  0.00    -0.508 OA
ATOM     13  H   UNL     1       5.637 -37.202  13.355  1.00  0.00     0.293 HD
ENDBRANCH   6  12
TORSDOF 3
ENDMDL
MODEL 6
REMARK VINA RESULT:    -3.428     14.744     16.230
REMARK INTER + INTRA:          -4.078
REMARK INTER:                  -3.925
REMARK INTRA:                  -0.153
REMARK UNBOUND:                -0.149
REMARK SMILES O=C([O-])C=Cc1ccc(O)cc1
REMARK SMILES IDX 6 1 7 2 12 3 8 4 11 5 9 6 5 7 4 8 2 9 1 10 3 11 10 12
REMARK H PARENT 10 13
REMARK Flexibility Score: inf
ROOT
ATOM      1  C   UNL     1       9.093 -34.865  13.969  1.00  0.00    -0.025 A 
ATOM      2  C   UNL     1       8.840 -33.700  14.713  1.00  0.00     0.012 A 
ATOM      3  C   UNL     1      10.167 -34.867  13.054  1.00  0.00     0.012 A 
ATOM      4  C   UNL     1       9.653 -32.571  14.567  1.00  0.00     0.047 A 
ATOM      5  C   UNL     1      10.977 -33.736  12.912  1.00  0.00     0.047 A 
ATOM      6  C   UNL     1      10.724 -32.586  13.670  1.00  0.00     0.115 A 
ENDROOT
BRANCH   1   7
ATOM      7  C   UNL     1       8.195 -36.032  14.150  1.00  0.00     0.010 C 
ATOM      8  C   UNL     1       7.295 -36.134  15.139  1.00  0.00     0.025 C 
BRANCH   8   9
ATOM      9  C   UNL     1       6.413 -37.304  15.281  1.00  0.00     0.064 C 
ATOM     10  O   UNL     1       6.127 -38.028  14.291  1.00  0.00    -0.545 OA
ATOM     11  O   UNL     1       5.889 -37.616  16.529  1.00  0.00    -0.545 OA
ENDBRANCH   8   9
ENDBRANCH   1   7
BRANCH   6  12
ATOM     12  O   UNL     1      11.526 -31.455  13.536  1.00  0.00    -0.508 OA
ATOM     13  H   UNL     1      12.323 -31.297  14.140  1.00  0.00     0.293 HD
ENDBRANCH   6  12
TORSDOF 3
ENDMDL
MODEL 7
REMARK VINA RESULT:    -3.313     15.398     16.394
REMARK INTER + INTRA:          -3.946
REMARK INTER:                  -3.798
REMARK INTRA:                  -0.149
REMARK UNBOUND:                -0.149
REMARK SMILES O=C([O-])C=Cc1ccc(O)cc1
REMARK SMILES IDX 6 1 7 2 12 3 8 4 11 5 9 6 5 7 4 8 2 9 1 10 3 11 10 12
REMARK H PARENT 10 13
REMARK Flexibility Score: inf
ROOT
ATOM      1  C   UNL     1       7.841 -33.641  17.131  1.00  0.00    -0.025 A 
ATOM      2  C   UNL     1       8.579 -33.173  16.031  1.00  0.00     0.012 A 
ATOM      3  C   UNL     1       7.952 -32.962  18.362  1.00  0.00     0.012 A 
ATOM      4  C   UNL     1       9.390 -32.039  16.147  1.00  0.00     0.047 A 
ATOM      5  C   UNL     1       8.765 -31.829  18.474  1.00  0.00     0.047 A 
ATOM      6  C   UNL     1       9.483 -31.363  17.367  1.00  0.00     0.115 A 
ENDROOT
BRANCH   1   7
ATOM      7  C   UNL     1       7.004 -34.854  16.960  1.00  0.00     0.010 C 
ATOM      8  C   UNL     1       7.242 -35.801  16.041  1.00  0.00     0.025 C 
BRANCH   8   9
ATOM      9  C   UNL     1       6.395 -36.998  15.909  1.00  0.00     0.064 C 
ATOM     10  O   UNL     1       5.875 -37.311  14.806  1.00  0.00    -0.545 OA
ATOM     11  O   UNL     1       6.166 -37.797  17.023  1.00  0.00    -0.545 OA
ENDBRANCH   8   9
ENDBRANCH   1   7
BRANCH   6  12
ATOM     12  O   UNL     1      10.294 -30.235  17.468  1.00  0.00    -0.508 OA
ATOM     13  H   UNL     1      10.414 -29.746  18.347  1.00  0.00     0.293 HD
ENDBRANCH   6  12
TORSDOF 3
ENDMDL
