MODEL 1
REMARK VINA RESULT:    -4.743      0.000      0.000
REMARK INTER + INTRA:          -6.250
REMARK INTER:                  -5.852
REMARK INTRA:                  -0.398
REMARK UNBOUND:                -0.398
REMARK SMILES C=CC[C@@H](C)C(=O)CC
REMARK SMILES IDX 4 1 5 2 6 3 7 4 8 5 9 6 3 7 2 8 1 9
REMARK H PARENT
REMARK Flexibility Score: inf
ROOT
ATOM      1  C   UNL     1     -10.775   3.063 -17.867  1.00  0.00     0.057 C 
ATOM      2  C   UNL     1     -11.484   1.793 -17.378  1.00  0.00     0.016 C 
ENDROOT
BRANCH   1   3
ATOM      3  C   UNL     1     -11.728   4.238 -17.812  1.00  0.00     0.135 C 
ATOM      4  O   UNL     1     -12.458   4.378 -16.841  1.00  0.00    -0.299 OA
BRANCH   3   5
ATOM      5  C   UNL     1     -11.789   5.247 -18.927  1.00  0.00     0.072 C 
ATOM      6  C   UNL     1     -11.323   4.631 -20.241  1.00  0.00     0.012 C 
ENDBRANCH   3   5
ENDBRANCH   1   3
BRANCH   1   7
ATOM      7  C   UNL     1      -9.512   3.368 -17.038  1.00  0.00     0.038 C 
BRANCH   7   8
ATOM      8  C   UNL     1      -8.264   3.284 -17.877  1.00  0.00    -0.034 C 
ATOM      9  C   UNL     1      -8.001   2.224 -18.647  1.00  0.00     0.004 C 
ENDBRANCH   7   8
ENDBRANCH   1   7
TORSDOF 4
ENDMDL
MODEL 2
REMARK VINA RESULT:    -4.674      1.815      2.572
REMARK INTER + INTRA:          -6.165
REMARK INTER:                  -5.715
REMARK INTRA:                  -0.450
REMARK UNBOUND:                -0.398
REMARK SMILES C=CC[C@@H](C)C(=O)CC
REMARK SMILES IDX 4 1 5 2 6 3 7 4 8 5 9 6 3 7 2 8 1 9
REMARK H PARENT
REMARK Flexibility Score: inf
ROOT
ATOM      1  C   UNL     1     -10.879   3.366 -17.699  1.00  0.00     0.057 C 
ATOM      2  C   UNL     1     -10.964   4.331 -18.888  1.00  0.00     0.016 C 
ENDROOT
BRANCH   1   3
ATOM      3  C   UNL     1     -11.199   1.958 -18.156  1.00  0.00     0.135 C 
ATOM      4  O   UNL     1     -11.420   1.088 -17.326  1.00  0.00    -0.299 OA
BRANCH   3   5
ATOM      5  C   UNL     1     -11.262   1.608 -19.619  1.00  0.00     0.072 C 
ATOM      6  C   UNL     1     -10.291   0.478 -19.947  1.00  0.00     0.012 C 
ENDBRANCH   3   5
ENDBRANCH   1   3
BRANCH   1   7
ATOM      7  C   UNL     1      -9.490   3.401 -17.032  1.00  0.00     0.038 C 
BRANCH   7   8
ATOM      8  C   UNL     1      -8.386   3.451 -18.056  1.00  0.00    -0.034 C 
ATOM      9  C   UNL     1      -7.662   2.372 -18.367  1.00  0.00     0.004 C 
ENDBRANCH   7   8
ENDBRANCH   1   7
TORSDOF 4
ENDMDL
MODEL 3
REMARK VINA RESULT:    -4.475      2.484      3.847
REMARK INTER + INTRA:          -5.920
REMARK INTER:                  -5.478
REMARK INTRA:                  -0.442
REMARK UNBOUND:                -0.398
REMARK SMILES C=CC[C@@H](C)C(=O)CC
REMARK SMILES IDX 4 1 5 2 6 3 7 4 8 5 9 6 3 7 2 8 1 9
REMARK H PARENT
REMARK Flexibility Score: inf
ROOT
ATOM      1  C   UNL     1      -9.426   3.261 -18.735  1.00  0.00     0.057 C 
ATOM      2  C   UNL     1      -8.741   4.340 -19.584  1.00  0.00     0.016 C 
ENDROOT
BRANCH   1   3
ATOM      3  C   UNL     1      -8.799   1.912 -19.016  1.00  0.00     0.135 C 
ATOM      4  O   UNL     1      -7.705   1.642 -18.541  1.00  0.00    -0.299 OA
BRANCH   3   5
ATOM      5  C   UNL     1      -9.503   0.885 -19.863  1.00  0.00     0.072 C 
ATOM      6  C   UNL     1     -10.987   1.210 -19.985  1.00  0.00     0.012 C 
ENDBRANCH   3   5
ENDBRANCH   1   3
BRANCH   1   7
ATOM      7  C   UNL     1      -9.340   3.579 -17.230  1.00  0.00     0.038 C 
BRANCH   7   8
ATOM      8  C   UNL     1     -10.701   3.845 -16.642  1.00  0.00    -0.034 C 
ATOM      9  C   UNL     1     -11.821   3.689 -17.354  1.00  0.00     0.004 C 
ENDBRANCH   7   8
ENDBRANCH   1   7
TORSDOF 4
ENDMDL
MODEL 4
REMARK VINA RESULT:    -4.445      1.937      3.466
REMARK INTER + INTRA:          -5.882
REMARK INTER:                  -5.486
REMARK INTRA:                  -0.396
REMARK UNBOUND:                -0.398
REMARK SMILES C=CC[C@@H](C)C(=O)CC
REMARK SMILES IDX 4 1 5 2 6 3 7 4 8 5 9 6 3 7 2 8 1 9
REMARK H PARENT
REMARK Flexibility Score: inf
ROOT
ATOM      1  C   UNL     1      -8.921   3.295 -18.105  1.00  0.00     0.057 C 
ATOM      2  C   UNL     1      -9.419   3.909 -16.790  1.00  0.00     0.016 C 
ENDROOT
BRANCH   1   3
ATOM      3  C   UNL     1      -9.719   2.048 -18.424  1.00  0.00     0.135 C 
ATOM      4  O   UNL     1     -10.665   1.737 -17.714  1.00  0.00    -0.299 OA
BRANCH   3   5
ATOM      5  C   UNL     1      -9.376   1.183 -19.608  1.00  0.00     0.072 C 
ATOM      6  C   UNL     1     -10.622   0.491 -20.150  1.00  0.00     0.012 C 
ENDBRANCH   3   5
ENDBRANCH   1   3
BRANCH   1   7
ATOM      7  C   UNL     1      -9.016   4.294 -19.274  1.00  0.00     0.038 C 
BRANCH   7   8
ATOM      8  C   UNL     1     -10.354   4.986 -19.304  1.00  0.00    -0.034 C 
ATOM      9  C   UNL     1     -11.261   4.729 -20.250  1.00  0.00     0.004 C 
ENDBRANCH   7   8
ENDBRANCH   1   7
TORSDOF 4
ENDMDL
MODEL 5
REMARK VINA RESULT:    -4.434      1.952      2.529
REMARK INTER + INTRA:          -5.869
REMARK INTER:                  -5.450
REMARK INTRA:                  -0.419
REMARK UNBOUND:                -0.398
REMARK SMILES C=CC[C@@H](C)C(=O)CC
REMARK SMILES IDX 4 1 5 2 6 3 7 4 8 5 9 6 3 7 2 8 1 9
REMARK H PARENT
REMARK Flexibility Score: inf
ROOT
ATOM      1  C   UNL     1     -10.953   1.611 -19.378  1.00  0.00     0.057 C 
ATOM      2  C   UNL     1     -11.777   0.539 -20.103  1.00  0.00     0.016 C 
ENDROOT
BRANCH   1   3
ATOM      3  C   UNL     1     -11.438   1.752 -17.950  1.00  0.00     0.135 C 
ATOM      4  O   UNL     1     -11.491   0.766 -17.229  1.00  0.00    -0.299 OA
BRANCH   3   5
ATOM      5  C   UNL     1     -11.850   3.089 -17.394  1.00  0.00     0.072 C 
ATOM      6  C   UNL     1     -11.714   4.180 -18.450  1.00  0.00     0.012 C 
ENDBRANCH   3   5
ENDBRANCH   1   3
BRANCH   1   7
ATOM      7  C   UNL     1      -9.448   1.283 -19.393  1.00  0.00     0.038 C 
BRANCH   7   8
ATOM      8  C   UNL     1      -8.609   2.518 -19.190  1.00  0.00    -0.034 C 
ATOM      9  C   UNL     1      -8.017   2.785 -18.023  1.00  0.00     0.004 C 
ENDBRANCH   7   8
ENDBRANCH   1   7
TORSDOF 4
ENDMDL
MODEL 6
REMARK VINA RESULT:    -4.429      2.888      3.986
REMARK INTER + INTRA:          -5.862
REMARK INTER:                  -5.650
REMARK INTRA:                  -0.213
REMARK UNBOUND:                -0.398
REMARK SMILES C=CC[C@@H](C)C(=O)CC
REMARK SMILES IDX 4 1 5 2 6 3 7 4 8 5 9 6 3 7 2 8 1 9
REMARK H PARENT
REMARK Flexibility Score: inf
ROOT
ATOM      1  C   UNL     1     -11.177   1.345 -19.025  1.00  0.00     0.057 C 
ATOM      2  C   UNL     1      -9.787   1.074 -19.614  1.00  0.00     0.016 C 
ENDROOT
BRANCH   1   3
ATOM      3  C   UNL     1     -11.850   0.035 -18.671  1.00  0.00     0.135 C 
ATOM      4  O   UNL     1     -11.303  -0.736 -17.894  1.00  0.00    -0.299 OA
BRANCH   3   5
ATOM      5  C   UNL     1     -13.188  -0.338 -19.251  1.00  0.00     0.072 C 
ATOM      6  C   UNL     1     -13.023  -0.982 -20.623  1.00  0.00     0.012 C 
ENDBRANCH   3   5
ENDBRANCH   1   3
BRANCH   1   7
ATOM      7  C   UNL     1     -11.104   2.252 -17.781  1.00  0.00     0.038 C 
BRANCH   7   8
ATOM      8  C   UNL     1      -9.747   2.891 -17.642  1.00  0.00    -0.034 C 
ATOM      9  C   UNL     1      -9.541   3.945 -16.845  1.00  0.00     0.004 C 
ENDBRANCH   7   8
ENDBRANCH   1   7
TORSDOF 4
ENDMDL
MODEL 7
REMARK VINA RESULT:    -4.413      2.027      3.141
REMARK INTER + INTRA:          -5.843
REMARK INTER:                  -5.445
REMARK INTRA:                  -0.398
REMARK UNBOUND:                -0.398
REMARK SMILES C=CC[C@@H](C)C(=O)CC
REMARK SMILES IDX 4 1 5 2 6 3 7 4 8 5 9 6 3 7 2 8 1 9
REMARK H PARENT
REMARK Flexibility Score: inf
ROOT
ATOM      1  C   UNL     1     -11.436   3.500 -18.352  1.00  0.00     0.057 C 
ATOM      2  C   UNL     1     -11.993   3.979 -17.005  1.00  0.00     0.016 C 
ENDROOT
BRANCH   1   3
ATOM      3  C   UNL     1     -10.029   4.026 -18.541  1.00  0.00     0.135 C 
ATOM      4  O   UNL     1      -9.775   4.745 -19.497  1.00  0.00    -0.299 OA
BRANCH   3   5
ATOM      5  C   UNL     1      -8.931   3.689 -17.567  1.00  0.00     0.072 C 
ATOM      6  C   UNL     1      -7.959   2.684 -18.174  1.00  0.00     0.012 C 
ENDBRANCH   3   5
ENDBRANCH   1   3
BRANCH   1   7
ATOM      7  C   UNL     1     -11.443   1.962 -18.459  1.00  0.00     0.038 C 
BRANCH   7   8
ATOM      8  C   UNL     1     -11.088   1.503 -19.849  1.00  0.00    -0.034 C 
ATOM      9  C   UNL     1     -10.282   0.459 -20.063  1.00  0.00     0.004 C 
ENDBRANCH   7   8
ENDBRANCH   1   7
TORSDOF 4
ENDMDL
MODEL 8
REMARK VINA RESULT:    -4.286      1.454      3.258
REMARK INTER + INTRA:          -5.687
REMARK INTER:                  -5.240
REMARK INTRA:                  -0.446
REMARK UNBOUND:                -0.398
REMARK SMILES C=CC[C@@H](C)C(=O)CC
REMARK SMILES IDX 4 1 5 2 6 3 7 4 8 5 9 6 3 7 2 8 1 9
REMARK H PARENT
REMARK Flexibility Score: inf
ROOT
ATOM      1  C   UNL     1      -9.309   2.939 -18.788  1.00  0.00     0.057 C 
ATOM      2  C   UNL     1      -7.916   2.331 -18.579  1.00  0.00     0.016 C 
ENDROOT
BRANCH   1   3
ATOM      3  C   UNL     1     -10.079   2.917 -17.485  1.00  0.00     0.135 C 
ATOM      4  O   UNL     1      -9.630   3.498 -16.507  1.00  0.00    -0.299 OA
BRANCH   3   5
ATOM      5  C   UNL     1     -11.398   2.200 -17.369  1.00  0.00     0.072 C 
ATOM      6  C   UNL     1     -11.607   1.258 -18.549  1.00  0.00     0.012 C 
ENDBRANCH   3   5
ENDBRANCH   1   3
BRANCH   1   7
ATOM      7  C   UNL     1      -9.228   4.380 -19.329  1.00  0.00     0.038 C 
BRANCH   7   8
ATOM      8  C   UNL     1     -10.596   4.994 -19.475  1.00  0.00    -0.034 C 
ATOM      9  C   UNL     1     -11.394   4.704 -20.507  1.00  0.00     0.004 C 
ENDBRANCH   7   8
ENDBRANCH   1   7
TORSDOF 4
ENDMDL
MODEL 9
REMARK VINA RESULT:    -4.278      1.236      2.123
REMARK INTER + INTRA:          -5.676
REMARK INTER:                  -5.173
REMARK INTRA:                  -0.503
REMARK UNBOUND:                -0.398
REMARK SMILES C=CC[C@@H](C)C(=O)CC
REMARK SMILES IDX 4 1 5 2 6 3 7 4 8 5 9 6 3 7 2 8 1 9
REMARK H PARENT
REMARK Flexibility Score: inf
ROOT
ATOM      1  C   UNL     1     -10.776   3.194 -17.190  1.00  0.00     0.057 C 
ATOM      2  C   UNL     1      -9.253   3.245 -17.369  1.00  0.00     0.016 C 
ENDROOT
BRANCH   1   3
ATOM      3  C   UNL     1     -11.419   4.349 -17.929  1.00  0.00     0.135 C 
ATOM      4  O   UNL     1     -12.526   4.744 -17.590  1.00  0.00    -0.299 OA
BRANCH   3   5
ATOM      5  C   UNL     1     -10.717   5.032 -19.073  1.00  0.00     0.072 C 
ATOM      6  C   UNL     1     -11.450   4.779 -20.385  1.00  0.00     0.012 C 
ENDBRANCH   3   5
ENDBRANCH   1   3
BRANCH   1   7
ATOM      7  C   UNL     1     -11.365   1.859 -17.684  1.00  0.00     0.038 C 
BRANCH   7   8
ATOM      8  C   UNL     1     -10.650   1.358 -18.911  1.00  0.00    -0.034 C 
ATOM      9  C   UNL     1     -11.309   1.013 -20.022  1.00  0.00     0.004 C 
ENDBRANCH   7   8
ENDBRANCH   1   7
TORSDOF 4
ENDMDL
