MODEL 1
REMARK VINA RESULT:    -6.632      0.000      0.000
REMARK INTER + INTRA:          -8.304
REMARK INTER:                  -7.989
REMARK INTRA:                  -0.315
REMARK UNBOUND:                -0.315
REMARK SMILES O=c1c(O)c(-c2ccc(O)cc2O)oc2cc(O)cc(O)c12
REMARK SMILES IDX 5 1 3 2 2 3 1 4 22 5 20 6 19 7 17 8 16 9 15 10 14 11 6 12
REMARK SMILES IDX 8 13 7 14 9 15 11 16 12 17 10 18 13 20 4 22 21 24 18 26
REMARK H PARENT 10 19 13 21 4 23 21 25 18 27
REMARK Flexibility Score: inf
ROOT
ATOM      1  C   UNL     1      69.488  48.951   8.482  1.00  0.00     0.184 A 
ATOM      2  C   UNL     1      68.876  50.094   9.025  1.00  0.00     0.208 A 
ATOM      3  C   UNL     1      67.483  50.098   9.200  1.00  0.00     0.238 A 
ATOM      4  O   UNL     1      66.924  51.117   9.688  1.00  0.00    -0.285 OA
ATOM      5  C   UNL     1      66.731  48.966   8.823  1.00  0.00     0.111 A 
ATOM      6  C   UNL     1      65.325  48.890   8.964  1.00  0.00     0.134 A 
ATOM      7  C   UNL     1      64.648  47.729   8.563  1.00  0.00     0.093 A 
ATOM      8  C   UNL     1      65.349  46.644   8.024  1.00  0.00     0.123 A 
ATOM      9  C   UNL     1      66.736  46.715   7.884  1.00  0.00     0.094 A 
ATOM     10  C   UNL     1      67.430  47.862   8.278  1.00  0.00     0.146 A 
ATOM     11  O   UNL     1      68.749  47.901   8.135  1.00  0.00    -0.451 OA
ENDROOT
BRANCH   1  12
ATOM     12  C   UNL     1      70.953  48.881   8.290  1.00  0.00     0.063 A 
ATOM     13  C   UNL     1      73.185  48.906   9.259  1.00  0.00     0.047 A 
ATOM     14  C   UNL     1      71.801  49.022   9.402  1.00  0.00     0.020 A 
ATOM     15  C   UNL     1      73.743  48.640   8.007  1.00  0.00     0.119 A 
ATOM     16  C   UNL     1      72.907  48.494   6.892  1.00  0.00     0.093 A 
ATOM     17  C   UNL     1      71.519  48.620   7.020  1.00  0.00     0.130 A 
BRANCH  15  18
ATOM     18  O   UNL     1      75.125  48.520   7.880  1.00  0.00    -0.508 OA
ATOM     19  H   UNL     1      75.645  47.817   8.391  1.00  0.00     0.293 HD
ENDBRANCH  15  18
BRANCH  17  20
ATOM     20  O   UNL     1      70.736  48.500   5.870  1.00  0.00    -0.507 OA
ATOM     21  H   UNL     1      70.079  49.210   5.572  1.00  0.00     0.293 HD
ENDBRANCH  17  20
ENDBRANCH   1  12
BRANCH   2  22
ATOM     22  O   UNL     1      69.648  51.208   9.364  1.00  0.00    -0.502 OA
ATOM     23  H   UNL     1      70.635  51.136   9.586  1.00  0.00     0.293 HD
ENDBRANCH   2  22
BRANCH   6  24
ATOM     24  O   UNL     1      64.598  49.955   9.497  1.00  0.00    -0.507 OA
ATOM     25  H   UNL     1      64.458  50.059  10.496  1.00  0.00     0.293 HD
ENDBRANCH   6  24
BRANCH   8  26
ATOM     26  O   UNL     1      64.678  45.491   7.626  1.00  0.00    -0.508 OA
ATOM     27  H   UNL     1      64.991  44.942   6.834  1.00  0.00     0.293 HD
ENDBRANCH   8  26
TORSDOF 6
ENDMDL
MODEL 2
REMARK VINA RESULT:    -6.595      1.188      1.412
REMARK INTER + INTRA:          -8.259
REMARK INTER:                  -7.842
REMARK INTRA:                  -0.417
REMARK UNBOUND:                -0.315
REMARK SMILES O=c1c(O)c(-c2ccc(O)cc2O)oc2cc(O)cc(O)c12
REMARK SMILES IDX 5 1 3 2 2 3 1 4 22 5 20 6 19 7 17 8 16 9 15 10 14 11 6 12
REMARK SMILES IDX 8 13 7 14 9 15 11 16 12 17 10 18 13 20 4 22 21 24 18 26
REMARK H PARENT 10 19 13 21 4 23 21 25 18 27
REMARK Flexibility Score: inf
ROOT
ATOM      1  C   UNL     1      68.414  48.922   8.875  1.00  0.00     0.184 A 
ATOM      2  C   UNL     1      67.521  49.901   9.343  1.00  0.00     0.208 A 
ATOM      3  C   UNL     1      66.156  49.584   9.435  1.00  0.00     0.238 A 
ATOM      4  O   UNL     1      65.346  50.453   9.855  1.00  0.00    -0.285 OA
ATOM      5  C   UNL     1      65.712  48.302   9.052  1.00  0.00     0.111 A 
ATOM      6  C   UNL     1      64.355  47.903   9.112  1.00  0.00     0.134 A 
ATOM      7  C   UNL     1      63.992  46.609   8.710  1.00  0.00     0.093 A 
ATOM      8  C   UNL     1      64.959  45.707   8.250  1.00  0.00     0.123 A 
ATOM      9  C   UNL     1      66.298  46.097   8.190  1.00  0.00     0.094 A 
ATOM     10  C   UNL     1      66.681  47.381   8.586  1.00  0.00     0.146 A 
ATOM     11  O   UNL     1      67.962  47.723   8.520  1.00  0.00    -0.451 OA
ENDROOT
BRANCH   1  12
ATOM     12  C   UNL     1      69.865  49.190   8.773  1.00  0.00     0.063 A 
ATOM     13  C   UNL     1      72.080  49.084   9.776  1.00  0.00     0.047 A 
ATOM     14  C   UNL     1      70.699  48.892   9.864  1.00  0.00     0.020 A 
ATOM     15  C   UNL     1      72.648  49.570   8.596  1.00  0.00     0.119 A 
ATOM     16  C   UNL     1      71.826  49.868   7.502  1.00  0.00     0.093 A 
ATOM     17  C   UNL     1      70.440  49.691   7.581  1.00  0.00     0.130 A 
BRANCH  15  18
ATOM     18  O   UNL     1      74.027  49.751   8.520  1.00  0.00    -0.508 OA
ATOM     19  H   UNL     1      74.672  49.084   8.926  1.00  0.00     0.293 HD
ENDBRANCH  15  18
BRANCH  17  20
ATOM     20  O   UNL     1      69.665  50.038   6.473  1.00  0.00    -0.507 OA
ATOM     21  H   UNL     1      69.549  49.435   5.668  1.00  0.00     0.293 HD
ENDBRANCH  17  20
ENDBRANCH   1  12
BRANCH   2  22
ATOM     22  O   UNL     1      67.991  51.170   9.690  1.00  0.00    -0.502 OA
ATOM     23  H   UNL     1      67.768  51.997   9.148  1.00  0.00     0.293 HD
ENDBRANCH   2  22
BRANCH   6  24
ATOM     24  O   UNL     1      63.369  48.780   9.565  1.00  0.00    -0.507 OA
ATOM     25  H   UNL     1      62.381  48.573   9.458  1.00  0.00     0.293 HD
ENDBRANCH   6  24
BRANCH   8  26
ATOM     26  O   UNL     1      64.599  44.423   7.850  1.00  0.00    -0.508 OA
ATOM     27  H   UNL     1      64.715  43.625   8.465  1.00  0.00     0.293 HD
ENDBRANCH   8  26
TORSDOF 6
ENDMDL
MODEL 3
REMARK VINA RESULT:    -6.082      2.857      7.411
REMARK INTER + INTRA:          -7.641
REMARK INTER:                  -7.264
REMARK INTRA:                  -0.377
REMARK UNBOUND:                -0.315
REMARK SMILES O=c1c(O)c(-c2ccc(O)cc2O)oc2cc(O)cc(O)c12
REMARK SMILES IDX 5 1 3 2 2 3 1 4 22 5 20 6 19 7 17 8 16 9 15 10 14 11 6 12
REMARK SMILES IDX 8 13 7 14 9 15 11 16 12 17 10 18 13 20 4 22 21 24 18 26
REMARK H PARENT 10 19 13 21 4 23 21 25 18 27
REMARK Flexibility Score: inf
ROOT
ATOM      1  C   UNL     1      65.949  46.319   8.517  1.00  0.00     0.184 A 
ATOM      2  C   UNL     1      66.284  47.366   7.640  1.00  0.00     0.208 A 
ATOM      3  C   UNL     1      67.634  47.571   7.314  1.00  0.00     0.238 A 
ATOM      4  O   UNL     1      67.946  48.504   6.527  1.00  0.00    -0.285 OA
ATOM      5  C   UNL     1      68.620  46.733   7.876  1.00  0.00     0.111 A 
ATOM      6  C   UNL     1      70.001  46.873   7.601  1.00  0.00     0.134 A 
ATOM      7  C   UNL     1      70.922  46.001   8.202  1.00  0.00     0.093 A 
ATOM      8  C   UNL     1      70.488  44.993   9.070  1.00  0.00     0.123 A 
ATOM      9  C   UNL     1      69.126  44.851   9.343  1.00  0.00     0.094 A 
ATOM     10  C   UNL     1      68.193  45.709   8.754  1.00  0.00     0.146 A 
ATOM     11  O   UNL     1      66.904  45.549   9.030  1.00  0.00    -0.451 OA
ENDROOT
BRANCH   1  12
ATOM     12  C   UNL     1      64.543  46.044   8.884  1.00  0.00     0.063 A 
ATOM     13  C   UNL     1      62.546  46.688  10.116  1.00  0.00     0.047 A 
ATOM     14  C   UNL     1      63.890  46.892   9.794  1.00  0.00     0.020 A 
ATOM     15  C   UNL     1      61.834  45.640   9.529  1.00  0.00     0.119 A 
ATOM     16  C   UNL     1      62.474  44.790   8.618  1.00  0.00     0.093 A 
ATOM     17  C   UNL     1      63.823  44.977   8.296  1.00  0.00     0.130 A 
BRANCH  15  18
ATOM     18  O   UNL     1      60.493  45.452   9.855  1.00  0.00    -0.508 OA
ATOM     19  H   UNL     1      59.978  44.641   9.533  1.00  0.00     0.293 HD
ENDBRANCH  15  18
BRANCH  17  20
ATOM     20  O   UNL     1      64.421  44.079   7.409  1.00  0.00    -0.507 OA
ATOM     21  H   UNL     1      65.077  43.366   7.702  1.00  0.00     0.293 HD
ENDBRANCH  17  20
ENDBRANCH   1  12
BRANCH   2  22
ATOM     22  O   UNL     1      65.284  48.193   7.121  1.00  0.00    -0.502 OA
ATOM     23  H   UNL     1      64.737  48.813   7.707  1.00  0.00     0.293 HD
ENDBRANCH   2  22
BRANCH   6  24
ATOM     24  O   UNL     1      70.465  47.869   6.740  1.00  0.00    -0.507 OA
ATOM     25  H   UNL     1      70.602  47.697   5.750  1.00  0.00     0.293 HD
ENDBRANCH   6  24
BRANCH   8  26
ATOM     26  O   UNL     1      71.401  44.127   9.666  1.00  0.00    -0.508 OA
ATOM     27  H   UNL     1      72.278  43.890   9.217  1.00  0.00     0.293 HD
ENDBRANCH   8  26
TORSDOF 6
ENDMDL
MODEL 4
REMARK VINA RESULT:    -6.041      2.085      7.088
REMARK INTER + INTRA:          -7.591
REMARK INTER:                  -7.177
REMARK INTRA:                  -0.414
REMARK UNBOUND:                -0.315
REMARK SMILES O=c1c(O)c(-c2ccc(O)cc2O)oc2cc(O)cc(O)c12
REMARK SMILES IDX 5 1 3 2 2 3 1 4 22 5 20 6 19 7 17 8 16 9 15 10 14 11 6 12
REMARK SMILES IDX 8 13 7 14 9 15 11 16 12 17 10 18 13 20 4 22 21 24 18 26
REMARK H PARENT 10 19 13 21 4 23 21 25 18 27
REMARK Flexibility Score: inf
ROOT
ATOM      1  C   UNL     1      68.844  47.111   8.073  1.00  0.00     0.184 A 
ATOM      2  C   UNL     1      69.288  45.903   7.507  1.00  0.00     0.208 A 
ATOM      3  C   UNL     1      70.661  45.728   7.276  1.00  0.00     0.238 A 
ATOM      4  O   UNL     1      71.072  44.648   6.771  1.00  0.00    -0.285 OA
ATOM      5  C   UNL     1      71.560  46.763   7.607  1.00  0.00     0.111 A 
ATOM      6  C   UNL     1      72.958  46.668   7.404  1.00  0.00     0.134 A 
ATOM      7  C   UNL     1      73.786  47.744   7.757  1.00  0.00     0.093 A 
ATOM      8  C   UNL     1      73.245  48.911   8.308  1.00  0.00     0.123 A 
ATOM      9  C   UNL     1      71.867  49.008   8.510  1.00  0.00     0.094 A 
ATOM     10  C   UNL     1      71.024  47.948   8.166  1.00  0.00     0.146 A 
ATOM     11  O   UNL     1      69.718  48.067   8.372  1.00  0.00    -0.451 OA
ENDROOT
BRANCH   1  12
ATOM     12  C   UNL     1      67.411  47.346   8.356  1.00  0.00     0.063 A 
ATOM     13  C   UNL     1      65.576  47.349   9.954  1.00  0.00     0.047 A 
ATOM     14  C   UNL     1      66.912  47.084   9.644  1.00  0.00     0.020 A 
ATOM     15  C   UNL     1      64.722  47.885   8.988  1.00  0.00     0.119 A 
ATOM     16  C   UNL     1      65.210  48.152   7.702  1.00  0.00     0.093 A 
ATOM     17  C   UNL     1      66.544  47.881   7.375  1.00  0.00     0.130 A 
BRANCH  15  18
ATOM     18  O   UNL     1      63.394  48.150   9.313  1.00  0.00    -0.508 OA
ATOM     19  H   UNL     1      62.676  48.212   8.601  1.00  0.00     0.293 HD
ENDBRANCH  15  18
BRANCH  17  20
ATOM     20  O   UNL     1      66.968  48.133   6.069  1.00  0.00    -0.507 OA
ATOM     21  H   UNL     1      67.944  48.172   5.802  1.00  0.00     0.293 HD
ENDBRANCH  17  20
ENDBRANCH   1  12
BRANCH   2  22
ATOM     22  O   UNL     1      68.368  44.907   7.168  1.00  0.00    -0.502 OA
ATOM     23  H   UNL     1      67.437  44.872   7.568  1.00  0.00     0.293 HD
ENDBRANCH   2  22
BRANCH   6  24
ATOM     24  O   UNL     1      73.527  45.518   6.856  1.00  0.00    -0.507 OA
ATOM     25  H   UNL     1      72.959  44.782   6.452  1.00  0.00     0.293 HD
ENDBRANCH   6  24
BRANCH   8  26
ATOM     26  O   UNL     1      74.066  49.979   8.659  1.00  0.00    -0.508 OA
ATOM     27  H   UNL     1      75.018  50.049   8.317  1.00  0.00     0.293 HD
ENDBRANCH   8  26
TORSDOF 6
ENDMDL
MODEL 5
REMARK VINA RESULT:    -5.946      1.758      6.365
REMARK INTER + INTRA:          -7.477
REMARK INTER:                  -7.101
REMARK INTRA:                  -0.376
REMARK UNBOUND:                -0.315
REMARK SMILES O=c1c(O)c(-c2ccc(O)cc2O)oc2cc(O)cc(O)c12
REMARK SMILES IDX 5 1 3 2 2 3 1 4 22 5 20 6 19 7 17 8 16 9 15 10 14 11 6 12
REMARK SMILES IDX 8 13 7 14 9 15 11 16 12 17 10 18 13 20 4 22 21 24 18 26
REMARK H PARENT 10 19 13 21 4 23 21 25 18 27
REMARK Flexibility Score: inf
ROOT
ATOM      1  C   UNL     1      68.782  48.364   8.243  1.00  0.00     0.184 A 
ATOM      2  C   UNL     1      69.448  49.590   8.408  1.00  0.00     0.208 A 
ATOM      3  C   UNL     1      70.821  49.659   8.121  1.00  0.00     0.238 A 
ATOM      4  O   UNL     1      71.429  50.754   8.262  1.00  0.00    -0.285 OA
ATOM      5  C   UNL     1      71.500  48.503   7.684  1.00  0.00     0.111 A 
ATOM      6  C   UNL     1      72.881  48.486   7.375  1.00  0.00     0.134 A 
ATOM      7  C   UNL     1      73.484  47.293   6.949  1.00  0.00     0.093 A 
ATOM      8  C   UNL     1      72.733  46.119   6.824  1.00  0.00     0.123 A 
ATOM      9  C   UNL     1      71.370  46.131   7.127  1.00  0.00     0.094 A 
ATOM     10  C   UNL     1      70.750  47.309   7.553  1.00  0.00     0.146 A 
ATOM     11  O   UNL     1      69.452  47.292   7.831  1.00  0.00    -0.451 OA
ENDROOT
BRANCH   1  12
ATOM     12  C   UNL     1      67.333  48.234   8.513  1.00  0.00     0.063 A 
ATOM     13  C   UNL     1      65.511  48.174  10.125  1.00  0.00     0.047 A 
ATOM     14  C   UNL     1      66.877  48.240   9.843  1.00  0.00     0.020 A 
ATOM     15  C   UNL     1      64.581  48.108   9.086  1.00  0.00     0.119 A 
ATOM     16  C   UNL     1      65.024  48.104   7.757  1.00  0.00     0.093 A 
ATOM     17  C   UNL     1      66.391  48.158   7.461  1.00  0.00     0.130 A 
BRANCH  15  18
ATOM     18  O   UNL     1      63.221  48.049   9.381  1.00  0.00    -0.508 OA
ATOM     19  H   UNL     1      62.618  48.855   9.268  1.00  0.00     0.293 HD
ENDBRANCH  15  18
BRANCH  17  20
ATOM     20  O   UNL     1      66.779  48.115   6.120  1.00  0.00    -0.507 OA
ATOM     21  H   UNL     1      67.040  47.259   5.647  1.00  0.00     0.293 HD
ENDBRANCH  17  20
ENDBRANCH   1  12
BRANCH   2  22
ATOM     22  O   UNL     1      68.752  50.711   8.867  1.00  0.00    -0.502 OA
ATOM     23  H   UNL     1      68.875  51.079   9.803  1.00  0.00     0.293 HD
ENDBRANCH   2  22
BRANCH   6  24
ATOM     24  O   UNL     1      73.656  49.641   7.490  1.00  0.00    -0.507 OA
ATOM     25  H   UNL     1      73.500  50.449   6.898  1.00  0.00     0.293 HD
ENDBRANCH   6  24
BRANCH   8  26
ATOM     26  O   UNL     1      73.331  44.935   6.401  1.00  0.00    -0.508 OA
ATOM     27  H   UNL     1      73.465  44.731   5.417  1.00  0.00     0.293 HD
ENDBRANCH   8  26
TORSDOF 6
ENDMDL
MODEL 6
REMARK VINA RESULT:    -5.918      2.023      2.823
REMARK INTER + INTRA:          -7.444
REMARK INTER:                  -7.081
REMARK INTRA:                  -0.362
REMARK UNBOUND:                -0.315
REMARK SMILES O=c1c(O)c(-c2ccc(O)cc2O)oc2cc(O)cc(O)c12
REMARK SMILES IDX 5 1 3 2 2 3 1 4 22 5 20 6 19 7 17 8 16 9 15 10 14 11 6 12
REMARK SMILES IDX 8 13 7 14 9 15 11 16 12 17 10 18 13 20 4 22 21 24 18 26
REMARK H PARENT 10 19 13 21 4 23 21 25 18 27
REMARK Flexibility Score: inf
ROOT
ATOM      1  C   UNL     1      70.681  48.241   7.243  1.00  0.00     0.184 A 
ATOM      2  C   UNL     1      70.910  49.339   8.090  1.00  0.00     0.208 A 
ATOM      3  C   UNL     1      69.807  50.000   8.655  1.00  0.00     0.238 A 
ATOM      4  O   UNL     1      69.999  50.984   9.419  1.00  0.00    -0.285 OA
ATOM      5  C   UNL     1      68.502  49.556   8.357  1.00  0.00     0.111 A 
ATOM      6  C   UNL     1      67.338  50.166   8.882  1.00  0.00     0.134 A 
ATOM      7  C   UNL     1      66.074  49.667   8.535  1.00  0.00     0.093 A 
ATOM      8  C   UNL     1      65.951  48.571   7.673  1.00  0.00     0.123 A 
ATOM      9  C   UNL     1      67.097  47.966   7.154  1.00  0.00     0.094 A 
ATOM     10  C   UNL     1      68.366  48.447   7.488  1.00  0.00     0.146 A 
ATOM     11  O   UNL     1      69.438  47.850   6.980  1.00  0.00    -0.451 OA
ENDROOT
BRANCH   1  12
ATOM     12  C   UNL     1      71.803  47.495   6.632  1.00  0.00     0.063 A 
ATOM     13  C   UNL     1      73.701  47.463   5.110  1.00  0.00     0.047 A 
ATOM     14  C   UNL     1      72.602  48.125   5.663  1.00  0.00     0.020 A 
ATOM     15  C   UNL     1      74.022  46.168   5.521  1.00  0.00     0.119 A 
ATOM     16  C   UNL     1      73.233  45.532   6.488  1.00  0.00     0.093 A 
ATOM     17  C   UNL     1      72.123  46.180   7.042  1.00  0.00     0.130 A 
BRANCH  15  18
ATOM     18  O   UNL     1      75.124  45.522   4.965  1.00  0.00    -0.508 OA
ATOM     19  H   UNL     1      76.065  45.873   5.097  1.00  0.00     0.293 HD
ENDBRANCH  15  18
BRANCH  17  20
ATOM     20  O   UNL     1      71.351  45.485   7.976  1.00  0.00    -0.507 OA
ATOM     21  H   UNL     1      71.643  45.338   8.934  1.00  0.00     0.293 HD
ENDBRANCH  17  20
ENDBRANCH   1  12
BRANCH   2  22
ATOM     22  O   UNL     1      72.214  49.768   8.346  1.00  0.00    -0.502 OA
ATOM     23  H   UNL     1      73.023  49.193   8.141  1.00  0.00     0.293 HD
ENDBRANCH   2  22
BRANCH   6  24
ATOM     24  O   UNL     1      67.428  51.261   9.743  1.00  0.00    -0.507 OA
ATOM     25  H   UNL     1      67.993  51.234  10.584  1.00  0.00     0.293 HD
ENDBRANCH   6  24
BRANCH   8  26
ATOM     26  O   UNL     1      64.697  48.075   7.328  1.00  0.00    -0.508 OA
ATOM     27  H   UNL     1      64.150  47.521   7.976  1.00  0.00     0.293 HD
ENDBRANCH   8  26
TORSDOF 6
ENDMDL
MODEL 7
REMARK VINA RESULT:    -5.907      4.287      7.896
REMARK INTER + INTRA:          -7.430
REMARK INTER:                  -7.033
REMARK INTRA:                  -0.397
REMARK UNBOUND:                -0.315
REMARK SMILES O=c1c(O)c(-c2ccc(O)cc2O)oc2cc(O)cc(O)c12
REMARK SMILES IDX 5 1 3 2 2 3 1 4 22 5 20 6 19 7 17 8 16 9 15 10 14 11 6 12
REMARK SMILES IDX 8 13 7 14 9 15 11 16 12 17 10 18 13 20 4 22 21 24 18 26
REMARK H PARENT 10 19 13 21 4 23 21 25 18 27
REMARK Flexibility Score: inf
ROOT
ATOM      1  C   UNL     1      71.379  44.783   6.775  1.00  0.00     0.184 A 
ATOM      2  C   UNL     1      71.890  44.861   5.468  1.00  0.00     0.208 A 
ATOM      3  C   UNL     1      72.778  45.901   5.149  1.00  0.00     0.238 A 
ATOM      4  O   UNL     1      73.245  45.979   3.980  1.00  0.00    -0.285 OA
ATOM      5  C   UNL     1      73.131  46.843   6.137  1.00  0.00     0.111 A 
ATOM      6  C   UNL     1      74.017  47.920   5.897  1.00  0.00     0.134 A 
ATOM      7  C   UNL     1      74.316  48.819   6.933  1.00  0.00     0.093 A 
ATOM      8  C   UNL     1      73.747  48.659   8.202  1.00  0.00     0.123 A 
ATOM      9  C   UNL     1      72.873  47.597   8.442  1.00  0.00     0.094 A 
ATOM     10  C   UNL     1      72.563  46.691   7.425  1.00  0.00     0.146 A 
ATOM     11  O   UNL     1      71.731  45.690   7.683  1.00  0.00    -0.451 OA
ENDROOT
BRANCH   1  12
ATOM     12  C   UNL     1      70.454  43.701   7.176  1.00  0.00     0.063 A 
ATOM     13  C   UNL     1      70.126  41.400   7.894  1.00  0.00     0.047 A 
ATOM     14  C   UNL     1      70.969  42.425   7.461  1.00  0.00     0.020 A 
ATOM     15  C   UNL     1      68.759  41.634   8.056  1.00  0.00     0.119 A 
ATOM     16  C   UNL     1      68.235  42.903   7.777  1.00  0.00     0.093 A 
ATOM     17  C   UNL     1      69.068  43.936   7.331  1.00  0.00     0.130 A 
BRANCH  15  18
ATOM     18  O   UNL     1      67.930  40.604   8.494  1.00  0.00    -0.508 OA
ATOM     19  H   UNL     1      67.194  40.767   9.171  1.00  0.00     0.293 HD
ENDBRANCH  15  18
BRANCH  17  20
ATOM     20  O   UNL     1      68.487  45.171   7.033  1.00  0.00    -0.507 OA
ATOM     21  H   UNL     1      67.510  45.279   6.795  1.00  0.00     0.293 HD
ENDBRANCH  17  20
ENDBRANCH   1  12
BRANCH   2  22
ATOM     22  O   UNL     1      71.501  43.926   4.506  1.00  0.00    -0.502 OA
ATOM     23  H   UNL     1      70.545  43.600   4.423  1.00  0.00     0.293 HD
ENDBRANCH   2  22
BRANCH   6  24
ATOM     24  O   UNL     1      74.599  48.106   4.643  1.00  0.00    -0.507 OA
ATOM     25  H   UNL     1      75.191  48.905   4.442  1.00  0.00     0.293 HD
ENDBRANCH   6  24
BRANCH   8  26
ATOM     26  O   UNL     1      74.043  49.550   9.230  1.00  0.00    -0.508 OA
ATOM     27  H   UNL     1      74.816  49.388   9.865  1.00  0.00     0.293 HD
ENDBRANCH   8  26
TORSDOF 6
ENDMDL
MODEL 8
REMARK VINA RESULT:    -5.845      2.400      7.476
REMARK INTER + INTRA:          -7.356
REMARK INTER:                  -7.480
REMARK INTRA:                   0.124
REMARK UNBOUND:                -0.315
REMARK SMILES O=c1c(O)c(-c2ccc(O)cc2O)oc2cc(O)cc(O)c12
REMARK SMILES IDX 5 1 3 2 2 3 1 4 22 5 20 6 19 7 17 8 16 9 15 10 14 11 6 12
REMARK SMILES IDX 8 13 7 14 9 15 11 16 12 17 10 18 13 20 4 22 21 24 18 26
REMARK H PARENT 10 19 13 21 4 23 21 25 18 27
REMARK Flexibility Score: inf
ROOT
ATOM      1  C   UNL     1      64.554  47.117   8.990  1.00  0.00     0.184 A 
ATOM      2  C   UNL     1      64.493  48.413   9.532  1.00  0.00     0.208 A 
ATOM      3  C   UNL     1      65.639  49.223   9.480  1.00  0.00     0.238 A 
ATOM      4  O   UNL     1      65.596  50.388   9.961  1.00  0.00    -0.285 OA
ATOM      5  C   UNL     1      66.821  48.721   8.897  1.00  0.00     0.111 A 
ATOM      6  C   UNL     1      68.018  49.471   8.807  1.00  0.00     0.134 A 
ATOM      7  C   UNL     1      69.154  48.899   8.214  1.00  0.00     0.093 A 
ATOM      8  C   UNL     1      69.115  47.594   7.709  1.00  0.00     0.123 A 
ATOM      9  C   UNL     1      67.935  46.851   7.796  1.00  0.00     0.094 A 
ATOM     10  C   UNL     1      66.793  47.403   8.382  1.00  0.00     0.146 A 
ATOM     11  O   UNL     1      65.685  46.674   8.449  1.00  0.00    -0.451 OA
ENDROOT
BRANCH   1  12
ATOM     12  C   UNL     1      63.375  46.224   8.999  1.00  0.00     0.063 A 
ATOM     13  C   UNL     1      61.307  45.515  10.067  1.00  0.00     0.047 A 
ATOM     14  C   UNL     1      62.457  46.307  10.060  1.00  0.00     0.020 A 
ATOM     15  C   UNL     1      61.053  44.635   9.013  1.00  0.00     0.119 A 
ATOM     16  C   UNL     1      61.960  44.546   7.949  1.00  0.00     0.093 A 
ATOM     17  C   UNL     1      63.122  45.326   7.936  1.00  0.00     0.130 A 
BRANCH  15  18
ATOM     18  O   UNL     1      59.899  43.855   9.030  1.00  0.00    -0.508 OA
ATOM     19  H   UNL     1      59.037  44.192   9.441  1.00  0.00     0.293 HD
ENDBRANCH  15  18
BRANCH  17  20
ATOM     20  O   UNL     1      64.009  45.172   6.868  1.00  0.00    -0.507 OA
ATOM     21  H   UNL     1      64.325  45.944   6.296  1.00  0.00     0.293 HD
ENDBRANCH  17  20
ENDBRANCH   1  12
BRANCH   2  22
ATOM     22  O   UNL     1      63.314  48.870  10.125  1.00  0.00    -0.502 OA
ATOM     23  H   UNL     1      63.254  49.086  11.113  1.00  0.00     0.293 HD
ENDBRANCH   2  22
BRANCH   6  24
ATOM     24  O   UNL     1      68.088  50.774   9.301  1.00  0.00    -0.507 OA
ATOM     25  H   UNL     1      68.026  50.972  10.293  1.00  0.00     0.293 HD
ENDBRANCH   6  24
BRANCH   8  26
ATOM     26  O   UNL     1      70.241  47.026   7.121  1.00  0.00    -0.508 OA
ATOM     27  H   UNL     1      71.033  46.721   7.676  1.00  0.00     0.293 HD
ENDBRANCH   8  26
TORSDOF 6
ENDMDL
MODEL 9
REMARK VINA RESULT:    -5.739      2.333      7.042
REMARK INTER + INTRA:          -7.228
REMARK INTER:                  -6.850
REMARK INTRA:                  -0.378
REMARK UNBOUND:                -0.315
REMARK SMILES O=c1c(O)c(-c2ccc(O)cc2O)oc2cc(O)cc(O)c12
REMARK SMILES IDX 5 1 3 2 2 3 1 4 22 5 20 6 19 7 17 8 16 9 15 10 14 11 6 12
REMARK SMILES IDX 8 13 7 14 9 15 11 16 12 17 10 18 13 20 4 22 21 24 18 26
REMARK H PARENT 10 19 13 21 4 23 21 25 18 27
REMARK Flexibility Score: inf
ROOT
ATOM      1  C   UNL     1      69.804  47.448   7.550  1.00  0.00     0.184 A 
ATOM      2  C   UNL     1      70.118  46.129   7.923  1.00  0.00     0.208 A 
ATOM      3  C   UNL     1      71.352  45.589   7.526  1.00  0.00     0.238 A 
ATOM      4  O   UNL     1      71.646  44.408   7.857  1.00  0.00    -0.285 OA
ATOM      5  C   UNL     1      72.241  46.372   6.762  1.00  0.00     0.111 A 
ATOM      6  C   UNL     1      73.502  45.903   6.321  1.00  0.00     0.134 A 
ATOM      7  C   UNL     1      74.330  46.744   5.561  1.00  0.00     0.093 A 
ATOM      8  C   UNL     1      73.921  48.042   5.235  1.00  0.00     0.123 A 
ATOM      9  C   UNL     1      72.679  48.508   5.668  1.00  0.00     0.094 A 
ATOM     10  C   UNL     1      71.840  47.688   6.427  1.00  0.00     0.146 A 
ATOM     11  O   UNL     1      70.665  48.158   6.827  1.00  0.00    -0.451 OA
ENDROOT
BRANCH   1  12
ATOM     12  C   UNL     1      68.527  48.077   7.953  1.00  0.00     0.063 A 
ATOM     13  C   UNL     1      67.331  49.617   9.409  1.00  0.00     0.047 A 
ATOM     14  C   UNL     1      68.511  48.966   9.041  1.00  0.00     0.020 A 
ATOM     15  C   UNL     1      66.153  49.395   8.692  1.00  0.00     0.119 A 
ATOM     16  C   UNL     1      66.159  48.512   7.604  1.00  0.00     0.093 A 
ATOM     17  C   UNL     1      67.332  47.846   7.232  1.00  0.00     0.130 A 
BRANCH  15  18
ATOM     18  O   UNL     1      64.985  50.055   9.066  1.00  0.00    -0.508 OA
ATOM     19  H   UNL     1      65.009  50.892   9.636  1.00  0.00     0.293 HD
ENDBRANCH  15  18
BRANCH  17  20
ATOM     20  O   UNL     1      67.273  46.950   6.162  1.00  0.00    -0.507 OA
ATOM     21  H   UNL     1      67.313  47.242   5.194  1.00  0.00     0.293 HD
ENDBRANCH  17  20
ENDBRANCH   1  12
BRANCH   2  22
ATOM     22  O   UNL     1      69.203  45.372   8.659  1.00  0.00    -0.502 OA
ATOM     23  H   UNL     1      68.699  44.590   8.256  1.00  0.00     0.293 HD
ENDBRANCH   2  22
BRANCH   6  24
ATOM     24  O   UNL     1      73.937  44.614   6.630  1.00  0.00    -0.507 OA
ATOM     25  H   UNL     1      74.890  44.316   6.454  1.00  0.00     0.293 HD
ENDBRANCH   6  24
BRANCH   8  26
ATOM     26  O   UNL     1      74.742  48.876   4.481  1.00  0.00    -0.508 OA
ATOM     27  H   UNL     1      75.517  49.377   4.900  1.00  0.00     0.293 HD
ENDBRANCH   8  26
TORSDOF 6
ENDMDL
