MODEL 1
REMARK VINA RESULT:    -4.895      0.000      0.000
REMARK INTER + INTRA:          -6.214
REMARK INTER:                  -5.896
REMARK INTRA:                  -0.317
REMARK UNBOUND:                -0.317
REMARK SMILES NC(=O)C[C@@H]([NH3+])C(=O)[O-]
REMARK SMILES IDX 4 1 5 2 6 3 7 7 8 8 9 9 2 10 3 11 1 12
REMARK H PARENT 6 4 6 5 6 6 1 13 1 14
REMARK Flexibility Score: inf
ROOT
ATOM      1  C   UNL     1     203.420 203.435 241.896  1.00  0.00     0.171 C 
ENDROOT
BRANCH   1   2
ATOM      2  C   UNL     1     203.939 201.989 242.032  1.00  0.00     0.237 C 
BRANCH   2   3
ATOM      3  N   UNL     1     205.273 201.950 242.648  1.00  0.00    -0.350 N 
ATOM      4  H   UNL     1     205.209 201.559 243.615  1.00  0.00     0.345 HD
ATOM      5  H   UNL     1     205.926 201.362 242.080  1.00  0.00     0.345 HD
ATOM      6  H   UNL     1     205.659 202.919 242.719  1.00  0.00     0.345 HD
ENDBRANCH   2   3
BRANCH   2   7
ATOM      7  C   UNL     1     202.968 201.171 242.840  1.00  0.00     0.100 C 
ATOM      8  O   UNL     1     202.152 200.399 242.268  1.00  0.00    -0.544 OA
ATOM      9  O   UNL     1     202.979 201.249 244.227  1.00  0.00    -0.544 OA
ENDBRANCH   2   7
ENDBRANCH   1   2
BRANCH   1  10
ATOM     10  C   UNL     1     204.147 204.373 242.815  1.00  0.00     0.223 C 
ATOM     11  O   UNL     1     203.962 204.298 244.059  1.00  0.00    -0.275 OA
ATOM     12  N   UNL     1     205.020 205.373 242.289  1.00  0.00    -0.369 N 
ATOM     13  H   UNL     1     205.516 206.030 242.931  1.00  0.00     0.159 HD
ATOM     14  H   UNL     1     205.167 205.465 241.259  1.00  0.00     0.159 HD
ENDBRANCH   1  10
TORSDOF 4
ENDMDL
MODEL 2
REMARK VINA RESULT:    -4.802      1.924      3.808
REMARK INTER + INTRA:          -6.102
REMARK INTER:                  -5.776
REMARK INTRA:                  -0.326
REMARK UNBOUND:                -0.317
REMARK SMILES NC(=O)C[C@@H]([NH3+])C(=O)[O-]
REMARK SMILES IDX 4 1 5 2 6 3 7 7 8 8 9 9 2 10 3 11 1 12
REMARK H PARENT 6 4 6 5 6 6 1 13 1 14
REMARK Flexibility Score: inf
ROOT
ATOM      1  C   UNL     1     203.599 202.156 241.939  1.00  0.00     0.171 C 
ENDROOT
BRANCH   1   2
ATOM      2  C   UNL     1     203.061 203.591 242.116  1.00  0.00     0.237 C 
BRANCH   2   3
ATOM      3  N   UNL     1     201.703 203.592 242.679  1.00  0.00    -0.350 N 
ATOM      4  H   UNL     1     201.019 203.926 241.963  1.00  0.00     0.345 HD
ATOM      5  H   UNL     1     201.432 202.632 242.993  1.00  0.00     0.345 HD
ATOM      6  H   UNL     1     201.658 204.245 243.495  1.00  0.00     0.345 HD
ENDBRANCH   2   3
BRANCH   2   7
ATOM      7  C   UNL     1     203.991 204.381 242.997  1.00  0.00     0.100 C 
ATOM      8  O   UNL     1     204.817 205.188 242.494  1.00  0.00    -0.544 OA
ATOM      9  O   UNL     1     203.930 204.237 244.378  1.00  0.00    -0.544 OA
ENDBRANCH   2   7
ENDBRANCH   1   2
BRANCH   1  10
ATOM     10  C   UNL     1     202.831 201.169 242.768  1.00  0.00     0.223 C 
ATOM     11  O   UNL     1     202.947 201.183 244.022  1.00  0.00    -0.275 OA
ATOM     12  N   UNL     1     201.995 200.194 242.146  1.00  0.00    -0.369 N 
ATOM     13  H   UNL     1     201.470 199.502 242.726  1.00  0.00     0.159 HD
ATOM     14  H   UNL     1     201.905 200.153 241.106  1.00  0.00     0.159 HD
ENDBRANCH   1  10
TORSDOF 4
ENDMDL
MODEL 3
REMARK VINA RESULT:    -4.664      2.521      3.575
REMARK INTER + INTRA:          -5.936
REMARK INTER:                  -5.463
REMARK INTRA:                  -0.473
REMARK UNBOUND:                -0.317
REMARK SMILES NC(=O)C[C@@H]([NH3+])C(=O)[O-]
REMARK SMILES IDX 4 1 5 2 6 3 7 7 8 8 9 9 2 10 3 11 1 12
REMARK H PARENT 6 4 6 5 6 6 1 13 1 14
REMARK Flexibility Score: inf
ROOT
ATOM      1  C   UNL     1     202.725 202.852 242.195  1.00  0.00     0.171 C 
ENDROOT
BRANCH   1   2
ATOM      2  C   UNL     1     203.984 203.000 241.317  1.00  0.00     0.237 C 
BRANCH   2   3
ATOM      3  N   UNL     1     205.015 202.018 241.681  1.00  0.00    -0.350 N 
ATOM      4  H   UNL     1     205.813 202.497 242.157  1.00  0.00     0.345 HD
ATOM      5  H   UNL     1     204.622 201.288 242.318  1.00  0.00     0.345 HD
ATOM      6  H   UNL     1     205.386 201.557 240.819  1.00  0.00     0.345 HD
ENDBRANCH   2   3
BRANCH   2   7
ATOM      7  C   UNL     1     203.615 202.853 239.865  1.00  0.00     0.100 C 
ATOM      8  O   UNL     1     202.894 201.892 239.483  1.00  0.00    -0.544 OA
ATOM      9  O   UNL     1     204.052 203.792 238.938  1.00  0.00    -0.544 OA
ENDBRANCH   2   7
ENDBRANCH   1   2
BRANCH   1  10
ATOM     10  C   UNL     1     202.660 201.501 242.847  1.00  0.00     0.223 C 
ATOM     11  O   UNL     1     203.150 201.337 243.995  1.00  0.00    -0.275 OA
ATOM     12  N   UNL     1     202.076 200.393 242.162  1.00  0.00    -0.369 N 
ATOM     13  H   UNL     1     202.042 199.452 242.614  1.00  0.00     0.159 HD
ATOM     14  H   UNL     1     201.685 200.505 241.199  1.00  0.00     0.159 HD
ENDBRANCH   1  10
TORSDOF 4
ENDMDL
MODEL 4
REMARK VINA RESULT:    -4.638      2.499      2.873
REMARK INTER + INTRA:          -5.905
REMARK INTER:                  -5.426
REMARK INTRA:                  -0.478
REMARK UNBOUND:                -0.317
REMARK SMILES NC(=O)C[C@@H]([NH3+])C(=O)[O-]
REMARK SMILES IDX 4 1 5 2 6 3 7 7 8 8 9 9 2 10 3 11 1 12
REMARK H PARENT 6 4 6 5 6 6 1 13 1 14
REMARK Flexibility Score: inf
ROOT
ATOM      1  C   UNL     1     204.396 202.768 242.124  1.00  0.00     0.171 C 
ENDROOT
BRANCH   1   2
ATOM      2  C   UNL     1     203.137 202.547 241.261  1.00  0.00     0.237 C 
BRANCH   2   3
ATOM      3  N   UNL     1     202.056 203.469 241.636  1.00  0.00    -0.350 N 
ATOM      4  H   UNL     1     202.313 203.986 242.507  1.00  0.00     0.345 HD
ATOM      5  H   UNL     1     201.872 204.156 240.869  1.00  0.00     0.345 HD
ATOM      6  H   UNL     1     201.180 202.930 241.830  1.00  0.00     0.345 HD
ENDBRANCH   2   3
BRANCH   2   7
ATOM      7  C   UNL     1     203.480 202.713 239.804  1.00  0.00     0.100 C 
ATOM      8  O   UNL     1     203.066 201.882 238.951  1.00  0.00    -0.544 OA
ATOM      9  O   UNL     1     204.243 203.798 239.389  1.00  0.00    -0.544 OA
ENDBRANCH   2   7
ENDBRANCH   1   2
BRANCH   1  10
ATOM     10  C   UNL     1     204.359 204.093 242.828  1.00  0.00     0.223 C 
ATOM     11  O   UNL     1     203.785 204.192 243.945  1.00  0.00    -0.275 OA
ATOM     12  N   UNL     1     204.940 205.250 242.226  1.00  0.00    -0.369 N 
ATOM     13  H   UNL     1     204.904 206.173 242.715  1.00  0.00     0.159 HD
ATOM     14  H   UNL     1     205.400 205.192 241.290  1.00  0.00     0.159 HD
ENDBRANCH   1  10
TORSDOF 4
ENDMDL
MODEL 5
REMARK VINA RESULT:    -4.627      2.838      3.226
REMARK INTER + INTRA:          -5.891
REMARK INTER:                  -5.430
REMARK INTRA:                  -0.462
REMARK UNBOUND:                -0.317
REMARK SMILES NC(=O)C[C@@H]([NH3+])C(=O)[O-]
REMARK SMILES IDX 4 1 5 2 6 3 7 7 8 8 9 9 2 10 3 11 1 12
REMARK H PARENT 6 4 6 5 6 6 1 13 1 14
REMARK Flexibility Score: inf
ROOT
ATOM      1  C   UNL     1     203.627 203.445 242.222  1.00  0.00     0.171 C 
ENDROOT
BRANCH   1   2
ATOM      2  C   UNL     1     203.697 202.214 241.295  1.00  0.00     0.237 C 
BRANCH   2   3
ATOM      3  N   UNL     1     202.668 201.222 241.636  1.00  0.00    -0.350 N 
ATOM      4  H   UNL     1     201.805 201.394 241.073  1.00  0.00     0.345 HD
ATOM      5  H   UNL     1     203.013 200.252 241.450  1.00  0.00     0.345 HD
ATOM      6  H   UNL     1     202.414 201.307 242.647  1.00  0.00     0.345 HD
ENDBRANCH   2   3
BRANCH   2   7
ATOM      7  C   UNL     1     203.550 202.646 239.860  1.00  0.00     0.100 C 
ATOM      8  O   UNL     1     202.567 203.350 239.503  1.00  0.00    -0.544 OA
ATOM      9  O   UNL     1     204.511 202.287 238.923  1.00  0.00    -0.544 OA
ENDBRANCH   2   7
ENDBRANCH   1   2
BRANCH   1  10
ATOM     10  C   UNL     1     202.314 203.519 242.945  1.00  0.00     0.223 C 
ATOM     11  O   UNL     1     202.177 202.938 244.054  1.00  0.00    -0.275 OA
ATOM     12  N   UNL     1     201.207 204.215 242.371  1.00  0.00    -0.369 N 
ATOM     13  H   UNL     1     200.293 204.256 242.872  1.00  0.00     0.159 HD
ATOM     14  H   UNL     1     201.296 204.684 241.441  1.00  0.00     0.159 HD
ENDBRANCH   1  10
TORSDOF 4
ENDMDL
MODEL 6
REMARK VINA RESULT:    -4.519      2.352      2.923
REMARK INTER + INTRA:          -5.761
REMARK INTER:                  -5.510
REMARK INTRA:                  -0.251
REMARK UNBOUND:                -0.317
REMARK SMILES NC(=O)C[C@@H]([NH3+])C(=O)[O-]
REMARK SMILES IDX 4 1 5 2 6 3 7 7 8 8 9 9 2 10 3 11 1 12
REMARK H PARENT 6 4 6 5 6 6 1 13 1 14
REMARK Flexibility Score: inf
ROOT
ATOM      1  C   UNL     1     203.775 203.311 241.501  1.00  0.00     0.171 C 
ENDROOT
BRANCH   1   2
ATOM      2  C   UNL     1     204.048 202.059 242.361  1.00  0.00     0.237 C 
BRANCH   2   3
ATOM      3  N   UNL     1     205.446 201.621 242.247  1.00  0.00    -0.350 N 
ATOM      4  H   UNL     1     205.718 201.554 241.241  1.00  0.00     0.345 HD
ATOM      5  H   UNL     1     206.085 202.291 242.734  1.00  0.00     0.345 HD
ATOM      6  H   UNL     1     205.555 200.672 242.673  1.00  0.00     0.345 HD
ENDBRANCH   2   3
BRANCH   2   7
ATOM      7  C   UNL     1     203.706 202.344 243.799  1.00  0.00     0.100 C 
ATOM      8  O   UNL     1     204.608 202.359 244.679  1.00  0.00    -0.544 OA
ATOM      9  O   UNL     1     202.392 202.612 244.162  1.00  0.00    -0.544 OA
ENDBRANCH   2   7
ENDBRANCH   1   2
BRANCH   1  10
ATOM     10  C   UNL     1     203.486 202.950 240.073  1.00  0.00     0.223 C 
ATOM     11  O   UNL     1     204.340 202.310 239.405  1.00  0.00    -0.275 OA
ATOM     12  N   UNL     1     202.264 203.355 239.456  1.00  0.00    -0.369 N 
ATOM     13  H   UNL     1     202.071 203.110 238.459  1.00  0.00     0.159 HD
ATOM     14  H   UNL     1     201.553 203.906 239.988  1.00  0.00     0.159 HD
ENDBRANCH   1  10
TORSDOF 4
ENDMDL
MODEL 7
REMARK VINA RESULT:    -4.510      2.429      2.858
REMARK INTER + INTRA:          -5.750
REMARK INTER:                  -5.553
REMARK INTRA:                  -0.197
REMARK UNBOUND:                -0.317
REMARK SMILES NC(=O)C[C@@H]([NH3+])C(=O)[O-]
REMARK SMILES IDX 4 1 5 2 6 3 7 7 8 8 9 9 2 10 3 11 1 12
REMARK H PARENT 6 4 6 5 6 6 1 13 1 14
REMARK Flexibility Score: inf
ROOT
ATOM      1  C   UNL     1     203.547 203.548 244.261  1.00  0.00     0.171 C 
ENDROOT
BRANCH   1   2
ATOM      2  C   UNL     1     202.415 202.802 243.526  1.00  0.00     0.237 C 
BRANCH   2   3
ATOM      3  N   UNL     1     201.624 203.713 242.686  1.00  0.00    -0.350 N 
ATOM      4  H   UNL     1     200.647 203.778 243.051  1.00  0.00     0.345 HD
ATOM      5  H   UNL     1     202.051 204.667 242.672  1.00  0.00     0.345 HD
ATOM      6  H   UNL     1     201.578 203.344 241.709  1.00  0.00     0.345 HD
ENDBRANCH   2   3
BRANCH   2   7
ATOM      7  C   UNL     1     202.993 201.692 242.690  1.00  0.00     0.100 C 
ATOM      8  O   UNL     1     202.286 200.700 242.367  1.00  0.00    -0.544 OA
ATOM      9  O   UNL     1     204.310 201.766 242.251  1.00  0.00    -0.544 OA
ENDBRANCH   2   7
ENDBRANCH   1   2
BRANCH   1  10
ATOM     10  C   UNL     1     203.993 202.809 245.489  1.00  0.00     0.223 C 
ATOM     11  O   UNL     1     203.417 203.020 246.589  1.00  0.00    -0.275 OA
ATOM     12  N   UNL     1     205.087 201.893 245.427  1.00  0.00    -0.369 N 
ATOM     13  H   UNL     1     205.400 201.388 246.285  1.00  0.00     0.159 HD
ATOM     14  H   UNL     1     205.591 201.723 244.528  1.00  0.00     0.159 HD
ENDBRANCH   1  10
TORSDOF 4
ENDMDL
MODEL 8
REMARK VINA RESULT:    -4.501      2.667      3.138
REMARK INTER + INTRA:          -5.740
REMARK INTER:                  -5.242
REMARK INTRA:                  -0.498
REMARK UNBOUND:                -0.317
REMARK SMILES NC(=O)C[C@@H]([NH3+])C(=O)[O-]
REMARK SMILES IDX 4 1 5 2 6 3 7 7 8 8 9 9 2 10 3 11 1 12
REMARK H PARENT 6 4 6 5 6 6 1 13 1 14
REMARK Flexibility Score: inf
ROOT
ATOM      1  C   UNL     1     203.655 202.237 241.098  1.00  0.00     0.171 C 
ENDROOT
BRANCH   1   2
ATOM      2  C   UNL     1     203.903 203.169 242.302  1.00  0.00     0.237 C 
BRANCH   2   3
ATOM      3  N   UNL     1     204.408 204.481 241.873  1.00  0.00    -0.350 N 
ATOM      4  H   UNL     1     203.707 204.950 241.257  1.00  0.00     0.345 HD
ATOM      5  H   UNL     1     204.602 205.091 242.701  1.00  0.00     0.345 HD
ATOM      6  H   UNL     1     205.289 204.360 241.323  1.00  0.00     0.345 HD
ENDBRANCH   2   3
BRANCH   2   7
ATOM      7  C   UNL     1     202.632 203.332 243.091  1.00  0.00     0.100 C 
ATOM      8  O   UNL     1     201.616 203.861 242.565  1.00  0.00    -0.544 OA
ATOM      9  O   UNL     1     202.565 202.879 244.403  1.00  0.00    -0.544 OA
ENDBRANCH   2   7
ENDBRANCH   1   2
BRANCH   1  10
ATOM     10  C   UNL     1     203.415 203.013 239.836  1.00  0.00     0.223 C 
ATOM     11  O   UNL     1     204.389 203.333 239.104  1.00  0.00    -0.275 OA
ATOM     12  N   UNL     1     202.095 203.422 239.476  1.00  0.00    -0.369 N 
ATOM     13  H   UNL     1     201.934 203.971 238.603  1.00  0.00     0.159 HD
ATOM     14  H   UNL     1     201.279 203.187 240.083  1.00  0.00     0.159 HD
ENDBRANCH   1  10
TORSDOF 4
ENDMDL
MODEL 9
REMARK VINA RESULT:    -4.352      2.347      3.282
REMARK INTER + INTRA:          -5.560
REMARK INTER:                  -5.343
REMARK INTRA:                  -0.217
REMARK UNBOUND:                -0.317
REMARK SMILES NC(=O)C[C@@H]([NH3+])C(=O)[O-]
REMARK SMILES IDX 4 1 5 2 6 3 7 7 8 8 9 9 2 10 3 11 1 12
REMARK H PARENT 6 4 6 5 6 6 1 13 1 14
REMARK Flexibility Score: inf
ROOT
ATOM      1  C   UNL     1     202.719 202.211 244.082  1.00  0.00     0.171 C 
ENDROOT
BRANCH   1   2
ATOM      2  C   UNL     1     203.243 201.513 242.810  1.00  0.00     0.237 C 
BRANCH   2   3
ATOM      3  N   UNL     1     202.213 200.662 242.198  1.00  0.00    -0.350 N 
ATOM      4  H   UNL     1     202.312 199.679 242.537  1.00  0.00     0.345 HD
ATOM      5  H   UNL     1     201.256 201.013 242.434  1.00  0.00     0.345 HD
ATOM      6  H   UNL     1     202.329 200.657 241.159  1.00  0.00     0.345 HD
ENDBRANCH   2   3
BRANCH   2   7
ATOM      7  C   UNL     1     203.724 202.542 241.823  1.00  0.00     0.100 C 
ATOM      8  O   UNL     1     204.404 203.530 242.210  1.00  0.00    -0.544 OA
ATOM      9  O   UNL     1     203.434 202.397 240.471  1.00  0.00    -0.544 OA
ENDBRANCH   2   7
ENDBRANCH   1   2
BRANCH   1  10
ATOM     10  C   UNL     1     203.626 201.980 245.255  1.00  0.00     0.223 C 
ATOM     11  O   UNL     1     203.135 201.829 246.405  1.00  0.00    -0.275 OA
ATOM     12  N   UNL     1     205.044 201.964 245.084  1.00  0.00    -0.369 N 
ATOM     13  H   UNL     1     205.672 201.813 245.905  1.00  0.00     0.159 HD
ATOM     14  H   UNL     1     205.470 202.111 244.142  1.00  0.00     0.159 HD
ENDBRANCH   1  10
TORSDOF 4
ENDMDL
