MODEL 1
REMARK VINA RESULT:    -4.178      0.000      0.000
REMARK INTER + INTRA:          -4.300
REMARK INTER:                  -4.300
REMARK INTRA:                   0.000
REMARK UNBOUND:                 0.000
REMARK SMILES Nc1ncnc2nc[nH]c12
REMARK SMILES IDX 8 1 7 2 6 3 5 4 4 5 3 6 2 7 10 8 9 9 1 11
REMARK H PARENT 9 10 1 12 1 13
REMARK Flexibility Score: inf
ROOT
ATOM      1  C   UNL     1      18.297 -36.350 149.719  1.00  0.00     0.199 A 
ATOM      2  N   UNL     1      17.140 -36.533 149.025  1.00  0.00    -0.217 NA
ATOM      3  C   UNL     1      16.277 -36.874 149.996  1.00  0.00     0.182 A 
ATOM      4  N   UNL     1      14.963 -37.169 149.844  1.00  0.00    -0.215 NA
ATOM      5  C   UNL     1      14.242 -37.495 150.959  1.00  0.00     0.226 A 
ATOM      6  N   UNL     1      14.840 -37.520 152.193  1.00  0.00    -0.217 NA
ATOM      7  C   UNL     1      16.164 -37.223 152.349  1.00  0.00     0.152 A 
ATOM      8  C   UNL     1      16.885 -36.893 151.205  1.00  0.00     0.127 A 
ATOM      9  N   UNL     1      18.173 -36.562 151.053  1.00  0.00    -0.340 N 
ATOM     10  H   UNL     1      18.918 -36.483 151.781  1.00  0.00     0.168 HD
ENDROOT
BRANCH   7  11
ATOM     11  N   UNL     1      16.765 -37.255 153.644  1.00  0.00    -0.382 N 
ATOM     12  H   UNL     1      17.466 -37.993 153.876  1.00  0.00     0.158 HD
ATOM     13  H   UNL     1      16.520 -36.552 154.376  1.00  0.00     0.158 HD
ENDBRANCH   7  11
TORSDOF 1
ENDMDL
MODEL 2
REMARK VINA RESULT:    -4.133     17.360     17.981
REMARK INTER + INTRA:          -4.254
REMARK INTER:                  -4.254
REMARK INTRA:                   0.000
REMARK UNBOUND:                 0.000
REMARK SMILES Nc1ncnc2nc[nH]c12
REMARK SMILES IDX 8 1 7 2 6 3 5 4 4 5 3 6 2 7 10 8 9 9 1 11
REMARK H PARENT 9 10 1 12 1 13
REMARK Flexibility Score: inf
ROOT
ATOM      1  C   UNL     1      25.248 -51.616 149.872  1.00  0.00     0.199 A 
ATOM      2  N   UNL     1      26.510 -51.209 149.564  1.00  0.00    -0.217 NA
ATOM      3  C   UNL     1      27.105 -51.188 150.768  1.00  0.00     0.182 A 
ATOM      4  N   UNL     1      28.390 -50.847 151.029  1.00  0.00    -0.215 NA
ATOM      5  C   UNL     1      28.816 -50.887 152.327  1.00  0.00     0.226 A 
ATOM      6  N   UNL     1      27.960 -51.264 153.331  1.00  0.00    -0.217 NA
ATOM      7  C   UNL     1      26.665 -51.609 153.070  1.00  0.00     0.152 A 
ATOM      8  C   UNL     1      26.245 -51.563 151.743  1.00  0.00     0.127 A 
ATOM      9  N   UNL     1      25.055 -51.841 151.197  1.00  0.00    -0.340 N 
ATOM     10  H   UNL     1      24.178 -52.156 151.666  1.00  0.00     0.168 HD
ENDROOT
BRANCH   7  11
ATOM     11  N   UNL     1      25.791 -51.998 154.131  1.00  0.00    -0.382 N 
ATOM     12  H   UNL     1      24.824 -51.610 154.179  1.00  0.00     0.158 HD
ATOM     13  H   UNL     1      26.098 -52.669 154.869  1.00  0.00     0.158 HD
ENDBRANCH   7  11
TORSDOF 1
ENDMDL
MODEL 3
REMARK VINA RESULT:    -4.122      1.301      3.716
REMARK INTER + INTRA:          -4.243
REMARK INTER:                  -4.243
REMARK INTRA:                   0.000
REMARK UNBOUND:                 0.000
REMARK SMILES Nc1ncnc2nc[nH]c12
REMARK SMILES IDX 8 1 7 2 6 3 5 4 4 5 3 6 2 7 10 8 9 9 1 11
REMARK H PARENT 9 10 1 12 1 13
REMARK Flexibility Score: inf
ROOT
ATOM      1  C   UNL     1      14.723 -36.917 152.226  1.00  0.00     0.199 A 
ATOM      2  N   UNL     1      15.801 -37.744 152.295  1.00  0.00    -0.217 NA
ATOM      3  C   UNL     1      16.481 -37.420 151.183  1.00  0.00     0.182 A 
ATOM      4  N   UNL     1      17.652 -37.958 150.765  1.00  0.00    -0.215 NA
ATOM      5  C   UNL     1      18.194 -37.495 149.598  1.00  0.00     0.226 A 
ATOM      6  N   UNL     1      17.563 -36.513 148.877  1.00  0.00    -0.217 NA
ATOM      7  C   UNL     1      16.383 -35.969 149.297  1.00  0.00     0.152 A 
ATOM      8  C   UNL     1      15.843 -36.451 150.487  1.00  0.00     0.127 A 
ATOM      9  N   UNL     1      14.720 -36.113 151.133  1.00  0.00    -0.340 N 
ATOM     10  H   UNL     1      14.002 -35.403 150.868  1.00  0.00     0.168 HD
ENDROOT
BRANCH   7  11
ATOM     11  N   UNL     1      15.743 -34.947 148.531  1.00  0.00    -0.382 N 
ATOM     12  H   UNL     1      16.289 -34.119 148.207  1.00  0.00     0.158 HD
ATOM     13  H   UNL     1      14.731 -35.007 148.282  1.00  0.00     0.158 HD
ENDBRANCH   7  11
TORSDOF 1
ENDMDL
MODEL 4
REMARK VINA RESULT:    -4.059      1.924      2.939
REMARK INTER + INTRA:          -4.178
REMARK INTER:                  -4.178
REMARK INTRA:                   0.000
REMARK UNBOUND:                 0.000
REMARK SMILES Nc1ncnc2nc[nH]c12
REMARK SMILES IDX 8 1 7 2 6 3 5 4 4 5 3 6 2 7 10 8 9 9 1 11
REMARK H PARENT 9 10 1 12 1 13
REMARK Flexibility Score: inf
ROOT
ATOM      1  C   UNL     1      19.638 -34.249 151.758  1.00  0.00     0.199 A 
ATOM      2  N   UNL     1      19.885 -34.677 150.490  1.00  0.00    -0.217 NA
ATOM      3  C   UNL     1      19.082 -35.749 150.389  1.00  0.00     0.182 A 
ATOM      4  N   UNL     1      18.942 -36.555 149.310  1.00  0.00    -0.215 NA
ATOM      5  C   UNL     1      18.069 -37.604 149.397  1.00  0.00     0.226 A 
ATOM      6  N   UNL     1      17.358 -37.825 150.549  1.00  0.00    -0.217 NA
ATOM      7  C   UNL     1      17.498 -37.013 151.639  1.00  0.00     0.152 A 
ATOM      8  C   UNL     1      18.391 -35.950 151.534  1.00  0.00     0.127 A 
ATOM      9  N   UNL     1      18.728 -35.006 152.422  1.00  0.00    -0.340 N 
ATOM     10  H   UNL     1      18.382 -34.873 153.398  1.00  0.00     0.168 HD
ENDROOT
BRANCH   7  11
ATOM     11  N   UNL     1      16.748 -37.263 152.828  1.00  0.00    -0.382 N 
ATOM     12  H   UNL     1      17.028 -36.811 153.726  1.00  0.00     0.158 HD
ATOM     13  H   UNL     1      15.916 -37.893 152.825  1.00  0.00     0.158 HD
ENDBRANCH   7  11
TORSDOF 1
ENDMDL
MODEL 5
REMARK VINA RESULT:    -4.016      1.196      2.989
REMARK INTER + INTRA:          -4.133
REMARK INTER:                  -4.133
REMARK INTRA:                   0.000
REMARK UNBOUND:                 0.000
REMARK SMILES Nc1ncnc2nc[nH]c12
REMARK SMILES IDX 8 1 7 2 6 3 5 4 4 5 3 6 2 7 10 8 9 9 1 11
REMARK H PARENT 9 10 1 12 1 13
REMARK Flexibility Score: inf
ROOT
ATOM      1  C   UNL     1      14.490 -37.341 151.981  1.00  0.00     0.199 A 
ATOM      2  N   UNL     1      14.387 -37.500 150.633  1.00  0.00    -0.217 NA
ATOM      3  C   UNL     1      15.579 -37.058 150.201  1.00  0.00     0.182 A 
ATOM      4  N   UNL     1      16.004 -36.999 148.916  1.00  0.00    -0.215 NA
ATOM      5  C   UNL     1      17.259 -36.516 148.672  1.00  0.00     0.226 A 
ATOM      6  N   UNL     1      18.060 -36.103 149.707  1.00  0.00    -0.217 NA
ATOM      7  C   UNL     1      17.635 -36.162 151.004  1.00  0.00     0.152 A 
ATOM      8  C   UNL     1      16.354 -36.656 151.236  1.00  0.00     0.127 A 
ATOM      9  N   UNL     1      15.682 -36.828 152.380  1.00  0.00    -0.340 N 
ATOM     10  H   UNL     1      15.988 -36.619 153.356  1.00  0.00     0.168 HD
ENDROOT
BRANCH   7  11
ATOM     11  N   UNL     1      18.486 -35.727 152.065  1.00  0.00    -0.382 N 
ATOM     12  H   UNL     1      18.082 -35.221 152.883  1.00  0.00     0.158 HD
ATOM     13  H   UNL     1      19.514 -35.904 152.044  1.00  0.00     0.158 HD
ENDBRANCH   7  11
TORSDOF 1
ENDMDL
MODEL 6
REMARK VINA RESULT:    -3.994     17.587     18.074
REMARK INTER + INTRA:          -4.111
REMARK INTER:                  -4.111
REMARK INTRA:                   0.000
REMARK UNBOUND:                 0.000
REMARK SMILES Nc1ncnc2nc[nH]c12
REMARK SMILES IDX 8 1 7 2 6 3 5 4 4 5 3 6 2 7 10 8 9 9 1 11
REMARK H PARENT 9 10 1 12 1 13
REMARK Flexibility Score: inf
ROOT
ATOM      1  C   UNL     1      28.883 -51.085 152.372  1.00  0.00     0.199 A 
ATOM      2  N   UNL     1      28.578 -50.730 151.095  1.00  0.00    -0.217 NA
ATOM      3  C   UNL     1      27.331 -51.209 150.955  1.00  0.00     0.182 A 
ATOM      4  N   UNL     1      26.549 -51.122 149.852  1.00  0.00    -0.215 NA
ATOM      5  C   UNL     1      25.299 -51.673 149.901  1.00  0.00     0.226 A 
ATOM      6  N   UNL     1      24.856 -52.294 151.042  1.00  0.00    -0.217 NA
ATOM      7  C   UNL     1      25.642 -52.382 152.156  1.00  0.00     0.152 A 
ATOM      8  C   UNL     1      26.912 -51.816 152.089  1.00  0.00     0.127 A 
ATOM      9  N   UNL     1      27.884 -51.750 153.007  1.00  0.00    -0.340 N 
ATOM     10  H   UNL     1      27.888 -52.120 153.984  1.00  0.00     0.168 HD
ENDROOT
BRANCH   7  11
ATOM     11  N   UNL     1      25.159 -53.033 153.332  1.00  0.00    -0.382 N 
ATOM     12  H   UNL     1      25.645 -53.883 153.694  1.00  0.00     0.158 HD
ATOM     13  H   UNL     1      24.324 -52.678 153.846  1.00  0.00     0.158 HD
ENDBRANCH   7  11
TORSDOF 1
ENDMDL
MODEL 7
REMARK VINA RESULT:    -3.896     17.814     18.472
REMARK INTER + INTRA:          -4.010
REMARK INTER:                  -4.010
REMARK INTRA:                   0.000
REMARK UNBOUND:                 0.000
REMARK SMILES Nc1ncnc2nc[nH]c12
REMARK SMILES IDX 8 1 7 2 6 3 5 4 4 5 3 6 2 7 10 8 9 9 1 11
REMARK H PARENT 9 10 1 12 1 13
REMARK Flexibility Score: inf
ROOT
ATOM      1  C   UNL     1      28.360 -51.660 152.684  1.00  0.00     0.199 A 
ATOM      2  N   UNL     1      27.313 -50.797 152.580  1.00  0.00    -0.217 NA
ATOM      3  C   UNL     1      26.808 -51.106 151.374  1.00  0.00     0.182 A 
ATOM      4  N   UNL     1      25.737 -50.533 150.775  1.00  0.00    -0.215 NA
ATOM      5  C   UNL     1      25.371 -50.985 149.537  1.00  0.00     0.226 A 
ATOM      6  N   UNL     1      26.075 -51.992 148.927  1.00  0.00    -0.217 NA
ATOM      7  C   UNL     1      27.154 -52.572 149.530  1.00  0.00     0.152 A 
ATOM      8  C   UNL     1      27.515 -52.100 150.790  1.00  0.00     0.127 A 
ATOM      9  N   UNL     1      28.509 -52.471 151.606  1.00  0.00    -0.340 N 
ATOM     10  H   UNL     1      29.235 -53.206 151.460  1.00  0.00     0.168 HD
ENDROOT
BRANCH   7  11
ATOM     11  N   UNL     1      27.872 -53.620 148.876  1.00  0.00    -0.382 N 
ATOM     12  H   UNL     1      27.502 -54.595 148.893  1.00  0.00     0.158 HD
ATOM     13  H   UNL     1      28.769 -53.434 148.375  1.00  0.00     0.158 HD
ENDBRANCH   7  11
TORSDOF 1
ENDMDL
MODEL 8
REMARK VINA RESULT:    -3.828     18.008     18.593
REMARK INTER + INTRA:          -3.940
REMARK INTER:                  -3.940
REMARK INTRA:                   0.000
REMARK UNBOUND:                 0.000
REMARK SMILES Nc1ncnc2nc[nH]c12
REMARK SMILES IDX 8 1 7 2 6 3 5 4 4 5 3 6 2 7 10 8 9 9 1 11
REMARK H PARENT 9 10 1 12 1 13
REMARK Flexibility Score: inf
ROOT
ATOM      1  C   UNL     1      27.611 -52.619 149.162  1.00  0.00     0.199 A 
ATOM      2  N   UNL     1      26.553 -52.949 149.953  1.00  0.00    -0.217 NA
ATOM      3  C   UNL     1      26.821 -52.274 151.083  1.00  0.00     0.182 A 
ATOM      4  N   UNL     1      26.071 -52.255 152.211  1.00  0.00    -0.215 NA
ATOM      5  C   UNL     1      26.510 -51.503 153.265  1.00  0.00     0.226 A 
ATOM      6  N   UNL     1      27.678 -50.790 153.174  1.00  0.00    -0.217 NA
ATOM      7  C   UNL     1      28.435 -50.806 152.037  1.00  0.00     0.152 A 
ATOM      8  C   UNL     1      27.975 -51.577 150.973  1.00  0.00     0.127 A 
ATOM      9  N   UNL     1      28.497 -51.781 149.757  1.00  0.00    -0.340 N 
ATOM     10  H   UNL     1      29.377 -51.395 149.350  1.00  0.00     0.168 HD
ENDROOT
BRANCH   7  11
ATOM     11  N   UNL     1      29.648 -50.056 151.965  1.00  0.00    -0.382 N 
ATOM     12  H   UNL     1      30.510 -50.494 151.572  1.00  0.00     0.158 HD
ATOM     13  H   UNL     1      29.697 -49.068 152.298  1.00  0.00     0.158 HD
ENDBRANCH   7  11
TORSDOF 1
ENDMDL
MODEL 9
REMARK VINA RESULT:    -3.750      1.796      2.765
REMARK INTER + INTRA:          -3.860
REMARK INTER:                  -3.860
REMARK INTRA:                   0.000
REMARK UNBOUND:                 0.000
REMARK SMILES Nc1ncnc2nc[nH]c12
REMARK SMILES IDX 8 1 7 2 6 3 5 4 4 5 3 6 2 7 10 8 9 9 1 11
REMARK H PARENT 9 10 1 12 1 13
REMARK Flexibility Score: inf
ROOT
ATOM      1  C   UNL     1      16.128 -34.203 149.203  1.00  0.00     0.199 A 
ATOM      2  N   UNL     1      16.818 -34.834 148.214  1.00  0.00    -0.217 NA
ATOM      3  C   UNL     1      17.257 -35.941 148.833  1.00  0.00     0.182 A 
ATOM      4  N   UNL     1      18.008 -36.929 148.288  1.00  0.00    -0.215 NA
ATOM      5  C   UNL     1      18.359 -37.985 149.083  1.00  0.00     0.226 A 
ATOM      6  N   UNL     1      17.958 -38.035 150.394  1.00  0.00    -0.217 NA
ATOM      7  C   UNL     1      17.201 -37.041 150.945  1.00  0.00     0.152 A 
ATOM      8  C   UNL     1      16.852 -35.972 150.123  1.00  0.00     0.127 A 
ATOM      9  N   UNL     1      16.130 -34.875 150.383  1.00  0.00    -0.340 N 
ATOM     10  H   UNL     1      15.672 -34.589 151.276  1.00  0.00     0.168 HD
ENDROOT
BRANCH   7  11
ATOM     11  N   UNL     1      16.795 -37.113 152.312  1.00  0.00    -0.382 N 
ATOM     12  H   UNL     1      16.196 -37.904 152.637  1.00  0.00     0.158 HD
ATOM     13  H   UNL     1      17.085 -36.389 153.005  1.00  0.00     0.158 HD
ENDBRANCH   7  11
TORSDOF 1
ENDMDL
