MODEL 1
REMARK VINA RESULT:    -4.779      0.000      0.000
REMARK INTER + INTRA:          -5.640
REMARK INTER:                  -5.478
REMARK INTRA:                  -0.162
REMARK UNBOUND:                -0.162
REMARK SMILES CC=Cc1ccc(O)c(OC)c1
REMARK SMILES IDX 4 1 12 2 9 3 7 4 6 5 5 6 3 7 1 8 2 9 10 10 11 11 8 12
REMARK H PARENT 8 13
REMARK Flexibility Score: inf
ROOT
ATOM      1  C   UNL     1      15.694 -10.432  12.235  1.00  0.00    -0.022 A 
ATOM      2  C   UNL     1      14.309 -10.539  12.480  1.00  0.00     0.058 A 
ATOM      3  C   UNL     1      13.714 -11.799  12.703  1.00  0.00     0.161 A 
ATOM      4  C   UNL     1      14.513 -12.949  12.688  1.00  0.00     0.157 A 
ATOM      5  C   UNL     1      15.891 -12.844  12.462  1.00  0.00     0.051 A 
ATOM      6  C   UNL     1      16.476 -11.598  12.243  1.00  0.00     0.012 A 
ENDROOT
BRANCH   1   7
ATOM      7  C   UNL     1      16.365  -9.130  12.005  1.00  0.00     0.003 C 
ATOM      8  C   UNL     1      18.142  -7.446  12.283  1.00  0.00     0.035 C 
ATOM      9  C   UNL     1      17.537  -8.787  12.553  1.00  0.00    -0.030 C 
ENDBRANCH   1   7
BRANCH   3  10
ATOM     10  O   UNL     1      12.339 -11.945  12.945  1.00  0.00    -0.493 OA
ATOM     11  C   UNL     1      11.355 -12.124  11.932  1.00  0.00     0.278 C 
ENDBRANCH   3  10
BRANCH   4  12
ATOM     12  O   UNL     1      13.930 -14.196  12.905  1.00  0.00    -0.504 OA
ATOM     13  H   UNL     1      13.648 -14.497  13.832  1.00  0.00     0.293 HD
ENDBRANCH   4  12
TORSDOF 3
ENDMDL
MODEL 2
REMARK VINA RESULT:    -4.760      2.291      4.906
REMARK INTER + INTRA:          -5.617
REMARK INTER:                  -5.430
REMARK INTRA:                  -0.188
REMARK UNBOUND:                -0.162
REMARK SMILES CC=Cc1ccc(O)c(OC)c1
REMARK SMILES IDX 4 1 12 2 9 3 7 4 6 5 5 6 3 7 1 8 2 9 10 10 11 11 8 12
REMARK H PARENT 8 13
REMARK Flexibility Score: inf
ROOT
ATOM      1  C   UNL     1      13.563 -11.278  12.389  1.00  0.00    -0.022 A 
ATOM      2  C   UNL     1      14.221 -10.032  12.344  1.00  0.00     0.058 A 
ATOM      3  C   UNL     1      15.630  -9.964  12.333  1.00  0.00     0.161 A 
ATOM      4  C   UNL     1      16.377 -11.149  12.359  1.00  0.00     0.157 A 
ATOM      5  C   UNL     1      15.725 -12.389  12.388  1.00  0.00     0.051 A 
ATOM      6  C   UNL     1      14.332 -12.452  12.397  1.00  0.00     0.012 A 
ENDROOT
BRANCH   1   7
ATOM      7  C   UNL     1      12.085 -11.400  12.392  1.00  0.00     0.003 C 
ATOM      8  C   UNL     1       9.927 -12.501  11.941  1.00  0.00     0.035 C 
ATOM      9  C   UNL     1      11.422 -12.460  11.915  1.00  0.00    -0.030 C 
ENDBRANCH   1   7
BRANCH   3  10
ATOM     10  O   UNL     1      16.320  -8.742  12.293  1.00  0.00    -0.493 OA
ATOM     11  C   UNL     1      16.148  -7.685  13.232  1.00  0.00     0.278 C 
ENDBRANCH   3  10
BRANCH   4  12
ATOM     12  O   UNL     1      17.768 -11.088  12.351  1.00  0.00    -0.504 OA
ATOM     13  H   UNL     1      18.322 -11.656  11.721  1.00  0.00     0.293 HD
ENDBRANCH   4  12
TORSDOF 3
ENDMDL
MODEL 3
REMARK VINA RESULT:    -4.591      2.168      2.510
REMARK INTER + INTRA:          -5.424
REMARK INTER:                  -5.255
REMARK INTRA:                  -0.170
REMARK UNBOUND:                -0.162
REMARK SMILES CC=Cc1ccc(O)c(OC)c1
REMARK SMILES IDX 4 1 12 2 9 3 7 4 6 5 5 6 3 7 1 8 2 9 10 10 11 11 8 12
REMARK H PARENT 8 13
REMARK Flexibility Score: inf
ROOT
ATOM      1  C   UNL     1      15.053  -8.960  12.590  1.00  0.00    -0.022 A 
ATOM      2  C   UNL     1      14.212 -10.092  12.584  1.00  0.00     0.058 A 
ATOM      3  C   UNL     1      14.757 -11.392  12.530  1.00  0.00     0.161 A 
ATOM      4  C   UNL     1      16.148 -11.554  12.490  1.00  0.00     0.157 A 
ATOM      5  C   UNL     1      16.986 -10.432  12.512  1.00  0.00     0.051 A 
ATOM      6  C   UNL     1      16.444  -9.148  12.567  1.00  0.00     0.012 A 
ENDROOT
BRANCH   1   7
ATOM      7  C   UNL     1      14.527  -7.575  12.656  1.00  0.00     0.003 C 
ATOM      8  C   UNL     1      14.424  -5.255  13.479  1.00  0.00     0.035 C 
ATOM      9  C   UNL     1      15.021  -6.626  13.460  1.00  0.00    -0.030 C 
ENDBRANCH   1   7
BRANCH   3  10
ATOM     10  O   UNL     1      13.952 -12.541  12.518  1.00  0.00    -0.493 OA
ATOM     11  C   UNL     1      12.586 -12.575  12.920  1.00  0.00     0.278 C 
ENDBRANCH   3  10
BRANCH   4  12
ATOM     12  O   UNL     1      16.692 -12.835  12.434  1.00  0.00    -0.504 OA
ATOM     13  H   UNL     1      17.638 -12.997  12.108  1.00  0.00     0.293 HD
ENDBRANCH   4  12
TORSDOF 3
ENDMDL
MODEL 4
REMARK VINA RESULT:    -4.580      3.082      4.046
REMARK INTER + INTRA:          -5.412
REMARK INTER:                  -5.251
REMARK INTRA:                  -0.160
REMARK UNBOUND:                -0.162
REMARK SMILES CC=Cc1ccc(O)c(OC)c1
REMARK SMILES IDX 4 1 12 2 9 3 7 4 6 5 5 6 3 7 1 8 2 9 10 10 11 11 8 12
REMARK H PARENT 8 13
REMARK Flexibility Score: inf
ROOT
ATOM      1  C   UNL     1      15.984  -7.335  13.348  1.00  0.00    -0.022 A 
ATOM      2  C   UNL     1      15.200  -8.375  12.806  1.00  0.00     0.058 A 
ATOM      3  C   UNL     1      15.790  -9.603  12.441  1.00  0.00     0.161 A 
ATOM      4  C   UNL     1      17.166  -9.790  12.631  1.00  0.00     0.157 A 
ATOM      5  C   UNL     1      17.943  -8.765  13.185  1.00  0.00     0.051 A 
ATOM      6  C   UNL     1      17.357  -7.552  13.545  1.00  0.00     0.012 A 
ENDROOT
BRANCH   1   7
ATOM      7  C   UNL     1      15.407  -6.031  13.754  1.00  0.00     0.003 C 
ATOM      8  C   UNL     1      13.636  -4.518  14.557  1.00  0.00     0.035 C 
ATOM      9  C   UNL     1      14.148  -5.871  14.180  1.00  0.00    -0.030 C 
ENDBRANCH   1   7
BRANCH   3  10
ATOM     10  O   UNL     1      15.044 -10.659  11.894  1.00  0.00    -0.493 OA
ATOM     11  C   UNL     1      13.981 -11.329  12.564  1.00  0.00     0.278 C 
ENDBRANCH   3  10
BRANCH   4  12
ATOM     12  O   UNL     1      17.753 -11.000  12.270  1.00  0.00    -0.504 OA
ATOM     13  H   UNL     1      18.376 -11.497  12.898  1.00  0.00     0.293 HD
ENDBRANCH   4  12
TORSDOF 3
ENDMDL
MODEL 5
REMARK VINA RESULT:    -4.455      1.290      2.660
REMARK INTER + INTRA:          -5.268
REMARK INTER:                  -5.106
REMARK INTRA:                  -0.162
REMARK UNBOUND:                -0.162
REMARK SMILES CC=Cc1ccc(O)c(OC)c1
REMARK SMILES IDX 4 1 12 2 9 3 7 4 6 5 5 6 3 7 1 8 2 9 10 10 11 11 8 12
REMARK H PARENT 8 13
REMARK Flexibility Score: inf
ROOT
ATOM      1  C   UNL     1      15.210  -9.289  12.360  1.00  0.00    -0.022 A 
ATOM      2  C   UNL     1      15.047 -10.688  12.292  1.00  0.00     0.058 A 
ATOM      3  C   UNL     1      13.789 -11.277  12.533  1.00  0.00     0.161 A 
ATOM      4  C   UNL     1      12.692 -10.458  12.834  1.00  0.00     0.157 A 
ATOM      5  C   UNL     1      12.848  -9.068  12.886  1.00  0.00     0.051 A 
ATOM      6  C   UNL     1      14.093  -8.488  12.646  1.00  0.00     0.012 A 
ENDROOT
BRANCH   1   7
ATOM      7  C   UNL     1      16.511  -8.624  12.105  1.00  0.00     0.003 C 
ATOM      8  C   UNL     1      18.456  -7.218  12.665  1.00  0.00     0.035 C 
ATOM      9  C   UNL     1      17.153  -7.868  13.004  1.00  0.00    -0.030 C 
ENDBRANCH   1   7
BRANCH   3  10
ATOM     10  O   UNL     1      13.589 -12.665  12.479  1.00  0.00    -0.493 OA
ATOM     11  C   UNL     1      14.621 -13.636  12.623  1.00  0.00     0.278 C 
ENDBRANCH   3  10
BRANCH   4  12
ATOM     12  O   UNL     1      11.447 -11.035  13.076  1.00  0.00    -0.504 OA
ATOM     13  H   UNL     1      11.357 -11.923  13.558  1.00  0.00     0.293 HD
ENDBRANCH   4  12
TORSDOF 3
ENDMDL
MODEL 6
REMARK VINA RESULT:    -4.313      3.285      5.207
REMARK INTER + INTRA:          -5.106
REMARK INTER:                  -4.948
REMARK INTRA:                  -0.158
REMARK UNBOUND:                -0.162
REMARK SMILES CC=Cc1ccc(O)c(OC)c1
REMARK SMILES IDX 4 1 12 2 9 3 7 4 6 5 5 6 3 7 1 8 2 9 10 10 11 11 8 12
REMARK H PARENT 8 13
REMARK Flexibility Score: inf
ROOT
ATOM      1  C   UNL     1      15.977 -10.165  12.581  1.00  0.00    -0.022 A 
ATOM      2  C   UNL     1      15.350  -8.901  12.577  1.00  0.00     0.058 A 
ATOM      3  C   UNL     1      16.058  -7.747  12.972  1.00  0.00     0.161 A 
ATOM      4  C   UNL     1      17.398  -7.862  13.362  1.00  0.00     0.157 A 
ATOM      5  C   UNL     1      18.028  -9.112  13.352  1.00  0.00     0.051 A 
ATOM      6  C   UNL     1      17.325 -10.252  12.960  1.00  0.00     0.012 A 
ENDROOT
BRANCH   1   7
ATOM      7  C   UNL     1      15.276 -11.404  12.166  1.00  0.00     0.003 C 
ATOM      8  C   UNL     1      13.390 -12.986  12.073  1.00  0.00     0.035 C 
ATOM      9  C   UNL     1      14.021 -11.707  12.521  1.00  0.00    -0.030 C 
ENDBRANCH   1   7
BRANCH   3  10
ATOM     10  O   UNL     1      15.466  -6.474  12.985  1.00  0.00    -0.493 OA
ATOM     11  C   UNL     1      14.322  -6.123  13.757  1.00  0.00     0.278 C 
ENDBRANCH   3  10
BRANCH   4  12
ATOM     12  O   UNL     1      18.101  -6.725  13.756  1.00  0.00    -0.504 OA
ATOM     13  H   UNL     1      17.700  -5.798  13.676  1.00  0.00     0.293 HD
ENDBRANCH   4  12
TORSDOF 3
ENDMDL
MODEL 7
REMARK VINA RESULT:    -4.221      4.801      6.550
REMARK INTER + INTRA:          -5.000
REMARK INTER:                  -4.829
REMARK INTRA:                  -0.171
REMARK UNBOUND:                -0.162
REMARK SMILES CC=Cc1ccc(O)c(OC)c1
REMARK SMILES IDX 4 1 12 2 9 3 7 4 6 5 5 6 3 7 1 8 2 9 10 10 11 11 8 12
REMARK H PARENT 8 13
REMARK Flexibility Score: inf
ROOT
ATOM      1  C   UNL     1      16.677  -6.211  15.831  1.00  0.00    -0.022 A 
ATOM      2  C   UNL     1      17.526  -7.094  15.132  1.00  0.00     0.058 A 
ATOM      3  C   UNL     1      17.226  -7.483  13.810  1.00  0.00     0.161 A 
ATOM      4  C   UNL     1      16.078  -6.978  13.187  1.00  0.00     0.157 A 
ATOM      5  C   UNL     1      15.241  -6.089  13.873  1.00  0.00     0.051 A 
ATOM      6  C   UNL     1      15.541  -5.705  15.180  1.00  0.00     0.012 A 
ENDROOT
BRANCH   1   7
ATOM      7  C   UNL     1      16.956  -5.767  17.218  1.00  0.00     0.003 C 
ATOM      8  C   UNL     1      16.437  -4.685  19.370  1.00  0.00     0.035 C 
ATOM      9  C   UNL     1      16.074  -5.114  17.984  1.00  0.00    -0.030 C 
ENDBRANCH   1   7
BRANCH   3  10
ATOM     10  O   UNL     1      18.045  -8.363  13.085  1.00  0.00    -0.493 OA
ATOM     11  C   UNL     1      17.909  -9.781  13.086  1.00  0.00     0.278 C 
ENDBRANCH   3  10
BRANCH   4  12
ATOM     12  O   UNL     1      15.776  -7.361  11.882  1.00  0.00    -0.504 OA
ATOM     13  H   UNL     1      15.351  -8.258  11.677  1.00  0.00     0.293 HD
ENDBRANCH   4  12
TORSDOF 3
ENDMDL
MODEL 8
REMARK VINA RESULT:    -4.215      3.703      5.021
REMARK INTER + INTRA:          -4.993
REMARK INTER:                  -4.849
REMARK INTRA:                  -0.144
REMARK UNBOUND:                -0.162
REMARK SMILES CC=Cc1ccc(O)c(OC)c1
REMARK SMILES IDX 4 1 12 2 9 3 7 4 6 5 5 6 3 7 1 8 2 9 10 10 11 11 8 12
REMARK H PARENT 8 13
REMARK Flexibility Score: inf
ROOT
ATOM      1  C   UNL     1      15.422  -7.498  12.951  1.00  0.00    -0.022 A 
ATOM      2  C   UNL     1      16.669  -7.685  13.582  1.00  0.00     0.058 A 
ATOM      3  C   UNL     1      17.412  -8.865  13.369  1.00  0.00     0.161 A 
ATOM      4  C   UNL     1      16.905  -9.853  12.516  1.00  0.00     0.157 A 
ATOM      5  C   UNL     1      15.674  -9.663  11.875  1.00  0.00     0.051 A 
ATOM      6  C   UNL     1      14.942  -8.495  12.087  1.00  0.00     0.012 A 
ENDROOT
BRANCH   1   7
ATOM      7  C   UNL     1      14.610  -6.271  13.137  1.00  0.00     0.003 C 
ATOM      8  C   UNL     1      13.314  -4.617  14.423  1.00  0.00     0.035 C 
ATOM      9  C   UNL     1      14.140  -5.859  14.321  1.00  0.00    -0.030 C 
ENDBRANCH   1   7
BRANCH   3  10
ATOM     10  O   UNL     1      18.654  -9.088  13.984  1.00  0.00    -0.493 OA
ATOM     11  C   UNL     1      18.827  -9.688  15.263  1.00  0.00     0.278 C 
ENDBRANCH   3  10
BRANCH   4  12
ATOM     12  O   UNL     1      17.633 -11.022  12.304  1.00  0.00    -0.504 OA
ATOM     13  H   UNL     1      18.319 -11.349  12.975  1.00  0.00     0.293 HD
ENDBRANCH   4  12
TORSDOF 3
ENDMDL
MODEL 9
REMARK VINA RESULT:    -4.121      4.913      6.388
REMARK INTER + INTRA:          -4.885
REMARK INTER:                  -4.740
REMARK INTRA:                  -0.146
REMARK UNBOUND:                -0.162
REMARK SMILES CC=Cc1ccc(O)c(OC)c1
REMARK SMILES IDX 4 1 12 2 9 3 7 4 6 5 5 6 3 7 1 8 2 9 10 10 11 11 8 12
REMARK H PARENT 8 13
REMARK Flexibility Score: inf
ROOT
ATOM      1  C   UNL     1      16.886  -6.299  15.915  1.00  0.00    -0.022 A 
ATOM      2  C   UNL     1      15.858  -5.887  15.042  1.00  0.00     0.058 A 
ATOM      3  C   UNL     1      15.755  -6.432  13.745  1.00  0.00     0.161 A 
ATOM      4  C   UNL     1      16.682  -7.397  13.329  1.00  0.00     0.157 A 
ATOM      5  C   UNL     1      17.694  -7.820  14.199  1.00  0.00     0.051 A 
ATOM      6  C   UNL     1      17.791  -7.280  15.481  1.00  0.00     0.012 A 
ENDROOT
BRANCH   1   7
ATOM      7  C   UNL     1      17.027  -5.763  17.290  1.00  0.00     0.003 C 
ATOM      8  C   UNL     1      16.272  -4.614  19.335  1.00  0.00     0.035 C 
ATOM      9  C   UNL     1      16.045  -5.142  17.954  1.00  0.00    -0.030 C 
ENDBRANCH   1   7
BRANCH   3  10
ATOM     10  O   UNL     1      14.749  -6.043  12.847  1.00  0.00    -0.493 OA
ATOM     11  C   UNL     1      14.016  -4.825  12.933  1.00  0.00     0.278 C 
ENDBRANCH   3  10
BRANCH   4  12
ATOM     12  O   UNL     1      16.587  -7.936  12.047  1.00  0.00    -0.504 OA
ATOM     13  H   UNL     1      17.051  -7.507  11.255  1.00  0.00     0.293 HD
ENDBRANCH   4  12
TORSDOF 3
ENDMDL
