MODEL 1
REMARK VINA RESULT:    -4.448      0.000      0.000
REMARK INTER + INTRA:          -5.993
REMARK INTER:                  -5.748
REMARK INTRA:                  -0.245
REMARK UNBOUND:                -0.245
REMARK SMILES CCCCCCC(=O)[O-]
REMARK SMILES IDX 5 1 6 2 7 3 8 4 9 5 4 6 3 7 2 8 1 9
REMARK H PARENT
REMARK Flexibility Score: inf
ROOT
ATOM      1  C   UNL     1     -14.412   2.384  -8.957  1.00  0.00     0.006 C 
ENDROOT
BRANCH   1   2
ATOM      2  C   UNL     1     -12.998   2.841  -9.342  1.00  0.00     0.053 C 
BRANCH   2   3
ATOM      3  C   UNL     1     -12.368   3.666  -8.261  1.00  0.00     0.041 C 
ATOM      4  O   UNL     1     -13.084   4.236  -7.398  1.00  0.00    -0.550 OA
ATOM      5  O   UNL     1     -10.985   3.782  -8.194  1.00  0.00    -0.550 OA
ENDBRANCH   2   3
ENDBRANCH   1   2
BRANCH   1   6
ATOM      6  C   UNL     1     -15.047   1.491 -10.036  1.00  0.00     0.000 C 
BRANCH   6   7
ATOM      7  C   UNL     1     -14.941  -0.005  -9.704  1.00  0.00    -0.000 C 
BRANCH   7   8
ATOM      8  C   UNL     1     -14.105  -0.783 -10.731  1.00  0.00    -0.003 C 
ATOM      9  C   UNL     1     -12.620  -0.731 -10.382  1.00  0.00     0.004 C 
ENDBRANCH   7   8
ENDBRANCH   6   7
ENDBRANCH   1   6
TORSDOF 5
ENDMDL
MODEL 2
REMARK VINA RESULT:    -4.437      2.981      4.639
REMARK INTER + INTRA:          -5.980
REMARK INTER:                  -5.817
REMARK INTRA:                  -0.163
REMARK UNBOUND:                -0.245
REMARK SMILES CCCCCCC(=O)[O-]
REMARK SMILES IDX 5 1 6 2 7 3 8 4 9 5 4 6 3 7 2 8 1 9
REMARK H PARENT
REMARK Flexibility Score: inf
ROOT
ATOM      1  C   UNL     1     -12.475   0.562  -9.653  1.00  0.00     0.006 C 
ENDROOT
BRANCH   1   2
ATOM      2  C   UNL     1     -12.138  -0.742 -10.388  1.00  0.00     0.053 C 
BRANCH   2   3
ATOM      3  C   UNL     1     -10.819  -1.300  -9.952  1.00  0.00     0.041 C 
ATOM      4  O   UNL     1      -9.895  -1.476 -10.789  1.00  0.00    -0.550 OA
ATOM      5  O   UNL     1     -10.600  -1.602  -8.613  1.00  0.00    -0.550 OA
ENDBRANCH   2   3
ENDBRANCH   1   2
BRANCH   1   6
ATOM      6  C   UNL     1     -13.974   0.900  -9.726  1.00  0.00     0.000 C 
BRANCH   6   7
ATOM      7  C   UNL     1     -14.272   2.358  -9.342  1.00  0.00    -0.000 C 
BRANCH   7   8
ATOM      8  C   UNL     1     -12.997   3.172  -9.072  1.00  0.00    -0.003 C 
ATOM      9  C   UNL     1     -13.227   4.204  -7.972  1.00  0.00     0.004 C 
ENDBRANCH   7   8
ENDBRANCH   6   7
ENDBRANCH   1   6
TORSDOF 5
ENDMDL
MODEL 3
REMARK VINA RESULT:    -4.293      4.190      5.431
REMARK INTER + INTRA:          -5.794
REMARK INTER:                  -5.635
REMARK INTRA:                  -0.158
REMARK UNBOUND:                -0.245
REMARK SMILES CCCCCCC(=O)[O-]
REMARK SMILES IDX 5 1 6 2 7 3 8 4 9 5 4 6 3 7 2 8 1 9
REMARK H PARENT
REMARK Flexibility Score: inf
ROOT
ATOM      1  C   UNL     1     -10.905  -0.988 -10.123  1.00  0.00     0.006 C 
ENDROOT
BRANCH   1   2
ATOM      2  C   UNL     1     -10.652  -1.769  -8.827  1.00  0.00     0.053 C 
BRANCH   2   3
ATOM      3  C   UNL     1     -10.048  -3.113  -9.097  1.00  0.00     0.041 C 
ATOM      4  O   UNL     1      -9.602  -3.811  -8.149  1.00  0.00    -0.550 OA
ATOM      5  O   UNL     1     -10.002  -3.606 -10.395  1.00  0.00    -0.550 OA
ENDBRANCH   2   3
ENDBRANCH   1   2
BRANCH   1   6
ATOM      6  C   UNL     1     -12.172  -0.120 -10.041  1.00  0.00     0.000 C 
BRANCH   6   7
ATOM      7  C   UNL     1     -13.430  -0.863 -10.517  1.00  0.00    -0.000 C 
BRANCH   7   8
ATOM      8  C   UNL     1     -14.693   0.009 -10.452  1.00  0.00    -0.003 C 
ATOM      9  C   UNL     1     -14.471   1.235  -9.572  1.00  0.00     0.004 C 
ENDBRANCH   7   8
ENDBRANCH   6   7
ENDBRANCH   1   6
TORSDOF 5
ENDMDL
MODEL 4
REMARK VINA RESULT:    -4.208      3.161      4.806
REMARK INTER + INTRA:          -5.683
REMARK INTER:                  -5.481
REMARK INTRA:                  -0.202
REMARK UNBOUND:                -0.245
REMARK SMILES CCCCCCC(=O)[O-]
REMARK SMILES IDX 5 1 6 2 7 3 8 4 9 5 4 6 3 7 2 8 1 9
REMARK H PARENT
REMARK Flexibility Score: inf
ROOT
ATOM      1  C   UNL     1     -14.974   0.867  -9.329  1.00  0.00     0.006 C 
ENDROOT
BRANCH   1   2
ATOM      2  C   UNL     1     -14.983  -0.051 -10.557  1.00  0.00     0.053 C 
BRANCH   2   3
ATOM      3  C   UNL     1     -13.970  -1.149 -10.438  1.00  0.00     0.041 C 
ATOM      4  O   UNL     1     -12.740  -0.887 -10.493  1.00  0.00    -0.550 OA
ATOM      5  O   UNL     1     -14.386  -2.459 -10.238  1.00  0.00    -0.550 OA
ENDBRANCH   2   3
ENDBRANCH   1   2
BRANCH   1   6
ATOM      6  C   UNL     1     -14.390   2.255  -9.645  1.00  0.00     0.000 C 
BRANCH   6   7
ATOM      7  C   UNL     1     -12.884   2.345  -9.350  1.00  0.00    -0.000 C 
BRANCH   7   8
ATOM      8  C   UNL     1     -12.495   3.653  -8.645  1.00  0.00    -0.003 C 
ATOM      9  C   UNL     1     -13.730   4.394  -8.140  1.00  0.00     0.004 C 
ENDBRANCH   7   8
ENDBRANCH   6   7
ENDBRANCH   1   6
TORSDOF 5
ENDMDL
MODEL 5
REMARK VINA RESULT:    -4.168      4.696      6.413
REMARK INTER + INTRA:          -5.632
REMARK INTER:                  -5.523
REMARK INTRA:                  -0.109
REMARK UNBOUND:                -0.245
REMARK SMILES CCCCCCC(=O)[O-]
REMARK SMILES IDX 5 1 6 2 7 3 8 4 9 5 4 6 3 7 2 8 1 9
REMARK H PARENT
REMARK Flexibility Score: inf
ROOT
ATOM      1  C   UNL     1     -11.335  -2.778  -9.508  1.00  0.00     0.006 C 
ENDROOT
BRANCH   1   2
ATOM      2  C   UNL     1     -10.225  -3.751  -9.928  1.00  0.00     0.053 C 
BRANCH   2   3
ATOM      3  C   UNL     1      -9.404  -4.196  -8.756  1.00  0.00     0.041 C 
ATOM      4  O   UNL     1      -8.379  -3.550  -8.417  1.00  0.00    -0.550 OA
ATOM      5  O   UNL     1      -9.789  -5.311  -8.022  1.00  0.00    -0.550 OA
ENDBRANCH   2   3
ENDBRANCH   1   2
BRANCH   1   6
ATOM      6  C   UNL     1     -11.054  -1.340  -9.975  1.00  0.00     0.000 C 
BRANCH   6   7
ATOM      7  C   UNL     1     -12.330  -0.596 -10.401  1.00  0.00    -0.000 C 
BRANCH   7   8
ATOM      8  C   UNL     1     -12.547   0.706  -9.617  1.00  0.00    -0.003 C 
ATOM      9  C   UNL     1     -14.004   1.156  -9.690  1.00  0.00     0.004 C 
ENDBRANCH   7   8
ENDBRANCH   6   7
ENDBRANCH   1   6
TORSDOF 5
ENDMDL
MODEL 6
REMARK VINA RESULT:    -3.893      5.857      7.512
REMARK INTER + INTRA:          -5.276
REMARK INTER:                  -5.163
REMARK INTRA:                  -0.114
REMARK UNBOUND:                -0.245
REMARK SMILES CCCCCCC(=O)[O-]
REMARK SMILES IDX 5 1 6 2 7 3 8 4 9 5 4 6 3 7 2 8 1 9
REMARK H PARENT
REMARK Flexibility Score: inf
ROOT
ATOM      1  C   UNL     1     -10.027  -3.857  -9.576  1.00  0.00     0.006 C 
ENDROOT
BRANCH   1   2
ATOM      2  C   UNL     1      -9.568  -4.494  -8.258  1.00  0.00     0.053 C 
BRANCH   2   3
ATOM      3  C   UNL     1     -10.226  -5.819  -8.023  1.00  0.00     0.041 C 
ATOM      4  O   UNL     1     -10.336  -6.276  -6.855  1.00  0.00    -0.550 OA
ATOM      5  O   UNL     1     -10.743  -6.538  -9.094  1.00  0.00    -0.550 OA
ENDBRANCH   2   3
ENDBRANCH   1   2
BRANCH   1   6
ATOM      6  C   UNL     1     -11.209  -2.893  -9.375  1.00  0.00     0.000 C 
BRANCH   6   7
ATOM      7  C   UNL     1     -10.783  -1.417  -9.422  1.00  0.00    -0.000 C 
BRANCH   7   8
ATOM      8  C   UNL     1     -11.640  -0.583 -10.386  1.00  0.00    -0.003 C 
ATOM      9  C   UNL     1     -12.363   0.540  -9.648  1.00  0.00     0.004 C 
ENDBRANCH   7   8
ENDBRANCH   6   7
ENDBRANCH   1   6
TORSDOF 5
ENDMDL
MODEL 7
REMARK VINA RESULT:    -3.860      3.191      4.517
REMARK INTER + INTRA:          -5.234
REMARK INTER:                  -5.079
REMARK INTRA:                  -0.155
REMARK UNBOUND:                -0.245
REMARK SMILES CCCCCCC(=O)[O-]
REMARK SMILES IDX 5 1 6 2 7 3 8 4 9 5 4 6 3 7 2 8 1 9
REMARK H PARENT
REMARK Flexibility Score: inf
ROOT
ATOM      1  C   UNL     1     -11.192  -0.630  -9.471  1.00  0.00     0.006 C 
ENDROOT
BRANCH   1   2
ATOM      2  C   UNL     1     -12.474  -0.320 -10.255  1.00  0.00     0.053 C 
BRANCH   2   3
ATOM      3  C   UNL     1     -13.208   0.852  -9.678  1.00  0.00     0.041 C 
ATOM      4  O   UNL     1     -12.580   1.884  -9.325  1.00  0.00    -0.550 OA
ATOM      5  O   UNL     1     -14.592   0.812  -9.555  1.00  0.00    -0.550 OA
ENDBRANCH   2   3
ENDBRANCH   1   2
BRANCH   1   6
ATOM      6  C   UNL     1     -10.564  -1.970  -9.891  1.00  0.00     0.000 C 
BRANCH   6   7
ATOM      7  C   UNL     1     -11.369  -3.181  -9.396  1.00  0.00    -0.000 C 
BRANCH   7   8
ATOM      8  C   UNL     1     -10.625  -3.992  -8.325  1.00  0.00    -0.003 C 
ATOM      9  C   UNL     1      -9.113  -3.888  -8.509  1.00  0.00     0.004 C 
ENDBRANCH   7   8
ENDBRANCH   6   7
ENDBRANCH   1   6
TORSDOF 5
ENDMDL
MODEL 8
REMARK VINA RESULT:    -3.850      6.938      8.206
REMARK INTER + INTRA:          -5.221
REMARK INTER:                  -4.918
REMARK INTRA:                  -0.303
REMARK UNBOUND:                -0.245
REMARK SMILES CCCCCCC(=O)[O-]
REMARK SMILES IDX 5 1 6 2 7 3 8 4 9 5 4 6 3 7 2 8 1 9
REMARK H PARENT
REMARK Flexibility Score: inf
ROOT
ATOM      1  C   UNL     1     -10.637  -5.975  -8.705  1.00  0.00     0.006 C 
ENDROOT
BRANCH   1   2
ATOM      2  C   UNL     1     -10.958  -4.478  -8.789  1.00  0.00     0.053 C 
BRANCH   2   3
ATOM      3  C   UNL     1      -9.774  -3.680  -9.242  1.00  0.00     0.041 C 
ATOM      4  O   UNL     1      -8.722  -3.655  -8.551  1.00  0.00    -0.550 OA
ATOM      5  O   UNL     1      -9.824  -2.985 -10.444  1.00  0.00    -0.550 OA
ENDBRANCH   2   3
ENDBRANCH   1   2
BRANCH   1   6
ATOM      6  C   UNL     1     -10.512  -6.462  -7.251  1.00  0.00     0.000 C 
BRANCH   6   7
ATOM      7  C   UNL     1     -10.975  -5.409  -6.232  1.00  0.00    -0.000 C 
BRANCH   7   8
ATOM      8  C   UNL     1     -11.898  -5.994  -5.152  1.00  0.00    -0.003 C 
ATOM      9  C   UNL     1     -13.172  -6.564  -5.767  1.00  0.00     0.004 C 
ENDBRANCH   7   8
ENDBRANCH   6   7
ENDBRANCH   1   6
TORSDOF 5
ENDMDL
MODEL 9
REMARK VINA RESULT:    -3.516     14.753     16.575
REMARK INTER + INTRA:          -4.789
REMARK INTER:                  -4.391
REMARK INTRA:                  -0.399
REMARK UNBOUND:                -0.245
REMARK SMILES CCCCCCC(=O)[O-]
REMARK SMILES IDX 5 1 6 2 7 3 8 4 9 5 4 6 3 7 2 8 1 9
REMARK H PARENT
REMARK Flexibility Score: inf
ROOT
ATOM      1  C   UNL     1     -11.284   3.550   7.181  1.00  0.00     0.006 C 
ENDROOT
BRANCH   1   2
ATOM      2  C   UNL     1     -12.516   4.270   6.618  1.00  0.00     0.053 C 
BRANCH   2   3
ATOM      3  C   UNL     1     -12.357   4.585   5.162  1.00  0.00     0.041 C 
ATOM      4  O   UNL     1     -11.328   4.214   4.540  1.00  0.00    -0.550 OA
ATOM      5  O   UNL     1     -13.361   5.267   4.485  1.00  0.00    -0.550 OA
ENDBRANCH   2   3
ENDBRANCH   1   2
BRANCH   1   6
ATOM      6  C   UNL     1     -10.671   4.298   8.378  1.00  0.00     0.000 C 
BRANCH   6   7
ATOM      7  C   UNL     1     -10.250   5.733   8.026  1.00  0.00    -0.000 C 
BRANCH   7   8
ATOM      8  C   UNL     1      -9.222   5.787   6.886  1.00  0.00    -0.003 C 
ATOM      9  C   UNL     1      -9.494   6.966   5.956  1.00  0.00     0.004 C 
ENDBRANCH   7   8
ENDBRANCH   6   7
ENDBRANCH   1   6
TORSDOF 5
ENDMDL
