MODEL 1
REMARK VINA RESULT:    -4.884      0.000      0.000
REMARK INTER + INTRA:         -10.924
REMARK INTER:                  -8.882
REMARK INTRA:                  -2.042
REMARK UNBOUND:                -2.042
REMARK SMILES CCCCCCCCCCCCCCCC(=O)[O-]
REMARK SMILES IDX 9 1 10 2 11 3 12 4 13 5 14 6 15 7 16 8 17 9 18 10 8 11 7 12
REMARK SMILES IDX 6 13 5 14 4 15 3 16 2 17 1 18
REMARK H PARENT
REMARK Flexibility Score: inf
ROOT
ATOM      1  C   UNL     1     -12.505 -27.887 -34.363  1.00  0.00     0.000 C 
ENDROOT
BRANCH   1   2
ATOM      2  C   UNL     1     -11.237 -27.403 -35.086  1.00  0.00     0.000 C 
BRANCH   2   3
ATOM      3  C   UNL     1     -11.250 -25.891 -35.368  1.00  0.00     0.000 C 
BRANCH   3   4
ATOM      4  C   UNL     1     -12.674 -25.338 -35.543  1.00  0.00     0.000 C 
BRANCH   4   5
ATOM      5  C   UNL     1     -12.681 -23.891 -36.065  1.00  0.00     0.000 C 
BRANCH   5   6
ATOM      6  C   UNL     1     -12.838 -22.848 -34.942  1.00  0.00     0.006 C 
BRANCH   6   7
ATOM      7  C   UNL     1     -12.350 -21.440 -35.324  1.00  0.00     0.053 C 
BRANCH   7   8
ATOM      8  C   UNL     1     -13.452 -20.425 -35.331  1.00  0.00     0.041 C 
ATOM      9  O   UNL     1     -14.444 -20.558 -34.566  1.00  0.00    -0.550 OA
ATOM     10  O   UNL     1     -13.401 -19.348 -36.207  1.00  0.00    -0.550 OA
ENDBRANCH   7   8
ENDBRANCH   6   7
ENDBRANCH   5   6
ENDBRANCH   4   5
ENDBRANCH   3   4
ENDBRANCH   2   3
ENDBRANCH   1   2
BRANCH   1  11
ATOM     11  C   UNL     1     -12.216 -28.680 -33.071  1.00  0.00     0.000 C 
BRANCH  11  12
ATOM     12  C   UNL     1     -13.200 -28.330 -31.942  1.00  0.00    -0.000 C 
BRANCH  12  13
ATOM     13  C   UNL     1     -12.583 -28.480 -30.539  1.00  0.00    -0.000 C 
BRANCH  13  14
ATOM     14  C   UNL     1     -11.097 -28.090 -30.440  1.00  0.00    -0.000 C 
BRANCH  14  15
ATOM     15  C   UNL     1     -10.886 -26.580 -30.251  1.00  0.00    -0.000 C 
BRANCH  15  16
ATOM     16  C   UNL     1     -10.150 -25.975 -31.455  1.00  0.00    -0.000 C 
BRANCH  16  17
ATOM     17  C   UNL     1     -10.876 -24.752 -32.037  1.00  0.00    -0.003 C 
ATOM     18  C   UNL     1     -12.389 -24.812 -31.836  1.00  0.00     0.004 C 
ENDBRANCH  16  17
ENDBRANCH  15  16
ENDBRANCH  14  15
ENDBRANCH  13  14
ENDBRANCH  12  13
ENDBRANCH  11  12
ENDBRANCH   1  11
TORSDOF 14
ENDMDL
MODEL 2
REMARK VINA RESULT:    -4.564      0.843      1.758
REMARK INTER + INTRA:         -10.342
REMARK INTER:                  -8.931
REMARK INTRA:                  -1.410
REMARK UNBOUND:                -2.042
REMARK SMILES CCCCCCCCCCCCCCCC(=O)[O-]
REMARK SMILES IDX 9 1 10 2 11 3 12 4 13 5 14 6 15 7 16 8 17 9 18 10 8 11 7 12
REMARK SMILES IDX 6 13 5 14 4 15 3 16 2 17 1 18
REMARK H PARENT
REMARK Flexibility Score: inf
ROOT
ATOM      1  C   UNL     1     -11.733 -27.425 -35.128  1.00  0.00     0.000 C 
ENDROOT
BRANCH   1   2
ATOM      2  C   UNL     1     -11.568 -25.896 -35.160  1.00  0.00     0.000 C 
BRANCH   2   3
ATOM      3  C   UNL     1     -12.714 -25.186 -35.900  1.00  0.00     0.000 C 
BRANCH   3   4
ATOM      4  C   UNL     1     -12.516 -23.662 -35.967  1.00  0.00     0.000 C 
BRANCH   4   5
ATOM      5  C   UNL     1     -12.798 -22.975 -34.620  1.00  0.00     0.000 C 
BRANCH   5   6
ATOM      6  C   UNL     1     -12.994 -21.453 -34.750  1.00  0.00     0.006 C 
BRANCH   6   7
ATOM      7  C   UNL     1     -12.024 -20.780 -35.737  1.00  0.00     0.053 C 
BRANCH   7   8
ATOM      8  C   UNL     1     -12.557 -19.492 -36.288  1.00  0.00     0.041 C 
ATOM      9  O   UNL     1     -11.927 -18.876 -37.187  1.00  0.00    -0.550 OA
ATOM     10  O   UNL     1     -13.736 -18.955 -35.784  1.00  0.00    -0.550 OA
ENDBRANCH   7   8
ENDBRANCH   6   7
ENDBRANCH   5   6
ENDBRANCH   4   5
ENDBRANCH   3   4
ENDBRANCH   2   3
ENDBRANCH   1   2
BRANCH   1  11
ATOM     11  C   UNL     1     -13.167 -27.885 -34.788  1.00  0.00     0.000 C 
BRANCH  11  12
ATOM     12  C   UNL     1     -13.568 -27.520 -33.349  1.00  0.00    -0.000 C 
BRANCH  12  13
ATOM     13  C   UNL     1     -12.985 -28.484 -32.300  1.00  0.00    -0.000 C 
BRANCH  13  14
ATOM     14  C   UNL     1     -12.682 -27.846 -30.932  1.00  0.00    -0.000 C 
BRANCH  14  15
ATOM     15  C   UNL     1     -11.225 -28.045 -30.488  1.00  0.00    -0.000 C 
BRANCH  15  16
ATOM     16  C   UNL     1     -10.509 -26.694 -30.340  1.00  0.00    -0.000 C 
BRANCH  16  17
ATOM     17  C   UNL     1     -10.329 -25.971 -31.683  1.00  0.00    -0.003 C 
ATOM     18  C   UNL     1     -11.092 -24.649 -31.751  1.00  0.00     0.004 C 
ENDBRANCH  16  17
ENDBRANCH  15  16
ENDBRANCH  14  15
ENDBRANCH  13  14
ENDBRANCH  12  13
ENDBRANCH  11  12
ENDBRANCH   1  11
TORSDOF 14
ENDMDL
MODEL 3
REMARK VINA RESULT:    -4.512      1.179      3.571
REMARK INTER + INTRA:         -10.247
REMARK INTER:                  -8.268
REMARK INTRA:                  -1.978
REMARK UNBOUND:                -2.042
REMARK SMILES CCCCCCCCCCCCCCCC(=O)[O-]
REMARK SMILES IDX 9 1 10 2 11 3 12 4 13 5 14 6 15 7 16 8 17 9 18 10 8 11 7 12
REMARK SMILES IDX 6 13 5 14 4 15 3 16 2 17 1 18
REMARK H PARENT
REMARK Flexibility Score: inf
ROOT
ATOM      1  C   UNL     1     -11.141 -28.246 -30.143  1.00  0.00     0.000 C 
ENDROOT
BRANCH   1   2
ATOM      2  C   UNL     1     -11.076 -26.709 -30.177  1.00  0.00     0.000 C 
BRANCH   2   3
ATOM      3  C   UNL     1     -10.100 -26.176 -31.239  1.00  0.00     0.000 C 
BRANCH   3   4
ATOM      4  C   UNL     1     -10.331 -24.689 -31.556  1.00  0.00     0.000 C 
BRANCH   4   5
ATOM      5  C   UNL     1     -11.677 -24.442 -32.258  1.00  0.00     0.000 C 
BRANCH   5   6
ATOM      6  C   UNL     1     -11.930 -22.954 -32.566  1.00  0.00     0.006 C 
BRANCH   6   7
ATOM      7  C   UNL     1     -12.586 -22.701 -33.935  1.00  0.00     0.053 C 
BRANCH   7   8
ATOM      8  C   UNL     1     -12.262 -21.349 -34.493  1.00  0.00     0.041 C 
ATOM      9  O   UNL     1     -12.288 -21.151 -35.736  1.00  0.00    -0.550 OA
ATOM     10  O   UNL     1     -11.897 -20.313 -33.641  1.00  0.00    -0.550 OA
ENDBRANCH   7   8
ENDBRANCH   6   7
ENDBRANCH   5   6
ENDBRANCH   4   5
ENDBRANCH   3   4
ENDBRANCH   2   3
ENDBRANCH   1   2
BRANCH   1  11
ATOM     11  C   UNL     1     -12.399 -28.827 -30.822  1.00  0.00     0.000 C 
BRANCH  11  12
ATOM     12  C   UNL     1     -13.316 -27.728 -31.383  1.00  0.00    -0.000 C 
BRANCH  12  13
ATOM     13  C   UNL     1     -13.389 -27.733 -32.921  1.00  0.00    -0.000 C 
BRANCH  13  14
ATOM     14  C   UNL     1     -12.178 -28.373 -33.624  1.00  0.00    -0.000 C 
BRANCH  14  15
ATOM     15  C   UNL     1     -11.993 -27.877 -35.066  1.00  0.00    -0.000 C 
BRANCH  15  16
ATOM     16  C   UNL     1     -11.076 -26.645 -35.108  1.00  0.00    -0.000 C 
BRANCH  16  17
ATOM     17  C   UNL     1     -11.711 -25.462 -35.854  1.00  0.00    -0.003 C 
ATOM     18  C   UNL     1     -13.211 -25.641 -36.079  1.00  0.00     0.004 C 
ENDBRANCH  16  17
ENDBRANCH  15  16
ENDBRANCH  14  15
ENDBRANCH  13  14
ENDBRANCH  12  13
ENDBRANCH  11  12
ENDBRANCH   1  11
TORSDOF 14
ENDMDL
MODEL 4
REMARK VINA RESULT:    -4.501      1.000      3.043
REMARK INTER + INTRA:         -10.226
REMARK INTER:                  -8.448
REMARK INTRA:                  -1.778
REMARK UNBOUND:                -2.042
REMARK SMILES CCCCCCCCCCCCCCCC(=O)[O-]
REMARK SMILES IDX 9 1 10 2 11 3 12 4 13 5 14 6 15 7 16 8 17 9 18 10 8 11 7 12
REMARK SMILES IDX 6 13 5 14 4 15 3 16 2 17 1 18
REMARK H PARENT
REMARK Flexibility Score: inf
ROOT
ATOM      1  C   UNL     1     -10.472 -25.964 -30.890  1.00  0.00     0.000 C 
ENDROOT
BRANCH   1   2
ATOM      2  C   UNL     1     -10.905 -25.261 -32.188  1.00  0.00     0.000 C 
BRANCH   2   3
ATOM      3  C   UNL     1     -12.162 -24.394 -32.007  1.00  0.00     0.000 C 
BRANCH   3   4
ATOM      4  C   UNL     1     -12.208 -23.212 -32.989  1.00  0.00     0.000 C 
BRANCH   4   5
ATOM      5  C   UNL     1     -12.446 -23.664 -34.440  1.00  0.00     0.000 C 
BRANCH   5   6
ATOM      6  C   UNL     1     -12.859 -22.508 -35.370  1.00  0.00     0.006 C 
BRANCH   6   7
ATOM      7  C   UNL     1     -12.153 -21.175 -35.063  1.00  0.00     0.053 C 
BRANCH   7   8
ATOM      8  C   UNL     1     -12.774 -20.012 -35.775  1.00  0.00     0.041 C 
ATOM      9  O   UNL     1     -13.987 -19.727 -35.590  1.00  0.00    -0.550 OA
ATOM     10  O   UNL     1     -12.023 -19.262 -36.670  1.00  0.00    -0.550 OA
ENDBRANCH   7   8
ENDBRANCH   6   7
ENDBRANCH   5   6
ENDBRANCH   4   5
ENDBRANCH   3   4
ENDBRANCH   2   3
ENDBRANCH   1   2
BRANCH   1  11
ATOM     11  C   UNL     1     -10.674 -27.494 -30.919  1.00  0.00     0.000 C 
BRANCH  11  12
ATOM     12  C   UNL     1     -11.945 -27.927 -30.170  1.00  0.00    -0.000 C 
BRANCH  12  13
ATOM     13  C   UNL     1     -12.993 -28.579 -31.090  1.00  0.00    -0.000 C 
BRANCH  13  14
ATOM     14  C   UNL     1     -12.709 -28.438 -32.597  1.00  0.00    -0.000 C 
BRANCH  14  15
ATOM     15  C   UNL     1     -13.737 -27.554 -33.319  1.00  0.00    -0.000 C 
BRANCH  15  16
ATOM     16  C   UNL     1     -13.309 -27.291 -34.771  1.00  0.00    -0.000 C 
BRANCH  16  17
ATOM     17  C   UNL     1     -11.904 -27.830 -35.079  1.00  0.00    -0.003 C 
ATOM     18  C   UNL     1     -10.877 -26.718 -35.290  1.00  0.00     0.004 C 
ENDBRANCH  16  17
ENDBRANCH  15  16
ENDBRANCH  14  15
ENDBRANCH  13  14
ENDBRANCH  12  13
ENDBRANCH  11  12
ENDBRANCH   1  11
TORSDOF 14
ENDMDL
MODEL 5
REMARK VINA RESULT:    -4.449      2.162      5.748
REMARK INTER + INTRA:         -10.132
REMARK INTER:                  -8.650
REMARK INTRA:                  -1.483
REMARK UNBOUND:                -2.042
REMARK SMILES CCCCCCCCCCCCCCCC(=O)[O-]
REMARK SMILES IDX 9 1 10 2 11 3 12 4 13 5 14 6 15 7 16 8 17 9 18 10 8 11 7 12
REMARK SMILES IDX 6 13 5 14 4 15 3 16 2 17 1 18
REMARK H PARENT
REMARK Flexibility Score: inf
ROOT
ATOM      1  C   UNL     1     -13.203 -27.459 -34.690  1.00  0.00     0.000 C 
ENDROOT
BRANCH   1   2
ATOM      2  C   UNL     1     -13.618 -27.788 -33.245  1.00  0.00     0.000 C 
BRANCH   2   3
ATOM      3  C   UNL     1     -12.571 -28.632 -32.500  1.00  0.00     0.000 C 
BRANCH   3   4
ATOM      4  C   UNL     1     -12.700 -28.515 -30.973  1.00  0.00     0.000 C 
BRANCH   4   5
ATOM      5  C   UNL     1     -11.340 -28.313 -30.283  1.00  0.00     0.000 C 
BRANCH   5   6
ATOM      6  C   UNL     1     -11.011 -26.831 -30.025  1.00  0.00     0.006 C 
BRANCH   6   7
ATOM      7  C   UNL     1     -10.455 -26.090 -31.254  1.00  0.00     0.053 C 
BRANCH   7   8
ATOM      8  C   UNL     1     -11.253 -24.872 -31.607  1.00  0.00     0.041 C 
ATOM      9  O   UNL     1     -10.677 -23.770 -31.807  1.00  0.00    -0.550 OA
ATOM     10  O   UNL     1     -12.638 -24.945 -31.684  1.00  0.00    -0.550 OA
ENDBRANCH   7   8
ENDBRANCH   6   7
ENDBRANCH   5   6
ENDBRANCH   4   5
ENDBRANCH   3   4
ENDBRANCH   2   3
ENDBRANCH   1   2
BRANCH   1  11
ATOM     11  C   UNL     1     -11.702 -27.137 -34.844  1.00  0.00     0.000 C 
BRANCH  11  12
ATOM     12  C   UNL     1     -11.459 -25.668 -35.227  1.00  0.00    -0.000 C 
BRANCH  12  13
ATOM     13  C   UNL     1     -12.679 -25.014 -35.902  1.00  0.00    -0.000 C 
BRANCH  13  14
ATOM     14  C   UNL     1     -12.669 -23.474 -35.907  1.00  0.00    -0.000 C 
BRANCH  14  15
ATOM     15  C   UNL     1     -12.810 -22.871 -34.501  1.00  0.00    -0.000 C 
BRANCH  15  16
ATOM     16  C   UNL     1     -12.481 -21.370 -34.514  1.00  0.00    -0.000 C 
BRANCH  16  17
ATOM     17  C   UNL     1     -12.735 -20.721 -35.883  1.00  0.00    -0.003 C 
ATOM     18  C   UNL     1     -13.412 -19.356 -35.773  1.00  0.00     0.004 C 
ENDBRANCH  16  17
ENDBRANCH  15  16
ENDBRANCH  14  15
ENDBRANCH  13  14
ENDBRANCH  12  13
ENDBRANCH  11  12
ENDBRANCH   1  11
TORSDOF 14
ENDMDL
MODEL 6
REMARK VINA RESULT:    -4.418      2.230      5.163
REMARK INTER + INTRA:         -10.077
REMARK INTER:                  -8.567
REMARK INTRA:                  -1.510
REMARK UNBOUND:                -2.042
REMARK SMILES CCCCCCCCCCCCCCCC(=O)[O-]
REMARK SMILES IDX 9 1 10 2 11 3 12 4 13 5 14 6 15 7 16 8 17 9 18 10 8 11 7 12
REMARK SMILES IDX 6 13 5 14 4 15 3 16 2 17 1 18
REMARK H PARENT
REMARK Flexibility Score: inf
ROOT
ATOM      1  C   UNL     1     -10.913 -27.320 -30.486  1.00  0.00     0.000 C 
ENDROOT
BRANCH   1   2
ATOM      2  C   UNL     1     -12.367 -27.686 -30.143  1.00  0.00     0.000 C 
BRANCH   2   3
ATOM      3  C   UNL     1     -12.967 -28.718 -31.113  1.00  0.00     0.000 C 
BRANCH   3   4
ATOM      4  C   UNL     1     -12.768 -28.326 -32.586  1.00  0.00     0.000 C 
BRANCH   4   5
ATOM      5  C   UNL     1     -13.861 -27.368 -33.091  1.00  0.00     0.000 C 
BRANCH   5   6
ATOM      6  C   UNL     1     -14.254 -27.624 -34.558  1.00  0.00     0.006 C 
BRANCH   6   7
ATOM      7  C   UNL     1     -13.068 -27.594 -35.538  1.00  0.00     0.053 C 
BRANCH   7   8
ATOM      8  C   UNL     1     -12.550 -26.209 -35.779  1.00  0.00     0.041 C 
ATOM      9  O   UNL     1     -11.352 -25.923 -35.516  1.00  0.00    -0.550 OA
ATOM     10  O   UNL     1     -13.399 -25.223 -36.266  1.00  0.00    -0.550 OA
ENDBRANCH   7   8
ENDBRANCH   6   7
ENDBRANCH   5   6
ENDBRANCH   4   5
ENDBRANCH   3   4
ENDBRANCH   2   3
ENDBRANCH   1   2
BRANCH   1  11
ATOM     11  C   UNL     1     -10.683 -25.804 -30.666  1.00  0.00     0.000 C 
BRANCH  11  12
ATOM     12  C   UNL     1     -10.793 -25.371 -32.138  1.00  0.00    -0.000 C 
BRANCH  12  13
ATOM     13  C   UNL     1     -11.866 -24.292 -32.368  1.00  0.00    -0.000 C 
BRANCH  13  14
ATOM     14  C   UNL     1     -11.438 -22.862 -31.991  1.00  0.00    -0.000 C 
BRANCH  14  15
ATOM     15  C   UNL     1     -11.918 -21.808 -33.000  1.00  0.00    -0.000 C 
BRANCH  15  16
ATOM     16  C   UNL     1     -12.570 -22.476 -34.221  1.00  0.00    -0.000 C 
BRANCH  16  17
ATOM     17  C   UNL     1     -12.992 -21.461 -35.294  1.00  0.00    -0.003 C 
ATOM     18  C   UNL     1     -14.104 -20.527 -34.820  1.00  0.00     0.004 C 
ENDBRANCH  16  17
ENDBRANCH  15  16
ENDBRANCH  14  15
ENDBRANCH  13  14
ENDBRANCH  12  13
ENDBRANCH  11  12
ENDBRANCH   1  11
TORSDOF 14
ENDMDL
MODEL 7
REMARK VINA RESULT:    -4.369      1.388      2.289
REMARK INTER + INTRA:          -9.987
REMARK INTER:                  -8.233
REMARK INTRA:                  -1.754
REMARK UNBOUND:                -2.042
REMARK SMILES CCCCCCCCCCCCCCCC(=O)[O-]
REMARK SMILES IDX 9 1 10 2 11 3 12 4 13 5 14 6 15 7 16 8 17 9 18 10 8 11 7 12
REMARK SMILES IDX 6 13 5 14 4 15 3 16 2 17 1 18
REMARK H PARENT
REMARK Flexibility Score: inf
ROOT
ATOM      1  C   UNL     1     -12.629 -28.259 -33.244  1.00  0.00     0.000 C 
ENDROOT
BRANCH   1   2
ATOM      2  C   UNL     1     -13.817 -27.835 -34.124  1.00  0.00     0.000 C 
BRANCH   2   3
ATOM      3  C   UNL     1     -13.410 -26.880 -35.257  1.00  0.00     0.000 C 
BRANCH   3   4
ATOM      4  C   UNL     1     -11.887 -26.689 -35.348  1.00  0.00     0.000 C 
BRANCH   4   5
ATOM      5  C   UNL     1     -11.498 -25.257 -35.754  1.00  0.00     0.000 C 
BRANCH   5   6
ATOM      6  C   UNL     1     -12.707 -24.306 -35.834  1.00  0.00     0.006 C 
BRANCH   6   7
ATOM      7  C   UNL     1     -12.762 -23.267 -34.700  1.00  0.00     0.053 C 
BRANCH   7   8
ATOM      8  C   UNL     1     -12.846 -21.859 -35.206  1.00  0.00     0.041 C 
ATOM      9  O   UNL     1     -11.949 -21.400 -35.961  1.00  0.00    -0.550 OA
ATOM     10  O   UNL     1     -13.900 -21.042 -34.818  1.00  0.00    -0.550 OA
ENDBRANCH   7   8
ENDBRANCH   6   7
ENDBRANCH   5   6
ENDBRANCH   4   5
ENDBRANCH   3   4
ENDBRANCH   2   3
ENDBRANCH   1   2
BRANCH   1  11
ATOM     11  C   UNL     1     -12.983 -28.394 -31.747  1.00  0.00     0.000 C 
BRANCH  11  12
ATOM     12  C   UNL     1     -12.327 -27.296 -30.894  1.00  0.00    -0.000 C 
BRANCH  12  13
ATOM     13  C   UNL     1     -10.796 -27.436 -30.808  1.00  0.00    -0.000 C 
BRANCH  13  14
ATOM     14  C   UNL     1     -10.003 -26.255 -31.397  1.00  0.00    -0.000 C 
BRANCH  14  15
ATOM     15  C   UNL     1     -10.898 -25.226 -32.104  1.00  0.00    -0.000 C 
BRANCH  15  16
ATOM     16  C   UNL     1     -10.742 -23.836 -31.469  1.00  0.00    -0.000 C 
BRANCH  16  17
ATOM     17  C   UNL     1      -9.828 -23.851 -30.234  1.00  0.00    -0.003 C 
ATOM     18  C   UNL     1      -8.692 -22.833 -30.328  1.00  0.00     0.004 C 
ENDBRANCH  16  17
ENDBRANCH  15  16
ENDBRANCH  14  15
ENDBRANCH  13  14
ENDBRANCH  12  13
ENDBRANCH  11  12
ENDBRANCH   1  11
TORSDOF 14
ENDMDL
MODEL 8
REMARK VINA RESULT:    -4.321      3.040      6.390
REMARK INTER + INTRA:          -9.899
REMARK INTER:                  -8.561
REMARK INTRA:                  -1.338
REMARK UNBOUND:                -2.042
REMARK SMILES CCCCCCCCCCCCCCCC(=O)[O-]
REMARK SMILES IDX 9 1 10 2 11 3 12 4 13 5 14 6 15 7 16 8 17 9 18 10 8 11 7 12
REMARK SMILES IDX 6 13 5 14 4 15 3 16 2 17 1 18
REMARK H PARENT
REMARK Flexibility Score: inf
ROOT
ATOM      1  C   UNL     1     -11.480 -25.727 -35.565  1.00  0.00     0.000 C 
ENDROOT
BRANCH   1   2
ATOM      2  C   UNL     1     -11.759 -27.152 -35.056  1.00  0.00     0.000 C 
BRANCH   2   3
ATOM      3  C   UNL     1     -13.215 -27.593 -35.283  1.00  0.00     0.000 C 
BRANCH   3   4
ATOM      4  C   UNL     1     -14.037 -27.598 -33.984  1.00  0.00     0.000 C 
BRANCH   4   5
ATOM      5  C   UNL     1     -13.178 -27.915 -32.748  1.00  0.00     0.000 C 
BRANCH   5   6
ATOM      6  C   UNL     1     -13.259 -26.824 -31.664  1.00  0.00     0.006 C 
BRANCH   6   7
ATOM      7  C   UNL     1     -12.069 -25.848 -31.667  1.00  0.00     0.053 C 
BRANCH   7   8
ATOM      8  C   UNL     1     -10.850 -26.417 -31.008  1.00  0.00     0.041 C 
ATOM      9  O   UNL     1     -10.959 -27.339 -30.158  1.00  0.00    -0.550 OA
ATOM     10  O   UNL     1      -9.593 -25.906 -31.310  1.00  0.00    -0.550 OA
ENDBRANCH   7   8
ENDBRANCH   6   7
ENDBRANCH   5   6
ENDBRANCH   4   5
ENDBRANCH   3   4
ENDBRANCH   2   3
ENDBRANCH   1   2
BRANCH   1  11
ATOM     11  C   UNL     1     -12.736 -25.000 -36.089  1.00  0.00     0.000 C 
BRANCH  11  12
ATOM     12  C   UNL     1     -12.670 -23.482 -35.852  1.00  0.00    -0.000 C 
BRANCH  12  13
ATOM     13  C   UNL     1     -12.599 -23.110 -34.359  1.00  0.00    -0.000 C 
BRANCH  13  14
ATOM     14  C   UNL     1     -12.650 -21.599 -34.066  1.00  0.00    -0.000 C 
BRANCH  14  15
ATOM     15  C   UNL     1     -13.717 -20.865 -34.890  1.00  0.00    -0.000 C 
BRANCH  15  16
ATOM     16  C   UNL     1     -13.314 -19.402 -35.128  1.00  0.00    -0.000 C 
BRANCH  16  17
ATOM     17  C   UNL     1     -12.679 -19.182 -36.510  1.00  0.00    -0.003 C 
ATOM     18  C   UNL     1     -11.180 -18.900 -36.433  1.00  0.00     0.004 C 
ENDBRANCH  16  17
ENDBRANCH  15  16
ENDBRANCH  14  15
ENDBRANCH  13  14
ENDBRANCH  12  13
ENDBRANCH  11  12
ENDBRANCH   1  11
TORSDOF 14
ENDMDL
MODEL 9
REMARK VINA RESULT:    -4.276      2.172      4.121
REMARK INTER + INTRA:          -9.817
REMARK INTER:                  -8.040
REMARK INTRA:                  -1.778
REMARK UNBOUND:                -2.042
REMARK SMILES CCCCCCCCCCCCCCCC(=O)[O-]
REMARK SMILES IDX 9 1 10 2 11 3 12 4 13 5 14 6 15 7 16 8 17 9 18 10 8 11 7 12
REMARK SMILES IDX 6 13 5 14 4 15 3 16 2 17 1 18
REMARK H PARENT
REMARK Flexibility Score: inf
ROOT
ATOM      1  C   UNL     1     -11.783 -28.037 -30.246  1.00  0.00     0.000 C 
ENDROOT
BRANCH   1   2
ATOM      2  C   UNL     1     -13.002 -28.508 -31.058  1.00  0.00     0.000 C 
BRANCH   2   3
ATOM      3  C   UNL     1     -12.788 -28.395 -32.576  1.00  0.00     0.000 C 
BRANCH   3   4
ATOM      4  C   UNL     1     -13.788 -27.435 -33.241  1.00  0.00     0.000 C 
BRANCH   4   5
ATOM      5  C   UNL     1     -13.934 -27.693 -34.750  1.00  0.00     0.000 C 
BRANCH   5   6
ATOM      6  C   UNL     1     -12.635 -27.428 -35.534  1.00  0.00     0.006 C 
BRANCH   6   7
ATOM      7  C   UNL     1     -12.008 -26.050 -35.259  1.00  0.00     0.053 C 
BRANCH   7   8
ATOM      8  C   UNL     1     -12.775 -24.927 -35.888  1.00  0.00     0.041 C 
ATOM      9  O   UNL     1     -13.466 -25.130 -36.921  1.00  0.00    -0.550 OA
ATOM     10  O   UNL     1     -12.701 -23.648 -35.353  1.00  0.00    -0.550 OA
ENDBRANCH   7   8
ENDBRANCH   6   7
ENDBRANCH   5   6
ENDBRANCH   4   5
ENDBRANCH   3   4
ENDBRANCH   2   3
ENDBRANCH   1   2
BRANCH   1  11
ATOM     11  C   UNL     1     -10.589 -27.598 -31.120  1.00  0.00     0.000 C 
BRANCH  11  12
ATOM     12  C   UNL     1     -10.274 -26.101 -30.963  1.00  0.00    -0.000 C 
BRANCH  12  13
ATOM     13  C   UNL     1     -10.808 -25.249 -32.129  1.00  0.00    -0.000 C 
BRANCH  13  14
ATOM     14  C   UNL     1     -12.110 -24.484 -31.828  1.00  0.00    -0.000 C 
BRANCH  14  15
ATOM     15  C   UNL     1     -11.942 -23.425 -30.729  1.00  0.00    -0.000 C 
BRANCH  15  16
ATOM     16  C   UNL     1     -11.711 -22.034 -31.339  1.00  0.00    -0.000 C 
BRANCH  16  17
ATOM     17  C   UNL     1     -10.231 -21.622 -31.326  1.00  0.00    -0.003 C 
ATOM     18  C   UNL     1      -9.423 -22.351 -30.254  1.00  0.00     0.004 C 
ENDBRANCH  16  17
ENDBRANCH  15  16
ENDBRANCH  14  15
ENDBRANCH  13  14
ENDBRANCH  12  13
ENDBRANCH  11  12
ENDBRANCH   1  11
TORSDOF 14
ENDMDL
