MODEL 1
REMARK VINA RESULT:    -4.924      0.000      0.000
REMARK INTER + INTRA:         -12.136
REMARK INTER:                  -9.529
REMARK INTRA:                  -2.607
REMARK UNBOUND:                -2.607
REMARK SMILES CCCCCCCCCCCCCCCCCC(=O)[O-]
REMARK SMILES IDX 10 1 11 2 12 3 13 4 14 5 15 6 16 7 17 8 18 9 19 10 20 11
REMARK SMILES IDX 9 12 8 13 7 14 6 15 5 16 4 17 3 18 2 19 1 20
REMARK H PARENT
REMARK Flexibility Score: inf
ROOT
ATOM      1  C   UNL     1      13.842  16.160  70.323  1.00  0.00     0.000 C 
ENDROOT
BRANCH   1   2
ATOM      2  C   UNL     1      13.711  14.679  70.723  1.00  0.00     0.000 C 
BRANCH   2   3
ATOM      3  C   UNL     1      13.778  13.738  69.501  1.00  0.00     0.000 C 
BRANCH   3   4
ATOM      4  C   UNL     1      12.425  13.106  69.136  1.00  0.00     0.000 C 
BRANCH   4   5
ATOM      5  C   UNL     1      11.300  13.495  70.106  1.00  0.00     0.000 C 
BRANCH   5   6
ATOM      6  C   UNL     1      10.179  14.249  69.378  1.00  0.00     0.000 C 
BRANCH   6   7
ATOM      7  C   UNL     1      10.592  14.717  67.970  1.00  0.00     0.006 C 
BRANCH   7   8
ATOM      8  C   UNL     1      10.464  16.232  67.742  1.00  0.00     0.053 C 
BRANCH   8   9
ATOM      9  C   UNL     1      11.684  16.807  67.087  1.00  0.00     0.041 C 
ATOM     10  O   UNL     1      12.719  16.104  66.949  1.00  0.00    -0.550 OA
ATOM     11  O   UNL     1      11.663  18.105  66.596  1.00  0.00    -0.550 OA
ENDBRANCH   8   9
ENDBRANCH   7   8
ENDBRANCH   6   7
ENDBRANCH   5   6
ENDBRANCH   4   5
ENDBRANCH   3   4
ENDBRANCH   2   3
ENDBRANCH   1   2
BRANCH   1  12
ATOM     12  C   UNL     1      12.643  17.003  70.783  1.00  0.00     0.000 C 
BRANCH  12  13
ATOM     13  C   UNL     1      12.009  16.462  72.077  1.00  0.00    -0.000 C 
BRANCH  13  14
ATOM     14  C   UNL     1      10.484  16.656  72.111  1.00  0.00    -0.000 C 
BRANCH  14  15
ATOM     15  C   UNL     1       9.979  17.572  70.985  1.00  0.00    -0.000 C 
BRANCH  15  16
ATOM     16  C   UNL     1       8.989  18.611  71.527  1.00  0.00    -0.000 C 
BRANCH  16  17
ATOM     17  C   UNL     1       7.796  17.928  72.215  1.00  0.00    -0.000 C 
BRANCH  17  18
ATOM     18  C   UNL     1       7.186  18.788  73.331  1.00  0.00    -0.000 C 
BRANCH  18  19
ATOM     19  C   UNL     1       7.081  18.037  74.667  1.00  0.00    -0.003 C 
ATOM     20  C   UNL     1       7.738  16.663  74.578  1.00  0.00     0.004 C 
ENDBRANCH  18  19
ENDBRANCH  17  18
ENDBRANCH  16  17
ENDBRANCH  15  16
ENDBRANCH  14  15
ENDBRANCH  13  14
ENDBRANCH  12  13
ENDBRANCH   1  12
TORSDOF 16
ENDMDL
MODEL 2
REMARK VINA RESULT:    -4.903      3.212      6.084
REMARK INTER + INTRA:         -12.097
REMARK INTER:                  -9.417
REMARK INTRA:                  -2.680
REMARK UNBOUND:                -2.607
REMARK SMILES CCCCCCCCCCCCCCCCCC(=O)[O-]
REMARK SMILES IDX 10 1 11 2 12 3 13 4 14 5 15 6 16 7 17 8 18 9 19 10 20 11
REMARK SMILES IDX 9 12 8 13 7 14 6 15 5 16 4 17 3 18 2 19 1 20
REMARK H PARENT
REMARK Flexibility Score: inf
ROOT
ATOM      1  C   UNL     1      13.859  16.233  70.557  1.00  0.00     0.000 C 
ENDROOT
BRANCH   1   2
ATOM      2  C   UNL     1      12.573  16.853  71.133  1.00  0.00     0.000 C 
BRANCH   2   3
ATOM      3  C   UNL     1      11.970  15.996  72.266  1.00  0.00     0.000 C 
BRANCH   3   4
ATOM      4  C   UNL     1      10.448  16.155  72.415  1.00  0.00     0.000 C 
BRANCH   4   5
ATOM      5  C   UNL     1       9.940  17.527  71.950  1.00  0.00     0.000 C 
BRANCH   5   6
ATOM      6  C   UNL     1       8.417  17.513  71.749  1.00  0.00     0.000 C 
BRANCH   6   7
ATOM      7  C   UNL     1       7.667  18.325  72.820  1.00  0.00     0.006 C 
BRANCH   7   8
ATOM      8  C   UNL     1       7.905  17.846  74.262  1.00  0.00     0.053 C 
BRANCH   8   9
ATOM      9  C   UNL     1       7.065  16.654  74.604  1.00  0.00     0.041 C 
ATOM     10  O   UNL     1       5.955  16.477  74.038  1.00  0.00    -0.550 OA
ATOM     11  O   UNL     1       7.525  15.718  75.522  1.00  0.00    -0.550 OA
ENDBRANCH   8   9
ENDBRANCH   7   8
ENDBRANCH   6   7
ENDBRANCH   5   6
ENDBRANCH   4   5
ENDBRANCH   3   4
ENDBRANCH   2   3
ENDBRANCH   1   2
BRANCH   1  12
ATOM     12  C   UNL     1      13.741  14.715  70.352  1.00  0.00     0.000 C 
BRANCH  12  13
ATOM     13  C   UNL     1      13.131  14.356  68.986  1.00  0.00    -0.000 C 
BRANCH  13  14
ATOM     14  C   UNL     1      12.153  13.172  69.071  1.00  0.00    -0.000 C 
BRANCH  14  15
ATOM     15  C   UNL     1      10.832  13.544  69.763  1.00  0.00    -0.000 C 
BRANCH  15  16
ATOM     16  C   UNL     1       9.819  14.090  68.751  1.00  0.00    -0.000 C 
BRANCH  16  17
ATOM     17  C   UNL     1       9.739  15.623  68.825  1.00  0.00    -0.000 C 
BRANCH  17  18
ATOM     18  C   UNL     1      10.095  16.299  67.492  1.00  0.00    -0.000 C 
BRANCH  18  19
ATOM     19  C   UNL     1      11.247  17.306  67.627  1.00  0.00    -0.003 C 
ATOM     20  C   UNL     1      10.843  18.488  68.503  1.00  0.00     0.004 C 
ENDBRANCH  18  19
ENDBRANCH  17  18
ENDBRANCH  16  17
ENDBRANCH  15  16
ENDBRANCH  14  15
ENDBRANCH  13  14
ENDBRANCH  12  13
ENDBRANCH   1  12
TORSDOF 16
ENDMDL
MODEL 3
REMARK VINA RESULT:    -4.867      1.727      5.213
REMARK INTER + INTRA:         -12.026
REMARK INTER:                  -9.897
REMARK INTRA:                  -2.130
REMARK UNBOUND:                -2.607
REMARK SMILES CCCCCCCCCCCCCCCCCC(=O)[O-]
REMARK SMILES IDX 10 1 11 2 12 3 13 4 14 5 15 6 16 7 17 8 18 9 19 10 20 11
REMARK SMILES IDX 9 12 8 13 7 14 6 15 5 16 4 17 3 18 2 19 1 20
REMARK H PARENT
REMARK Flexibility Score: inf
ROOT
ATOM      1  C   UNL     1      13.305  17.032  71.046  1.00  0.00     0.000 C 
ENDROOT
BRANCH   1   2
ATOM      2  C   UNL     1      12.388  16.450  72.138  1.00  0.00     0.000 C 
BRANCH   2   3
ATOM      3  C   UNL     1      11.010  16.035  71.581  1.00  0.00     0.000 C 
BRANCH   3   4
ATOM      4  C   UNL     1       9.872  16.991  71.978  1.00  0.00     0.000 C 
BRANCH   4   5
ATOM      5  C   UNL     1       9.157  17.608  70.768  1.00  0.00     0.000 C 
BRANCH   5   6
ATOM      6  C   UNL     1       9.818  18.931  70.353  1.00  0.00     0.000 C 
BRANCH   6   7
ATOM      7  C   UNL     1      10.621  18.811  69.045  1.00  0.00     0.006 C 
BRANCH   7   8
ATOM      8  C   UNL     1      10.583  17.414  68.403  1.00  0.00     0.053 C 
BRANCH   8   9
ATOM      9  C   UNL     1      11.397  17.351  67.145  1.00  0.00     0.041 C 
ATOM     10  O   UNL     1      11.650  18.403  66.502  1.00  0.00    -0.550 OA
ATOM     11  O   UNL     1      11.906  16.136  66.706  1.00  0.00    -0.550 OA
ENDBRANCH   8   9
ENDBRANCH   7   8
ENDBRANCH   6   7
ENDBRANCH   5   6
ENDBRANCH   4   5
ENDBRANCH   3   4
ENDBRANCH   2   3
ENDBRANCH   1   2
BRANCH   1  12
ATOM     12  C   UNL     1      13.555  16.043  69.898  1.00  0.00     0.000 C 
BRANCH  12  13
ATOM     13  C   UNL     1      14.465  14.876  70.319  1.00  0.00    -0.000 C 
BRANCH  13  14
ATOM     14  C   UNL     1      13.863  13.504  69.969  1.00  0.00    -0.000 C 
BRANCH  14  15
ATOM     15  C   UNL     1      12.658  13.612  69.023  1.00  0.00    -0.000 C 
BRANCH  15  16
ATOM     16  C   UNL     1      11.378  13.117  69.707  1.00  0.00    -0.000 C 
BRANCH  16  17
ATOM     17  C   UNL     1      10.167  13.245  68.768  1.00  0.00    -0.000 C 
BRANCH  17  18
ATOM     18  C   UNL     1       9.920  11.972  67.945  1.00  0.00    -0.000 C 
BRANCH  18  19
ATOM     19  C   UNL     1       9.777  10.719  68.822  1.00  0.00    -0.003 C 
ATOM     20  C   UNL     1       8.757   9.750  68.233  1.00  0.00     0.004 C 
ENDBRANCH  18  19
ENDBRANCH  17  18
ENDBRANCH  16  17
ENDBRANCH  15  16
ENDBRANCH  14  15
ENDBRANCH  13  14
ENDBRANCH  12  13
ENDBRANCH   1  12
TORSDOF 16
ENDMDL
MODEL 4
REMARK VINA RESULT:    -4.863      3.138      6.689
REMARK INTER + INTRA:         -12.019
REMARK INTER:                  -9.834
REMARK INTRA:                  -2.184
REMARK UNBOUND:                -2.607
REMARK SMILES CCCCCCCCCCCCCCCCCC(=O)[O-]
REMARK SMILES IDX 10 1 11 2 12 3 13 4 14 5 15 6 16 7 17 8 18 9 19 10 20 11
REMARK SMILES IDX 9 12 8 13 7 14 6 15 5 16 4 17 3 18 2 19 1 20
REMARK H PARENT
REMARK Flexibility Score: inf
ROOT
ATOM      1  C   UNL     1      10.493  16.490  67.596  1.00  0.00     0.000 C 
ENDROOT
BRANCH   1   2
ATOM      2  C   UNL     1      10.990  17.843  68.136  1.00  0.00     0.000 C 
BRANCH   2   3
ATOM      3  C   UNL     1      11.058  17.865  69.678  1.00  0.00     0.000 C 
BRANCH   3   4
ATOM      4  C   UNL     1      12.145  16.946  70.259  1.00  0.00     0.000 C 
BRANCH   4   5
ATOM      5  C   UNL     1      12.035  16.773  71.780  1.00  0.00     0.000 C 
BRANCH   5   6
ATOM      6  C   UNL     1      11.093  15.614  72.137  1.00  0.00     0.000 C 
BRANCH   6   7
ATOM      7  C   UNL     1      10.141  15.955  73.299  1.00  0.00     0.006 C 
BRANCH   7   8
ATOM      8  C   UNL     1       9.165  17.105  73.002  1.00  0.00     0.053 C 
BRANCH   8   9
ATOM      9  C   UNL     1       8.164  17.291  74.102  1.00  0.00     0.041 C 
ATOM     10  O   UNL     1       7.842  18.448  74.476  1.00  0.00    -0.550 OA
ATOM     11  O   UNL     1       7.559  16.185  74.686  1.00  0.00    -0.550 OA
ENDBRANCH   8   9
ENDBRANCH   7   8
ENDBRANCH   6   7
ENDBRANCH   5   6
ENDBRANCH   4   5
ENDBRANCH   3   4
ENDBRANCH   2   3
ENDBRANCH   1   2
BRANCH   1  12
ATOM     12  C   UNL     1       9.306  15.935  68.399  1.00  0.00     0.000 C 
BRANCH  12  13
ATOM     13  C   UNL     1       9.529  14.476  68.837  1.00  0.00    -0.000 C 
BRANCH  13  14
ATOM     14  C   UNL     1      10.503  13.727  67.913  1.00  0.00    -0.000 C 
BRANCH  14  15
ATOM     15  C   UNL     1      11.344  12.681  68.664  1.00  0.00    -0.000 C 
BRANCH  15  16
ATOM     16  C   UNL     1      12.145  13.333  69.797  1.00  0.00    -0.000 C 
BRANCH  16  17
ATOM     17  C   UNL     1      13.636  13.423  69.435  1.00  0.00    -0.000 C 
BRANCH  17  18
ATOM     18  C   UNL     1      14.468  14.119  70.522  1.00  0.00    -0.000 C 
BRANCH  18  19
ATOM     19  C   UNL     1      15.458  15.143  69.946  1.00  0.00    -0.003 C 
ATOM     20  C   UNL     1      16.844  14.530  69.774  1.00  0.00     0.004 C 
ENDBRANCH  18  19
ENDBRANCH  17  18
ENDBRANCH  16  17
ENDBRANCH  15  16
ENDBRANCH  14  15
ENDBRANCH  13  14
ENDBRANCH  12  13
ENDBRANCH   1  12
TORSDOF 16
ENDMDL
MODEL 5
REMARK VINA RESULT:    -4.861      3.334      6.651
REMARK INTER + INTRA:         -12.015
REMARK INTER:                  -9.284
REMARK INTRA:                  -2.732
REMARK UNBOUND:                -2.607
REMARK SMILES CCCCCCCCCCCCCCCCCC(=O)[O-]
REMARK SMILES IDX 10 1 11 2 12 3 13 4 14 5 15 6 16 7 17 8 18 9 19 10 20 11
REMARK SMILES IDX 9 12 8 13 7 14 6 15 5 16 4 17 3 18 2 19 1 20
REMARK H PARENT
REMARK Flexibility Score: inf
ROOT
ATOM      1  C   UNL     1      10.495  16.206  67.545  1.00  0.00     0.000 C 
ENDROOT
BRANCH   1   2
ATOM      2  C   UNL     1      11.510  17.005  68.383  1.00  0.00     0.000 C 
BRANCH   2   3
ATOM      3  C   UNL     1      10.848  17.696  69.594  1.00  0.00     0.000 C 
BRANCH   3   4
ATOM      4  C   UNL     1      11.408  17.230  70.949  1.00  0.00     0.000 C 
BRANCH   4   5
ATOM      5  C   UNL     1      10.311  16.864  71.958  1.00  0.00     0.000 C 
BRANCH   5   6
ATOM      6  C   UNL     1       8.995  17.584  71.628  1.00  0.00     0.000 C 
BRANCH   6   7
ATOM      7  C   UNL     1       8.118  17.823  72.871  1.00  0.00     0.006 C 
BRANCH   7   8
ATOM      8  C   UNL     1       8.426  16.890  74.053  1.00  0.00     0.053 C 
BRANCH   8   9
ATOM      9  C   UNL     1       7.178  16.427  74.743  1.00  0.00     0.041 C 
ATOM     10  O   UNL     1       7.198  16.155  75.972  1.00  0.00    -0.550 OA
ATOM     11  O   UNL     1       5.987  16.331  74.036  1.00  0.00    -0.550 OA
ENDBRANCH   8   9
ENDBRANCH   7   8
ENDBRANCH   6   7
ENDBRANCH   5   6
ENDBRANCH   4   5
ENDBRANCH   3   4
ENDBRANCH   2   3
ENDBRANCH   1   2
BRANCH   1  12
ATOM     12  C   UNL     1       9.187  15.935  68.303  1.00  0.00     0.000 C 
BRANCH  12  13
ATOM     13  C   UNL     1       9.240  14.627  69.113  1.00  0.00    -0.000 C 
BRANCH  13  14
ATOM     14  C   UNL     1       9.912  13.482  68.337  1.00  0.00    -0.000 C 
BRANCH  14  15
ATOM     15  C   UNL     1      11.022  12.792  69.146  1.00  0.00    -0.000 C 
BRANCH  15  16
ATOM     16  C   UNL     1      11.179  13.441  70.526  1.00  0.00    -0.000 C 
BRANCH  16  17
ATOM     17  C   UNL     1      12.594  14.013  70.706  1.00  0.00    -0.000 C 
BRANCH  17  18
ATOM     18  C   UNL     1      13.517  13.694  69.520  1.00  0.00    -0.000 C 
BRANCH  18  19
ATOM     19  C   UNL     1      14.362  14.901  69.086  1.00  0.00    -0.003 C 
ATOM     20  C   UNL     1      14.603  15.852  70.254  1.00  0.00     0.004 C 
ENDBRANCH  18  19
ENDBRANCH  17  18
ENDBRANCH  16  17
ENDBRANCH  15  16
ENDBRANCH  14  15
ENDBRANCH  13  14
ENDBRANCH  12  13
ENDBRANCH   1  12
TORSDOF 16
ENDMDL
MODEL 6
REMARK VINA RESULT:    -4.830      3.304      6.171
REMARK INTER + INTRA:         -11.955
REMARK INTER:                  -9.462
REMARK INTRA:                  -2.493
REMARK UNBOUND:                -2.607
REMARK SMILES CCCCCCCCCCCCCCCCCC(=O)[O-]
REMARK SMILES IDX 10 1 11 2 12 3 13 4 14 5 15 6 16 7 17 8 18 9 19 10 20 11
REMARK SMILES IDX 9 12 8 13 7 14 6 15 5 16 4 17 3 18 2 19 1 20
REMARK H PARENT
REMARK Flexibility Score: inf
ROOT
ATOM      1  C   UNL     1       9.680  14.546  68.935  1.00  0.00     0.000 C 
ENDROOT
BRANCH   1   2
ATOM      2  C   UNL     1       9.106  15.959  68.723  1.00  0.00     0.000 C 
BRANCH   2   3
ATOM      3  C   UNL     1      10.200  17.047  68.786  1.00  0.00     0.000 C 
BRANCH   3   4
ATOM      4  C   UNL     1       9.963  18.093  69.888  1.00  0.00     0.000 C 
BRANCH   4   5
ATOM      5  C   UNL     1       8.925  17.646  70.927  1.00  0.00     0.000 C 
BRANCH   5   6
ATOM      6  C   UNL     1       8.697  18.737  71.984  1.00  0.00     0.000 C 
BRANCH   6   7
ATOM      7  C   UNL     1       7.761  18.281  73.118  1.00  0.00     0.006 C 
BRANCH   7   8
ATOM      8  C   UNL     1       8.305  17.116  73.960  1.00  0.00     0.053 C 
BRANCH   8   9
ATOM      9  C   UNL     1       7.208  16.358  74.647  1.00  0.00     0.041 C 
ATOM     10  O   UNL     1       7.460  15.666  75.667  1.00  0.00    -0.550 OA
ATOM     11  O   UNL     1       5.903  16.449  74.181  1.00  0.00    -0.550 OA
ENDBRANCH   8   9
ENDBRANCH   7   8
ENDBRANCH   6   7
ENDBRANCH   5   6
ENDBRANCH   4   5
ENDBRANCH   3   4
ENDBRANCH   2   3
ENDBRANCH   1   2
BRANCH   1  12
ATOM     12  C   UNL     1      10.937  14.287  68.091  1.00  0.00     0.000 C 
BRANCH  12  13
ATOM     13  C   UNL     1      11.781  13.123  68.641  1.00  0.00    -0.000 C 
BRANCH  13  14
ATOM     14  C   UNL     1      13.155  13.585  69.155  1.00  0.00    -0.000 C 
BRANCH  14  15
ATOM     15  C   UNL     1      13.345  15.106  69.052  1.00  0.00    -0.000 C 
BRANCH  15  16
ATOM     16  C   UNL     1      13.902  15.679  70.360  1.00  0.00    -0.000 C 
BRANCH  16  17
ATOM     17  C   UNL     1      12.937  16.712  70.964  1.00  0.00    -0.000 C 
BRANCH  17  18
ATOM     18  C   UNL     1      12.399  16.286  72.338  1.00  0.00    -0.000 C 
BRANCH  18  19
ATOM     19  C   UNL     1      11.075  15.513  72.242  1.00  0.00    -0.003 C 
ATOM     20  C   UNL     1      11.318  14.007  72.236  1.00  0.00     0.004 C 
ENDBRANCH  18  19
ENDBRANCH  17  18
ENDBRANCH  16  17
ENDBRANCH  15  16
ENDBRANCH  14  15
ENDBRANCH  13  14
ENDBRANCH  12  13
ENDBRANCH   1  12
TORSDOF 16
ENDMDL
MODEL 7
REMARK VINA RESULT:    -4.819      3.006      6.118
REMARK INTER + INTRA:         -11.933
REMARK INTER:                  -8.918
REMARK INTRA:                  -3.015
REMARK UNBOUND:                -2.607
REMARK SMILES CCCCCCCCCCCCCCCCCC(=O)[O-]
REMARK SMILES IDX 10 1 11 2 12 3 13 4 14 5 15 6 16 7 17 8 18 9 19 10 20 11
REMARK SMILES IDX 9 12 8 13 7 14 6 15 5 16 4 17 3 18 2 19 1 20
REMARK H PARENT
REMARK Flexibility Score: inf
ROOT
ATOM      1  C   UNL     1      11.091  14.386  67.896  1.00  0.00     0.000 C 
ENDROOT
BRANCH   1   2
ATOM      2  C   UNL     1      11.117  15.849  67.419  1.00  0.00     0.000 C 
BRANCH   2   3
ATOM      3  C   UNL     1      10.232  16.763  68.294  1.00  0.00     0.000 C 
BRANCH   3   4
ATOM      4  C   UNL     1      10.818  18.170  68.502  1.00  0.00     0.000 C 
BRANCH   4   5
ATOM      5  C   UNL     1      10.352  18.827  69.808  1.00  0.00     0.000 C 
BRANCH   5   6
ATOM      6  C   UNL     1       9.280  17.974  70.504  1.00  0.00     0.000 C 
BRANCH   6   7
ATOM      7  C   UNL     1       8.823  18.570  71.848  1.00  0.00     0.006 C 
BRANCH   7   8
ATOM      8  C   UNL     1       8.642  17.537  72.972  1.00  0.00     0.053 C 
BRANCH   8   9
ATOM      9  C   UNL     1       7.280  17.615  73.593  1.00  0.00     0.041 C 
ATOM     10  O   UNL     1       6.291  17.090  73.018  1.00  0.00    -0.550 OA
ATOM     11  O   UNL     1       7.111  18.236  74.824  1.00  0.00    -0.550 OA
ENDBRANCH   8   9
ENDBRANCH   7   8
ENDBRANCH   6   7
ENDBRANCH   5   6
ENDBRANCH   4   5
ENDBRANCH   3   4
ENDBRANCH   2   3
ENDBRANCH   1   2
BRANCH   1  12
ATOM     12  C   UNL     1      10.271  14.199  69.182  1.00  0.00     0.000 C 
BRANCH  12  13
ATOM     13  C   UNL     1      10.901  13.166  70.132  1.00  0.00    -0.000 C 
BRANCH  13  14
ATOM     14  C   UNL     1      11.312  13.780  71.481  1.00  0.00    -0.000 C 
BRANCH  14  15
ATOM     15  C   UNL     1      11.131  15.305  71.516  1.00  0.00    -0.000 C 
BRANCH  15  16
ATOM     16  C   UNL     1      12.335  15.985  72.178  1.00  0.00    -0.000 C 
BRANCH  16  17
ATOM     17  C   UNL     1      13.084  16.876  71.174  1.00  0.00    -0.000 C 
BRANCH  17  18
ATOM     18  C   UNL     1      13.608  16.090  69.962  1.00  0.00    -0.000 C 
BRANCH  18  19
ATOM     19  C   UNL     1      14.824  15.216  70.304  1.00  0.00    -0.003 C 
ATOM     20  C   UNL     1      14.583  13.762  69.914  1.00  0.00     0.004 C 
ENDBRANCH  18  19
ENDBRANCH  17  18
ENDBRANCH  16  17
ENDBRANCH  15  16
ENDBRANCH  14  15
ENDBRANCH  13  14
ENDBRANCH  12  13
ENDBRANCH   1  12
TORSDOF 16
ENDMDL
MODEL 8
REMARK VINA RESULT:    -4.786      2.325      5.920
REMARK INTER + INTRA:         -11.870
REMARK INTER:                  -9.679
REMARK INTRA:                  -2.190
REMARK UNBOUND:                -2.607
REMARK SMILES CCCCCCCCCCCCCCCCCC(=O)[O-]
REMARK SMILES IDX 10 1 11 2 12 3 13 4 14 5 15 6 16 7 17 8 18 9 19 10 20 11
REMARK SMILES IDX 9 12 8 13 7 14 6 15 5 16 4 17 3 18 2 19 1 20
REMARK H PARENT
REMARK Flexibility Score: inf
ROOT
ATOM      1  C   UNL     1       9.916  18.673  70.240  1.00  0.00     0.000 C 
ENDROOT
BRANCH   1   2
ATOM      2  C   UNL     1       9.431  17.318  70.785  1.00  0.00     0.000 C 
BRANCH   2   3
ATOM      3  C   UNL     1       9.568  17.224  72.320  1.00  0.00     0.000 C 
BRANCH   3   4
ATOM      4  C   UNL     1      10.559  16.144  72.784  1.00  0.00     0.000 C 
BRANCH   4   5
ATOM      5  C   UNL     1      11.225  15.400  71.618  1.00  0.00     0.000 C 
BRANCH   5   6
ATOM      6  C   UNL     1      11.276  13.888  71.885  1.00  0.00     0.000 C 
BRANCH   6   7
ATOM      7  C   UNL     1      11.302  13.054  70.591  1.00  0.00     0.006 C 
BRANCH   7   8
ATOM      8  C   UNL     1      10.255  13.472  69.546  1.00  0.00     0.053 C 
BRANCH   8   9
ATOM      9  C   UNL     1      10.132  12.468  68.440  1.00  0.00     0.041 C 
ATOM     10  O   UNL     1      10.600  12.722  67.299  1.00  0.00    -0.550 OA
ATOM     11  O   UNL     1       9.535  11.238  68.681  1.00  0.00    -0.550 OA
ENDBRANCH   8   9
ENDBRANCH   7   8
ENDBRANCH   6   7
ENDBRANCH   5   6
ENDBRANCH   4   5
ENDBRANCH   3   4
ENDBRANCH   2   3
ENDBRANCH   1   2
BRANCH   1  12
ATOM     12  C   UNL     1      11.240  18.560  69.470  1.00  0.00     0.000 C 
BRANCH  12  13
ATOM     13  C   UNL     1      11.041  18.025  68.041  1.00  0.00    -0.000 C 
BRANCH  13  14
ATOM     14  C   UNL     1      11.355  16.524  67.924  1.00  0.00    -0.000 C 
BRANCH  14  15
ATOM     15  C   UNL     1      12.297  16.206  66.752  1.00  0.00    -0.000 C 
BRANCH  15  16
ATOM     16  C   UNL     1      13.525  15.424  67.233  1.00  0.00    -0.000 C 
BRANCH  16  17
ATOM     17  C   UNL     1      13.387  15.041  68.715  1.00  0.00    -0.000 C 
BRANCH  17  18
ATOM     18  C   UNL     1      14.569  15.532  69.565  1.00  0.00    -0.000 C 
BRANCH  18  19
ATOM     19  C   UNL     1      15.335  14.382  70.236  1.00  0.00    -0.003 C 
ATOM     20  C   UNL     1      16.815  14.419  69.867  1.00  0.00     0.004 C 
ENDBRANCH  18  19
ENDBRANCH  17  18
ENDBRANCH  16  17
ENDBRANCH  15  16
ENDBRANCH  14  15
ENDBRANCH  13  14
ENDBRANCH  12  13
ENDBRANCH   1  12
TORSDOF 16
ENDMDL
MODEL 9
REMARK VINA RESULT:    -4.775      3.283      6.695
REMARK INTER + INTRA:         -11.849
REMARK INTER:                  -9.370
REMARK INTRA:                  -2.479
REMARK UNBOUND:                -2.607
REMARK SMILES CCCCCCCCCCCCCCCCCC(=O)[O-]
REMARK SMILES IDX 10 1 11 2 12 3 13 4 14 5 15 6 16 7 17 8 18 9 19 10 20 11
REMARK SMILES IDX 9 12 8 13 7 14 6 15 5 16 4 17 3 18 2 19 1 20
REMARK H PARENT
REMARK Flexibility Score: inf
ROOT
ATOM      1  C   UNL     1      10.917  17.578  67.968  1.00  0.00     0.000 C 
ENDROOT
BRANCH   1   2
ATOM      2  C   UNL     1       9.978  17.413  69.178  1.00  0.00     0.000 C 
BRANCH   2   3
ATOM      3  C   UNL     1      10.750  17.382  70.514  1.00  0.00     0.000 C 
BRANCH   3   4
ATOM      4  C   UNL     1       9.840  17.279  71.748  1.00  0.00     0.000 C 
BRANCH   4   5
ATOM      5  C   UNL     1       8.384  17.668  71.454  1.00  0.00     0.000 C 
BRANCH   5   6
ATOM      6  C   UNL     1       7.919  18.805  72.377  1.00  0.00     0.000 C 
BRANCH   6   7
ATOM      7  C   UNL     1       8.233  18.534  73.860  1.00  0.00     0.006 C 
BRANCH   7   8
ATOM      8  C   UNL     1       7.011  18.133  74.704  1.00  0.00     0.053 C 
BRANCH   8   9
ATOM      9  C   UNL     1       6.749  16.658  74.647  1.00  0.00     0.041 C 
ATOM     10  O   UNL     1       7.435  15.866  75.344  1.00  0.00    -0.550 OA
ATOM     11  O   UNL     1       5.722  16.164  73.853  1.00  0.00    -0.550 OA
ENDBRANCH   8   9
ENDBRANCH   7   8
ENDBRANCH   6   7
ENDBRANCH   5   6
ENDBRANCH   4   5
ENDBRANCH   3   4
ENDBRANCH   2   3
ENDBRANCH   1   2
BRANCH   1  12
ATOM     12  C   UNL     1      11.229  16.242  67.278  1.00  0.00     0.000 C 
BRANCH  12  13
ATOM     13  C   UNL     1      12.733  16.058  67.013  1.00  0.00    -0.000 C 
BRANCH  13  14
ATOM     14  C   UNL     1      13.364  14.990  67.921  1.00  0.00    -0.000 C 
BRANCH  14  15
ATOM     15  C   UNL     1      13.733  15.536  69.309  1.00  0.00    -0.000 C 
BRANCH  15  16
ATOM     16  C   UNL     1      13.303  14.562  70.413  1.00  0.00    -0.000 C 
BRANCH  16  17
ATOM     17  C   UNL     1      12.358  13.485  69.858  1.00  0.00    -0.000 C 
BRANCH  17  18
ATOM     18  C   UNL     1      10.893  13.720  70.260  1.00  0.00    -0.000 C 
BRANCH  18  19
ATOM     19  C   UNL     1       9.916  13.487  69.098  1.00  0.00    -0.003 C 
ATOM     20  C   UNL     1      10.533  12.586  68.034  1.00  0.00     0.004 C 
ENDBRANCH  18  19
ENDBRANCH  17  18
ENDBRANCH  16  17
ENDBRANCH  15  16
ENDBRANCH  14  15
ENDBRANCH  13  14
ENDBRANCH  12  13
ENDBRANCH   1  12
TORSDOF 16
ENDMDL
