MODEL 1
REMARK VINA RESULT:    -3.557      0.000      0.000
REMARK INTER + INTRA:          -8.845
REMARK INTER:                  -6.467
REMARK INTRA:                  -2.378
REMARK UNBOUND:                -2.378
REMARK SMILES CCCCCCCCCCCCCC[C@H](C)C(=O)[O-]
REMARK SMILES IDX 9 1 10 2 11 3 12 4 13 5 14 6 15 7 16 8 17 9 18 10 19 11 8 12
REMARK SMILES IDX 7 13 6 14 5 15 4 16 3 17 2 18 1 19
REMARK H PARENT
REMARK Flexibility Score: inf
ROOT
ATOM      1  C   UNL     1      24.430  -4.448 -27.813  1.00  0.00     0.000 C 
ENDROOT
BRANCH   1   2
ATOM      2  C   UNL     1      23.819  -4.368 -29.220  1.00  0.00     0.000 C 
BRANCH   2   3
ATOM      3  C   UNL     1      24.880  -4.643 -30.295  1.00  0.00     0.000 C 
BRANCH   3   4
ATOM      4  C   UNL     1      24.316  -5.387 -31.519  1.00  0.00     0.000 C 
BRANCH   4   5
ATOM      5  C   UNL     1      24.706  -4.790 -32.885  1.00  0.00     0.001 C 
BRANCH   5   6
ATOM      6  C   UNL     1      23.626  -3.923 -33.567  1.00  0.00     0.009 C 
BRANCH   6   7
ATOM      7  C   UNL     1      23.857  -2.399 -33.419  1.00  0.00     0.032 C 
ATOM      8  C   UNL     1      25.348  -2.091 -33.242  1.00  0.00     0.014 C 
BRANCH   7   9
ATOM      9  C   UNL     1      23.097  -1.830 -32.252  1.00  0.00     0.044 C 
ATOM     10  O   UNL     1      21.843  -1.715 -32.309  1.00  0.00    -0.550 OA
ATOM     11  O   UNL     1      23.774  -1.384 -31.122  1.00  0.00    -0.550 OA
ENDBRANCH   7   9
ENDBRANCH   6   7
ENDBRANCH   5   6
ENDBRANCH   4   5
ENDBRANCH   3   4
ENDBRANCH   2   3
ENDBRANCH   1   2
BRANCH   1  12
ATOM     12  C   UNL     1      23.851  -5.604 -26.981  1.00  0.00     0.000 C 
BRANCH  12  13
ATOM     13  C   UNL     1      24.930  -6.355 -26.181  1.00  0.00    -0.000 C 
BRANCH  13  14
ATOM     14  C   UNL     1      25.134  -7.798 -26.669  1.00  0.00    -0.000 C 
BRANCH  14  15
ATOM     15  C   UNL     1      24.558  -8.030 -28.077  1.00  0.00    -0.000 C 
BRANCH  15  16
ATOM     16  C   UNL     1      25.632  -7.983 -29.180  1.00  0.00    -0.000 C 
BRANCH  16  17
ATOM     17  C   UNL     1      27.084  -7.890 -28.674  1.00  0.00    -0.000 C 
BRANCH  17  18
ATOM     18  C   UNL     1      27.846  -6.691 -29.257  1.00  0.00    -0.003 C 
ATOM     19  C   UNL     1      27.955  -5.560 -28.237  1.00  0.00     0.004 C 
ENDBRANCH  17  18
ENDBRANCH  16  17
ENDBRANCH  15  16
ENDBRANCH  14  15
ENDBRANCH  13  14
ENDBRANCH  12  13
ENDBRANCH   1  12
TORSDOF 14
ENDMDL
MODEL 2
REMARK VINA RESULT:    -3.457      2.063      3.072
REMARK INTER + INTRA:          -8.663
REMARK INTER:                  -6.193
REMARK INTRA:                  -2.470
REMARK UNBOUND:                -2.378
REMARK SMILES CCCCCCCCCCCCCC[C@H](C)C(=O)[O-]
REMARK SMILES IDX 9 1 10 2 11 3 12 4 13 5 14 6 15 7 16 8 17 9 18 10 19 11 8 12
REMARK SMILES IDX 7 13 6 14 5 15 4 16 3 17 2 18 1 19
REMARK H PARENT
REMARK Flexibility Score: inf
ROOT
ATOM      1  C   UNL     1      23.883  -5.965 -26.945  1.00  0.00     0.000 C 
ENDROOT
BRANCH   1   2
ATOM      2  C   UNL     1      24.779  -4.720 -27.028  1.00  0.00     0.000 C 
BRANCH   2   3
ATOM      3  C   UNL     1      24.228  -3.715 -28.050  1.00  0.00     0.000 C 
BRANCH   3   4
ATOM      4  C   UNL     1      24.745  -3.966 -29.479  1.00  0.00     0.000 C 
BRANCH   4   5
ATOM      5  C   UNL     1      23.779  -4.736 -30.400  1.00  0.00     0.001 C 
BRANCH   5   6
ATOM      6  C   UNL     1      24.397  -5.291 -31.700  1.00  0.00     0.009 C 
BRANCH   6   7
ATOM      7  C   UNL     1      24.824  -4.198 -32.711  1.00  0.00     0.032 C 
ATOM      8  C   UNL     1      23.696  -3.911 -33.708  1.00  0.00     0.014 C 
BRANCH   7   9
ATOM      9  C   UNL     1      26.061  -4.594 -33.471  1.00  0.00     0.044 C 
ATOM     10  O   UNL     1      27.201  -4.390 -32.974  1.00  0.00    -0.550 OA
ATOM     11  O   UNL     1      25.959  -5.142 -34.745  1.00  0.00    -0.550 OA
ENDBRANCH   7   9
ENDBRANCH   6   7
ENDBRANCH   5   6
ENDBRANCH   4   5
ENDBRANCH   3   4
ENDBRANCH   2   3
ENDBRANCH   1   2
BRANCH   1  12
ATOM     12  C   UNL     1      24.688  -7.275 -26.953  1.00  0.00     0.000 C 
BRANCH  12  13
ATOM     13  C   UNL     1      24.599  -8.015 -28.300  1.00  0.00    -0.000 C 
BRANCH  13  14
ATOM     14  C   UNL     1      25.782  -7.700 -29.229  1.00  0.00    -0.000 C 
BRANCH  14  15
ATOM     15  C   UNL     1      27.142  -7.986 -28.568  1.00  0.00    -0.000 C 
BRANCH  15  16
ATOM     16  C   UNL     1      28.115  -6.796 -28.660  1.00  0.00    -0.000 C 
BRANCH  16  17
ATOM     17  C   UNL     1      27.787  -5.767 -29.758  1.00  0.00    -0.000 C 
BRANCH  17  18
ATOM     18  C   UNL     1      28.488  -4.417 -29.543  1.00  0.00    -0.003 C 
ATOM     19  C   UNL     1      28.288  -3.915 -28.116  1.00  0.00     0.004 C 
ENDBRANCH  17  18
ENDBRANCH  16  17
ENDBRANCH  15  16
ENDBRANCH  14  15
ENDBRANCH  13  14
ENDBRANCH  12  13
ENDBRANCH   1  12
TORSDOF 14
ENDMDL
MODEL 3
REMARK VINA RESULT:    -3.320      3.212      6.209
REMARK INTER + INTRA:          -8.414
REMARK INTER:                  -6.391
REMARK INTRA:                  -2.024
REMARK UNBOUND:                -2.378
REMARK SMILES CCCCCCCCCCCCCC[C@H](C)C(=O)[O-]
REMARK SMILES IDX 9 1 10 2 11 3 12 4 13 5 14 6 15 7 16 8 17 9 18 10 19 11 8 12
REMARK SMILES IDX 7 13 6 14 5 15 4 16 3 17 2 18 1 19
REMARK H PARENT
REMARK Flexibility Score: inf
ROOT
ATOM      1  C   UNL     1      24.505  -4.410 -27.730  1.00  0.00     0.000 C 
ENDROOT
BRANCH   1   2
ATOM      2  C   UNL     1      23.760  -5.740 -27.543  1.00  0.00     0.000 C 
BRANCH   2   3
ATOM      3  C   UNL     1      24.534  -6.675 -26.603  1.00  0.00     0.000 C 
BRANCH   3   4
ATOM      4  C   UNL     1      24.937  -8.002 -27.271  1.00  0.00     0.000 C 
BRANCH   4   5
ATOM      5  C   UNL     1      25.252  -7.908 -28.777  1.00  0.00     0.001 C 
BRANCH   5   6
ATOM      6  C   UNL     1      26.747  -7.786 -29.139  1.00  0.00     0.009 C 
BRANCH   6   7
ATOM      7  C   UNL     1      27.402  -6.462 -28.671  1.00  0.00     0.032 C 
ATOM      8  C   UNL     1      27.887  -5.643 -29.873  1.00  0.00     0.014 C 
BRANCH   7   9
ATOM      9  C   UNL     1      28.564  -6.711 -27.747  1.00  0.00     0.044 C 
ATOM     10  O   UNL     1      29.713  -6.290 -28.048  1.00  0.00    -0.550 OA
ATOM     11  O   UNL     1      28.390  -7.446 -26.580  1.00  0.00    -0.550 OA
ENDBRANCH   7   9
ENDBRANCH   6   7
ENDBRANCH   5   6
ENDBRANCH   4   5
ENDBRANCH   3   4
ENDBRANCH   2   3
ENDBRANCH   1   2
BRANCH   1  12
ATOM     12  C   UNL     1      24.474  -3.914 -29.185  1.00  0.00     0.000 C 
BRANCH  12  13
ATOM     13  C   UNL     1      23.710  -4.870 -30.119  1.00  0.00    -0.000 C 
BRANCH  13  14
ATOM     14  C   UNL     1      24.553  -5.324 -31.321  1.00  0.00    -0.000 C 
BRANCH  14  15
ATOM     15  C   UNL     1      24.010  -4.787 -32.657  1.00  0.00    -0.000 C 
BRANCH  15  16
ATOM     16  C   UNL     1      25.047  -3.956 -33.435  1.00  0.00    -0.000 C 
BRANCH  16  17
ATOM     17  C   UNL     1      26.248  -4.753 -33.979  1.00  0.00    -0.000 C 
BRANCH  17  18
ATOM     18  C   UNL     1      26.223  -4.905 -35.507  1.00  0.00    -0.003 C 
ATOM     19  C   UNL     1      25.471  -3.750 -36.163  1.00  0.00     0.004 C 
ENDBRANCH  17  18
ENDBRANCH  16  17
ENDBRANCH  15  16
ENDBRANCH  14  15
ENDBRANCH  13  14
ENDBRANCH  12  13
ENDBRANCH   1  12
TORSDOF 14
ENDMDL
MODEL 4
REMARK VINA RESULT:    -3.315      8.621     10.899
REMARK INTER + INTRA:          -8.407
REMARK INTER:                  -5.782
REMARK INTRA:                  -2.625
REMARK UNBOUND:                -2.378
REMARK SMILES CCCCCCCCCCCCCC[C@H](C)C(=O)[O-]
REMARK SMILES IDX 9 1 10 2 11 3 12 4 13 5 14 6 15 7 16 8 17 9 18 10 19 11 8 12
REMARK SMILES IDX 7 13 6 14 5 15 4 16 3 17 2 18 1 19
REMARK H PARENT
REMARK Flexibility Score: inf
ROOT
ATOM      1  C   UNL     1      31.756   0.671 -37.901  1.00  0.00     0.000 C 
ENDROOT
BRANCH   1   2
ATOM      2  C   UNL     1      30.769   0.491 -39.064  1.00  0.00     0.000 C 
BRANCH   2   3
ATOM      3  C   UNL     1      29.583  -0.389 -38.645  1.00  0.00     0.000 C 
BRANCH   3   4
ATOM      4  C   UNL     1      29.120  -1.345 -39.760  1.00  0.00     0.000 C 
BRANCH   4   5
ATOM      5  C   UNL     1      29.857  -2.697 -39.813  1.00  0.00     0.001 C 
BRANCH   5   6
ATOM      6  C   UNL     1      28.969  -3.948 -39.653  1.00  0.00     0.009 C 
BRANCH   6   7
ATOM      7  C   UNL     1      29.065  -4.616 -38.258  1.00  0.00     0.032 C 
ATOM      8  C   UNL     1      29.126  -6.142 -38.391  1.00  0.00     0.014 C 
BRANCH   7   9
ATOM      9  C   UNL     1      27.900  -4.246 -37.381  1.00  0.00     0.044 C 
ATOM     10  O   UNL     1      26.994  -5.089 -37.145  1.00  0.00    -0.550 OA
ATOM     11  O   UNL     1      27.788  -2.961 -36.864  1.00  0.00    -0.550 OA
ENDBRANCH   7   9
ENDBRANCH   6   7
ENDBRANCH   5   6
ENDBRANCH   4   5
ENDBRANCH   3   4
ENDBRANCH   2   3
ENDBRANCH   1   2
BRANCH   1  12
ATOM     12  C   UNL     1      33.160   0.137 -38.229  1.00  0.00     0.000 C 
BRANCH  12  13
ATOM     13  C   UNL     1      33.136  -1.318 -38.730  1.00  0.00    -0.000 C 
BRANCH  13  14
ATOM     14  C   UNL     1      33.567  -2.324 -37.651  1.00  0.00    -0.000 C 
BRANCH  14  15
ATOM     15  C   UNL     1      32.430  -3.282 -37.251  1.00  0.00    -0.000 C 
BRANCH  15  16
ATOM     16  C   UNL     1      31.410  -2.635 -36.296  1.00  0.00    -0.000 C 
BRANCH  16  17
ATOM     17  C   UNL     1      31.931  -2.356 -34.874  1.00  0.00    -0.000 C 
BRANCH  17  18
ATOM     18  C   UNL     1      31.795  -0.882 -34.465  1.00  0.00    -0.003 C 
ATOM     19  C   UNL     1      33.141  -0.165 -34.535  1.00  0.00     0.004 C 
ENDBRANCH  17  18
ENDBRANCH  16  17
ENDBRANCH  15  16
ENDBRANCH  14  15
ENDBRANCH  13  14
ENDBRANCH  12  13
ENDBRANCH   1  12
TORSDOF 14
ENDMDL
MODEL 5
REMARK VINA RESULT:    -3.297      2.329      3.460
REMARK INTER + INTRA:          -8.373
REMARK INTER:                  -5.934
REMARK INTRA:                  -2.439
REMARK UNBOUND:                -2.378
REMARK SMILES CCCCCCCCCCCCCC[C@H](C)C(=O)[O-]
REMARK SMILES IDX 9 1 10 2 11 3 12 4 13 5 14 6 15 7 16 8 17 9 18 10 19 11 8 12
REMARK SMILES IDX 7 13 6 14 5 15 4 16 3 17 2 18 1 19
REMARK H PARENT
REMARK Flexibility Score: inf
ROOT
ATOM      1  C   UNL     1      26.493  -2.664 -29.408  1.00  0.00     0.000 C 
ENDROOT
BRANCH   1   2
ATOM      2  C   UNL     1      25.104  -3.189 -29.014  1.00  0.00     0.000 C 
BRANCH   2   3
ATOM      3  C   UNL     1      24.220  -3.385 -30.253  1.00  0.00     0.000 C 
BRANCH   3   4
ATOM      4  C   UNL     1      23.755  -4.842 -30.436  1.00  0.00     0.000 C 
BRANCH   4   5
ATOM      5  C   UNL     1      24.221  -5.521 -31.738  1.00  0.00     0.001 C 
BRANCH   5   6
ATOM      6  C   UNL     1      24.468  -4.575 -32.932  1.00  0.00     0.009 C 
BRANCH   6   7
ATOM      7  C   UNL     1      25.791  -4.850 -33.690  1.00  0.00     0.032 C 
ATOM      8  C   UNL     1      26.987  -4.285 -32.915  1.00  0.00     0.014 C 
BRANCH   7   9
ATOM      9  C   UNL     1      25.777  -4.254 -35.071  1.00  0.00     0.044 C 
ATOM     10  O   UNL     1      25.165  -3.173 -35.288  1.00  0.00    -0.550 OA
ATOM     11  O   UNL     1      26.395  -4.912 -36.128  1.00  0.00    -0.550 OA
ENDBRANCH   7   9
ENDBRANCH   6   7
ENDBRANCH   5   6
ENDBRANCH   4   5
ENDBRANCH   3   4
ENDBRANCH   2   3
ENDBRANCH   1   2
BRANCH   1  12
ATOM     12  C   UNL     1      27.582  -3.746 -29.316  1.00  0.00     0.000 C 
BRANCH  12  13
ATOM     13  C   UNL     1      27.043  -5.081 -28.770  1.00  0.00    -0.000 C 
BRANCH  13  14
ATOM     14  C   UNL     1      27.527  -6.292 -29.582  1.00  0.00    -0.000 C 
BRANCH  14  15
ATOM     15  C   UNL     1      26.836  -7.600 -29.157  1.00  0.00    -0.000 C 
BRANCH  15  16
ATOM     16  C   UNL     1      26.722  -7.748 -27.629  1.00  0.00    -0.000 C 
BRANCH  16  17
ATOM     17  C   UNL     1      25.308  -8.061 -27.106  1.00  0.00    -0.000 C 
BRANCH  17  18
ATOM     18  C   UNL     1      24.220  -7.208 -27.774  1.00  0.00    -0.003 C 
ATOM     19  C   UNL     1      23.872  -5.992 -26.919  1.00  0.00     0.004 C 
ENDBRANCH  17  18
ENDBRANCH  16  17
ENDBRANCH  15  16
ENDBRANCH  14  15
ENDBRANCH  13  14
ENDBRANCH  12  13
ENDBRANCH   1  12
TORSDOF 14
ENDMDL
MODEL 6
REMARK VINA RESULT:    -3.236     10.936     13.052
REMARK INTER + INTRA:          -8.262
REMARK INTER:                  -6.586
REMARK INTRA:                  -1.676
REMARK UNBOUND:                -2.378
REMARK SMILES CCCCCCCCCCCCCC[C@H](C)C(=O)[O-]
REMARK SMILES IDX 9 1 10 2 11 3 12 4 13 5 14 6 15 7 16 8 17 9 18 10 19 11 8 12
REMARK SMILES IDX 7 13 6 14 5 15 4 16 3 17 2 18 1 19
REMARK H PARENT
REMARK Flexibility Score: inf
ROOT
ATOM      1  C   UNL     1      30.680   1.558 -36.297  1.00  0.00     0.000 C 
ENDROOT
BRANCH   1   2
ATOM      2  C   UNL     1      30.149   2.819 -35.599  1.00  0.00     0.000 C 
BRANCH   2   3
ATOM      3  C   UNL     1      30.899   3.075 -34.285  1.00  0.00     0.000 C 
BRANCH   3   4
ATOM      4  C   UNL     1      32.236   2.315 -34.198  1.00  0.00     0.000 C 
BRANCH   4   5
ATOM      5  C   UNL     1      33.124   2.686 -32.994  1.00  0.00     0.001 C 
BRANCH   5   6
ATOM      6  C   UNL     1      34.241   3.712 -33.280  1.00  0.00     0.009 C 
BRANCH   6   7
ATOM      7  C   UNL     1      34.551   4.653 -32.090  1.00  0.00     0.032 C 
ATOM      8  C   UNL     1      33.255   5.140 -31.432  1.00  0.00     0.014 C 
BRANCH   7   9
ATOM      9  C   UNL     1      35.361   5.846 -32.519  1.00  0.00     0.044 C 
ATOM     10  O   UNL     1      36.076   5.786 -33.555  1.00  0.00    -0.550 OA
ATOM     11  O   UNL     1      35.367   7.006 -31.751  1.00  0.00    -0.550 OA
ENDBRANCH   7   9
ENDBRANCH   6   7
ENDBRANCH   5   6
ENDBRANCH   4   5
ENDBRANCH   3   4
ENDBRANCH   2   3
ENDBRANCH   1   2
BRANCH   1  12
ATOM     12  C   UNL     1      30.038   1.330 -37.676  1.00  0.00     0.000 C 
BRANCH  12  13
ATOM     13  C   UNL     1      31.063   0.900 -38.741  1.00  0.00    -0.000 C 
BRANCH  13  14
ATOM     14  C   UNL     1      31.190  -0.627 -38.860  1.00  0.00    -0.000 C 
BRANCH  14  15
ATOM     15  C   UNL     1      32.618  -1.124 -38.573  1.00  0.00    -0.000 C 
BRANCH  15  16
ATOM     16  C   UNL     1      33.525  -0.030 -37.980  1.00  0.00    -0.000 C 
BRANCH  16  17
ATOM     17  C   UNL     1      33.908  -0.228 -36.502  1.00  0.00    -0.000 C 
BRANCH  17  18
ATOM     18  C   UNL     1      33.371  -1.541 -35.915  1.00  0.00    -0.003 C 
ATOM     19  C   UNL     1      32.611  -1.293 -34.614  1.00  0.00     0.004 C 
ENDBRANCH  17  18
ENDBRANCH  16  17
ENDBRANCH  15  16
ENDBRANCH  14  15
ENDBRANCH  13  14
ENDBRANCH  12  13
ENDBRANCH   1  12
TORSDOF 14
ENDMDL
MODEL 7
REMARK VINA RESULT:    -3.224     13.810     16.080
REMARK INTER + INTRA:          -8.240
REMARK INTER:                  -6.178
REMARK INTRA:                  -2.061
REMARK UNBOUND:                -2.378
REMARK SMILES CCCCCCCCCCCCCC[C@H](C)C(=O)[O-]
REMARK SMILES IDX 9 1 10 2 11 3 12 4 13 5 14 6 15 7 16 8 17 9 18 10 19 11 8 12
REMARK SMILES IDX 7 13 6 14 5 15 4 16 3 17 2 18 1 19
REMARK H PARENT
REMARK Flexibility Score: inf
ROOT
ATOM      1  C   UNL     1      32.062   7.892 -28.494  1.00  0.00     0.000 C 
ENDROOT
BRANCH   1   2
ATOM      2  C   UNL     1      31.464   7.109 -29.673  1.00  0.00     0.000 C 
BRANCH   2   3
ATOM      3  C   UNL     1      32.183   7.459 -30.984  1.00  0.00     0.000 C 
BRANCH   3   4
ATOM      4  C   UNL     1      33.545   8.141 -30.759  1.00  0.00     0.000 C 
BRANCH   4   5
ATOM      5  C   UNL     1      34.715   7.553 -31.571  1.00  0.00     0.001 C 
BRANCH   5   6
ATOM      6  C   UNL     1      35.412   6.327 -30.945  1.00  0.00     0.009 C 
BRANCH   6   7
ATOM      7  C   UNL     1      35.105   4.991 -31.668  1.00  0.00     0.032 C 
ATOM      8  C   UNL     1      34.711   5.243 -33.128  1.00  0.00     0.014 C 
BRANCH   7   9
ATOM      9  C   UNL     1      34.001   4.230 -30.986  1.00  0.00     0.044 C 
ATOM     10  O   UNL     1      33.806   4.370 -29.749  1.00  0.00    -0.550 OA
ATOM     11  O   UNL     1      33.218   3.332 -31.704  1.00  0.00    -0.550 OA
ENDBRANCH   7   9
ENDBRANCH   6   7
ENDBRANCH   5   6
ENDBRANCH   4   5
ENDBRANCH   3   4
ENDBRANCH   2   3
ENDBRANCH   1   2
BRANCH   1  12
ATOM     12  C   UNL     1      31.073   8.906 -27.896  1.00  0.00     0.000 C 
BRANCH  12  13
ATOM     13  C   UNL     1      31.658  10.328 -27.822  1.00  0.00    -0.000 C 
BRANCH  13  14
ATOM     14  C   UNL     1      33.193  10.342 -27.903  1.00  0.00    -0.000 C 
BRANCH  14  15
ATOM     15  C   UNL     1      33.837  11.132 -26.749  1.00  0.00    -0.000 C 
BRANCH  15  16
ATOM     16  C   UNL     1      33.075  10.978 -25.420  1.00  0.00    -0.000 C 
BRANCH  16  17
ATOM     17  C   UNL     1      33.730  10.032 -24.396  1.00  0.00    -0.000 C 
BRANCH  17  18
ATOM     18  C   UNL     1      33.545   8.549 -24.748  1.00  0.00    -0.003 C 
ATOM     19  C   UNL     1      32.117   8.091 -24.464  1.00  0.00     0.004 C 
ENDBRANCH  17  18
ENDBRANCH  16  17
ENDBRANCH  15  16
ENDBRANCH  14  15
ENDBRANCH  13  14
ENDBRANCH  12  13
ENDBRANCH   1  12
TORSDOF 14
ENDMDL
MODEL 8
REMARK VINA RESULT:    -3.183      2.707      5.859
REMARK INTER + INTRA:          -8.166
REMARK INTER:                  -5.393
REMARK INTRA:                  -2.774
REMARK UNBOUND:                -2.378
REMARK SMILES CCCCCCCCCCCCCC[C@H](C)C(=O)[O-]
REMARK SMILES IDX 9 1 10 2 11 3 12 4 13 5 14 6 15 7 16 8 17 9 18 10 19 11 8 12
REMARK SMILES IDX 7 13 6 14 5 15 4 16 3 17 2 18 1 19
REMARK H PARENT
REMARK Flexibility Score: inf
ROOT
ATOM      1  C   UNL     1      27.982  -5.556 -28.458  1.00  0.00     0.000 C 
ENDROOT
BRANCH   1   2
ATOM      2  C   UNL     1      27.271  -6.386 -29.538  1.00  0.00     0.000 C 
BRANCH   2   3
ATOM      3  C   UNL     1      26.842  -7.752 -28.985  1.00  0.00     0.000 C 
BRANCH   3   4
ATOM      4  C   UNL     1      25.321  -7.982 -29.064  1.00  0.00     0.000 C 
BRANCH   4   5
ATOM      5  C   UNL     1      24.588  -7.982 -27.708  1.00  0.00     0.001 C 
BRANCH   5   6
ATOM      6  C   UNL     1      24.036  -6.617 -27.248  1.00  0.00     0.009 C 
BRANCH   6   7
ATOM      7  C   UNL     1      24.796  -6.004 -26.045  1.00  0.00     0.032 C 
ATOM      8  C   UNL     1      25.200  -7.095 -25.046  1.00  0.00     0.014 C 
BRANCH   7   9
ATOM      9  C   UNL     1      23.969  -4.969 -25.332  1.00  0.00     0.044 C 
ATOM     10  O   UNL     1      24.471  -3.851 -25.039  1.00  0.00    -0.550 OA
ATOM     11  O   UNL     1      22.663  -5.253 -24.948  1.00  0.00    -0.550 OA
ENDBRANCH   7   9
ENDBRANCH   6   7
ENDBRANCH   5   6
ENDBRANCH   4   5
ENDBRANCH   3   4
ENDBRANCH   2   3
ENDBRANCH   1   2
BRANCH   1  12
ATOM     12  C   UNL     1      27.217  -4.271 -28.101  1.00  0.00     0.000 C 
BRANCH  12  13
ATOM     13  C   UNL     1      26.392  -3.728 -29.282  1.00  0.00    -0.000 C 
BRANCH  13  14
ATOM     14  C   UNL     1      24.926  -3.458 -28.907  1.00  0.00    -0.000 C 
BRANCH  14  15
ATOM     15  C   UNL     1      23.971  -3.631 -30.101  1.00  0.00    -0.000 C 
BRANCH  15  16
ATOM     16  C   UNL     1      23.714  -5.108 -30.454  1.00  0.00    -0.000 C 
BRANCH  16  17
ATOM     17  C   UNL     1      24.236  -5.551 -31.833  1.00  0.00    -0.000 C 
BRANCH  17  18
ATOM     18  C   UNL     1      24.734  -4.378 -32.690  1.00  0.00    -0.003 C 
ATOM     19  C   UNL     1      26.239  -4.474 -32.933  1.00  0.00     0.004 C 
ENDBRANCH  17  18
ENDBRANCH  16  17
ENDBRANCH  15  16
ENDBRANCH  14  15
ENDBRANCH  13  14
ENDBRANCH  12  13
ENDBRANCH   1  12
TORSDOF 14
ENDMDL
MODEL 9
REMARK VINA RESULT:    -3.158      1.485      3.656
REMARK INTER + INTRA:          -8.121
REMARK INTER:                  -5.465
REMARK INTRA:                  -2.656
REMARK UNBOUND:                -2.378
REMARK SMILES CCCCCCCCCCCCCC[C@H](C)C(=O)[O-]
REMARK SMILES IDX 9 1 10 2 11 3 12 4 13 5 14 6 15 7 16 8 17 9 18 10 19 11 8 12
REMARK SMILES IDX 7 13 6 14 5 15 4 16 3 17 2 18 1 19
REMARK H PARENT
REMARK Flexibility Score: inf
ROOT
ATOM      1  C   UNL     1      25.561  -7.991 -29.242  1.00  0.00     0.000 C 
ENDROOT
BRANCH   1   2
ATOM      2  C   UNL     1      27.020  -7.876 -28.775  1.00  0.00     0.000 C 
BRANCH   2   3
ATOM      3  C   UNL     1      27.661  -6.582 -29.296  1.00  0.00     0.000 C 
BRANCH   3   4
ATOM      4  C   UNL     1      27.004  -5.312 -28.722  1.00  0.00     0.000 C 
BRANCH   4   5
ATOM      5  C   UNL     1      26.278  -4.427 -29.753  1.00  0.00     0.001 C 
BRANCH   5   6
ATOM      6  C   UNL     1      24.796  -4.124 -29.446  1.00  0.00     0.009 C 
BRANCH   6   7
ATOM      7  C   UNL     1      23.843  -4.365 -30.643  1.00  0.00     0.032 C 
ATOM      8  C   UNL     1      24.333  -5.538 -31.499  1.00  0.00     0.014 C 
BRANCH   7   9
ATOM      9  C   UNL     1      23.719  -3.143 -31.512  1.00  0.00     0.044 C 
ATOM     10  O   UNL     1      23.455  -3.262 -32.738  1.00  0.00    -0.550 OA
ATOM     11  O   UNL     1      23.943  -1.877 -30.982  1.00  0.00    -0.550 OA
ENDBRANCH   7   9
ENDBRANCH   6   7
ENDBRANCH   5   6
ENDBRANCH   4   5
ENDBRANCH   3   4
ENDBRANCH   2   3
ENDBRANCH   1   2
BRANCH   1  12
ATOM     12  C   UNL     1      24.564  -7.994 -28.071  1.00  0.00     0.000 C 
BRANCH  12  13
ATOM     13  C   UNL     1      25.261  -8.080 -26.702  1.00  0.00    -0.000 C 
BRANCH  13  14
ATOM     14  C   UNL     1      24.909  -6.901 -25.781  1.00  0.00    -0.000 C 
BRANCH  14  15
ATOM     15  C   UNL     1      23.932  -5.911 -26.440  1.00  0.00    -0.000 C 
BRANCH  15  16
ATOM     16  C   UNL     1      24.058  -4.482 -25.879  1.00  0.00    -0.000 C 
BRANCH  16  17
ATOM     17  C   UNL     1      25.279  -4.241 -24.972  1.00  0.00    -0.000 C 
BRANCH  17  18
ATOM     18  C   UNL     1      26.374  -3.406 -25.652  1.00  0.00    -0.003 C 
ATOM     19  C   UNL     1      25.777  -2.206 -26.381  1.00  0.00     0.004 C 
ENDBRANCH  17  18
ENDBRANCH  16  17
ENDBRANCH  15  16
ENDBRANCH  14  15
ENDBRANCH  13  14
ENDBRANCH  12  13
ENDBRANCH   1  12
TORSDOF 14
ENDMDL
