MODEL 1
REMARK VINA RESULT:    -5.177      0.000      0.000
REMARK INTER + INTRA:          -5.383
REMARK INTER:                  -5.934
REMARK INTRA:                   0.551
REMARK UNBOUND:                 0.551
REMARK SMILES O=C([O-])C=Cc1ccc(O)cc1
REMARK SMILES IDX 6 1 7 2 12 3 8 4 11 5 9 6 5 7 4 8 2 9 1 10 3 11 10 12
REMARK H PARENT 10 13
REMARK Flexibility Score: inf
ROOT
ATOM      1  C   UNL     1      26.125 -39.779   0.315  1.00  0.00    -0.025 A 
ATOM      2  C   UNL     1      25.875 -38.979   1.440  1.00  0.00     0.012 A 
ATOM      3  C   UNL     1      26.503 -39.169  -0.893  1.00  0.00     0.012 A 
ATOM      4  C   UNL     1      26.051 -37.594   1.373  1.00  0.00     0.047 A 
ATOM      5  C   UNL     1      26.678 -37.783  -0.959  1.00  0.00     0.047 A 
ATOM      6  C   UNL     1      26.456 -36.993   0.173  1.00  0.00     0.115 A 
ENDROOT
BRANCH   1   7
ATOM      7  C   UNL     1      25.881 -41.235   0.395  1.00  0.00     0.010 C 
ATOM      8  C   UNL     1      26.408 -42.156  -0.426  1.00  0.00     0.025 C 
BRANCH   8   9
ATOM      9  C   UNL     1      27.466 -41.909  -1.423  1.00  0.00     0.064 C 
ATOM     10  O   UNL     1      28.671 -41.931  -1.060  1.00  0.00    -0.545 OA
ATOM     11  O   UNL     1      27.161 -41.580  -2.738  1.00  0.00    -0.545 OA
ENDBRANCH   8   9
ENDBRANCH   1   7
BRANCH   6  12
ATOM     12  O   UNL     1      26.637 -35.613   0.095  1.00  0.00    -0.508 OA
ATOM     13  H   UNL     1      27.215 -35.116   0.763  1.00  0.00     0.293 HD
ENDBRANCH   6  12
TORSDOF 3
ENDMDL
MODEL 2
REMARK VINA RESULT:    -4.562     22.060     23.292
REMARK INTER + INTRA:          -4.678
REMARK INTER:                  -4.388
REMARK INTRA:                  -0.289
REMARK UNBOUND:                 0.551
REMARK SMILES O=C([O-])C=Cc1ccc(O)cc1
REMARK SMILES IDX 6 1 7 2 12 3 8 4 11 5 9 6 5 7 4 8 2 9 1 10 3 11 10 12
REMARK H PARENT 10 13
REMARK Flexibility Score: inf
ROOT
ATOM      1  C   UNL     1      44.762 -32.140  12.764  1.00  0.00    -0.025 A 
ATOM      2  C   UNL     1      43.469 -32.651  12.956  1.00  0.00     0.012 A 
ATOM      3  C   UNL     1      45.855 -33.024  12.739  1.00  0.00     0.012 A 
ATOM      4  C   UNL     1      43.266 -34.029  13.069  1.00  0.00     0.047 A 
ATOM      5  C   UNL     1      45.649 -34.402  12.852  1.00  0.00     0.047 A 
ATOM      6  C   UNL     1      44.356 -34.909  13.014  1.00  0.00     0.115 A 
ENDROOT
BRANCH   1   7
ATOM      7  C   UNL     1      44.959 -30.676  12.701  1.00  0.00     0.010 C 
ATOM      8  C   UNL     1      45.008 -29.948  11.574  1.00  0.00     0.025 C 
BRANCH   8   9
ATOM      9  C   UNL     1      44.687 -30.441  10.222  1.00  0.00     0.064 C 
ATOM     10  O   UNL     1      45.623 -30.793   9.457  1.00  0.00    -0.545 OA
ATOM     11  O   UNL     1      43.382 -30.457   9.746  1.00  0.00    -0.545 OA
ENDBRANCH   8   9
ENDBRANCH   1   7
BRANCH   6  12
ATOM     12  O   UNL     1      44.166 -36.285  13.124  1.00  0.00    -0.508 OA
ATOM     13  H   UNL     1      44.152 -36.746  14.026  1.00  0.00     0.293 HD
ENDBRANCH   6  12
TORSDOF 3
ENDMDL
MODEL 3
REMARK VINA RESULT:    -4.512     21.350     22.627
REMARK INTER + INTRA:          -4.620
REMARK INTER:                  -4.334
REMARK INTRA:                  -0.287
REMARK UNBOUND:                 0.551
REMARK SMILES O=C([O-])C=Cc1ccc(O)cc1
REMARK SMILES IDX 6 1 7 2 12 3 8 4 11 5 9 6 5 7 4 8 2 9 1 10 3 11 10 12
REMARK H PARENT 10 13
REMARK Flexibility Score: inf
ROOT
ATOM      1  C   UNL     1      43.610 -32.259  12.883  1.00  0.00    -0.025 A 
ATOM      2  C   UNL     1      43.062 -33.548  12.974  1.00  0.00     0.012 A 
ATOM      3  C   UNL     1      45.006 -32.108  12.821  1.00  0.00     0.012 A 
ATOM      4  C   UNL     1      43.894 -34.671  12.951  1.00  0.00     0.047 A 
ATOM      5  C   UNL     1      45.836 -33.232  12.799  1.00  0.00     0.047 A 
ATOM      6  C   UNL     1      45.284 -34.516  12.861  1.00  0.00     0.115 A 
ENDROOT
BRANCH   1   7
ATOM      7  C   UNL     1      42.714 -31.086  12.962  1.00  0.00     0.010 C 
ATOM      8  C   UNL     1      42.192 -30.436  11.911  1.00  0.00     0.025 C 
BRANCH   8   9
ATOM      9  C   UNL     1      42.259 -30.886  10.507  1.00  0.00     0.064 C 
ATOM     10  O   UNL     1      43.013 -30.278   9.702  1.00  0.00    -0.545 OA
ATOM     11  O   UNL     1      41.456 -31.916  10.036  1.00  0.00    -0.545 OA
ENDBRANCH   8   9
ENDBRANCH   1   7
BRANCH   6  12
ATOM     12  O   UNL     1      46.124 -35.627  12.836  1.00  0.00    -0.508 OA
ATOM     13  H   UNL     1      45.874 -36.468  12.328  1.00  0.00     0.293 HD
ENDBRANCH   6  12
TORSDOF 3
ENDMDL
MODEL 4
REMARK VINA RESULT:    -4.481      1.759      4.801
REMARK INTER + INTRA:          -4.586
REMARK INTER:                  -4.399
REMARK INTRA:                  -0.186
REMARK UNBOUND:                 0.551
REMARK SMILES O=C([O-])C=Cc1ccc(O)cc1
REMARK SMILES IDX 6 1 7 2 12 3 8 4 11 5 9 6 5 7 4 8 2 9 1 10 3 11 10 12
REMARK H PARENT 10 13
REMARK Flexibility Score: inf
ROOT
ATOM      1  C   UNL     1      26.810 -40.440  -1.365  1.00  0.00    -0.025 A 
ATOM      2  C   UNL     1      26.136 -41.441  -0.650  1.00  0.00     0.012 A 
ATOM      3  C   UNL     1      28.193 -40.562  -1.582  1.00  0.00     0.012 A 
ATOM      4  C   UNL     1      26.825 -42.573  -0.203  1.00  0.00     0.047 A 
ATOM      5  C   UNL     1      28.880 -41.694  -1.135  1.00  0.00     0.047 A 
ATOM      6  C   UNL     1      28.199 -42.704  -0.447  1.00  0.00     0.115 A 
ENDROOT
BRANCH   1   7
ATOM      7  C   UNL     1      26.072 -39.229  -1.781  1.00  0.00     0.010 C 
ATOM      8  C   UNL     1      25.875 -38.141  -1.020  1.00  0.00     0.025 C 
BRANCH   8   9
ATOM      9  C   UNL     1      26.515 -37.880   0.283  1.00  0.00     0.064 C 
ATOM     10  O   UNL     1      27.372 -36.963   0.375  1.00  0.00    -0.545 OA
ATOM     11  O   UNL     1      26.248 -38.670   1.394  1.00  0.00    -0.545 OA
ENDBRANCH   8   9
ENDBRANCH   1   7
BRANCH   6  12
ATOM     12  O   UNL     1      28.896 -43.828  -0.009  1.00  0.00    -0.508 OA
ATOM     13  H   UNL     1      29.624 -44.252  -0.572  1.00  0.00     0.293 HD
ENDBRANCH   6  12
TORSDOF 3
ENDMDL
MODEL 5
REMARK VINA RESULT:    -4.404     22.062     23.347
REMARK INTER + INTRA:          -4.497
REMARK INTER:                  -4.242
REMARK INTRA:                  -0.255
REMARK UNBOUND:                 0.551
REMARK SMILES O=C([O-])C=Cc1ccc(O)cc1
REMARK SMILES IDX 6 1 7 2 12 3 8 4 11 5 9 6 5 7 4 8 2 9 1 10 3 11 10 12
REMARK H PARENT 10 13
REMARK Flexibility Score: inf
ROOT
ATOM      1  C   UNL     1      44.039 -31.824  12.133  1.00  0.00    -0.025 A 
ATOM      2  C   UNL     1      43.430 -32.964  11.585  1.00  0.00     0.012 A 
ATOM      3  C   UNL     1      45.189 -31.973  12.926  1.00  0.00     0.012 A 
ATOM      4  C   UNL     1      43.993 -34.228  11.784  1.00  0.00     0.047 A 
ATOM      5  C   UNL     1      45.750 -33.238  13.125  1.00  0.00     0.047 A 
ATOM      6  C   UNL     1      45.156 -34.368  12.553  1.00  0.00     0.115 A 
ENDROOT
BRANCH   1   7
ATOM      7  C   UNL     1      43.397 -30.505  11.952  1.00  0.00     0.010 C 
ATOM      8  C   UNL     1      43.852 -29.522  11.160  1.00  0.00     0.025 C 
BRANCH   8   9
ATOM      9  C   UNL     1      44.955 -29.647  10.189  1.00  0.00     0.064 C 
ATOM     10  O   UNL     1      46.051 -29.076  10.427  1.00  0.00    -0.545 OA
ATOM     11  O   UNL     1      44.790 -30.320   8.985  1.00  0.00    -0.545 OA
ENDBRANCH   8   9
ENDBRANCH   1   7
BRANCH   6  12
ATOM     12  O   UNL     1      45.727 -35.622  12.758  1.00  0.00    -0.508 OA
ATOM     13  H   UNL     1      46.483 -35.758  13.419  1.00  0.00     0.293 HD
ENDBRANCH   6  12
TORSDOF 3
ENDMDL
MODEL 6
REMARK VINA RESULT:    -4.397      1.153      2.030
REMARK INTER + INTRA:          -4.489
REMARK INTER:                  -4.838
REMARK INTRA:                   0.350
REMARK UNBOUND:                 0.551
REMARK SMILES O=C([O-])C=Cc1ccc(O)cc1
REMARK SMILES IDX 6 1 7 2 12 3 8 4 11 5 9 6 5 7 4 8 2 9 1 10 3 11 10 12
REMARK H PARENT 10 13
REMARK Flexibility Score: inf
ROOT
ATOM      1  C   UNL     1      26.626 -39.752  -0.351  1.00  0.00    -0.025 A 
ATOM      2  C   UNL     1      27.408 -38.909  -1.155  1.00  0.00     0.012 A 
ATOM      3  C   UNL     1      25.881 -39.198   0.705  1.00  0.00     0.012 A 
ATOM      4  C   UNL     1      27.405 -37.528  -0.940  1.00  0.00     0.047 A 
ATOM      5  C   UNL     1      25.880 -37.817   0.918  1.00  0.00     0.047 A 
ATOM      6  C   UNL     1      26.639 -36.978   0.096  1.00  0.00     0.115 A 
ENDROOT
BRANCH   1   7
ATOM      7  C   UNL     1      26.686 -41.213  -0.563  1.00  0.00     0.010 C 
ATOM      8  C   UNL     1      26.717 -41.823  -1.758  1.00  0.00     0.025 C 
BRANCH   8   9
ATOM      9  C   UNL     1      26.891 -41.149  -3.059  1.00  0.00     0.064 C 
ATOM     10  O   UNL     1      25.881 -40.691  -3.654  1.00  0.00    -0.545 OA
ATOM     11  O   UNL     1      28.132 -41.073  -3.677  1.00  0.00    -0.545 OA
ENDBRANCH   8   9
ENDBRANCH   1   7
BRANCH   6  12
ATOM     12  O   UNL     1      26.627 -35.602   0.319  1.00  0.00    -0.508 OA
ATOM     13  H   UNL     1      26.036 -34.984  -0.224  1.00  0.00     0.293 HD
ENDBRANCH   6  12
TORSDOF 3
ENDMDL
MODEL 7
REMARK VINA RESULT:    -4.296     11.469     13.902
REMARK INTER + INTRA:          -4.373
REMARK INTER:                  -4.217
REMARK INTRA:                  -0.156
REMARK UNBOUND:                 0.551
REMARK SMILES O=C([O-])C=Cc1ccc(O)cc1
REMARK SMILES IDX 6 1 7 2 12 3 8 4 11 5 9 6 5 7 4 8 2 9 1 10 3 11 10 12
REMARK H PARENT 10 13
REMARK Flexibility Score: inf
ROOT
ATOM      1  C   UNL     1      29.640 -35.254  11.950  1.00  0.00    -0.025 A 
ATOM      2  C   UNL     1      29.749 -35.213  10.552  1.00  0.00     0.012 A 
ATOM      3  C   UNL     1      28.614 -36.014  12.539  1.00  0.00     0.012 A 
ATOM      4  C   UNL     1      28.878 -35.963   9.755  1.00  0.00     0.047 A 
ATOM      5  C   UNL     1      27.744 -36.762  11.740  1.00  0.00     0.047 A 
ATOM      6  C   UNL     1      27.875 -36.741  10.348  1.00  0.00     0.115 A 
ENDROOT
BRANCH   1   7
ATOM      7  C   UNL     1      30.538 -34.413  12.770  1.00  0.00     0.010 C 
ATOM      8  C   UNL     1      30.375 -33.101  13.001  1.00  0.00     0.025 C 
BRANCH   8   9
ATOM      9  C   UNL     1      29.182 -32.311  12.645  1.00  0.00     0.064 C 
ATOM     10  O   UNL     1      28.064 -32.634  13.125  1.00  0.00    -0.545 OA
ATOM     11  O   UNL     1      29.250 -31.263  11.735  1.00  0.00    -0.545 OA
ENDBRANCH   8   9
ENDBRANCH   1   7
BRANCH   6  12
ATOM     12  O   UNL     1      27.002 -37.493   9.564  1.00  0.00    -0.508 OA
ATOM     13  H   UNL     1      27.343 -38.107   8.834  1.00  0.00     0.293 HD
ENDBRANCH   6  12
TORSDOF 3
ENDMDL
MODEL 8
REMARK VINA RESULT:    -3.721      1.276      2.115
REMARK INTER + INTRA:          -3.714
REMARK INTER:                  -3.576
REMARK INTRA:                  -0.138
REMARK UNBOUND:                 0.551
REMARK SMILES O=C([O-])C=Cc1ccc(O)cc1
REMARK SMILES IDX 6 1 7 2 12 3 8 4 11 5 9 6 5 7 4 8 2 9 1 10 3 11 10 12
REMARK H PARENT 10 13
REMARK Flexibility Score: inf
ROOT
ATOM      1  C   UNL     1      26.398 -39.651  -1.563  1.00  0.00    -0.025 A 
ATOM      2  C   UNL     1      26.963 -38.431  -1.964  1.00  0.00     0.012 A 
ATOM      3  C   UNL     1      25.876 -39.774  -0.264  1.00  0.00     0.012 A 
ATOM      4  C   UNL     1      26.961 -37.334  -1.096  1.00  0.00     0.047 A 
ATOM      5  C   UNL     1      25.875 -38.677   0.602  1.00  0.00     0.047 A 
ATOM      6  C   UNL     1      26.414 -37.454   0.189  1.00  0.00     0.115 A 
ENDROOT
BRANCH   1   7
ATOM      7  C   UNL     1      26.459 -40.811  -2.478  1.00  0.00     0.010 C 
ATOM      8  C   UNL     1      27.265 -41.874  -2.330  1.00  0.00     0.025 C 
BRANCH   8   9
ATOM      9  C   UNL     1      28.086 -42.166  -1.141  1.00  0.00     0.064 C 
ATOM     10  O   UNL     1      29.284 -41.780  -1.110  1.00  0.00    -0.545 OA
ATOM     11  O   UNL     1      27.592 -42.921  -0.085  1.00  0.00    -0.545 OA
ENDBRANCH   8   9
ENDBRANCH   1   7
BRANCH   6  12
ATOM     12  O   UNL     1      26.404 -36.368   1.062  1.00  0.00    -0.508 OA
ATOM     13  H   UNL     1      26.268 -36.492   2.058  1.00  0.00     0.293 HD
ENDBRANCH   6  12
TORSDOF 3
ENDMDL
