MODEL 1
REMARK VINA RESULT:    -5.042      0.000      0.000
REMARK INTER + INTRA:          -5.433
REMARK INTER:                  -5.336
REMARK INTRA:                  -0.097
REMARK UNBOUND:                -0.097
REMARK SMILES C=C(C)[C@H]1CC=C(C)C(=O)C1
REMARK SMILES IDX 8 1 7 2 6 3 5 4 4 5 11 6 9 7 10 8 2 9 1 10 3 11
REMARK H PARENT
REMARK Flexibility Score: inf
ROOT
ATOM      1  C   UNL     1      35.532  39.047  83.745  1.00  0.00     0.048 C 
ATOM      2  C   UNL     1      34.323  39.878  84.079  1.00  0.00    -0.012 C 
ATOM      3  C   UNL     1      33.753  39.785  85.293  1.00  0.00    -0.019 C 
ATOM      4  C   UNL     1      32.496  40.535  85.645  1.00  0.00     0.036 C 
ATOM      5  C   UNL     1      32.404  41.863  84.870  1.00  0.00     0.025 C 
ATOM      6  C   UNL     1      32.527  41.608  83.355  1.00  0.00     0.089 C 
ATOM      7  C   UNL     1      33.748  40.784  83.053  1.00  0.00     0.158 C 
ATOM      8  O   UNL     1      34.254  40.835  81.900  1.00  0.00    -0.295 OA
ENDROOT
BRANCH   5   9
ATOM      9  C   UNL     1      31.131  42.626  85.210  1.00  0.00    -0.077 C 
ATOM     10  C   UNL     1      30.383  43.201  84.252  1.00  0.00     0.008 C 
ATOM     11  C   UNL     1      30.682  42.749  86.644  1.00  0.00     0.039 C 
ENDBRANCH   5   9
TORSDOF 1
ENDMDL
MODEL 2
REMARK VINA RESULT:    -4.834      2.251      4.822
REMARK INTER + INTRA:          -5.214
REMARK INTER:                  -5.118
REMARK INTRA:                  -0.096
REMARK UNBOUND:                -0.097
REMARK SMILES C=C(C)[C@H]1CC=C(C)C(=O)C1
REMARK SMILES IDX 8 1 7 2 6 3 5 4 4 5 11 6 9 7 10 8 2 9 1 10 3 11
REMARK H PARENT
REMARK Flexibility Score: inf
ROOT
ATOM      1  C   UNL     1      31.094  42.368  86.618  1.00  0.00     0.048 C 
ATOM      2  C   UNL     1      32.354  41.706  86.130  1.00  0.00    -0.012 C 
ATOM      3  C   UNL     1      32.289  40.549  85.448  1.00  0.00    -0.019 C 
ATOM      4  C   UNL     1      33.526  39.810  85.011  1.00  0.00     0.036 C 
ATOM      5  C   UNL     1      34.689  40.782  84.736  1.00  0.00     0.025 C 
ATOM      6  C   UNL     1      34.945  41.671  85.968  1.00  0.00     0.089 C 
ATOM      7  C   UNL     1      33.670  42.324  86.426  1.00  0.00     0.158 C 
ATOM      8  O   UNL     1      33.733  43.384  87.106  1.00  0.00    -0.295 OA
ENDROOT
BRANCH   5   9
ATOM      9  C   UNL     1      35.949  40.044  84.304  1.00  0.00    -0.077 C 
ATOM     10  C   UNL     1      35.905  38.765  83.893  1.00  0.00     0.008 C 
ATOM     11  C   UNL     1      37.283  40.746  84.330  1.00  0.00     0.039 C 
ENDBRANCH   5   9
TORSDOF 1
ENDMDL
MODEL 3
REMARK VINA RESULT:    -4.815      1.685      2.483
REMARK INTER + INTRA:          -5.194
REMARK INTER:                  -5.098
REMARK INTRA:                  -0.095
REMARK UNBOUND:                -0.097
REMARK SMILES C=C(C)[C@H]1CC=C(C)C(=O)C1
REMARK SMILES IDX 8 1 7 2 6 3 5 4 4 5 11 6 9 7 10 8 2 9 1 10 3 11
REMARK H PARENT
REMARK Flexibility Score: inf
ROOT
ATOM      1  C   UNL     1      35.885  38.713  83.965  1.00  0.00     0.048 C 
ATOM      2  C   UNL     1      34.865  39.819  83.959  1.00  0.00    -0.012 C 
ATOM      3  C   UNL     1      34.375  40.280  82.794  1.00  0.00    -0.019 C 
ATOM      4  C   UNL     1      33.414  41.437  82.734  1.00  0.00     0.036 C 
ATOM      5  C   UNL     1      32.535  41.497  83.997  1.00  0.00     0.025 C 
ATOM      6  C   UNL     1      33.415  41.535  85.261  1.00  0.00     0.089 C 
ATOM      7  C   UNL     1      34.418  40.414  85.242  1.00  0.00     0.158 C 
ATOM      8  O   UNL     1      34.912  40.015  86.331  1.00  0.00    -0.295 OA
ENDROOT
BRANCH   5   9
ATOM      9  C   UNL     1      31.566  42.671  83.952  1.00  0.00    -0.077 C 
ATOM     10  C   UNL     1      30.637  42.849  84.908  1.00  0.00     0.008 C 
ATOM     11  C   UNL     1      31.633  43.666  82.821  1.00  0.00     0.039 C 
ENDBRANCH   5   9
TORSDOF 1
ENDMDL
MODEL 4
REMARK VINA RESULT:    -4.769      1.524      1.604
REMARK INTER + INTRA:          -5.144
REMARK INTER:                  -5.050
REMARK INTRA:                  -0.094
REMARK UNBOUND:                -0.097
REMARK SMILES C=C(C)[C@H]1CC=C(C)C(=O)C1
REMARK SMILES IDX 8 1 7 2 6 3 5 4 4 5 11 6 9 7 10 8 2 9 1 10 3 11
REMARK H PARENT
REMARK Flexibility Score: inf
ROOT
ATOM      1  C   UNL     1      36.981  39.423  84.381  1.00  0.00     0.048 C 
ATOM      2  C   UNL     1      35.640  40.085  84.547  1.00  0.00    -0.012 C 
ATOM      3  C   UNL     1      34.601  39.390  85.041  1.00  0.00    -0.019 C 
ATOM      4  C   UNL     1      33.222  39.984  85.150  1.00  0.00     0.036 C 
ATOM      5  C   UNL     1      33.288  41.506  85.379  1.00  0.00     0.025 C 
ATOM      6  C   UNL     1      34.128  42.178  84.276  1.00  0.00     0.089 C 
ATOM      7  C   UNL     1      35.464  41.501  84.140  1.00  0.00     0.158 C 
ATOM      8  O   UNL     1      36.426  42.138  83.633  1.00  0.00    -0.295 OA
ENDROOT
BRANCH   5   9
ATOM      9  C   UNL     1      31.898  42.121  85.480  1.00  0.00    -0.077 C 
ATOM     10  C   UNL     1      31.203  42.464  84.382  1.00  0.00     0.008 C 
ATOM     11  C   UNL     1      31.271  42.357  86.831  1.00  0.00     0.039 C 
ENDBRANCH   5   9
TORSDOF 1
ENDMDL
MODEL 5
REMARK VINA RESULT:    -4.668      2.042      4.767
REMARK INTER + INTRA:          -5.037
REMARK INTER:                  -4.941
REMARK INTRA:                  -0.096
REMARK UNBOUND:                -0.097
REMARK SMILES C=C(C)[C@H]1CC=C(C)C(=O)C1
REMARK SMILES IDX 8 1 7 2 6 3 5 4 4 5 11 6 9 7 10 8 2 9 1 10 3 11
REMARK H PARENT
REMARK Flexibility Score: inf
ROOT
ATOM      1  C   UNL     1      31.560  43.627  83.022  1.00  0.00     0.048 C 
ATOM      2  C   UNL     1      32.743  42.714  83.193  1.00  0.00    -0.012 C 
ATOM      3  C   UNL     1      33.972  43.127  82.835  1.00  0.00    -0.019 C 
ATOM      4  C   UNL     1      35.173  42.222  82.914  1.00  0.00     0.036 C 
ATOM      5  C   UNL     1      35.025  41.197  84.053  1.00  0.00     0.025 C 
ATOM      6  C   UNL     1      33.709  40.410  83.898  1.00  0.00     0.089 C 
ATOM      7  C   UNL     1      32.545  41.348  83.738  1.00  0.00     0.158 C 
ATOM      8  O   UNL     1      31.387  40.945  84.028  1.00  0.00    -0.295 OA
ENDROOT
BRANCH   5   9
ATOM      9  C   UNL     1      36.229  40.268  84.135  1.00  0.00    -0.077 C 
ATOM     10  C   UNL     1      36.094  38.935  84.022  1.00  0.00     0.008 C 
ATOM     11  C   UNL     1      37.609  40.836  84.347  1.00  0.00     0.039 C 
ENDBRANCH   5   9
TORSDOF 1
ENDMDL
MODEL 6
REMARK VINA RESULT:    -4.662      7.675      9.983
REMARK INTER + INTRA:          -5.031
REMARK INTER:                  -4.936
REMARK INTRA:                  -0.095
REMARK UNBOUND:                -0.097
REMARK SMILES C=C(C)[C@H]1CC=C(C)C(=O)C1
REMARK SMILES IDX 8 1 7 2 6 3 5 4 4 5 11 6 9 7 10 8 2 9 1 10 3 11
REMARK H PARENT
REMARK Flexibility Score: inf
ROOT
ATOM      1  C   UNL     1      21.284  41.647  87.520  1.00  0.00     0.048 C 
ATOM      2  C   UNL     1      22.335  42.261  86.636  1.00  0.00    -0.012 C 
ATOM      3  C   UNL     1      22.743  43.525  86.850  1.00  0.00    -0.019 C 
ATOM      4  C   UNL     1      23.732  44.209  85.944  1.00  0.00     0.036 C 
ATOM      5  C   UNL     1      24.712  43.196  85.323  1.00  0.00     0.025 C 
ATOM      6  C   UNL     1      23.938  42.075  84.603  1.00  0.00     0.089 C 
ATOM      7  C   UNL     1      22.902  41.475  85.513  1.00  0.00     0.158 C 
ATOM      8  O   UNL     1      22.486  40.308  85.284  1.00  0.00    -0.295 OA
ENDROOT
BRANCH   5   9
ATOM      9  C   UNL     1      25.710  43.875  84.395  1.00  0.00    -0.077 C 
ATOM     10  C   UNL     1      25.523  43.902  83.064  1.00  0.00     0.008 C 
ATOM     11  C   UNL     1      26.941  44.536  84.962  1.00  0.00     0.039 C 
ENDBRANCH   5   9
TORSDOF 1
ENDMDL
MODEL 7
REMARK VINA RESULT:    -4.580      2.047      4.607
REMARK INTER + INTRA:          -4.945
REMARK INTER:                  -4.851
REMARK INTRA:                  -0.094
REMARK UNBOUND:                -0.097
REMARK SMILES C=C(C)[C@H]1CC=C(C)C(=O)C1
REMARK SMILES IDX 8 1 7 2 6 3 5 4 4 5 11 6 9 7 10 8 2 9 1 10 3 11
REMARK H PARENT
REMARK Flexibility Score: inf
ROOT
ATOM      1  C   UNL     1      31.478  43.503  82.842  1.00  0.00     0.048 C 
ATOM      2  C   UNL     1      32.641  42.629  83.226  1.00  0.00    -0.012 C 
ATOM      3  C   UNL     1      32.429  41.369  83.645  1.00  0.00    -0.019 C 
ATOM      4  C   UNL     1      33.552  40.484  84.115  1.00  0.00     0.036 C 
ATOM      5  C   UNL     1      34.870  40.826  83.395  1.00  0.00     0.025 C 
ATOM      6  C   UNL     1      35.197  42.322  83.560  1.00  0.00     0.089 C 
ATOM      7  C   UNL     1      34.020  43.170  83.162  1.00  0.00     0.158 C 
ATOM      8  O   UNL     1      34.215  44.366  82.814  1.00  0.00    -0.295 OA
ENDROOT
BRANCH   5   9
ATOM      9  C   UNL     1      36.017  39.944  83.871  1.00  0.00    -0.077 C 
ATOM     10  C   UNL     1      35.903  38.605  83.903  1.00  0.00     0.008 C 
ATOM     11  C   UNL     1      37.314  40.567  84.320  1.00  0.00     0.039 C 
ENDBRANCH   5   9
TORSDOF 1
ENDMDL
MODEL 8
REMARK VINA RESULT:    -4.544      2.048      2.915
REMARK INTER + INTRA:          -4.906
REMARK INTER:                  -4.810
REMARK INTRA:                  -0.096
REMARK UNBOUND:                -0.097
REMARK SMILES C=C(C)[C@H]1CC=C(C)C(=O)C1
REMARK SMILES IDX 8 1 7 2 6 3 5 4 4 5 11 6 9 7 10 8 2 9 1 10 3 11
REMARK H PARENT
REMARK Flexibility Score: inf
ROOT
ATOM      1  C   UNL     1      38.125  40.147  84.367  1.00  0.00     0.048 C 
ATOM      2  C   UNL     1      36.692  40.601  84.301  1.00  0.00    -0.012 C 
ATOM      3  C   UNL     1      36.389  41.903  84.449  1.00  0.00    -0.019 C 
ATOM      4  C   UNL     1      34.966  42.394  84.471  1.00  0.00     0.036 C 
ATOM      5  C   UNL     1      34.055  41.502  83.606  1.00  0.00     0.025 C 
ATOM      6  C   UNL     1      34.172  40.030  84.047  1.00  0.00     0.089 C 
ATOM      7  C   UNL     1      35.614  39.603  84.095  1.00  0.00     0.158 C 
ATOM      8  O   UNL     1      35.894  38.378  84.004  1.00  0.00    -0.295 OA
ENDROOT
BRANCH   5   9
ATOM      9  C   UNL     1      32.610  41.982  83.629  1.00  0.00    -0.077 C 
ATOM     10  C   UNL     1      31.644  41.264  84.226  1.00  0.00     0.008 C 
ATOM     11  C   UNL     1      32.236  43.287  82.973  1.00  0.00     0.039 C 
ENDBRANCH   5   9
TORSDOF 1
ENDMDL
MODEL 9
REMARK VINA RESULT:    -4.451      3.143      3.793
REMARK INTER + INTRA:          -4.808
REMARK INTER:                  -4.713
REMARK INTRA:                  -0.095
REMARK UNBOUND:                -0.097
REMARK SMILES C=C(C)[C@H]1CC=C(C)C(=O)C1
REMARK SMILES IDX 8 1 7 2 6 3 5 4 4 5 11 6 9 7 10 8 2 9 1 10 3 11
REMARK H PARENT
REMARK Flexibility Score: inf
ROOT
ATOM      1  C   UNL     1      38.065  43.490  86.266  1.00  0.00     0.048 C 
ATOM      2  C   UNL     1      36.883  42.719  85.744  1.00  0.00    -0.012 C 
ATOM      3  C   UNL     1      36.106  42.020  86.590  1.00  0.00    -0.019 C 
ATOM      4  C   UNL     1      34.962  41.170  86.105  1.00  0.00     0.036 C 
ATOM      5  C   UNL     1      34.345  41.747  84.817  1.00  0.00     0.025 C 
ATOM      6  C   UNL     1      35.431  41.934  83.740  1.00  0.00     0.089 C 
ATOM      7  C   UNL     1      36.593  42.715  84.289  1.00  0.00     0.158 C 
ATOM      8  O   UNL     1      37.350  43.331  83.491  1.00  0.00    -0.295 OA
ENDROOT
BRANCH   5   9
ATOM      9  C   UNL     1      33.193  40.889  84.311  1.00  0.00    -0.077 C 
ATOM     10  C   UNL     1      32.467  40.127  85.148  1.00  0.00     0.008 C 
ATOM     11  C   UNL     1      32.845  40.879  82.844  1.00  0.00     0.039 C 
ENDBRANCH   5   9
TORSDOF 1
ENDMDL
