MODEL 1
REMARK VINA RESULT:    -3.021      0.000      0.000
REMARK INTER + INTRA:          -4.745
REMARK INTER:                  -4.610
REMARK INTRA:                  -0.135
REMARK UNBOUND:                -0.135
REMARK SMILES CC1=CCC[C@@H](C)C(=O)C[C@H](C(C)C)C(=O)C1
REMARK SMILES IDX 8 1 9 2 6 3 7 4 5 5 4 6 3 7 2 8 1 9 10 11 11 12 15 13 16 14
REMARK SMILES IDX 17 15 12 17 13 18 14 19
REMARK H PARENT
REMARK Flexibility Score: 70.00
ROOT
ATOM      1  C   UNL     1      16.308  63.086  23.789  1.00  0.00     0.136 C 
ATOM      2  O   UNL     1      17.193  63.924  23.899  1.00  0.00    -0.299 OA
ENDROOT
BRANCH   1   3
ATOM      3  C   UNL     1      16.295  62.138  22.601  1.00  0.00     0.053 C 
ATOM      4  C   UNL     1      17.611  61.357  22.461  1.00  0.00     0.016 C 
BRANCH   3   5
ATOM      5  C   UNL     1      15.931  62.876  21.296  1.00  0.00     0.015 C 
BRANCH   5   6
ATOM      6  C   UNL     1      14.480  62.641  20.833  1.00  0.00     0.028 C 
BRANCH   6   7
ATOM      7  C   UNL     1      14.047  61.226  21.124  1.00  0.00    -0.028 C 
ATOM      8  C   UNL     1      13.104  60.881  22.032  1.00  0.00    -0.070 CG0
ATOM      9  C   UNL     1      12.830  59.413  22.244  1.00  0.00     0.039 C 
ATOM     10  G   UNL     1      12.302  61.902  22.826  1.00  0.00     0.000 G0
ENDBRANCH   6   7
ENDBRANCH   5   6
ENDBRANCH   3   5
ENDBRANCH   1   3
BRANCH   1  11
ATOM     11  C   UNL     1      15.233  63.017  24.846  1.00  0.00     0.087 C 
BRANCH  11  12
ATOM     12  C   UNL     1      13.843  63.436  24.297  1.00  0.00     0.066 C 
BRANCH  12  13
ATOM     13  C   UNL     1      12.927  62.230  24.140  1.00  0.00     0.140 C 
ATOM     14  O   UNL     1      12.634  61.557  25.117  1.00  0.00    -0.299 OA
BRANCH  13  15
ATOM     15  C   UNL     1      12.301  61.903  22.806  1.00  0.00     0.106 CG0
ATOM     16  G   UNL     1      13.115  60.890  22.015  1.00  0.00     0.000 G0
ENDBRANCH  13  15
ENDBRANCH  12  13
BRANCH  12  17
ATOM     17  C   UNL     1      13.151  64.552  25.144  1.00  0.00    -0.006 C 
ATOM     18  C   UNL     1      14.095  65.690  25.574  1.00  0.00     0.008 C 
ATOM     19  C   UNL     1      11.929  65.137  24.416  1.00  0.00     0.008 C 
ENDBRANCH  12  17
ENDBRANCH  11  12
ENDBRANCH   1  11
TORSDOF 1
ENDMDL
MODEL 2
REMARK VINA RESULT:    -3.007      2.236      4.115
REMARK INTER + INTRA:          -4.724
REMARK INTER:                  -4.880
REMARK INTRA:                   0.156
REMARK UNBOUND:                -0.135
REMARK SMILES CC1=CCC[C@@H](C)C(=O)C[C@H](C(C)C)C(=O)C1
REMARK SMILES IDX 8 1 9 2 6 3 7 4 5 5 4 6 3 7 2 8 1 9 10 11 11 12 15 13 16 14
REMARK SMILES IDX 17 15 12 17 13 18 14 19
REMARK H PARENT
REMARK Flexibility Score: 70.00
ROOT
ATOM      1  C   UNL     1      13.708  62.117  20.859  1.00  0.00     0.136 C 
ATOM      2  O   UNL     1      12.908  61.598  20.091  1.00  0.00    -0.299 OA
ENDROOT
BRANCH   1   3
ATOM      3  C   UNL     1      15.194  61.830  20.723  1.00  0.00     0.053 C 
ATOM      4  C   UNL     1      15.552  60.390  21.125  1.00  0.00     0.016 C 
BRANCH   3   5
ATOM      5  C   UNL     1      16.040  62.862  21.498  1.00  0.00     0.015 C 
BRANCH   5   6
ATOM      6  C   UNL     1      16.763  62.276  22.726  1.00  0.00     0.028 C 
BRANCH   6   7
ATOM      7  C   UNL     1      17.074  63.357  23.730  1.00  0.00    -0.028 C 
ATOM      8  C   UNL     1      16.305  63.654  24.804  1.00  0.00    -0.070 CG0
ATOM      9  C   UNL     1      16.730  64.807  25.680  1.00  0.00     0.039 C 
ATOM     10  G   UNL     1      15.054  62.871  25.172  1.00  0.00     0.000 G0
ENDBRANCH   6   7
ENDBRANCH   5   6
ENDBRANCH   3   5
ENDBRANCH   1   3
BRANCH   1  11
ATOM     11  C   UNL     1      13.192  63.035  21.940  1.00  0.00     0.087 C 
BRANCH  11  12
ATOM     12  C   UNL     1      13.228  62.369  23.341  1.00  0.00     0.066 C 
BRANCH  12  13
ATOM     13  C   UNL     1      13.825  63.307  24.381  1.00  0.00     0.140 C 
ATOM     14  O   UNL     1      13.283  64.376  24.618  1.00  0.00    -0.299 OA
BRANCH  13  15
ATOM     15  C   UNL     1      15.032  62.897  25.190  1.00  0.00     0.106 CG0
ATOM     16  G   UNL     1      16.286  63.658  24.789  1.00  0.00     0.000 G0
ENDBRANCH  13  15
ENDBRANCH  12  13
BRANCH  12  17
ATOM     17  C   UNL     1      11.838  61.833  23.811  1.00  0.00    -0.006 C 
ATOM     18  C   UNL     1      11.317  60.638  22.991  1.00  0.00     0.008 C 
ATOM     19  C   UNL     1      11.847  61.474  25.306  1.00  0.00     0.008 C 
ENDBRANCH  12  17
ENDBRANCH  11  12
ENDBRANCH   1  11
TORSDOF 1
ENDMDL
MODEL 3
REMARK VINA RESULT:    -3.005      2.052      4.692
REMARK INTER + INTRA:          -4.721
REMARK INTER:                  -4.838
REMARK INTRA:                   0.117
REMARK UNBOUND:                -0.135
REMARK SMILES CC1=CCC[C@@H](C)C(=O)C[C@H](C(C)C)C(=O)C1
REMARK SMILES IDX 8 1 9 2 6 3 7 4 5 5 4 6 3 7 2 8 1 9 10 11 11 12 15 13 16 14
REMARK SMILES IDX 17 15 12 17 13 18 14 19
REMARK H PARENT
REMARK Flexibility Score: 70.00
ROOT
ATOM      1  C   UNL     1      13.444  63.179  23.935  1.00  0.00     0.136 C 
ATOM      2  O   UNL     1      12.420  63.778  23.633  1.00  0.00    -0.299 OA
ENDROOT
BRANCH   1   3
ATOM      3  C   UNL     1      14.318  63.683  25.072  1.00  0.00     0.053 C 
ATOM      4  C   UNL     1      13.962  65.118  25.493  1.00  0.00     0.016 C 
BRANCH   3   5
ATOM      5  C   UNL     1      15.816  63.546  24.734  1.00  0.00     0.015 C 
BRANCH   5   6
ATOM      6  C   UNL     1      16.430  62.199  25.165  1.00  0.00     0.028 C 
BRANCH   6   7
ATOM      7  C   UNL     1      17.636  61.867  24.324  1.00  0.00    -0.028 C 
ATOM      8  C   UNL     1      17.601  61.145  23.179  1.00  0.00    -0.070 CG0
ATOM      9  C   UNL     1      18.910  60.852  22.488  1.00  0.00     0.039 C 
ATOM     10  G   UNL     1      16.309  60.637  22.556  1.00  0.00     0.000 G0
ENDBRANCH   6   7
ENDBRANCH   5   6
ENDBRANCH   3   5
ENDBRANCH   1   3
BRANCH   1  11
ATOM     11  C   UNL     1      13.823  61.942  23.158  1.00  0.00     0.087 C 
BRANCH  11  12
ATOM     12  C   UNL     1      14.385  62.283  21.752  1.00  0.00     0.066 C 
BRANCH  12  13
ATOM     13  C   UNL     1      15.720  61.593  21.511  1.00  0.00     0.140 C 
ATOM     14  O   UNL     1      16.373  61.862  20.513  1.00  0.00    -0.299 OA
BRANCH  13  15
ATOM     15  C   UNL     1      16.295  60.642  22.533  1.00  0.00     0.106 CG0
ATOM     16  G   UNL     1      17.578  61.168  23.159  1.00  0.00     0.000 G0
ENDBRANCH  13  15
ENDBRANCH  12  13
BRANCH  12  17
ATOM     17  C   UNL     1      13.385  61.978  20.591  1.00  0.00    -0.006 C 
ATOM     18  C   UNL     1      12.358  60.878  20.920  1.00  0.00     0.008 C 
ATOM     19  C   UNL     1      12.656  63.248  20.125  1.00  0.00     0.008 C 
ENDBRANCH  12  17
ENDBRANCH  11  12
ENDBRANCH   1  11
TORSDOF 1
ENDMDL
MODEL 4
REMARK VINA RESULT:    -2.966      2.337      3.870
REMARK INTER + INTRA:          -4.661
REMARK INTER:                  -4.512
REMARK INTRA:                  -0.149
REMARK UNBOUND:                -0.135
REMARK SMILES CC1=CCC[C@@H](C)C(=O)C[C@H](C(C)C)C(=O)C1
REMARK SMILES IDX 8 1 9 2 6 3 7 4 5 5 4 6 3 7 2 8 1 9 10 11 11 12 15 13 16 14
REMARK SMILES IDX 17 15 12 17 13 18 14 19
REMARK H PARENT
REMARK Flexibility Score: 70.00
ROOT
ATOM      1  C   UNL     1      16.486  61.604  21.226  1.00  0.00     0.136 C 
ATOM      2  O   UNL     1      16.731  61.480  20.033  1.00  0.00    -0.299 OA
ENDROOT
BRANCH   1   3
ATOM      3  C   UNL     1      17.215  60.749  22.249  1.00  0.00     0.053 C 
ATOM      4  C   UNL     1      18.735  60.725  22.016  1.00  0.00     0.016 C 
BRANCH   3   5
ATOM      5  C   UNL     1      16.628  59.325  22.315  1.00  0.00     0.015 C 
BRANCH   5   6
ATOM      6  C   UNL     1      15.990  58.977  23.674  1.00  0.00     0.028 C 
BRANCH   6   7
ATOM      7  C   UNL     1      16.465  59.925  24.746  1.00  0.00    -0.028 C 
ATOM      8  C   UNL     1      15.723  60.930  25.269  1.00  0.00    -0.070 CG0
ATOM      9  C   UNL     1      16.369  61.826  26.295  1.00  0.00     0.039 C 
ATOM     10  G   UNL     1      14.273  61.179  24.882  1.00  0.00     0.000 G0
ENDBRANCH   6   7
ENDBRANCH   5   6
ENDBRANCH   3   5
ENDBRANCH   1   3
BRANCH   1  11
ATOM     11  C   UNL     1      15.446  62.609  21.657  1.00  0.00     0.087 C 
BRANCH  11  12
ATOM     12  C   UNL     1      14.216  61.933  22.318  1.00  0.00     0.066 C 
BRANCH  12  13
ATOM     13  C   UNL     1      14.135  62.268  23.801  1.00  0.00     0.140 C 
ATOM     14  O   UNL     1      13.891  63.412  24.154  1.00  0.00    -0.299 OA
BRANCH  13  15
ATOM     15  C   UNL     1      14.264  61.187  24.846  1.00  0.00     0.106 CG0
ATOM     16  G   UNL     1      15.709  60.943  25.255  1.00  0.00     0.000 G0
ENDBRANCH  13  15
ENDBRANCH  12  13
BRANCH  12  17
ATOM     17  C   UNL     1      12.866  62.260  21.602  1.00  0.00    -0.006 C 
ATOM     18  C   UNL     1      13.029  63.032  20.279  1.00  0.00     0.008 C 
ATOM     19  C   UNL     1      12.031  60.991  21.364  1.00  0.00     0.008 C 
ENDBRANCH  12  17
ENDBRANCH  11  12
ENDBRANCH   1  11
TORSDOF 1
ENDMDL
MODEL 5
REMARK VINA RESULT:    -2.880     13.636     14.590
REMARK INTER + INTRA:          -4.530
REMARK INTER:                  -4.287
REMARK INTRA:                  -0.243
REMARK UNBOUND:                -0.135
REMARK SMILES CC1=CCC[C@@H](C)C(=O)C[C@H](C(C)C)C(=O)C1
REMARK SMILES IDX 8 1 9 2 6 3 7 4 5 5 4 6 3 7 2 8 1 9 10 11 11 12 15 13 16 14
REMARK SMILES IDX 17 15 12 17 13 18 14 19
REMARK H PARENT
REMARK Flexibility Score: 70.00
ROOT
ATOM      1  C   UNL     1      18.489  52.991  35.184  1.00  0.00     0.136 C 
ATOM      2  O   UNL     1      18.513  53.460  36.315  1.00  0.00    -0.299 OA
ENDROOT
BRANCH   1   3
ATOM      3  C   UNL     1      19.599  53.315  34.198  1.00  0.00     0.053 C 
ATOM      4  C   UNL     1      19.532  54.767  33.697  1.00  0.00     0.016 C 
BRANCH   3   5
ATOM      5  C   UNL     1      19.622  52.311  33.027  1.00  0.00     0.015 C 
BRANCH   5   6
ATOM      6  C   UNL     1      18.935  52.831  31.749  1.00  0.00     0.028 C 
BRANCH   6   7
ATOM      7  C   UNL     1      18.263  51.704  31.006  1.00  0.00    -0.028 C 
ATOM      8  C   UNL     1      16.923  51.525  30.928  1.00  0.00    -0.070 CG0
ATOM      9  C   UNL     1      16.414  50.311  30.192  1.00  0.00     0.039 C 
ATOM     10  G   UNL     1      15.919  52.498  31.528  1.00  0.00     0.000 G0
ENDBRANCH   6   7
ENDBRANCH   5   6
ENDBRANCH   3   5
ENDBRANCH   1   3
BRANCH   1  11
ATOM     11  C   UNL     1      17.339  52.096  34.790  1.00  0.00     0.087 C 
BRANCH  11  12
ATOM     12  C   UNL     1      16.175  52.890  34.139  1.00  0.00     0.066 C 
BRANCH  12  13
ATOM     13  C   UNL     1      15.570  52.123  32.972  1.00  0.00     0.140 C 
ATOM     14  O   UNL     1      14.743  51.249  33.182  1.00  0.00    -0.299 OA
BRANCH  13  15
ATOM     15  C   UNL     1      15.913  52.486  31.547  1.00  0.00     0.106 CG0
ATOM     16  G   UNL     1      16.902  51.515  30.921  1.00  0.00     0.000 G0
ENDBRANCH  13  15
ENDBRANCH  12  13
BRANCH  12  17
ATOM     17  C   UNL     1      15.068  53.316  35.156  1.00  0.00    -0.006 C 
ATOM     18  C   UNL     1      15.010  52.442  36.423  1.00  0.00     0.008 C 
ATOM     19  C   UNL     1      15.201  54.796  35.550  1.00  0.00     0.008 C 
ENDBRANCH  12  17
ENDBRANCH  11  12
ENDBRANCH   1  11
TORSDOF 1
ENDMDL
MODEL 6
REMARK VINA RESULT:    -2.846      1.702      4.193
REMARK INTER + INTRA:          -4.478
REMARK INTER:                  -4.258
REMARK INTRA:                  -0.220
REMARK UNBOUND:                -0.135
REMARK SMILES CC1=CCC[C@@H](C)C(=O)C[C@H](C(C)C)C(=O)C1
REMARK SMILES IDX 8 1 9 2 6 3 7 4 5 5 4 6 3 7 2 8 1 9 10 11 11 12 15 13 16 14
REMARK SMILES IDX 17 15 12 17 13 18 14 19
REMARK H PARENT
REMARK Flexibility Score: 70.00
ROOT
ATOM      1  C   UNL     1      16.681  63.257  23.502  1.00  0.00     0.136 C 
ATOM      2  O   UNL     1      17.891  63.071  23.491  1.00  0.00    -0.299 OA
ENDROOT
BRANCH   1   3
ATOM      3  C   UNL     1      15.980  63.658  24.789  1.00  0.00     0.053 C 
ATOM      4  C   UNL     1      16.721  64.780  25.534  1.00  0.00     0.016 C 
BRANCH   3   5
ATOM      5  C   UNL     1      15.733  62.439  25.700  1.00  0.00     0.015 C 
BRANCH   5   6
ATOM      6  C   UNL     1      14.246  62.067  25.853  1.00  0.00     0.028 C 
BRANCH   6   7
ATOM      7  C   UNL     1      13.364  63.131  25.249  1.00  0.00    -0.028 C 
ATOM      8  C   UNL     1      12.717  63.014  24.065  1.00  0.00    -0.070 CG0
ATOM      9  C   UNL     1      11.919  64.197  23.576  1.00  0.00     0.039 C 
ATOM     10  G   UNL     1      12.745  61.746  23.225  1.00  0.00     0.000 G0
ENDBRANCH   6   7
ENDBRANCH   5   6
ENDBRANCH   3   5
ENDBRANCH   1   3
BRANCH   1  11
ATOM     11  C   UNL     1      15.903  63.074  22.222  1.00  0.00     0.087 C 
BRANCH  11  12
ATOM     12  C   UNL     1      15.174  61.704  22.169  1.00  0.00     0.066 C 
BRANCH  12  13
ATOM     13  C   UNL     1      13.671  61.886  22.015  1.00  0.00     0.140 C 
ATOM     14  O   UNL     1      13.191  62.067  20.906  1.00  0.00    -0.299 OA
BRANCH  13  15
ATOM     15  C   UNL     1      12.750  61.758  23.205  1.00  0.00     0.106 CG0
ATOM     16  G   UNL     1      12.719  63.019  24.054  1.00  0.00     0.000 G0
ENDBRANCH  13  15
ENDBRANCH  12  13
BRANCH  12  17
ATOM     17  C   UNL     1      15.733  60.744  21.070  1.00  0.00    -0.006 C 
ATOM     18  C   UNL     1      16.479  61.462  19.930  1.00  0.00     0.008 C 
ATOM     19  C   UNL     1      16.633  59.654  21.676  1.00  0.00     0.008 C 
ENDBRANCH  12  17
ENDBRANCH  11  12
ENDBRANCH   1  11
TORSDOF 1
ENDMDL
MODEL 7
REMARK VINA RESULT:    -2.793     13.082     14.110
REMARK INTER + INTRA:          -4.397
REMARK INTER:                  -4.062
REMARK INTRA:                  -0.335
REMARK UNBOUND:                -0.135
REMARK SMILES CC1=CCC[C@@H](C)C(=O)C[C@H](C(C)C)C(=O)C1
REMARK SMILES IDX 8 1 9 2 6 3 7 4 5 5 4 6 3 7 2 8 1 9 10 11 11 12 15 13 16 14
REMARK SMILES IDX 17 15 12 17 13 18 14 19
REMARK H PARENT
REMARK Flexibility Score: 70.00
ROOT
ATOM      1  C   UNL     1      19.575  55.417  33.769  1.00  0.00     0.136 C 
ATOM      2  O   UNL     1      20.385  56.062  33.115  1.00  0.00    -0.299 OA
ENDROOT
BRANCH   1   3
ATOM      3  C   UNL     1      19.911  54.008  34.227  1.00  0.00     0.053 C 
ATOM      4  C   UNL     1      19.718  52.968  33.111  1.00  0.00     0.016 C 
BRANCH   3   5
ATOM      5  C   UNL     1      19.126  53.627  35.499  1.00  0.00     0.015 C 
BRANCH   5   6
ATOM      6  C   UNL     1      18.082  52.516  35.276  1.00  0.00     0.028 C 
BRANCH   6   7
ATOM      7  C   UNL     1      16.862  52.748  36.132  1.00  0.00    -0.028 C 
ATOM      8  C   UNL     1      15.718  53.330  35.701  1.00  0.00    -0.070 CG0
ATOM      9  C   UNL     1      14.611  53.541  36.703  1.00  0.00     0.039 C 
ATOM     10  G   UNL     1      15.497  53.759  34.258  1.00  0.00     0.000 G0
ENDBRANCH   6   7
ENDBRANCH   5   6
ENDBRANCH   3   5
ENDBRANCH   1   3
BRANCH   1  11
ATOM     11  C   UNL     1      18.244  56.044  34.103  1.00  0.00     0.087 C 
BRANCH  11  12
ATOM     12  C   UNL     1      17.104  55.523  33.187  1.00  0.00     0.066 C 
BRANCH  12  13
ATOM     13  C   UNL     1      15.858  55.188  33.995  1.00  0.00     0.140 C 
ATOM     14  O   UNL     1      15.122  56.084  34.378  1.00  0.00    -0.299 OA
BRANCH  13  15
ATOM     15  C   UNL     1      15.469  53.753  34.256  1.00  0.00     0.106 CG0
ATOM     16  G   UNL     1      15.727  53.333  35.695  1.00  0.00     0.000 G0
ENDBRANCH  13  15
ENDBRANCH  12  13
BRANCH  12  17
ATOM     17  C   UNL     1      16.759  56.492  32.012  1.00  0.00    -0.006 C 
ATOM     18  C   UNL     1      17.212  57.946  32.243  1.00  0.00     0.008 C 
ATOM     19  C   UNL     1      17.318  55.980  30.674  1.00  0.00     0.008 C 
ENDBRANCH  12  17
ENDBRANCH  11  12
ENDBRANCH   1  11
TORSDOF 1
ENDMDL
MODEL 8
REMARK VINA RESULT:    -2.755     13.282     14.529
REMARK INTER + INTRA:          -4.339
REMARK INTER:                  -4.410
REMARK INTRA:                   0.071
REMARK UNBOUND:                -0.135
REMARK SMILES CC1=CCC[C@@H](C)C(=O)C[C@H](C(C)C)C(=O)C1
REMARK SMILES IDX 8 1 9 2 6 3 7 4 5 5 4 6 3 7 2 8 1 9 10 11 11 12 15 13 16 14
REMARK SMILES IDX 17 15 12 17 13 18 14 19
REMARK H PARENT
REMARK Flexibility Score: 70.00
ROOT
ATOM      1  C   UNL     1      14.891  52.507  34.941  1.00  0.00     0.136 C 
ATOM      2  O   UNL     1      14.573  51.530  34.276  1.00  0.00    -0.299 OA
ENDROOT
BRANCH   1   3
ATOM      3  C   UNL     1      15.733  52.338  36.195  1.00  0.00     0.053 C 
ATOM      4  C   UNL     1      15.077  52.977  37.430  1.00  0.00     0.016 C 
BRANCH   3   5
ATOM      5  C   UNL     1      17.170  52.857  35.982  1.00  0.00     0.015 C 
BRANCH   5   6
ATOM      6  C   UNL     1      17.914  52.168  34.823  1.00  0.00     0.028 C 
BRANCH   6   7
ATOM      7  C   UNL     1      18.739  53.165  34.049  1.00  0.00    -0.028 C 
ATOM      8  C   UNL     1      18.361  53.734  32.880  1.00  0.00    -0.070 CG0
ATOM      9  C   UNL     1      19.332  54.670  32.203  1.00  0.00     0.039 C 
ATOM     10  G   UNL     1      17.005  53.488  32.237  1.00  0.00     0.000 G0
ENDBRANCH   6   7
ENDBRANCH   5   6
ENDBRANCH   3   5
ENDBRANCH   1   3
BRANCH   1  11
ATOM     11  C   UNL     1      14.427  53.873  34.498  1.00  0.00     0.087 C 
BRANCH  11  12
ATOM     12  C   UNL     1      15.608  54.778  34.054  1.00  0.00     0.066 C 
BRANCH  12  13
ATOM     13  C   UNL     1      15.969  54.534  32.596  1.00  0.00     0.140 C 
ATOM     14  O   UNL     1      15.480  55.233  31.722  1.00  0.00    -0.299 OA
BRANCH  13  15
ATOM     15  C   UNL     1      16.996  53.493  32.217  1.00  0.00     0.106 CG0
ATOM     16  G   UNL     1      18.343  53.738  32.879  1.00  0.00     0.000 G0
ENDBRANCH  13  15
ENDBRANCH  12  13
BRANCH  12  17
ATOM     17  C   UNL     1      15.360  56.298  34.317  1.00  0.00    -0.006 C 
ATOM     18  C   UNL     1      14.057  56.598  35.081  1.00  0.00     0.008 C 
ATOM     19  C   UNL     1      16.550  56.947  35.042  1.00  0.00     0.008 C 
ENDBRANCH  12  17
ENDBRANCH  11  12
ENDBRANCH   1  11
TORSDOF 1
ENDMDL
MODEL 9
REMARK VINA RESULT:    -2.701      3.019      5.032
REMARK INTER + INTRA:          -4.257
REMARK INTER:                  -3.993
REMARK INTRA:                  -0.264
REMARK UNBOUND:                -0.135
REMARK SMILES CC1=CCC[C@@H](C)C(=O)C[C@H](C(C)C)C(=O)C1
REMARK SMILES IDX 8 1 9 2 6 3 7 4 5 5 4 6 3 7 2 8 1 9 10 11 11 12 15 13 16 14
REMARK SMILES IDX 17 15 12 17 13 18 14 19
REMARK H PARENT
REMARK Flexibility Score: 70.00
ROOT
ATOM      1  C   UNL     1      14.825  61.545  21.242  1.00  0.00     0.136 C 
ATOM      2  O   UNL     1      15.252  62.626  21.626  1.00  0.00    -0.299 OA
ENDROOT
BRANCH   1   3
ATOM      3  C   UNL     1      13.328  61.309  21.133  1.00  0.00     0.053 C 
ATOM      4  C   UNL     1      12.662  62.237  20.104  1.00  0.00     0.016 C 
BRANCH   3   5
ATOM      5  C   UNL     1      12.641  61.402  22.510  1.00  0.00     0.015 C 
BRANCH   5   6
ATOM      6  C   UNL     1      12.994  60.242  23.461  1.00  0.00     0.028 C 
BRANCH   6   7
ATOM      7  C   UNL     1      12.540  58.923  22.889  1.00  0.00    -0.028 C 
ATOM      8  C   UNL     1      13.331  57.835  22.742  1.00  0.00    -0.070 CG0
ATOM      9  C   UNL     1      12.734  56.609  22.096  1.00  0.00     0.039 C 
ATOM     10  G   UNL     1      14.777  57.789  23.212  1.00  0.00     0.000 G0
ENDBRANCH   6   7
ENDBRANCH   5   6
ENDBRANCH   3   5
ENDBRANCH   1   3
BRANCH   1  11
ATOM     11  C   UNL     1      15.809  60.456  20.889  1.00  0.00     0.087 C 
BRANCH  11  12
ATOM     12  C   UNL     1      16.296  59.678  22.141  1.00  0.00     0.066 C 
BRANCH  12  13
ATOM     13  C   UNL     1      15.766  58.251  22.142  1.00  0.00     0.140 C 
ATOM     14  O   UNL     1      16.181  57.447  21.321  1.00  0.00    -0.299 OA
BRANCH  13  15
ATOM     15  C   UNL     1      14.795  57.787  23.201  1.00  0.00     0.106 CG0
ATOM     16  G   UNL     1      13.350  57.839  22.728  1.00  0.00     0.000 G0
ENDBRANCH  13  15
ENDBRANCH  12  13
BRANCH  12  17
ATOM     17  C   UNL     1      17.848  59.693  22.317  1.00  0.00    -0.006 C 
ATOM     18  C   UNL     1      18.470  61.101  22.284  1.00  0.00     0.008 C 
ATOM     19  C   UNL     1      18.277  58.965  23.602  1.00  0.00     0.008 C 
ENDBRANCH  12  17
ENDBRANCH  11  12
ENDBRANCH   1  11
TORSDOF 1
ENDMDL
