MODEL 1
REMARK VINA RESULT:    -5.779      0.000      0.000
REMARK INTER + INTRA:          -5.779
REMARK INTER:                  -5.779
REMARK INTRA:                   0.000
REMARK UNBOUND:                 0.000
REMARK SMILES O=c1ccc2ccccc2o1
REMARK SMILES IDX 7 1 8 2 9 3 10 4 5 5 6 6 4 7 3 8 2 9 1 10 11 11
REMARK H PARENT
REMARK Flexibility Score: inf
ROOT
ATOM      1  C   UNL     1       1.312  -4.137   3.381  1.00  0.00     0.001 A 
ATOM      2  C   UNL     1       1.173  -5.528   3.421  1.00  0.00     0.004 A 
ATOM      3  C   UNL     1       0.798  -6.232   2.272  1.00  0.00     0.048 A 
ATOM      4  C   UNL     1       0.562  -5.546   1.076  1.00  0.00     0.138 A 
ATOM      5  C   UNL     1       0.703  -4.140   1.035  1.00  0.00     0.018 A 
ATOM      6  C   UNL     1       1.078  -3.440   2.191  1.00  0.00     0.012 A 
ATOM      7  C   UNL     1       0.459  -3.480  -0.174  1.00  0.00     0.019 A 
ATOM      8  C   UNL     1       0.088  -4.223  -1.295  1.00  0.00     0.094 A 
ATOM      9  C   UNL     1      -0.032  -5.612  -1.180  1.00  0.00     0.336 A 
ATOM     10  O   UNL     1      -0.366  -6.299  -2.180  1.00  0.00    -0.246 OA
ATOM     11  O   UNL     1       0.205  -6.215  -0.017  1.00  0.00    -0.423 OA
ENDROOT
TORSDOF 0
ENDMDL
MODEL 2
REMARK VINA RESULT:    -5.491      1.457      3.788
REMARK INTER + INTRA:          -5.491
REMARK INTER:                  -5.491
REMARK INTRA:                   0.000
REMARK UNBOUND:                 0.000
REMARK SMILES O=c1ccc2ccccc2o1
REMARK SMILES IDX 7 1 8 2 9 3 10 4 5 5 6 6 4 7 3 8 2 9 1 10 11 11
REMARK H PARENT
REMARK Flexibility Score: inf
ROOT
ATOM      1  C   UNL     1      -0.108  -4.114  -1.844  1.00  0.00     0.001 A 
ATOM      2  C   UNL     1      -0.324  -5.492  -1.741  1.00  0.00     0.004 A 
ATOM      3  C   UNL     1      -0.061  -6.159  -0.540  1.00  0.00     0.048 A 
ATOM      4  C   UNL     1       0.420  -5.448   0.565  1.00  0.00     0.138 A 
ATOM      5  C   UNL     1       0.639  -4.056   0.462  1.00  0.00     0.018 A 
ATOM      6  C   UNL     1       0.373  -3.393  -0.746  1.00  0.00     0.012 A 
ATOM      7  C   UNL     1       1.121  -3.371   1.582  1.00  0.00     0.019 A 
ATOM      8  C   UNL     1       1.369  -4.077   2.760  1.00  0.00     0.094 A 
ATOM      9  C   UNL     1       1.129  -5.455   2.789  1.00  0.00     0.336 A 
ATOM     10  O   UNL     1       1.348  -6.109   3.842  1.00  0.00    -0.246 OA
ATOM     11  O   UNL     1       0.671  -6.082   1.708  1.00  0.00    -0.423 OA
ENDROOT
TORSDOF 0
ENDMDL
MODEL 3
REMARK VINA RESULT:    -4.943      0.900      1.256
REMARK INTER + INTRA:          -4.943
REMARK INTER:                  -4.943
REMARK INTRA:                   0.000
REMARK UNBOUND:                 0.000
REMARK SMILES O=c1ccc2ccccc2o1
REMARK SMILES IDX 7 1 8 2 9 3 10 4 5 5 6 6 4 7 3 8 2 9 1 10 11 11
REMARK H PARENT
REMARK Flexibility Score: inf
ROOT
ATOM      1  C   UNL     1       1.409  -3.119   1.972  1.00  0.00     0.001 A 
ATOM      2  C   UNL     1       1.394  -4.336   2.662  1.00  0.00     0.004 A 
ATOM      3  C   UNL     1       0.868  -5.482   2.057  1.00  0.00     0.048 A 
ATOM      4  C   UNL     1       0.356  -5.415   0.756  1.00  0.00     0.138 A 
ATOM      5  C   UNL     1       0.371  -4.186   0.059  1.00  0.00     0.018 A 
ATOM      6  C   UNL     1       0.899  -3.040   0.673  1.00  0.00     0.012 A 
ATOM      7  C   UNL     1      -0.148  -4.148  -1.239  1.00  0.00     0.019 A 
ATOM      8  C   UNL     1      -0.662  -5.316  -1.803  1.00  0.00     0.094 A 
ATOM      9  C   UNL     1      -0.644  -6.497  -1.054  1.00  0.00     0.336 A 
ATOM     10  O   UNL     1      -1.104  -7.561  -1.546  1.00  0.00    -0.246 OA
ATOM     11  O   UNL     1      -0.145  -6.505   0.180  1.00  0.00    -0.423 OA
ENDROOT
TORSDOF 0
ENDMDL
MODEL 4
REMARK VINA RESULT:    -4.776      1.617      2.346
REMARK INTER + INTRA:          -4.776
REMARK INTER:                  -4.776
REMARK INTRA:                   0.000
REMARK UNBOUND:                 0.000
REMARK SMILES O=c1ccc2ccccc2o1
REMARK SMILES IDX 7 1 8 2 9 3 10 4 5 5 6 6 4 7 3 8 2 9 1 10 11 11
REMARK H PARENT
REMARK Flexibility Score: inf
ROOT
ATOM      1  C   UNL     1       1.024  -5.864   3.508  1.00  0.00     0.001 A 
ATOM      2  C   UNL     1       1.251  -4.511   3.779  1.00  0.00     0.004 A 
ATOM      3  C   UNL     1       1.160  -3.562   2.754  1.00  0.00     0.048 A 
ATOM      4  C   UNL     1       0.841  -3.966   1.453  1.00  0.00     0.138 A 
ATOM      5  C   UNL     1       0.612  -5.333   1.178  1.00  0.00     0.018 A 
ATOM      6  C   UNL     1       0.706  -6.279   2.211  1.00  0.00     0.012 A 
ATOM      7  C   UNL     1       0.296  -5.707  -0.131  1.00  0.00     0.019 A 
ATOM      8  C   UNL     1       0.216  -4.727  -1.121  1.00  0.00     0.094 A 
ATOM      9  C   UNL     1       0.454  -3.393  -0.777  1.00  0.00     0.336 A 
ATOM     10  O   UNL     1       0.387  -2.494  -1.656  1.00  0.00    -0.246 OA
ATOM     11  O   UNL     1       0.754  -3.064   0.478  1.00  0.00    -0.423 OA
ENDROOT
TORSDOF 0
ENDMDL
MODEL 5
REMARK VINA RESULT:    -4.420     12.289     12.734
REMARK INTER + INTRA:          -4.420
REMARK INTER:                  -4.420
REMARK INTRA:                   0.000
REMARK UNBOUND:                 0.000
REMARK SMILES O=c1ccc2ccccc2o1
REMARK SMILES IDX 7 1 8 2 9 3 10 4 5 5 6 6 4 7 3 8 2 9 1 10 11 11
REMARK H PARENT
REMARK Flexibility Score: inf
ROOT
ATOM      1  C   UNL     1       1.183   6.915  -1.871  1.00  0.00     0.001 A 
ATOM      2  C   UNL     1       1.989   7.595  -0.952  1.00  0.00     0.004 A 
ATOM      3  C   UNL     1       3.382   7.538  -1.059  1.00  0.00     0.048 A 
ATOM      4  C   UNL     1       3.976   6.798  -2.088  1.00  0.00     0.138 A 
ATOM      5  C   UNL     1       3.163   6.111  -3.017  1.00  0.00     0.018 A 
ATOM      6  C   UNL     1       1.765   6.172  -2.903  1.00  0.00     0.012 A 
ATOM      7  C   UNL     1       3.783   5.379  -4.034  1.00  0.00     0.019 A 
ATOM      8  C   UNL     1       5.176   5.350  -4.102  1.00  0.00     0.094 A 
ATOM      9  C   UNL     1       5.918   6.056  -3.149  1.00  0.00     0.336 A 
ATOM     10  O   UNL     1       7.175   6.041  -3.193  1.00  0.00    -0.246 OA
ATOM     11  O   UNL     1       5.302   6.743  -2.190  1.00  0.00    -0.423 OA
ENDROOT
TORSDOF 0
ENDMDL
MODEL 6
REMARK VINA RESULT:    -4.414      1.826      4.347
REMARK INTER + INTRA:          -4.414
REMARK INTER:                  -4.414
REMARK INTRA:                   0.000
REMARK UNBOUND:                 0.000
REMARK SMILES O=c1ccc2ccccc2o1
REMARK SMILES IDX 7 1 8 2 9 3 10 4 5 5 6 6 4 7 3 8 2 9 1 10 11 11
REMARK H PARENT
REMARK Flexibility Score: inf
ROOT
ATOM      1  C   UNL     1      -0.368  -5.801  -1.667  1.00  0.00     0.001 A 
ATOM      2  C   UNL     1      -0.263  -4.406  -1.641  1.00  0.00     0.004 A 
ATOM      3  C   UNL     1       0.140  -3.751  -0.473  1.00  0.00     0.048 A 
ATOM      4  C   UNL     1       0.440  -4.491   0.676  1.00  0.00     0.138 A 
ATOM      5  C   UNL     1       0.334  -5.900   0.651  1.00  0.00     0.018 A 
ATOM      6  C   UNL     1      -0.071  -6.550  -0.524  1.00  0.00     0.012 A 
ATOM      7  C   UNL     1       0.640  -6.613   1.814  1.00  0.00     0.019 A 
ATOM      8  C   UNL     1       1.038  -5.918   2.957  1.00  0.00     0.094 A 
ATOM      9  C   UNL     1       1.121  -4.523   2.909  1.00  0.00     0.336 A 
ATOM     10  O   UNL     1       1.478  -3.879   3.929  1.00  0.00    -0.246 OA
ATOM     11  O   UNL     1       0.824  -3.868   1.788  1.00  0.00    -0.423 OA
ENDROOT
TORSDOF 0
ENDMDL
MODEL 7
REMARK VINA RESULT:    -4.308     11.102     12.223
REMARK INTER + INTRA:          -4.308
REMARK INTER:                  -4.308
REMARK INTRA:                   0.000
REMARK UNBOUND:                 0.000
REMARK SMILES O=c1ccc2ccccc2o1
REMARK SMILES IDX 7 1 8 2 9 3 10 4 5 5 6 6 4 7 3 8 2 9 1 10 11 11
REMARK H PARENT
REMARK Flexibility Score: inf
ROOT
ATOM      1  C   UNL     1       2.972   6.573  -1.851  1.00  0.00     0.001 A 
ATOM      2  C   UNL     1       2.809   5.188  -1.744  1.00  0.00     0.004 A 
ATOM      3  C   UNL     1       3.853   4.326  -2.096  1.00  0.00     0.048 A 
ATOM      4  C   UNL     1       5.067   4.848  -2.556  1.00  0.00     0.138 A 
ATOM      5  C   UNL     1       5.233   6.248  -2.663  1.00  0.00     0.018 A 
ATOM      6  C   UNL     1       4.181   7.106  -2.309  1.00  0.00     0.012 A 
ATOM      7  C   UNL     1       6.457   6.741  -3.126  1.00  0.00     0.019 A 
ATOM      8  C   UNL     1       7.471   5.844  -3.466  1.00  0.00     0.094 A 
ATOM      9  C   UNL     1       7.235   4.472  -3.333  1.00  0.00     0.336 A 
ATOM     10  O   UNL     1       8.137   3.647  -3.635  1.00  0.00    -0.246 OA
ATOM     11  O   UNL     1       6.061   4.029  -2.891  1.00  0.00    -0.423 OA
ENDROOT
TORSDOF 0
ENDMDL
MODEL 8
REMARK VINA RESULT:    -4.262      1.021      2.102
REMARK INTER + INTRA:          -4.262
REMARK INTER:                  -4.262
REMARK INTRA:                   0.000
REMARK UNBOUND:                 0.000
REMARK SMILES O=c1ccc2ccccc2o1
REMARK SMILES IDX 7 1 8 2 9 3 10 4 5 5 6 6 4 7 3 8 2 9 1 10 11 11
REMARK H PARENT
REMARK Flexibility Score: inf
ROOT
ATOM      1  C   UNL     1       1.319  -4.642   3.213  1.00  0.00     0.001 A 
ATOM      2  C   UNL     1       1.237  -3.382   2.612  1.00  0.00     0.004 A 
ATOM      3  C   UNL     1       0.791  -3.258   1.292  1.00  0.00     0.048 A 
ATOM      4  C   UNL     1       0.424  -4.398   0.567  1.00  0.00     0.138 A 
ATOM      5  C   UNL     1       0.507  -5.672   1.174  1.00  0.00     0.018 A 
ATOM      6  C   UNL     1       0.956  -5.788   2.498  1.00  0.00     0.012 A 
ATOM      7  C   UNL     1       0.135  -6.793   0.426  1.00  0.00     0.019 A 
ATOM      8  C   UNL     1      -0.304  -6.623  -0.888  1.00  0.00     0.094 A 
ATOM      9  C   UNL     1      -0.361  -5.332  -1.423  1.00  0.00     0.336 A 
ATOM     10  O   UNL     1      -0.753  -5.158  -2.606  1.00  0.00    -0.246 OA
ATOM     11  O   UNL     1       0.000  -4.281  -0.689  1.00  0.00    -0.423 OA
ENDROOT
TORSDOF 0
ENDMDL
MODEL 9
REMARK VINA RESULT:    -4.262     12.341     13.045
REMARK INTER + INTRA:          -4.262
REMARK INTER:                  -4.262
REMARK INTRA:                   0.000
REMARK UNBOUND:                 0.000
REMARK SMILES O=c1ccc2ccccc2o1
REMARK SMILES IDX 7 1 8 2 9 3 10 4 5 5 6 6 4 7 3 8 2 9 1 10 11 11
REMARK H PARENT
REMARK Flexibility Score: inf
ROOT
ATOM      1  C   UNL     1       5.362   5.319  -4.128  1.00  0.00     0.001 A 
ATOM      2  C   UNL     1       6.182   6.124  -3.331  1.00  0.00     0.004 A 
ATOM      3  C   UNL     1       5.622   6.940  -2.342  1.00  0.00     0.048 A 
ATOM      4  C   UNL     1       4.236   6.952  -2.147  1.00  0.00     0.138 A 
ATOM      5  C   UNL     1       3.407   6.139  -2.952  1.00  0.00     0.018 A 
ATOM      6  C   UNL     1       3.976   5.324  -3.942  1.00  0.00     0.012 A 
ATOM      7  C   UNL     1       2.026   6.173  -2.735  1.00  0.00     0.019 A 
ATOM      8  C   UNL     1       1.511   7.002  -1.737  1.00  0.00     0.094 A 
ATOM      9  C   UNL     1       2.392   7.779  -0.978  1.00  0.00     0.336 A 
ATOM     10  O   UNL     1       1.947   8.533  -0.075  1.00  0.00    -0.246 OA
ATOM     11  O   UNL     1       3.703   7.729  -1.206  1.00  0.00    -0.423 OA
ENDROOT
TORSDOF 0
ENDMDL
