MODEL 1
REMARK VINA RESULT:    -3.221      0.000      0.000
REMARK INTER + INTRA:          -3.815
REMARK INTER:                  -3.786
REMARK INTRA:                  -0.029
REMARK UNBOUND:                -0.029
REMARK SMILES CCCCC(=O)[O-]
REMARK SMILES IDX 4 1 5 2 6 3 7 4 3 5 2 6 1 7
REMARK H PARENT
REMARK Flexibility Score: inf
ROOT
ATOM      1  C   UNL     1      -5.000 -73.030 -12.089  1.00  0.00     0.053 C 
ENDROOT
BRANCH   1   2
ATOM      2  C   UNL     1      -4.618 -74.377 -11.559  1.00  0.00     0.041 C 
ATOM      3  O   UNL     1      -3.461 -74.574 -11.105  1.00  0.00    -0.550 OA
ATOM      4  O   UNL     1      -5.530 -75.424 -11.595  1.00  0.00    -0.550 OA
ENDBRANCH   1   2
BRANCH   1   5
ATOM      5  C   UNL     1      -3.770 -72.151 -12.353  1.00  0.00     0.006 C 
BRANCH   5   6
ATOM      6  C   UNL     1      -4.122 -70.656 -12.385  1.00  0.00    -0.003 C 
ATOM      7  C   UNL     1      -4.037 -70.041 -10.991  1.00  0.00     0.004 C 
ENDBRANCH   5   6
ENDBRANCH   1   5
TORSDOF 3
ENDMDL
MODEL 2
REMARK VINA RESULT:    -3.007     16.133     16.862
REMARK INTER + INTRA:          -3.564
REMARK INTER:                  -3.457
REMARK INTRA:                  -0.107
REMARK UNBOUND:                -0.029
REMARK SMILES CCCCC(=O)[O-]
REMARK SMILES IDX 4 1 5 2 6 3 7 4 3 5 2 6 1 7
REMARK H PARENT
REMARK Flexibility Score: inf
ROOT
ATOM      1  C   UNL     1      -7.942 -74.546   4.948  1.00  0.00     0.053 C 
ENDROOT
BRANCH   1   2
ATOM      2  C   UNL     1      -8.395 -73.705   3.794  1.00  0.00     0.041 C 
ATOM      3  O   UNL     1      -8.779 -74.251   2.727  1.00  0.00    -0.550 OA
ATOM      4  O   UNL     1      -8.360 -72.320   3.885  1.00  0.00    -0.550 OA
ENDBRANCH   1   2
BRANCH   1   5
ATOM      5  C   UNL     1      -7.324 -75.871   4.482  1.00  0.00     0.006 C 
BRANCH   5   6
ATOM      6  C   UNL     1      -8.184 -77.081   4.873  1.00  0.00    -0.003 C 
ATOM      7  C   UNL     1      -8.867 -77.689   3.651  1.00  0.00     0.004 C 
ENDBRANCH   5   6
ENDBRANCH   1   5
TORSDOF 3
ENDMDL
MODEL 3
REMARK VINA RESULT:    -2.782      6.560      8.039
REMARK INTER + INTRA:          -3.300
REMARK INTER:                  -3.282
REMARK INTRA:                  -0.018
REMARK UNBOUND:                -0.029
REMARK SMILES CCCCC(=O)[O-]
REMARK SMILES IDX 4 1 5 2 6 3 7 4 3 5 2 6 1 7
REMARK H PARENT
REMARK Flexibility Score: inf
ROOT
ATOM      1  C   UNL     1      -4.616 -67.076  -6.428  1.00  0.00     0.053 C 
ENDROOT
BRANCH   1   2
ATOM      2  C   UNL     1      -3.354 -66.791  -5.673  1.00  0.00     0.041 C 
ATOM      3  O   UNL     1      -3.124 -67.374  -4.582  1.00  0.00    -0.550 OA
ATOM      4  O   UNL     1      -2.447 -65.857  -6.159  1.00  0.00    -0.550 OA
ENDBRANCH   1   2
BRANCH   1   5
ATOM      5  C   UNL     1      -4.572 -68.446  -7.117  1.00  0.00     0.006 C 
BRANCH   5   6
ATOM      6  C   UNL     1      -5.141 -68.397  -8.543  1.00  0.00    -0.003 C 
ATOM      7  C   UNL     1      -4.191 -69.058  -9.537  1.00  0.00     0.004 C 
ENDBRANCH   5   6
ENDBRANCH   1   5
TORSDOF 3
ENDMDL
MODEL 4
REMARK VINA RESULT:    -2.766     15.250     16.390
REMARK INTER + INTRA:          -3.280
REMARK INTER:                  -3.232
REMARK INTRA:                  -0.048
REMARK UNBOUND:                -0.029
REMARK SMILES CCCCC(=O)[O-]
REMARK SMILES IDX 4 1 5 2 6 3 7 4 3 5 2 6 1 7
REMARK H PARENT
REMARK Flexibility Score: inf
ROOT
ATOM      1  C   UNL     1      -8.809 -65.164   0.293  1.00  0.00     0.053 C 
ENDROOT
BRANCH   1   2
ATOM      2  C   UNL     1      -9.223 -63.755  -0.003  1.00  0.00     0.041 C 
ATOM      3  O   UNL     1     -10.137 -63.209   0.668  1.00  0.00    -0.550 OA
ATOM      4  O   UNL     1      -8.621 -63.057  -1.043  1.00  0.00    -0.550 OA
ENDBRANCH   1   2
BRANCH   1   5
ATOM      5  C   UNL     1      -8.460 -65.357   1.775  1.00  0.00     0.006 C 
BRANCH   5   6
ATOM      6  C   UNL     1      -9.491 -66.230   2.505  1.00  0.00    -0.003 C 
ATOM      7  C   UNL     1      -9.021 -66.573   3.915  1.00  0.00     0.004 C 
ENDBRANCH   5   6
ENDBRANCH   1   5
TORSDOF 3
ENDMDL
MODEL 5
REMARK VINA RESULT:    -2.757     16.463     16.974
REMARK INTER + INTRA:          -3.270
REMARK INTER:                  -3.164
REMARK INTRA:                  -0.105
REMARK UNBOUND:                -0.029
REMARK SMILES CCCCC(=O)[O-]
REMARK SMILES IDX 4 1 5 2 6 3 7 4 3 5 2 6 1 7
REMARK H PARENT
REMARK Flexibility Score: inf
ROOT
ATOM      1  C   UNL     1      -7.974 -72.897   5.005  1.00  0.00     0.053 C 
ENDROOT
BRANCH   1   2
ATOM      2  C   UNL     1      -8.832 -73.250   3.829  1.00  0.00     0.041 C 
ATOM      3  O   UNL     1      -8.484 -74.172   3.047  1.00  0.00    -0.550 OA
ATOM      4  O   UNL     1      -9.998 -72.537   3.578  1.00  0.00    -0.550 OA
ENDBRANCH   1   2
BRANCH   1   5
ATOM      5  C   UNL     1      -7.471 -71.449   4.931  1.00  0.00     0.006 C 
BRANCH   5   6
ATOM      6  C   UNL     1      -7.974 -70.599   6.106  1.00  0.00    -0.003 C 
ATOM      7  C   UNL     1      -9.219 -69.806   5.719  1.00  0.00     0.004 C 
ENDBRANCH   5   6
ENDBRANCH   1   5
TORSDOF 3
ENDMDL
MODEL 6
REMARK VINA RESULT:    -2.747     16.571     17.262
REMARK INTER + INTRA:          -3.258
REMARK INTER:                  -3.233
REMARK INTRA:                  -0.025
REMARK UNBOUND:                -0.029
REMARK SMILES CCCCC(=O)[O-]
REMARK SMILES IDX 4 1 5 2 6 3 7 4 3 5 2 6 1 7
REMARK H PARENT
REMARK Flexibility Score: inf
ROOT
ATOM      1  C   UNL     1      -7.971 -74.384   5.068  1.00  0.00     0.053 C 
ENDROOT
BRANCH   1   2
ATOM      2  C   UNL     1      -8.323 -73.623   3.826  1.00  0.00     0.041 C 
ATOM      3  O   UNL     1      -8.336 -72.365   3.838  1.00  0.00    -0.550 OA
ATOM      4  O   UNL     1      -8.668 -74.305   2.666  1.00  0.00    -0.550 OA
ENDBRANCH   1   2
BRANCH   1   5
ATOM      5  C   UNL     1      -7.641 -75.851   4.764  1.00  0.00     0.006 C 
BRANCH   5   6
ATOM      6  C   UNL     1      -8.044 -76.786   5.914  1.00  0.00    -0.003 C 
ATOM      7  C   UNL     1      -8.622 -78.094   5.382  1.00  0.00     0.004 C 
ENDBRANCH   5   6
ENDBRANCH   1   5
TORSDOF 3
ENDMDL
MODEL 7
REMARK VINA RESULT:    -2.726      5.692      7.054
REMARK INTER + INTRA:          -3.233
REMARK INTER:                  -3.212
REMARK INTRA:                  -0.021
REMARK UNBOUND:                -0.029
REMARK SMILES CCCCC(=O)[O-]
REMARK SMILES IDX 4 1 5 2 6 3 7 4 3 5 2 6 1 7
REMARK H PARENT
REMARK Flexibility Score: inf
ROOT
ATOM      1  C   UNL     1      -4.665 -67.602  -7.537  1.00  0.00     0.053 C 
ENDROOT
BRANCH   1   2
ATOM      2  C   UNL     1      -4.634 -68.745  -8.506  1.00  0.00     0.041 C 
ATOM      3  O   UNL     1      -3.583 -68.999  -9.151  1.00  0.00    -0.550 OA
ATOM      4  O   UNL     1      -5.775 -69.507  -8.720  1.00  0.00    -0.550 OA
ENDBRANCH   1   2
BRANCH   1   5
ATOM      5  C   UNL     1      -4.629 -68.087  -6.082  1.00  0.00     0.006 C 
BRANCH   5   6
ATOM      6  C   UNL     1      -3.578 -67.339  -5.248  1.00  0.00    -0.003 C 
ATOM      7  C   UNL     1      -4.206 -66.709  -4.008  1.00  0.00     0.004 C 
ENDBRANCH   5   6
ENDBRANCH   1   5
TORSDOF 3
ENDMDL
MODEL 8
REMARK VINA RESULT:    -2.703     10.130     11.172
REMARK INTER + INTRA:          -3.206
REMARK INTER:                  -3.140
REMARK INTRA:                  -0.066
REMARK UNBOUND:                -0.029
REMARK SMILES CCCCC(=O)[O-]
REMARK SMILES IDX 4 1 5 2 6 3 7 4 3 5 2 6 1 7
REMARK H PARENT
REMARK Flexibility Score: inf
ROOT
ATOM      1  C   UNL     1     -14.110 -76.009  -8.943  1.00  0.00     0.053 C 
ENDROOT
BRANCH   1   2
ATOM      2  C   UNL     1     -13.605 -76.562 -10.240  1.00  0.00     0.041 C 
ATOM      3  O   UNL     1     -13.228 -75.785 -11.156  1.00  0.00    -0.550 OA
ATOM      4  O   UNL     1     -13.582 -77.936 -10.449  1.00  0.00    -0.550 OA
ENDBRANCH   1   2
BRANCH   1   5
ATOM      5  C   UNL     1     -13.434 -76.673  -7.737  1.00  0.00     0.006 C 
BRANCH   5   6
ATOM      6  C   UNL     1     -14.453 -77.293  -6.769  1.00  0.00    -0.003 C 
ATOM      7  C   UNL     1     -15.786 -76.553  -6.827  1.00  0.00     0.004 C 
ENDBRANCH   5   6
ENDBRANCH   1   5
TORSDOF 3
ENDMDL
MODEL 9
REMARK VINA RESULT:    -2.682     10.414     11.836
REMARK INTER + INTRA:          -3.182
REMARK INTER:                  -3.089
REMARK INTRA:                  -0.094
REMARK UNBOUND:                -0.029
REMARK SMILES CCCCC(=O)[O-]
REMARK SMILES IDX 4 1 5 2 6 3 7 4 3 5 2 6 1 7
REMARK H PARENT
REMARK Flexibility Score: inf
ROOT
ATOM      1  C   UNL     1      -0.118 -63.253  -6.106  1.00  0.00     0.053 C 
ENDROOT
BRANCH   1   2
ATOM      2  C   UNL     1      -0.515 -64.527  -6.786  1.00  0.00     0.041 C 
ATOM      3  O   UNL     1       0.148 -64.954  -7.767  1.00  0.00    -0.550 OA
ATOM      4  O   UNL     1      -1.637 -65.225  -6.358  1.00  0.00    -0.550 OA
ENDBRANCH   1   2
BRANCH   1   5
ATOM      5  C   UNL     1       1.301 -63.333  -5.529  1.00  0.00     0.006 C 
BRANCH   5   6
ATOM      6  C   UNL     1       2.124 -62.073  -5.839  1.00  0.00    -0.003 C 
ATOM      7  C   UNL     1       2.018 -61.696  -7.313  1.00  0.00     0.004 C 
ENDBRANCH   5   6
ENDBRANCH   1   5
TORSDOF 3
ENDMDL
