MODEL 1
REMARK VINA RESULT:    -2.855      0.000      0.000
REMARK INTER + INTRA:          -3.324
REMARK INTER:                  -3.105
REMARK INTRA:                  -0.219
REMARK UNBOUND:                -0.219
REMARK SMILES O=C([O-])c1ccccc1O
REMARK SMILES IDX 4 1 9 2 5 3 8 4 6 5 7 6 2 7 1 8 3 9 10 10
REMARK H PARENT 10 11
REMARK Flexibility Score: inf
ROOT
ATOM      1  C   UNL     1      29.415  29.791  47.899  1.00  0.00     0.039 A 
ATOM      2  C   UNL     1      28.846  30.765  48.759  1.00  0.00     0.124 A 
ATOM      3  C   UNL     1      28.849  29.594  46.626  1.00  0.00     0.014 A 
ATOM      4  C   UNL     1      27.701  31.463  48.354  1.00  0.00     0.047 A 
ATOM      5  C   UNL     1      27.719  30.314  46.228  1.00  0.00     0.001 A 
ATOM      6  C   UNL     1      27.140  31.239  47.095  1.00  0.00     0.004 A 
ENDROOT
BRANCH   1   7
ATOM      7  C   UNL     1      30.559  28.946  48.304  1.00  0.00     0.075 C 
ATOM      8  O   UNL     1      30.476  28.217  49.328  1.00  0.00    -0.545 OA
ATOM      9  O   UNL     1      31.761  28.994  47.607  1.00  0.00    -0.545 OA
ENDBRANCH   1   7
BRANCH   2  10
ATOM     10  O   UNL     1      29.403  31.091  49.998  1.00  0.00    -0.507 OA
ATOM     11  H   UNL     1      29.876  30.421  50.588  1.00  0.00     0.293 HD
ENDBRANCH   2  10
TORSDOF 2
ENDMDL
MODEL 2
REMARK VINA RESULT:    -2.478      2.286      3.446
REMARK INTER + INTRA:          -2.915
REMARK INTER:                  -2.663
REMARK INTRA:                  -0.251
REMARK UNBOUND:                -0.219
REMARK SMILES O=C([O-])c1ccccc1O
REMARK SMILES IDX 4 1 9 2 5 3 8 4 6 5 7 6 2 7 1 8 3 9 10 10
REMARK H PARENT 10 11
REMARK Flexibility Score: inf
ROOT
ATOM      1  C   UNL     1      28.435  30.778  48.087  1.00  0.00     0.039 A 
ATOM      2  C   UNL     1      29.157  30.994  49.288  1.00  0.00     0.124 A 
ATOM      3  C   UNL     1      28.235  29.458  47.641  1.00  0.00     0.014 A 
ATOM      4  C   UNL     1      29.708  29.902  49.971  1.00  0.00     0.047 A 
ATOM      5  C   UNL     1      28.774  28.378  48.344  1.00  0.00     0.001 A 
ATOM      6  C   UNL     1      29.518  28.601  49.502  1.00  0.00     0.004 A 
ENDROOT
BRANCH   1   7
ATOM      7  C   UNL     1      27.915  31.891  47.262  1.00  0.00     0.075 C 
ATOM      8  O   UNL     1      26.869  31.735  46.577  1.00  0.00    -0.545 OA
ATOM      9  O   UNL     1      28.603  33.095  47.177  1.00  0.00    -0.545 OA
ENDBRANCH   1   7
BRANCH   2  10
ATOM     10  O   UNL     1      29.316  32.262  49.852  1.00  0.00    -0.507 OA
ATOM     11  H   UNL     1      29.150  33.120  49.345  1.00  0.00     0.293 HD
ENDBRANCH   2  10
TORSDOF 2
ENDMDL
MODEL 3
REMARK VINA RESULT:    -2.374      2.243      3.996
REMARK INTER + INTRA:          -2.801
REMARK INTER:                  -2.583
REMARK INTRA:                  -0.217
REMARK UNBOUND:                -0.219
REMARK SMILES O=C([O-])c1ccccc1O
REMARK SMILES IDX 4 1 9 2 5 3 8 4 6 5 7 6 2 7 1 8 3 9 10 10
REMARK H PARENT 10 11
REMARK Flexibility Score: inf
ROOT
ATOM      1  C   UNL     1      28.657  30.893  48.003  1.00  0.00     0.039 A 
ATOM      2  C   UNL     1      29.028  29.727  47.285  1.00  0.00     0.124 A 
ATOM      3  C   UNL     1      28.858  30.927  49.395  1.00  0.00     0.014 A 
ATOM      4  C   UNL     1      29.526  28.617  47.977  1.00  0.00     0.047 A 
ATOM      5  C   UNL     1      29.375  29.818  50.069  1.00  0.00     0.001 A 
ATOM      6  C   UNL     1      29.699  28.661  49.362  1.00  0.00     0.004 A 
ENDROOT
BRANCH   1   7
ATOM      7  C   UNL     1      28.030  32.062  47.348  1.00  0.00     0.075 C 
ATOM      8  O   UNL     1      26.949  31.928  46.715  1.00  0.00    -0.545 OA
ATOM      9  O   UNL     1      28.652  33.304  47.362  1.00  0.00    -0.545 OA
ENDBRANCH   1   7
BRANCH   2  10
ATOM     10  O   UNL     1      28.953  29.646  45.892  1.00  0.00    -0.507 OA
ATOM     11  H   UNL     1      29.329  28.874  45.359  1.00  0.00     0.293 HD
ENDBRANCH   2  10
TORSDOF 2
ENDMDL
MODEL 4
REMARK VINA RESULT:    -1.814      1.677      3.238
REMARK INTER + INTRA:          -2.193
REMARK INTER:                  -1.979
REMARK INTRA:                  -0.213
REMARK UNBOUND:                -0.219
REMARK SMILES O=C([O-])c1ccccc1O
REMARK SMILES IDX 4 1 9 2 5 3 8 4 6 5 7 6 2 7 1 8 3 9 10 10
REMARK H PARENT 10 11
REMARK Flexibility Score: inf
ROOT
ATOM      1  C   UNL     1      28.890  31.697  48.397  1.00  0.00     0.039 A 
ATOM      2  C   UNL     1      29.182  30.465  49.035  1.00  0.00     0.124 A 
ATOM      3  C   UNL     1      28.232  31.681  47.154  1.00  0.00     0.014 A 
ATOM      4  C   UNL     1      28.869  29.261  48.392  1.00  0.00     0.047 A 
ATOM      5  C   UNL     1      27.907  30.472  46.534  1.00  0.00     0.001 A 
ATOM      6  C   UNL     1      28.235  29.264  47.147  1.00  0.00     0.004 A 
ENDROOT
BRANCH   1   7
ATOM      7  C   UNL     1      29.286  33.002  48.972  1.00  0.00     0.075 C 
ATOM      8  O   UNL     1      29.322  34.029  48.244  1.00  0.00    -0.545 OA
ATOM      9  O   UNL     1      29.687  33.102  50.299  1.00  0.00    -0.545 OA
ENDBRANCH   1   7
BRANCH   2  10
ATOM     10  O   UNL     1      29.744  30.393  50.312  1.00  0.00    -0.507 OA
ATOM     11  H   UNL     1      29.576  29.629  50.951  1.00  0.00     0.293 HD
ENDBRANCH   2  10
TORSDOF 2
ENDMDL
MODEL 5
REMARK VINA RESULT:    -1.803      1.036      2.144
REMARK INTER + INTRA:          -2.180
REMARK INTER:                  -1.929
REMARK INTRA:                  -0.251
REMARK UNBOUND:                -0.219
REMARK SMILES O=C([O-])c1ccccc1O
REMARK SMILES IDX 4 1 9 2 5 3 8 4 6 5 7 6 2 7 1 8 3 9 10 10
REMARK H PARENT 10 11
REMARK Flexibility Score: inf
ROOT
ATOM      1  C   UNL     1      29.232  29.610  47.960  1.00  0.00     0.039 A 
ATOM      2  C   UNL     1      29.055  29.778  46.563  1.00  0.00     0.124 A 
ATOM      3  C   UNL     1      28.271  30.146  48.837  1.00  0.00     0.014 A 
ATOM      4  C   UNL     1      27.970  30.523  46.086  1.00  0.00     0.047 A 
ATOM      5  C   UNL     1      27.181  30.869  48.345  1.00  0.00     0.001 A 
ATOM      6  C   UNL     1      27.037  31.067  46.972  1.00  0.00     0.004 A 
ENDROOT
BRANCH   1   7
ATOM      7  C   UNL     1      30.410  28.923  48.534  1.00  0.00     0.075 C 
ATOM      8  O   UNL     1      30.310  28.301  49.625  1.00  0.00    -0.545 OA
ATOM      9  O   UNL     1      31.654  29.009  47.919  1.00  0.00    -0.545 OA
ENDBRANCH   1   7
BRANCH   2  10
ATOM     10  O   UNL     1      29.908  29.196  45.622  1.00  0.00    -0.507 OA
ATOM     11  H   UNL     1      29.909  28.209  45.407  1.00  0.00     0.293 HD
ENDBRANCH   2  10
TORSDOF 2
ENDMDL
MODEL 6
REMARK VINA RESULT:    -1.093      1.990      2.756
REMARK INTER + INTRA:          -1.408
REMARK INTER:                  -1.165
REMARK INTRA:                  -0.243
REMARK UNBOUND:                -0.219
REMARK SMILES O=C([O-])c1ccccc1O
REMARK SMILES IDX 4 1 9 2 5 3 8 4 6 5 7 6 2 7 1 8 3 9 10 10
REMARK H PARENT 10 11
REMARK Flexibility Score: inf
ROOT
ATOM      1  C   UNL     1      28.994  30.433  48.576  1.00  0.00     0.039 A 
ATOM      2  C   UNL     1      28.609  31.007  47.337  1.00  0.00     0.124 A 
ATOM      3  C   UNL     1      29.314  31.285  49.650  1.00  0.00     0.014 A 
ATOM      4  C   UNL     1      28.614  32.399  47.187  1.00  0.00     0.047 A 
ATOM      5  C   UNL     1      29.294  32.672  49.490  1.00  0.00     0.001 A 
ATOM      6  C   UNL     1      28.955  33.228  48.258  1.00  0.00     0.004 A 
ENDROOT
BRANCH   1   7
ATOM      7  C   UNL     1      29.110  28.972  48.772  1.00  0.00     0.075 C 
ATOM      8  O   UNL     1      28.136  28.218  48.505  1.00  0.00    -0.545 OA
ATOM      9  O   UNL     1      30.262  28.415  49.314  1.00  0.00    -0.545 OA
ENDBRANCH   1   7
BRANCH   2  10
ATOM     10  O   UNL     1      28.183  30.237  46.253  1.00  0.00    -0.507 OA
ATOM     11  H   UNL     1      27.664  30.615  45.472  1.00  0.00     0.293 HD
ENDBRANCH   2  10
TORSDOF 2
ENDMDL
MODEL 7
REMARK VINA RESULT:    -0.712      2.360      3.199
REMARK INTER + INTRA:          -0.993
REMARK INTER:                  -0.744
REMARK INTRA:                  -0.250
REMARK UNBOUND:                -0.219
REMARK SMILES O=C([O-])c1ccccc1O
REMARK SMILES IDX 4 1 9 2 5 3 8 4 6 5 7 6 2 7 1 8 3 9 10 10
REMARK H PARENT 10 11
REMARK Flexibility Score: inf
ROOT
ATOM      1  C   UNL     1      28.674  31.438  48.024  1.00  0.00     0.039 A 
ATOM      2  C   UNL     1      29.095  31.270  49.368  1.00  0.00     0.124 A 
ATOM      3  C   UNL     1      28.755  32.715  47.440  1.00  0.00     0.014 A 
ATOM      4  C   UNL     1      29.522  32.383  50.104  1.00  0.00     0.047 A 
ATOM      5  C   UNL     1      29.203  33.812  48.181  1.00  0.00     0.001 A 
ATOM      6  C   UNL     1      29.576  33.647  49.514  1.00  0.00     0.004 A 
ENDROOT
BRANCH   1   7
ATOM      7  C   UNL     1      28.116  30.326  47.223  1.00  0.00     0.075 C 
ATOM      8  O   UNL     1      27.131  30.527  46.463  1.00  0.00    -0.545 OA
ATOM      9  O   UNL     1      28.620  29.037  47.346  1.00  0.00    -0.545 OA
ENDBRANCH   1   7
BRANCH   2  10
ATOM     10  O   UNL     1      29.139  30.022  49.992  1.00  0.00    -0.507 OA
ATOM     11  H   UNL     1      29.838  29.322  49.787  1.00  0.00     0.293 HD
ENDBRANCH   2  10
TORSDOF 2
ENDMDL
MODEL 8
REMARK VINA RESULT:    -0.391      1.880      3.377
REMARK INTER + INTRA:          -0.644
REMARK INTER:                  -0.395
REMARK INTRA:                  -0.249
REMARK UNBOUND:                -0.219
REMARK SMILES O=C([O-])c1ccccc1O
REMARK SMILES IDX 4 1 9 2 5 3 8 4 6 5 7 6 2 7 1 8 3 9 10 10
REMARK H PARENT 10 11
REMARK Flexibility Score: inf
ROOT
ATOM      1  C   UNL     1      28.814  30.040  47.600  1.00  0.00     0.039 A 
ATOM      2  C   UNL     1      29.587  29.765  48.757  1.00  0.00     0.124 A 
ATOM      3  C   UNL     1      29.336  29.701  46.338  1.00  0.00     0.014 A 
ATOM      4  C   UNL     1      30.871  29.224  48.621  1.00  0.00     0.047 A 
ATOM      5  C   UNL     1      30.611  29.143  46.219  1.00  0.00     0.001 A 
ATOM      6  C   UNL     1      31.382  28.914  47.359  1.00  0.00     0.004 A 
ENDROOT
BRANCH   1   7
ATOM      7  C   UNL     1      27.495  30.704  47.666  1.00  0.00     0.075 C 
ATOM      8  O   UNL     1      26.639  30.328  48.511  1.00  0.00    -0.545 OA
ATOM      9  O   UNL     1      27.153  31.701  46.760  1.00  0.00    -0.545 OA
ENDBRANCH   1   7
BRANCH   2  10
ATOM     10  O   UNL     1      29.105  29.979  50.051  1.00  0.00    -0.507 OA
ATOM     11  H   UNL     1      29.306  29.364  50.828  1.00  0.00     0.293 HD
ENDBRANCH   2  10
TORSDOF 2
ENDMDL
MODEL 9
REMARK VINA RESULT:    -0.301      1.916      2.726
REMARK INTER + INTRA:          -0.547
REMARK INTER:                  -0.321
REMARK INTRA:                  -0.226
REMARK UNBOUND:                -0.219
REMARK SMILES O=C([O-])c1ccccc1O
REMARK SMILES IDX 4 1 9 2 5 3 8 4 6 5 7 6 2 7 1 8 3 9 10 10
REMARK H PARENT 10 11
REMARK Flexibility Score: inf
ROOT
ATOM      1  C   UNL     1      29.905  29.567  47.468  1.00  0.00     0.039 A 
ATOM      2  C   UNL     1      28.725  30.284  47.147  1.00  0.00     0.124 A 
ATOM      3  C   UNL     1      30.198  29.309  48.820  1.00  0.00     0.014 A 
ATOM      4  C   UNL     1      27.910  30.774  48.175  1.00  0.00     0.047 A 
ATOM      5  C   UNL     1      29.364  29.787  49.834  1.00  0.00     0.001 A 
ATOM      6  C   UNL     1      28.228  30.527  49.512  1.00  0.00     0.004 A 
ENDROOT
BRANCH   1   7
ATOM      7  C   UNL     1      30.863  29.112  46.436  1.00  0.00     0.075 C 
ATOM      8  O   UNL     1      32.074  28.930  46.733  1.00  0.00    -0.545 OA
ATOM      9  O   UNL     1      30.461  28.944  45.116  1.00  0.00    -0.545 OA
ENDBRANCH   1   7
BRANCH   2  10
ATOM     10  O   UNL     1      28.310  30.498  45.830  1.00  0.00    -0.507 OA
ATOM     11  H   UNL     1      27.927  31.375  45.503  1.00  0.00     0.293 HD
ENDBRANCH   2  10
TORSDOF 2
ENDMDL
