MODEL 1
REMARK VINA RESULT:    -5.590      0.000      0.000
REMARK INTER + INTRA:          -6.405
REMARK INTER:                  -6.080
REMARK INTRA:                  -0.324
REMARK UNBOUND:                -0.324
REMARK SMILES C=C(C)[C@@H]1CC[C@]2(C)CC[C@]3(C)[C@H](CC[C@@H]4[C@@]5(C)CC[C@@H](O)C(C)(C)[C@@H]5CC[C@]43C)[C@H]12
REMARK SMILES IDX 4 1 5 2 6 3 7 4 31 5 13 6 14 7 15 8 16 9 17 10 19 11 20 12
REMARK SMILES IDX 21 13 23 14 26 15 27 16 28 17 29 18 11 19 10 20 9 21 12 22
REMARK SMILES IDX 30 23 24 24 25 25 18 26 8 27 2 28 3 29 1 30 22 31
REMARK H PARENT 22 32
REMARK Flexibility Score: inf
ROOT
ATOM      1  C   UNL     1      36.474   1.785 164.709  1.00  0.00     0.018 C 
ATOM      2  C   UNL     1      36.061   1.754 166.161  1.00  0.00     0.009 C 
ATOM      3  C   UNL     1      37.243   2.388 166.889  1.00  0.00     0.008 C 
ATOM      4  C   UNL     1      37.974   3.335 165.868  1.00  0.00    -0.029 C 
ATOM      5  C   UNL     1      37.156   3.180 164.522  1.00  0.00     0.006 C 
ATOM      6  C   UNL     1      36.311   4.445 164.017  1.00  0.00    -0.000 C 
ATOM      7  C   UNL     1      34.950   4.156 163.344  1.00  0.00     0.005 C 
ATOM      8  C   UNL     1      34.322   5.369 162.634  1.00  0.00     0.005 C 
ATOM      9  C   UNL     1      34.284   6.667 163.502  1.00  0.00     0.002 C 
ATOM     10  C   UNL     1      33.482   7.890 162.855  1.00  0.00    -0.026 C 
ATOM     11  C   UNL     1      32.005   7.439 162.584  1.00  0.00     0.010 C 
ATOM     12  C   UNL     1      31.023   8.578 162.263  1.00  0.00     0.033 C 
ATOM     13  C   UNL     1      31.027   9.720 163.299  1.00  0.00     0.120 C 
ATOM     14  C   UNL     1      32.463  10.261 163.620  1.00  0.00    -0.006 C 
ATOM     15  C   UNL     1      33.434   9.046 163.931  1.00  0.00     0.003 C 
ATOM     16  C   UNL     1      34.858   9.454 164.389  1.00  0.00     0.005 C 
ATOM     17  C   UNL     1      35.595   8.264 165.032  1.00  0.00     0.008 C 
ATOM     18  C   UNL     1      35.706   6.988 164.123  1.00  0.00    -0.024 C 
ATOM     19  C   UNL     1      36.207   5.687 164.973  1.00  0.00    -0.024 C 
ATOM     20  C   UNL     1      37.633   5.909 165.549  1.00  0.00     0.008 C 
ATOM     21  C   UNL     1      38.115   4.785 166.459  1.00  0.00     0.007 C 
ATOM     22  C   UNL     1      35.237   5.364 166.170  1.00  0.00     0.012 C 
ATOM     23  C   UNL     1      36.735   7.352 162.989  1.00  0.00     0.012 C 
ATOM     24  C   UNL     1      32.948  11.143 162.439  1.00  0.00     0.014 C 
ATOM     25  C   UNL     1      32.350  11.205 164.853  1.00  0.00     0.014 C 
ATOM     26  C   UNL     1      34.107   8.343 161.492  1.00  0.00     0.012 C 
ATOM     27  C   UNL     1      39.419   2.793 165.646  1.00  0.00     0.011 C 
ENDROOT
BRANCH   1  28
ATOM     28  C   UNL     1      35.508   1.242 163.657  1.00  0.00    -0.077 C 
ATOM     29  C   UNL     1      36.026   0.972 162.260  1.00  0.00     0.039 C 
ATOM     30  C   UNL     1      34.251   0.845 163.943  1.00  0.00     0.008 C 
ENDBRANCH   1  28
BRANCH  13  31
ATOM     31  O   UNL     1      30.328   9.346 164.463  1.00  0.00    -0.393 OA
ATOM     32  H   UNL     1      29.445   8.982 164.199  1.00  0.00     0.210 HD
ENDBRANCH  13  31
TORSDOF 2
ENDMDL
MODEL 2
REMARK VINA RESULT:    -5.330      2.131      7.669
REMARK INTER + INTRA:          -6.122
REMARK INTER:                  -5.799
REMARK INTRA:                  -0.323
REMARK UNBOUND:                -0.324
REMARK SMILES C=C(C)[C@@H]1CC[C@]2(C)CC[C@]3(C)[C@H](CC[C@@H]4[C@@]5(C)CC[C@@H](O)C(C)(C)[C@@H]5CC[C@]43C)[C@H]12
REMARK SMILES IDX 4 1 5 2 6 3 7 4 31 5 13 6 14 7 15 8 16 9 17 10 19 11 20 12
REMARK SMILES IDX 21 13 23 14 26 15 27 16 28 17 29 18 11 19 10 20 9 21 12 22
REMARK SMILES IDX 30 23 24 24 25 25 18 26 8 27 2 28 3 29 1 30 22 31
REMARK H PARENT 22 32
REMARK Flexibility Score: inf
ROOT
ATOM      1  C   UNL     1      34.522  11.061 164.401  1.00  0.00     0.018 C 
ATOM      2  C   UNL     1      33.019  11.045 164.545  1.00  0.00     0.009 C 
ATOM      3  C   UNL     1      32.515  11.131 163.107  1.00  0.00     0.008 C 
ATOM      4  C   UNL     1      33.640  10.544 162.177  1.00  0.00    -0.029 C 
ATOM      5  C   UNL     1      34.810  10.148 163.165  1.00  0.00     0.006 C 
ATOM      6  C   UNL     1      35.126   8.587 163.354  1.00  0.00    -0.000 C 
ATOM      7  C   UNL     1      35.536   8.120 164.769  1.00  0.00     0.005 C 
ATOM      8  C   UNL     1      36.095   6.687 164.828  1.00  0.00     0.005 C 
ATOM      9  C   UNL     1      35.214   5.628 164.093  1.00  0.00     0.002 C 
ATOM     10  C   UNL     1      35.678   4.110 164.287  1.00  0.00    -0.026 C 
ATOM     11  C   UNL     1      35.675   3.772 165.818  1.00  0.00     0.010 C 
ATOM     12  C   UNL     1      35.786   2.276 166.158  1.00  0.00     0.033 C 
ATOM     13  C   UNL     1      34.750   1.391 165.436  1.00  0.00     0.120 C 
ATOM     14  C   UNL     1      34.696   1.636 163.888  1.00  0.00    -0.006 C 
ATOM     15  C   UNL     1      34.593   3.192 163.597  1.00  0.00     0.003 C 
ATOM     16  C   UNL     1      34.403   3.562 162.104  1.00  0.00     0.005 C 
ATOM     17  C   UNL     1      33.930   5.020 161.950  1.00  0.00     0.008 C 
ATOM     18  C   UNL     1      34.865   6.090 162.618  1.00  0.00    -0.024 C 
ATOM     19  C   UNL     1      34.147   7.555 162.689  1.00  0.00    -0.024 C 
ATOM     20  C   UNL     1      33.846   8.100 161.265  1.00  0.00     0.008 C 
ATOM     21  C   UNL     1      33.061   9.407 161.257  1.00  0.00     0.007 C 
ATOM     22  C   UNL     1      32.795   7.502 163.492  1.00  0.00     0.012 C 
ATOM     23  C   UNL     1      36.167   6.142 161.734  1.00  0.00     0.012 C 
ATOM     24  C   UNL     1      35.931   0.971 163.226  1.00  0.00     0.014 C 
ATOM     25  C   UNL     1      33.447   0.888 163.333  1.00  0.00     0.014 C 
ATOM     26  C   UNL     1      37.126   3.867 163.742  1.00  0.00     0.012 C 
ATOM     27  C   UNL     1      34.138  11.681 161.234  1.00  0.00     0.011 C 
ENDROOT
BRANCH   1  28
ATOM     28  C   UNL     1      35.383  10.963 165.660  1.00  0.00    -0.077 C 
ATOM     29  C   UNL     1      36.853  11.311 165.568  1.00  0.00     0.039 C 
ATOM     30  C   UNL     1      34.874  10.730 166.887  1.00  0.00     0.008 C 
ENDBRANCH   1  28
BRANCH  13  31
ATOM     31  O   UNL     1      33.482   1.508 166.037  1.00  0.00    -0.393 OA
ATOM     32  H   UNL     1      33.605   1.678 167.005  1.00  0.00     0.210 HD
ENDBRANCH  13  31
TORSDOF 2
ENDMDL
MODEL 3
REMARK VINA RESULT:    -5.237      3.484      7.412
REMARK INTER + INTRA:          -6.020
REMARK INTER:                  -5.696
REMARK INTRA:                  -0.325
REMARK UNBOUND:                -0.324
REMARK SMILES C=C(C)[C@@H]1CC[C@]2(C)CC[C@]3(C)[C@H](CC[C@@H]4[C@@]5(C)CC[C@@H](O)C(C)(C)[C@@H]5CC[C@]43C)[C@H]12
REMARK SMILES IDX 4 1 5 2 6 3 7 4 31 5 13 6 14 7 15 8 16 9 17 10 19 11 20 12
REMARK SMILES IDX 21 13 23 14 26 15 27 16 28 17 29 18 11 19 10 20 9 21 12 22
REMARK SMILES IDX 30 23 24 24 25 25 18 26 8 27 2 28 3 29 1 30 22 31
REMARK H PARENT 22 32
REMARK Flexibility Score: inf
ROOT
ATOM      1  C   UNL     1      34.005   7.822 163.149  1.00  0.00     0.018 C 
ATOM      2  C   UNL     1      33.094   6.631 163.323  1.00  0.00     0.009 C 
ATOM      3  C   UNL     1      33.833   5.500 162.613  1.00  0.00     0.008 C 
ATOM      4  C   UNL     1      35.366   5.853 162.631  1.00  0.00    -0.029 C 
ATOM      5  C   UNL     1      35.445   7.252 163.367  1.00  0.00     0.006 C 
ATOM      6  C   UNL     1      36.134   7.292 164.814  1.00  0.00    -0.000 C 
ATOM      7  C   UNL     1      35.520   8.254 165.856  1.00  0.00     0.005 C 
ATOM      8  C   UNL     1      36.381   8.459 167.117  1.00  0.00     0.005 C 
ATOM      9  C   UNL     1      36.883   7.132 167.767  1.00  0.00     0.002 C 
ATOM     10  C   UNL     1      37.631   7.308 169.171  1.00  0.00    -0.026 C 
ATOM     11  C   UNL     1      36.655   8.008 170.178  1.00  0.00     0.010 C 
ATOM     12  C   UNL     1      37.095   7.966 171.651  1.00  0.00     0.033 C 
ATOM     13  C   UNL     1      37.431   6.551 172.164  1.00  0.00     0.120 C 
ATOM     14  C   UNL     1      38.427   5.775 171.234  1.00  0.00    -0.006 C 
ATOM     15  C   UNL     1      37.931   5.861 169.731  1.00  0.00     0.003 C 
ATOM     16  C   UNL     1      38.761   5.024 168.724  1.00  0.00     0.005 C 
ATOM     17  C   UNL     1      38.006   4.849 167.393  1.00  0.00     0.008 C 
ATOM     18  C   UNL     1      37.576   6.190 166.697  1.00  0.00    -0.024 C 
ATOM     19  C   UNL     1      36.521   5.923 165.480  1.00  0.00    -0.024 C 
ATOM     20  C   UNL     1      37.166   5.064 164.358  1.00  0.00     0.008 C 
ATOM     21  C   UNL     1      36.200   4.671 163.247  1.00  0.00     0.007 C 
ATOM     22  C   UNL     1      35.226   5.185 165.983  1.00  0.00     0.012 C 
ATOM     23  C   UNL     1      38.903   6.845 166.161  1.00  0.00     0.012 C 
ATOM     24  C   UNL     1      39.857   6.340 171.439  1.00  0.00     0.014 C 
ATOM     25  C   UNL     1      38.469   4.294 171.717  1.00  0.00     0.014 C 
ATOM     26  C   UNL     1      38.913   8.197 169.043  1.00  0.00     0.012 C 
ATOM     27  C   UNL     1      35.845   6.028 161.159  1.00  0.00     0.011 C 
ENDROOT
BRANCH   1  28
ATOM     28  C   UNL     1      33.595   9.159 163.765  1.00  0.00    -0.077 C 
ATOM     29  C   UNL     1      34.351  10.409 163.367  1.00  0.00     0.039 C 
ATOM     30  C   UNL     1      32.495   9.314 164.530  1.00  0.00     0.008 C 
ENDBRANCH   1  28
BRANCH  13  31
ATOM     31  O   UNL     1      36.258   5.816 172.418  1.00  0.00    -0.393 OA
ATOM     32  H   UNL     1      35.554   6.439 172.730  1.00  0.00     0.210 HD
ENDBRANCH  13  31
TORSDOF 2
ENDMDL
MODEL 4
REMARK VINA RESULT:    -5.169      2.631      7.710
REMARK INTER + INTRA:          -5.946
REMARK INTER:                  -5.681
REMARK INTRA:                  -0.266
REMARK UNBOUND:                -0.324
REMARK SMILES C=C(C)[C@@H]1CC[C@]2(C)CC[C@]3(C)[C@H](CC[C@@H]4[C@@]5(C)CC[C@@H](O)C(C)(C)[C@@H]5CC[C@]43C)[C@H]12
REMARK SMILES IDX 4 1 5 2 6 3 7 4 31 5 13 6 14 7 15 8 16 9 17 10 19 11 20 12
REMARK SMILES IDX 21 13 23 14 26 15 27 16 28 17 29 18 11 19 10 20 9 21 12 22
REMARK SMILES IDX 30 23 24 24 25 25 18 26 8 27 2 28 3 29 1 30 22 31
REMARK H PARENT 22 32
REMARK Flexibility Score: inf
ROOT
ATOM      1  C   UNL     1      34.515  11.413 163.780  1.00  0.00     0.018 C 
ATOM      2  C   UNL     1      35.570  11.592 162.715  1.00  0.00     0.009 C 
ATOM      3  C   UNL     1      36.737  12.231 163.463  1.00  0.00     0.008 C 
ATOM      4  C   UNL     1      36.614  11.815 164.975  1.00  0.00    -0.029 C 
ATOM      5  C   UNL     1      35.305  10.929 165.041  1.00  0.00     0.006 C 
ATOM      6  C   UNL     1      35.480   9.365 165.349  1.00  0.00    -0.000 C 
ATOM      7  C   UNL     1      34.524   8.395 164.619  1.00  0.00     0.005 C 
ATOM      8  C   UNL     1      34.547   6.953 165.159  1.00  0.00     0.005 C 
ATOM      9  C   UNL     1      35.981   6.356 165.318  1.00  0.00     0.002 C 
ATOM     10  C   UNL     1      36.028   4.806 165.711  1.00  0.00    -0.026 C 
ATOM     11  C   UNL     1      35.274   3.983 164.609  1.00  0.00     0.010 C 
ATOM     12  C   UNL     1      35.496   2.462 164.662  1.00  0.00     0.033 C 
ATOM     13  C   UNL     1      36.981   2.047 164.685  1.00  0.00     0.120 C 
ATOM     14  C   UNL     1      37.819   2.798 165.777  1.00  0.00    -0.006 C 
ATOM     15  C   UNL     1      37.542   4.356 165.683  1.00  0.00     0.003 C 
ATOM     16  C   UNL     1      38.409   5.228 166.628  1.00  0.00     0.005 C 
ATOM     17  C   UNL     1      38.367   6.710 166.210  1.00  0.00     0.008 C 
ATOM     18  C   UNL     1      36.926   7.332 166.133  1.00  0.00    -0.024 C 
ATOM     19  C   UNL     1      36.939   8.785 165.388  1.00  0.00    -0.024 C 
ATOM     20  C   UNL     1      37.792   9.814 166.181  1.00  0.00     0.008 C 
ATOM     21  C   UNL     1      37.951  11.157 165.479  1.00  0.00     0.007 C 
ATOM     22  C   UNL     1      37.518   8.686 163.928  1.00  0.00     0.012 C 
ATOM     23  C   UNL     1      36.432   7.465 167.622  1.00  0.00     0.012 C 
ATOM     24  C   UNL     1      37.486   2.202 167.170  1.00  0.00     0.014 C 
ATOM     25  C   UNL     1      39.323   2.488 165.517  1.00  0.00     0.014 C 
ATOM     26  C   UNL     1      35.328   4.529 167.084  1.00  0.00     0.012 C 
ATOM     27  C   UNL     1      36.396  13.104 165.822  1.00  0.00     0.011 C 
ENDROOT
BRANCH   1  28
ATOM     28  C   UNL     1      33.185  10.765 163.398  1.00  0.00    -0.077 C 
ATOM     29  C   UNL     1      31.964  11.048 164.246  1.00  0.00     0.039 C 
ATOM     30  C   UNL     1      33.003  10.073 162.254  1.00  0.00     0.008 C 
ENDBRANCH   1  28
BRANCH  13  31
ATOM     31  O   UNL     1      37.555   2.159 163.404  1.00  0.00    -0.393 OA
ATOM     32  H   UNL     1      38.523   2.342 163.506  1.00  0.00     0.210 HD
ENDBRANCH  13  31
TORSDOF 2
ENDMDL
MODEL 5
REMARK VINA RESULT:    -4.957      1.746      3.403
REMARK INTER + INTRA:          -5.716
REMARK INTER:                  -5.394
REMARK INTRA:                  -0.322
REMARK UNBOUND:                -0.324
REMARK SMILES C=C(C)[C@@H]1CC[C@]2(C)CC[C@]3(C)[C@H](CC[C@@H]4[C@@]5(C)CC[C@@H](O)C(C)(C)[C@@H]5CC[C@]43C)[C@H]12
REMARK SMILES IDX 4 1 5 2 6 3 7 4 31 5 13 6 14 7 15 8 16 9 17 10 19 11 20 12
REMARK SMILES IDX 21 13 23 14 26 15 27 16 28 17 29 18 11 19 10 20 9 21 12 22
REMARK SMILES IDX 30 23 24 24 25 25 18 26 8 27 2 28 3 29 1 30 22 31
REMARK H PARENT 22 32
REMARK Flexibility Score: inf
ROOT
ATOM      1  C   UNL     1      37.614   2.124 163.147  1.00  0.00     0.018 C 
ATOM      2  C   UNL     1      36.599   1.617 162.151  1.00  0.00     0.009 C 
ATOM      3  C   UNL     1      35.506   1.005 163.023  1.00  0.00     0.008 C 
ATOM      4  C   UNL     1      35.562   1.721 164.422  1.00  0.00    -0.029 C 
ATOM      5  C   UNL     1      36.759   2.750 164.298  1.00  0.00     0.006 C 
ATOM      6  C   UNL     1      36.398   4.312 164.295  1.00  0.00    -0.000 C 
ATOM      7  C   UNL     1      37.242   5.225 163.378  1.00  0.00     0.005 C 
ATOM      8  C   UNL     1      37.044   6.732 163.625  1.00  0.00     0.005 C 
ATOM      9  C   UNL     1      35.548   7.177 163.681  1.00  0.00     0.002 C 
ATOM     10  C   UNL     1      35.316   8.758 163.763  1.00  0.00    -0.026 C 
ATOM     11  C   UNL     1      35.981   9.431 162.512  1.00  0.00     0.010 C 
ATOM     12  C   UNL     1      35.581  10.896 162.269  1.00  0.00     0.033 C 
ATOM     13  C   UNL     1      34.058  11.132 162.228  1.00  0.00     0.120 C 
ATOM     14  C   UNL     1      33.302  10.516 163.456  1.00  0.00    -0.006 C 
ATOM     15  C   UNL     1      33.760   9.013 163.666  1.00  0.00     0.003 C 
ATOM     16  C   UNL     1      32.990   8.248 164.773  1.00  0.00     0.005 C 
ATOM     17  C   UNL     1      33.211   6.728 164.654  1.00  0.00     0.008 C 
ATOM     18  C   UNL     1      34.715   6.276 164.683  1.00  0.00    -0.024 C 
ATOM     19  C   UNL     1      34.881   4.714 164.238  1.00  0.00    -0.024 C 
ATOM     20  C   UNL     1      34.145   3.768 165.227  1.00  0.00     0.008 C 
ATOM     21  C   UNL     1      34.152   2.304 164.804  1.00  0.00     0.007 C 
ATOM     22  C   UNL     1      34.311   4.457 162.794  1.00  0.00     0.012 C 
ATOM     23  C   UNL     1      35.205   6.496 166.163  1.00  0.00     0.012 C 
ATOM     24  C   UNL     1      33.547  11.409 164.701  1.00  0.00     0.014 C 
ATOM     25  C   UNL     1      31.775  10.591 163.158  1.00  0.00     0.014 C 
ATOM     26  C   UNL     1      35.963   9.379 165.047  1.00  0.00     0.012 C 
ATOM     27  C   UNL     1      35.921   0.657 165.503  1.00  0.00     0.011 C 
ENDROOT
BRANCH   1  28
ATOM     28  C   UNL     1      38.862   2.835 162.629  1.00  0.00    -0.077 C 
ATOM     29  C   UNL     1      40.036   3.027 163.567  1.00  0.00     0.039 C 
ATOM     30  C   UNL     1      39.039   3.169 161.334  1.00  0.00     0.008 C 
ENDBRANCH   1  28
BRANCH  13  31
ATOM     31  O   UNL     1      33.516  10.704 161.001  1.00  0.00    -0.393 OA
ATOM     32  H   UNL     1      33.343   9.730 161.053  1.00  0.00     0.210 HD
ENDBRANCH  13  31
TORSDOF 2
ENDMDL
MODEL 6
REMARK VINA RESULT:    -4.940      2.623      7.458
REMARK INTER + INTRA:          -5.697
REMARK INTER:                  -5.385
REMARK INTRA:                  -0.312
REMARK UNBOUND:                -0.324
REMARK SMILES C=C(C)[C@@H]1CC[C@]2(C)CC[C@]3(C)[C@H](CC[C@@H]4[C@@]5(C)CC[C@@H](O)C(C)(C)[C@@H]5CC[C@]43C)[C@H]12
REMARK SMILES IDX 4 1 5 2 6 3 7 4 31 5 13 6 14 7 15 8 16 9 17 10 19 11 20 12
REMARK SMILES IDX 21 13 23 14 26 15 27 16 28 17 29 18 11 19 10 20 9 21 12 22
REMARK SMILES IDX 30 23 24 24 25 25 18 26 8 27 2 28 3 29 1 30 22 31
REMARK H PARENT 22 32
REMARK Flexibility Score: inf
ROOT
ATOM      1  C   UNL     1      36.382  10.716 167.215  1.00  0.00     0.018 C 
ATOM      2  C   UNL     1      34.890  10.925 167.304  1.00  0.00     0.009 C 
ATOM      3  C   UNL     1      34.521  11.504 165.942  1.00  0.00     0.008 C 
ATOM      4  C   UNL     1      35.607  11.019 164.912  1.00  0.00    -0.029 C 
ATOM      5  C   UNL     1      36.617  10.157 165.773  1.00  0.00     0.006 C 
ATOM      6  C   UNL     1      36.663   8.577 165.502  1.00  0.00    -0.000 C 
ATOM      7  C   UNL     1      36.880   7.662 166.727  1.00  0.00     0.005 C 
ATOM      8  C   UNL     1      37.196   6.196 166.378  1.00  0.00     0.005 C 
ATOM      9  C   UNL     1      36.217   5.564 165.339  1.00  0.00     0.002 C 
ATOM     10  C   UNL     1      36.416   3.996 165.089  1.00  0.00    -0.026 C 
ATOM     11  C   UNL     1      36.238   3.242 166.452  1.00  0.00     0.010 C 
ATOM     12  C   UNL     1      36.081   1.716 166.338  1.00  0.00     0.033 C 
ATOM     13  C   UNL     1      34.977   1.271 165.358  1.00  0.00     0.120 C 
ATOM     14  C   UNL     1      35.085   1.953 163.950  1.00  0.00    -0.006 C 
ATOM     15  C   UNL     1      35.256   3.520 164.128  1.00  0.00     0.003 C 
ATOM     16  C   UNL     1      35.246   4.328 162.806  1.00  0.00     0.005 C 
ATOM     17  C   UNL     1      35.026   5.829 163.075  1.00  0.00     0.008 C 
ATOM     18  C   UNL     1      36.065   6.482 164.056  1.00  0.00    -0.024 C 
ATOM     19  C   UNL     1      35.586   7.968 164.534  1.00  0.00    -0.024 C 
ATOM     20  C   UNL     1      35.490   8.941 163.327  1.00  0.00     0.008 C 
ATOM     21  C   UNL     1      34.928  10.313 163.682  1.00  0.00     0.007 C 
ATOM     22  C   UNL     1      34.185   7.927 165.248  1.00  0.00     0.012 C 
ATOM     23  C   UNL     1      37.423   6.554 163.263  1.00  0.00     0.012 C 
ATOM     24  C   UNL     1      36.246   1.298 163.158  1.00  0.00     0.014 C 
ATOM     25  C   UNL     1      33.780   1.627 163.164  1.00  0.00     0.014 C 
ATOM     26  C   UNL     1      37.845   3.668 164.539  1.00  0.00     0.012 C 
ATOM     27  C   UNL     1      36.353  12.272 164.361  1.00  0.00     0.011 C 
ENDROOT
BRANCH   1  28
ATOM     28  C   UNL     1      37.114  10.112 168.413  1.00  0.00    -0.077 C 
ATOM     29  C   UNL     1      38.628  10.082 168.404  1.00  0.00     0.039 C 
ATOM     30  C   UNL     1      36.490   9.741 169.550  1.00  0.00     0.008 C 
ENDBRANCH   1  28
BRANCH  13  31
ATOM     31  O   UNL     1      33.701   1.432 165.930  1.00  0.00    -0.393 OA
ATOM     32  H   UNL     1      33.639   2.343 166.316  1.00  0.00     0.210 HD
ENDBRANCH  13  31
TORSDOF 2
ENDMDL
MODEL 7
REMARK VINA RESULT:    -4.790      2.510      7.837
REMARK INTER + INTRA:          -5.534
REMARK INTER:                  -5.210
REMARK INTRA:                  -0.324
REMARK UNBOUND:                -0.324
REMARK SMILES C=C(C)[C@@H]1CC[C@]2(C)CC[C@]3(C)[C@H](CC[C@@H]4[C@@]5(C)CC[C@@H](O)C(C)(C)[C@@H]5CC[C@]43C)[C@H]12
REMARK SMILES IDX 4 1 5 2 6 3 7 4 31 5 13 6 14 7 15 8 16 9 17 10 19 11 20 12
REMARK SMILES IDX 21 13 23 14 26 15 27 16 28 17 29 18 11 19 10 20 9 21 12 22
REMARK SMILES IDX 30 23 24 24 25 25 18 26 8 27 2 28 3 29 1 30 22 31
REMARK H PARENT 22 32
REMARK Flexibility Score: inf
ROOT
ATOM      1  C   UNL     1      35.294  11.553 163.861  1.00  0.00     0.018 C 
ATOM      2  C   UNL     1      34.912  11.686 165.316  1.00  0.00     0.009 C 
ATOM      3  C   UNL     1      33.397  11.506 165.312  1.00  0.00     0.008 C 
ATOM      4  C   UNL     1      33.025  10.650 164.046  1.00  0.00    -0.029 C 
ATOM      5  C   UNL     1      34.408  10.380 163.326  1.00  0.00     0.006 C 
ATOM      6  C   UNL     1      34.959   8.874 163.316  1.00  0.00    -0.000 C 
ATOM      7  C   UNL     1      36.486   8.685 163.456  1.00  0.00     0.005 C 
ATOM      8  C   UNL     1      36.980   7.257 163.159  1.00  0.00     0.005 C 
ATOM      9  C   UNL     1      36.180   6.140 163.900  1.00  0.00     0.002 C 
ATOM     10  C   UNL     1      36.779   4.665 163.747  1.00  0.00    -0.026 C 
ATOM     11  C   UNL     1      38.249   4.658 164.292  1.00  0.00     0.010 C 
ATOM     12  C   UNL     1      38.858   3.263 164.514  1.00  0.00     0.033 C 
ATOM     13  C   UNL     1      37.987   2.330 165.379  1.00  0.00     0.120 C 
ATOM     14  C   UNL     1      36.497   2.247 164.896  1.00  0.00    -0.006 C 
ATOM     15  C   UNL     1      35.927   3.710 164.673  1.00  0.00     0.003 C 
ATOM     16  C   UNL     1      34.419   3.771 164.317  1.00  0.00     0.005 C 
ATOM     17  C   UNL     1      33.864   5.197 164.499  1.00  0.00     0.008 C 
ATOM     18  C   UNL     1      34.619   6.307 163.685  1.00  0.00    -0.024 C 
ATOM     19  C   UNL     1      34.185   7.805 164.168  1.00  0.00    -0.024 C 
ATOM     20  C   UNL     1      32.674   8.061 163.913  1.00  0.00     0.008 C 
ATOM     21  C   UNL     1      32.172   9.394 164.455  1.00  0.00     0.007 C 
ATOM     22  C   UNL     1      34.472   8.029 165.700  1.00  0.00     0.012 C 
ATOM     23  C   UNL     1      34.241   6.070 162.175  1.00  0.00     0.012 C 
ATOM     24  C   UNL     1      36.425   1.363 163.623  1.00  0.00     0.014 C 
ATOM     25  C   UNL     1      35.684   1.499 165.994  1.00  0.00     0.014 C 
ATOM     26  C   UNL     1      36.816   4.200 162.252  1.00  0.00     0.012 C 
ATOM     27  C   UNL     1      32.131  11.521 163.112  1.00  0.00     0.011 C 
ENDROOT
BRANCH   1  28
ATOM     28  C   UNL     1      36.769  11.655 163.475  1.00  0.00    -0.077 C 
ATOM     29  C   UNL     1      37.130  11.846 162.017  1.00  0.00     0.039 C 
ATOM     30  C   UNL     1      37.766  11.737 164.380  1.00  0.00     0.008 C 
ENDBRANCH   1  28
BRANCH  13  31
ATOM     31  O   UNL     1      38.086   2.669 166.742  1.00  0.00    -0.393 OA
ATOM     32  H   UNL     1      37.189   2.586 167.155  1.00  0.00     0.210 HD
ENDBRANCH  13  31
TORSDOF 2
ENDMDL
MODEL 8
REMARK VINA RESULT:    -4.780      3.408      7.174
REMARK INTER + INTRA:          -5.523
REMARK INTER:                  -5.222
REMARK INTRA:                  -0.301
REMARK UNBOUND:                -0.324
REMARK SMILES C=C(C)[C@@H]1CC[C@]2(C)CC[C@]3(C)[C@H](CC[C@@H]4[C@@]5(C)CC[C@@H](O)C(C)(C)[C@@H]5CC[C@]43C)[C@H]12
REMARK SMILES IDX 4 1 5 2 6 3 7 4 31 5 13 6 14 7 15 8 16 9 17 10 19 11 20 12
REMARK SMILES IDX 21 13 23 14 26 15 27 16 28 17 29 18 11 19 10 20 9 21 12 22
REMARK SMILES IDX 30 23 24 24 25 25 18 26 8 27 2 28 3 29 1 30 22 31
REMARK H PARENT 22 32
REMARK Flexibility Score: inf
ROOT
ATOM      1  C   UNL     1      37.355   8.398 169.840  1.00  0.00     0.018 C 
ATOM      2  C   UNL     1      36.010   9.046 169.616  1.00  0.00     0.009 C 
ATOM      3  C   UNL     1      36.292  10.112 168.560  1.00  0.00     0.008 C 
ATOM      4  C   UNL     1      37.553   9.647 167.743  1.00  0.00    -0.029 C 
ATOM      5  C   UNL     1      37.978   8.277 168.411  1.00  0.00     0.006 C 
ATOM      6  C   UNL     1      37.793   6.939 167.546  1.00  0.00    -0.000 C 
ATOM      7  C   UNL     1      37.355   5.667 168.305  1.00  0.00     0.005 C 
ATOM      8  C   UNL     1      37.466   4.368 167.487  1.00  0.00     0.005 C 
ATOM      9  C   UNL     1      36.825   4.453 166.066  1.00  0.00     0.002 C 
ATOM     10  C   UNL     1      36.773   3.070 165.264  1.00  0.00    -0.026 C 
ATOM     11  C   UNL     1      35.959   2.028 166.107  1.00  0.00     0.010 C 
ATOM     12  C   UNL     1      35.543   0.756 165.348  1.00  0.00     0.033 C 
ATOM     13  C   UNL     1      34.805   1.031 164.022  1.00  0.00     0.120 C 
ATOM     14  C   UNL     1      35.557   2.045 163.092  1.00  0.00    -0.006 C 
ATOM     15  C   UNL     1      35.971   3.328 163.927  1.00  0.00     0.003 C 
ATOM     16  C   UNL     1      36.611   4.467 163.093  1.00  0.00     0.005 C 
ATOM     17  C   UNL     1      36.624   5.792 163.880  1.00  0.00     0.008 C 
ATOM     18  C   UNL     1      37.344   5.724 165.274  1.00  0.00    -0.024 C 
ATOM     19  C   UNL     1      37.042   7.054 166.171  1.00  0.00    -0.024 C 
ATOM     20  C   UNL     1      37.595   8.332 165.482  1.00  0.00     0.008 C 
ATOM     21  C   UNL     1      37.239   9.627 166.203  1.00  0.00     0.007 C 
ATOM     22  C   UNL     1      35.501   7.254 166.416  1.00  0.00     0.012 C 
ATOM     23  C   UNL     1      38.881   5.590 164.961  1.00  0.00     0.012 C 
ATOM     24  C   UNL     1      36.766   1.329 162.434  1.00  0.00     0.014 C 
ATOM     25  C   UNL     1      34.592   2.430 161.933  1.00  0.00     0.014 C 
ATOM     26  C   UNL     1      38.204   2.481 165.020  1.00  0.00     0.012 C 
ATOM     27  C   UNL     1      38.690  10.690 167.961  1.00  0.00     0.011 C 
ENDROOT
BRANCH   1  28
ATOM     28  C   UNL     1      37.459   7.244 170.836  1.00  0.00    -0.077 C 
ATOM     29  C   UNL     1      38.817   6.887 171.402  1.00  0.00     0.039 C 
ATOM     30  C   UNL     1      36.383   6.619 171.359  1.00  0.00     0.008 C 
ENDBRANCH   1  28
BRANCH  13  31
ATOM     31  O   UNL     1      33.471   1.414 164.258  1.00  0.00    -0.393 OA
ATOM     32  H   UNL     1      33.241   2.156 163.643  1.00  0.00     0.210 HD
ENDBRANCH  13  31
TORSDOF 2
ENDMDL
MODEL 9
REMARK VINA RESULT:    -4.617      2.837      4.997
REMARK INTER + INTRA:          -5.346
REMARK INTER:                  -5.026
REMARK INTRA:                  -0.319
REMARK UNBOUND:                -0.324
REMARK SMILES C=C(C)[C@@H]1CC[C@]2(C)CC[C@]3(C)[C@H](CC[C@@H]4[C@@]5(C)CC[C@@H](O)C(C)(C)[C@@H]5CC[C@]43C)[C@H]12
REMARK SMILES IDX 4 1 5 2 6 3 7 4 31 5 13 6 14 7 15 8 16 9 17 10 19 11 20 12
REMARK SMILES IDX 21 13 23 14 26 15 27 16 28 17 29 18 11 19 10 20 9 21 12 22
REMARK SMILES IDX 30 23 24 24 25 25 18 26 8 27 2 28 3 29 1 30 22 31
REMARK H PARENT 22 32
REMARK Flexibility Score: inf
ROOT
ATOM      1  C   UNL     1      36.618   3.189 163.990  1.00  0.00     0.018 C 
ATOM      2  C   UNL     1      37.595   3.445 162.868  1.00  0.00     0.009 C 
ATOM      3  C   UNL     1      36.701   3.712 161.660  1.00  0.00     0.008 C 
ATOM      4  C   UNL     1      35.324   4.246 162.200  1.00  0.00    -0.029 C 
ATOM      5  C   UNL     1      35.483   4.244 163.774  1.00  0.00     0.006 C 
ATOM      6  C   UNL     1      35.531   5.663 164.518  1.00  0.00    -0.000 C 
ATOM      7  C   UNL     1      36.477   5.787 165.733  1.00  0.00     0.005 C 
ATOM      8  C   UNL     1      36.275   7.063 166.570  1.00  0.00     0.005 C 
ATOM      9  C   UNL     1      36.227   8.377 165.727  1.00  0.00     0.002 C 
ATOM     10  C   UNL     1      36.191   9.728 166.583  1.00  0.00    -0.026 C 
ATOM     11  C   UNL     1      37.464   9.780 167.498  1.00  0.00     0.010 C 
ATOM     12  C   UNL     1      37.749  11.146 168.144  1.00  0.00     0.033 C 
ATOM     13  C   UNL     1      37.791  12.317 167.141  1.00  0.00     0.120 C 
ATOM     14  C   UNL     1      36.543  12.368 166.194  1.00  0.00    -0.006 C 
ATOM     15  C   UNL     1      36.290  10.934 165.566  1.00  0.00     0.003 C 
ATOM     16  C   UNL     1      35.158  10.878 164.509  1.00  0.00     0.005 C 
ATOM     17  C   UNL     1      35.233   9.579 163.683  1.00  0.00     0.008 C 
ATOM     18  C   UNL     1      35.195   8.257 164.530  1.00  0.00    -0.024 C 
ATOM     19  C   UNL     1      35.595   6.956 163.628  1.00  0.00    -0.024 C 
ATOM     20  C   UNL     1      34.575   6.738 162.476  1.00  0.00     0.008 C 
ATOM     21  C   UNL     1      34.955   5.615 161.518  1.00  0.00     0.007 C 
ATOM     22  C   UNL     1      37.029   7.103 162.997  1.00  0.00     0.012 C 
ATOM     23  C   UNL     1      33.725   8.135 165.077  1.00  0.00     0.012 C 
ATOM     24  C   UNL     1      35.326  12.910 166.988  1.00  0.00     0.014 C 
ATOM     25  C   UNL     1      36.838  13.414 165.078  1.00  0.00     0.014 C 
ATOM     26  C   UNL     1      34.929   9.803 167.506  1.00  0.00     0.012 C 
ATOM     27  C   UNL     1      34.214   3.228 161.802  1.00  0.00     0.011 C 
ENDROOT
BRANCH   1  28
ATOM     28  C   UNL     1      37.161   2.904 165.389  1.00  0.00    -0.077 C 
ATOM     29  C   UNL     1      36.205   2.425 166.460  1.00  0.00     0.039 C 
ATOM     30  C   UNL     1      38.477   2.908 165.686  1.00  0.00     0.008 C 
ENDBRANCH   1  28
BRANCH  13  31
ATOM     31  O   UNL     1      39.003  12.321 166.424  1.00  0.00    -0.393 OA
ATOM     32  H   UNL     1      39.087  11.462 165.938  1.00  0.00     0.210 HD
ENDBRANCH  13  31
TORSDOF 2
ENDMDL
