MODEL 1
REMARK VINA RESULT:    -4.022      0.000      0.000
REMARK INTER + INTRA:          -4.922
REMARK INTER:                  -4.845
REMARK INTRA:                  -0.077
REMARK UNBOUND:                -0.077
REMARK SMILES NC(=O)C[C@H]([NH3+])C(=O)[O-]
REMARK SMILES IDX 4 1 5 2 6 3 7 7 8 8 9 9 2 10 3 11 1 12
REMARK H PARENT 6 4 6 5 6 6 1 13 1 14
REMARK Flexibility Score: inf
ROOT
ATOM      1  C   UNL     1      22.337  -4.307   0.278  1.00  0.00     0.171 C 
ENDROOT
BRANCH   1   2
ATOM      2  C   UNL     1      22.720  -3.034  -0.505  1.00  0.00     0.237 C 
BRANCH   2   3
ATOM      3  N   UNL     1      22.975  -3.328  -1.921  1.00  0.00    -0.350 N 
ATOM      4  H   UNL     1      22.079  -3.512  -2.429  1.00  0.00     0.345 HD
ATOM      5  H   UNL     1      23.594  -4.168  -2.004  1.00  0.00     0.345 HD
ATOM      6  H   UNL     1      23.467  -2.523  -2.372  1.00  0.00     0.345 HD
ENDBRANCH   2   3
BRANCH   2   7
ATOM      7  C   UNL     1      23.930  -2.395   0.122  1.00  0.00     0.100 C 
ATOM      8  O   UNL     1      23.986  -1.145   0.275  1.00  0.00    -0.544 OA
ATOM      9  O   UNL     1      25.004  -3.182   0.519  1.00  0.00    -0.544 OA
ENDBRANCH   2   7
ENDBRANCH   1   2
BRANCH   1  10
ATOM     10  C   UNL     1      20.850  -4.516   0.304  1.00  0.00     0.223 C 
ATOM     11  O   UNL     1      20.120  -3.724   0.957  1.00  0.00    -0.275 OA
ATOM     12  N   UNL     1      20.254  -5.583  -0.432  1.00  0.00    -0.369 N 
ATOM     13  H   UNL     1      19.219  -5.718  -0.419  1.00  0.00     0.159 HD
ATOM     14  H   UNL     1      20.842  -6.235  -0.998  1.00  0.00     0.159 HD
ENDBRANCH   1  10
TORSDOF 4
ENDMDL
MODEL 2
REMARK VINA RESULT:    -4.013      1.675      3.981
REMARK INTER + INTRA:          -4.911
REMARK INTER:                  -4.793
REMARK INTRA:                  -0.118
REMARK UNBOUND:                -0.077
REMARK SMILES NC(=O)C[C@H]([NH3+])C(=O)[O-]
REMARK SMILES IDX 4 1 5 2 6 3 7 7 8 8 9 9 2 10 3 11 1 12
REMARK H PARENT 6 4 6 5 6 6 1 13 1 14
REMARK Flexibility Score: inf
ROOT
ATOM      1  C   UNL     1      21.724  -3.485   0.078  1.00  0.00     0.171 C 
ENDROOT
BRANCH   1   2
ATOM      2  C   UNL     1      21.018  -4.853  -0.020  1.00  0.00     0.237 C 
BRANCH   2   3
ATOM      3  N   UNL     1      19.562  -4.700  -0.147  1.00  0.00    -0.350 N 
ATOM      4  H   UNL     1      19.143  -5.527  -0.631  1.00  0.00     0.345 HD
ATOM      5  H   UNL     1      19.342  -3.835  -0.695  1.00  0.00     0.345 HD
ATOM      6  H   UNL     1      19.128  -4.598   0.799  1.00  0.00     0.345 HD
ENDBRANCH   2   3
BRANCH   2   7
ATOM      7  C   UNL     1      21.351  -5.687   1.188  1.00  0.00     0.100 C 
ATOM      8  O   UNL     1      21.391  -6.943   1.106  1.00  0.00    -0.544 OA
ATOM      9  O   UNL     1      21.600  -5.072   2.409  1.00  0.00    -0.544 OA
ENDBRANCH   2   7
ENDBRANCH   1   2
BRANCH   1  10
ATOM     10  C   UNL     1      22.991  -3.456  -0.728  1.00  0.00     0.223 C 
ATOM     11  O   UNL     1      24.086  -3.755  -0.181  1.00  0.00    -0.275 OA
ATOM     12  N   UNL     1      22.962  -3.126  -2.116  1.00  0.00    -0.369 N 
ATOM     13  H   UNL     1      23.843  -3.117  -2.674  1.00  0.00     0.159 HD
ATOM     14  H   UNL     1      22.060  -2.898  -2.591  1.00  0.00     0.159 HD
ENDBRANCH   1  10
TORSDOF 4
ENDMDL
MODEL 3
REMARK VINA RESULT:    -4.006      2.432      3.201
REMARK INTER + INTRA:          -4.903
REMARK INTER:                  -4.564
REMARK INTRA:                  -0.339
REMARK UNBOUND:                -0.077
REMARK SMILES NC(=O)C[C@H]([NH3+])C(=O)[O-]
REMARK SMILES IDX 4 1 5 2 6 3 7 7 8 8 9 9 2 10 3 11 1 12
REMARK H PARENT 6 4 6 5 6 6 1 13 1 14
REMARK Flexibility Score: inf
ROOT
ATOM      1  C   UNL     1      23.299  -1.705   0.122  1.00  0.00     0.171 C 
ENDROOT
BRANCH   1   2
ATOM      2  C   UNL     1      24.571  -1.697   0.995  1.00  0.00     0.237 C 
BRANCH   2   3
ATOM      3  N   UNL     1      25.506  -2.758   0.594  1.00  0.00    -0.350 N 
ATOM      4  H   UNL     1      26.391  -2.349   0.215  1.00  0.00     0.345 HD
ATOM      5  H   UNL     1      25.066  -3.361  -0.139  1.00  0.00     0.345 HD
ATOM      6  H   UNL     1      25.732  -3.366   1.415  1.00  0.00     0.345 HD
ENDBRANCH   2   3
BRANCH   2   7
ATOM      7  C   UNL     1      24.196  -1.852   2.444  1.00  0.00     0.100 C 
ATOM      8  O   UNL     1      25.089  -1.925   3.331  1.00  0.00    -0.544 OA
ATOM      9  O   UNL     1      22.859  -1.934   2.811  1.00  0.00    -0.544 OA
ENDBRANCH   2   7
ENDBRANCH   1   2
BRANCH   1  10
ATOM     10  C   UNL     1      23.155  -2.992  -0.637  1.00  0.00     0.223 C 
ATOM     11  O   UNL     1      23.078  -4.082  -0.010  1.00  0.00    -0.275 OA
ATOM     12  N   UNL     1      23.068  -2.989  -2.062  1.00  0.00    -0.369 N 
ATOM     13  H   UNL     1      22.957  -3.885  -2.585  1.00  0.00     0.159 HD
ATOM     14  H   UNL     1      23.106  -2.093  -2.597  1.00  0.00     0.159 HD
ENDBRANCH   1  10
TORSDOF 4
ENDMDL
MODEL 4
REMARK VINA RESULT:    -3.988      2.136      2.667
REMARK INTER + INTRA:          -4.881
REMARK INTER:                  -4.745
REMARK INTRA:                  -0.135
REMARK UNBOUND:                -0.077
REMARK SMILES NC(=O)C[C@H]([NH3+])C(=O)[O-]
REMARK SMILES IDX 4 1 5 2 6 3 7 7 8 8 9 9 2 10 3 11 1 12
REMARK H PARENT 6 4 6 5 6 6 1 13 1 14
REMARK Flexibility Score: inf
ROOT
ATOM      1  C   UNL     1      23.451  -3.348   0.425  1.00  0.00     0.171 C 
ENDROOT
BRANCH   1   2
ATOM      2  C   UNL     1      24.345  -2.098   0.292  1.00  0.00     0.237 C 
BRANCH   2   3
ATOM      3  N   UNL     1      25.669  -2.317   0.891  1.00  0.00    -0.350 N 
ATOM      4  H   UNL     1      25.626  -3.061   1.625  1.00  0.00     0.345 HD
ATOM      5  H   UNL     1      26.015  -1.428   1.323  1.00  0.00     0.345 HD
ATOM      6  H   UNL     1      26.354  -2.601   0.153  1.00  0.00     0.345 HD
ENDBRANCH   2   3
BRANCH   2   7
ATOM      7  C   UNL     1      23.671  -0.917   0.936  1.00  0.00     0.100 C 
ATOM      8  O   UNL     1      23.308   0.069   0.240  1.00  0.00    -0.544 OA
ATOM      9  O   UNL     1      23.461  -0.900   2.309  1.00  0.00    -0.544 OA
ENDBRANCH   2   7
ENDBRANCH   1   2
BRANCH   1  10
ATOM     10  C   UNL     1      22.564  -3.526  -0.773  1.00  0.00     0.223 C 
ATOM     11  O   UNL     1      21.429  -4.055  -0.637  1.00  0.00    -0.275 OA
ATOM     12  N   UNL     1      22.981  -3.071  -2.059  1.00  0.00    -0.369 N 
ATOM     13  H   UNL     1      22.357  -3.187  -2.888  1.00  0.00     0.159 HD
ATOM     14  H   UNL     1      23.909  -2.608  -2.187  1.00  0.00     0.159 HD
ENDBRANCH   1  10
TORSDOF 4
ENDMDL
MODEL 5
REMARK VINA RESULT:    -3.956      1.941      3.717
REMARK INTER + INTRA:          -4.843
REMARK INTER:                  -4.763
REMARK INTRA:                  -0.079
REMARK UNBOUND:                -0.077
REMARK SMILES NC(=O)C[C@H]([NH3+])C(=O)[O-]
REMARK SMILES IDX 4 1 5 2 6 3 7 7 8 8 9 9 2 10 3 11 1 12
REMARK H PARENT 6 4 6 5 6 6 1 13 1 14
REMARK Flexibility Score: inf
ROOT
ATOM      1  C   UNL     1      23.117  -2.170   0.242  1.00  0.00     0.171 C 
ENDROOT
BRANCH   1   2
ATOM      2  C   UNL     1      22.765  -3.389  -0.636  1.00  0.00     0.237 C 
BRANCH   2   3
ATOM      3  N   UNL     1      22.946  -3.095  -2.064  1.00  0.00    -0.350 N 
ATOM      4  H   UNL     1      22.602  -3.888  -2.653  1.00  0.00     0.345 HD
ATOM      5  H   UNL     1      23.960  -2.933  -2.267  1.00  0.00     0.345 HD
ATOM      6  H   UNL     1      22.426  -2.225  -2.321  1.00  0.00     0.345 HD
ENDBRANCH   2   3
BRANCH   2   7
ATOM      7  C   UNL     1      21.347  -3.818  -0.368  1.00  0.00     0.100 C 
ATOM      8  O   UNL     1      20.399  -2.995  -0.474  1.00  0.00    -0.544 OA
ATOM      9  O   UNL     1      21.079  -5.125   0.019  1.00  0.00    -0.544 OA
ENDBRANCH   2   7
ENDBRANCH   1   2
BRANCH   1  10
ATOM     10  C   UNL     1      24.266  -2.462   1.163  1.00  0.00     0.223 C 
ATOM     11  O   UNL     1      24.061  -2.571   2.401  1.00  0.00    -0.275 OA
ATOM     12  N   UNL     1      25.582  -2.651   0.645  1.00  0.00    -0.369 N 
ATOM     13  H   UNL     1      26.376  -2.865   1.288  1.00  0.00     0.159 HD
ATOM     14  H   UNL     1      25.766  -2.588  -0.382  1.00  0.00     0.159 HD
ENDBRANCH   1  10
TORSDOF 4
ENDMDL
MODEL 6
REMARK VINA RESULT:    -3.946     15.382     16.439
REMARK INTER + INTRA:          -4.830
REMARK INTER:                  -4.482
REMARK INTRA:                  -0.348
REMARK UNBOUND:                -0.077
REMARK SMILES NC(=O)C[C@H]([NH3+])C(=O)[O-]
REMARK SMILES IDX 4 1 5 2 6 3 7 7 8 8 9 9 2 10 3 11 1 12
REMARK H PARENT 6 4 6 5 6 6 1 13 1 14
REMARK Flexibility Score: inf
ROOT
ATOM      1  C   UNL     1      33.424  -3.022  11.400  1.00  0.00     0.171 C 
ENDROOT
BRANCH   1   2
ATOM      2  C   UNL     1      34.333  -3.924  12.259  1.00  0.00     0.237 C 
BRANCH   2   3
ATOM      3  N   UNL     1      35.003  -4.947  11.443  1.00  0.00    -0.350 N 
ATOM      4  H   UNL     1      36.040  -4.913  11.585  1.00  0.00     0.345 HD
ATOM      5  H   UNL     1      34.791  -4.788  10.431  1.00  0.00     0.345 HD
ATOM      6  H   UNL     1      34.652  -5.898  11.699  1.00  0.00     0.345 HD
ENDBRANCH   2   3
BRANCH   2   7
ATOM      7  C   UNL     1      33.524  -4.575  13.349  1.00  0.00     0.100 C 
ATOM      8  O   UNL     1      33.963  -5.590  13.951  1.00  0.00    -0.544 OA
ATOM      9  O   UNL     1      32.276  -4.066  13.685  1.00  0.00    -0.544 OA
ENDBRANCH   2   7
ENDBRANCH   1   2
BRANCH   1  10
ATOM     10  C   UNL     1      33.156  -3.626  10.052  1.00  0.00     0.223 C 
ATOM     11  O   UNL     1      32.463  -4.675   9.964  1.00  0.00    -0.275 OA
ATOM     12  N   UNL     1      33.650  -3.005   8.866  1.00  0.00    -0.369 N 
ATOM     13  H   UNL     1      33.452  -3.422   7.930  1.00  0.00     0.159 HD
ATOM     14  H   UNL     1      34.205  -2.122   8.918  1.00  0.00     0.159 HD
ENDBRANCH   1  10
TORSDOF 4
ENDMDL
MODEL 7
REMARK VINA RESULT:    -3.825     15.006     16.003
REMARK INTER + INTRA:          -4.685
REMARK INTER:                  -4.490
REMARK INTRA:                  -0.195
REMARK UNBOUND:                -0.077
REMARK SMILES NC(=O)C[C@H]([NH3+])C(=O)[O-]
REMARK SMILES IDX 4 1 5 2 6 3 7 7 8 8 9 9 2 10 3 11 1 12
REMARK H PARENT 6 4 6 5 6 6 1 13 1 14
REMARK Flexibility Score: inf
ROOT
ATOM      1  C   UNL     1      33.721  -3.440  10.600  1.00  0.00     0.171 C 
ENDROOT
BRANCH   1   2
ATOM      2  C   UNL     1      33.781  -4.049  12.016  1.00  0.00     0.237 C 
BRANCH   2   3
ATOM      3  N   UNL     1      34.759  -3.350  12.862  1.00  0.00    -0.350 N 
ATOM      4  H   UNL     1      35.735  -3.545  12.539  1.00  0.00     0.345 HD
ATOM      5  H   UNL     1      34.658  -3.664  13.855  1.00  0.00     0.345 HD
ATOM      6  H   UNL     1      34.587  -2.319  12.833  1.00  0.00     0.345 HD
ENDBRANCH   2   3
BRANCH   2   7
ATOM      7  C   UNL     1      34.119  -5.513  11.929  1.00  0.00     0.100 C 
ATOM      8  O   UNL     1      35.219  -5.887  11.442  1.00  0.00    -0.544 OA
ATOM      9  O   UNL     1      33.206  -6.464  12.369  1.00  0.00    -0.544 OA
ENDBRANCH   2   7
ENDBRANCH   1   2
BRANCH   1  10
ATOM     10  C   UNL     1      32.665  -4.095   9.758  1.00  0.00     0.223 C 
ATOM     11  O   UNL     1      31.453  -3.998  10.090  1.00  0.00    -0.275 OA
ATOM     12  N   UNL     1      33.017  -4.798   8.567  1.00  0.00    -0.369 N 
ATOM     13  H   UNL     1      32.278  -5.243   7.979  1.00  0.00     0.159 HD
ATOM     14  H   UNL     1      34.014  -4.868   8.264  1.00  0.00     0.159 HD
ENDBRANCH   1  10
TORSDOF 4
ENDMDL
MODEL 8
REMARK VINA RESULT:    -3.819     14.810     15.831
REMARK INTER + INTRA:          -4.678
REMARK INTER:                  -4.512
REMARK INTRA:                  -0.166
REMARK UNBOUND:                -0.077
REMARK SMILES NC(=O)C[C@H]([NH3+])C(=O)[O-]
REMARK SMILES IDX 4 1 5 2 6 3 7 7 8 8 9 9 2 10 3 11 1 12
REMARK H PARENT 6 4 6 5 6 6 1 13 1 14
REMARK Flexibility Score: inf
ROOT
ATOM      1  C   UNL     1      33.803  -2.975  11.408  1.00  0.00     0.171 C 
ENDROOT
BRANCH   1   2
ATOM      2  C   UNL     1      33.555  -3.824  10.144  1.00  0.00     0.237 C 
BRANCH   2   3
ATOM      3  N   UNL     1      33.653  -3.013   8.922  1.00  0.00    -0.350 N 
ATOM      4  H   UNL     1      34.635  -3.002   8.561  1.00  0.00     0.345 HD
ATOM      5  H   UNL     1      33.352  -2.030   9.124  1.00  0.00     0.345 HD
ATOM      6  H   UNL     1      33.019  -3.396   8.185  1.00  0.00     0.345 HD
ENDBRANCH   2   3
BRANCH   2   7
ATOM      7  C   UNL     1      32.204  -4.481  10.227  1.00  0.00     0.100 C 
ATOM      8  O   UNL     1      31.160  -3.784  10.338  1.00  0.00    -0.544 OA
ATOM      9  O   UNL     1      32.102  -5.867  10.199  1.00  0.00    -0.544 OA
ENDBRANCH   2   7
ENDBRANCH   1   2
BRANCH   1  10
ATOM     10  C   UNL     1      34.002  -3.834  12.623  1.00  0.00     0.223 C 
ATOM     11  O   UNL     1      33.104  -3.887  13.505  1.00  0.00    -0.275 OA
ATOM     12  N   UNL     1      35.185  -4.620  12.771  1.00  0.00    -0.369 N 
ATOM     13  H   UNL     1      35.314  -5.224  13.612  1.00  0.00     0.159 HD
ATOM     14  H   UNL     1      35.929  -4.608  12.037  1.00  0.00     0.159 HD
ENDBRANCH   1  10
TORSDOF 4
ENDMDL
MODEL 9
REMARK VINA RESULT:    -3.764      1.676      2.186
REMARK INTER + INTRA:          -4.612
REMARK INTER:                  -4.142
REMARK INTRA:                  -0.469
REMARK UNBOUND:                -0.077
REMARK SMILES NC(=O)C[C@H]([NH3+])C(=O)[O-]
REMARK SMILES IDX 4 1 5 2 6 3 7 7 8 8 9 9 2 10 3 11 1 12
REMARK H PARENT 6 4 6 5 6 6 1 13 1 14
REMARK Flexibility Score: inf
ROOT
ATOM      1  C   UNL     1      22.256  -3.914   0.735  1.00  0.00     0.171 C 
ENDROOT
BRANCH   1   2
ATOM      2  C   UNL     1      23.011  -2.763   1.432  1.00  0.00     0.237 C 
BRANCH   2   3
ATOM      3  N   UNL     1      22.421  -1.457   1.107  1.00  0.00    -0.350 N 
ATOM      4  H   UNL     1      22.794  -1.098   0.197  1.00  0.00     0.345 HD
ATOM      5  H   UNL     1      22.644  -0.769   1.863  1.00  0.00     0.345 HD
ATOM      6  H   UNL     1      21.381  -1.538   1.045  1.00  0.00     0.345 HD
ENDBRANCH   2   3
BRANCH   2   7
ATOM      7  C   UNL     1      24.463  -2.793   1.039  1.00  0.00     0.100 C 
ATOM      8  O   UNL     1      24.861  -3.559   0.121  1.00  0.00    -0.544 OA
ATOM      9  O   UNL     1      25.379  -1.986   1.702  1.00  0.00    -0.544 OA
ENDBRANCH   2   7
ENDBRANCH   1   2
BRANCH   1  10
ATOM     10  C   UNL     1      21.549  -3.444  -0.503  1.00  0.00     0.223 C 
ATOM     11  O   UNL     1      20.371  -3.002  -0.420  1.00  0.00    -0.275 OA
ATOM     12  N   UNL     1      22.209  -3.460  -1.768  1.00  0.00    -0.369 N 
ATOM     13  H   UNL     1      21.717  -3.122  -2.624  1.00  0.00     0.159 HD
ATOM     14  H   UNL     1      23.194  -3.800  -1.851  1.00  0.00     0.159 HD
ENDBRANCH   1  10
TORSDOF 4
ENDMDL
