MODEL 1
REMARK VINA RESULT:    -3.041      0.000      0.000
REMARK INTER + INTRA:          -3.308
REMARK INTER:                  -3.308
REMARK INTRA:                   0.000
REMARK UNBOUND:                 0.000
REMARK SMILES [NH3+]CC(=O)[O-]
REMARK SMILES IDX 2 1 1 2 3 6 4 7 5 8
REMARK H PARENT 1 3 1 4 1 5
REMARK Flexibility Score: inf
ROOT
ATOM      1  C   UNL     1      -2.621  26.260  34.842  1.00  0.00     0.312 C 
ENDROOT
BRANCH   1   2
ATOM      2  N   UNL     1      -2.956  25.164  33.934  1.00  0.00    -0.353 N 
ATOM      3  H   UNL     1      -3.914  24.802  34.146  1.00  0.00     0.344 HD
ATOM      4  H   UNL     1      -2.265  24.390  34.064  1.00  0.00     0.344 HD
ATOM      5  H   UNL     1      -2.913  25.494  32.942  1.00  0.00     0.344 HD
ENDBRANCH   1   2
BRANCH   1   6
ATOM      6  C   UNL     1      -1.853  25.751  36.023  1.00  0.00     0.096 C 
ATOM      7  O   UNL     1      -0.772  25.128  35.855  1.00  0.00    -0.544 OA
ATOM      8  O   UNL     1      -2.306  26.009  37.311  1.00  0.00    -0.544 OA
ENDBRANCH   1   6
TORSDOF 2
ENDMDL
MODEL 2
REMARK VINA RESULT:    -2.997     14.583     14.895
REMARK INTER + INTRA:          -3.259
REMARK INTER:                  -3.259
REMARK INTRA:                   0.000
REMARK UNBOUND:                 0.000
REMARK SMILES [NH3+]CC(=O)[O-]
REMARK SMILES IDX 2 1 1 2 3 6 4 7 5 8
REMARK H PARENT 1 3 1 4 1 5
REMARK Flexibility Score: inf
ROOT
ATOM      1  C   UNL     1       2.857  34.927  26.181  1.00  0.00     0.312 C 
ENDROOT
BRANCH   1   2
ATOM      2  N   UNL     1       3.252  34.014  25.109  1.00  0.00    -0.353 N 
ATOM      3  H   UNL     1       2.524  34.004  24.359  1.00  0.00     0.344 HD
ATOM      4  H   UNL     1       3.349  33.049  25.500  1.00  0.00     0.344 HD
ATOM      5  H   UNL     1       4.172  34.310  24.707  1.00  0.00     0.344 HD
ENDBRANCH   1   2
BRANCH   1   6
ATOM      6  C   UNL     1       1.912  35.968  25.666  1.00  0.00     0.096 C 
ATOM      7  O   UNL     1       2.158  37.190  25.844  1.00  0.00    -0.544 OA
ATOM      8  O   UNL     1       0.787  35.590  24.944  1.00  0.00    -0.544 OA
ENDBRANCH   1   6
TORSDOF 2
ENDMDL
MODEL 3
REMARK VINA RESULT:    -2.977     14.657     14.929
REMARK INTER + INTRA:          -3.238
REMARK INTER:                  -3.238
REMARK INTRA:                   0.000
REMARK UNBOUND:                 0.000
REMARK SMILES [NH3+]CC(=O)[O-]
REMARK SMILES IDX 2 1 1 2 3 6 4 7 5 8
REMARK H PARENT 1 3 1 4 1 5
REMARK Flexibility Score: inf
ROOT
ATOM      1  C   UNL     1       2.969  34.978  26.033  1.00  0.00     0.312 C 
ENDROOT
BRANCH   1   2
ATOM      2  N   UNL     1       3.341  34.101  24.924  1.00  0.00    -0.353 N 
ATOM      3  H   UNL     1       3.415  34.653  24.039  1.00  0.00     0.344 HD
ATOM      4  H   UNL     1       2.604  33.368  24.806  1.00  0.00     0.344 HD
ATOM      5  H   UNL     1       4.255  33.633  25.127  1.00  0.00     0.344 HD
ENDBRANCH   1   2
BRANCH   1   6
ATOM      6  C   UNL     1       1.893  35.931  25.614  1.00  0.00     0.096 C 
ATOM      7  O   UNL     1       0.879  35.510  24.999  1.00  0.00    -0.544 OA
ATOM      8  O   UNL     1       1.986  37.276  25.949  1.00  0.00    -0.544 OA
ENDBRANCH   1   6
TORSDOF 2
ENDMDL
MODEL 4
REMARK VINA RESULT:    -2.928     14.013     14.318
REMARK INTER + INTRA:          -3.184
REMARK INTER:                  -3.184
REMARK INTRA:                   0.000
REMARK UNBOUND:                 0.000
REMARK SMILES [NH3+]CC(=O)[O-]
REMARK SMILES IDX 2 1 1 2 3 6 4 7 5 8
REMARK H PARENT 1 3 1 4 1 5
REMARK Flexibility Score: inf
ROOT
ATOM      1  C   UNL     1       3.149  35.290  25.368  1.00  0.00     0.312 C 
ENDROOT
BRANCH   1   2
ATOM      2  N   UNL     1       3.004  33.866  25.069  1.00  0.00    -0.353 N 
ATOM      3  H   UNL     1       1.992  33.608  25.031  1.00  0.00     0.344 HD
ATOM      4  H   UNL     1       3.467  33.310  25.824  1.00  0.00     0.344 HD
ATOM      5  H   UNL     1       3.461  33.643  24.155  1.00  0.00     0.344 HD
ENDBRANCH   1   2
BRANCH   1   6
ATOM      6  C   UNL     1       2.275  35.679  26.519  1.00  0.00     0.096 C 
ATOM      7  O   UNL     1       1.927  34.818  27.370  1.00  0.00    -0.544 OA
ATOM      8  O   UNL     1       1.886  37.003  26.681  1.00  0.00    -0.544 OA
ENDBRANCH   1   6
TORSDOF 2
ENDMDL
MODEL 5
REMARK VINA RESULT:    -2.888      0.871      1.542
REMARK INTER + INTRA:          -3.141
REMARK INTER:                  -3.141
REMARK INTRA:                   0.000
REMARK UNBOUND:                 0.000
REMARK SMILES [NH3+]CC(=O)[O-]
REMARK SMILES IDX 2 1 1 2 3 6 4 7 5 8
REMARK H PARENT 1 3 1 4 1 5
REMARK Flexibility Score: inf
ROOT
ATOM      1  C   UNL     1      -2.928  25.579  35.326  1.00  0.00     0.312 C 
ENDROOT
BRANCH   1   2
ATOM      2  N   UNL     1      -2.968  25.193  33.917  1.00  0.00    -0.353 N 
ATOM      3  H   UNL     1      -2.506  24.264  33.785  1.00  0.00     0.344 HD
ATOM      4  H   UNL     1      -2.457  25.909  33.352  1.00  0.00     0.344 HD
ATOM      5  H   UNL     1      -3.959  25.145  33.586  1.00  0.00     0.344 HD
ENDBRANCH   1   2
BRANCH   1   6
ATOM      6  C   UNL     1      -1.513  25.735  35.791  1.00  0.00     0.096 C 
ATOM      7  O   UNL     1      -1.176  26.743  36.465  1.00  0.00    -0.544 OA
ATOM      8  O   UNL     1      -0.579  24.742  35.523  1.00  0.00    -0.544 OA
ENDBRANCH   1   6
TORSDOF 2
ENDMDL
MODEL 6
REMARK VINA RESULT:    -2.795     14.825     15.022
REMARK INTER + INTRA:          -3.040
REMARK INTER:                  -3.040
REMARK INTRA:                   0.000
REMARK UNBOUND:                 0.000
REMARK SMILES [NH3+]CC(=O)[O-]
REMARK SMILES IDX 2 1 1 2 3 6 4 7 5 8
REMARK H PARENT 1 3 1 4 1 5
REMARK Flexibility Score: inf
ROOT
ATOM      1  C   UNL     1       2.119  35.209  25.277  1.00  0.00     0.312 C 
ENDROOT
BRANCH   1   2
ATOM      2  N   UNL     1       2.936  34.001  25.176  1.00  0.00    -0.353 N 
ATOM      3  H   UNL     1       3.229  33.685  26.129  1.00  0.00     0.344 HD
ATOM      4  H   UNL     1       3.791  34.213  24.612  1.00  0.00     0.344 HD
ATOM      5  H   UNL     1       2.396  33.241  24.702  1.00  0.00     0.344 HD
ENDBRANCH   1   2
BRANCH   1   6
ATOM      6  C   UNL     1       0.904  35.098  24.409  1.00  0.00     0.096 C 
ATOM      7  O   UNL     1      -0.148  35.722  24.708  1.00  0.00    -0.544 OA
ATOM      8  O   UNL     1       0.950  34.347  23.241  1.00  0.00    -0.544 OA
ENDBRANCH   1   6
TORSDOF 2
ENDMDL
MODEL 7
REMARK VINA RESULT:    -2.716     13.955     14.311
REMARK INTER + INTRA:          -2.955
REMARK INTER:                  -2.955
REMARK INTRA:                   0.000
REMARK UNBOUND:                 0.000
REMARK SMILES [NH3+]CC(=O)[O-]
REMARK SMILES IDX 2 1 1 2 3 6 4 7 5 8
REMARK H PARENT 1 3 1 4 1 5
REMARK Flexibility Score: inf
ROOT
ATOM      1  C   UNL     1       1.843  34.926  27.137  1.00  0.00     0.312 C 
ENDROOT
BRANCH   1   2
ATOM      2  N   UNL     1       2.119  35.737  28.322  1.00  0.00    -0.353 N 
ATOM      3  H   UNL     1       1.301  36.353  28.534  1.00  0.00     0.344 HD
ATOM      4  H   UNL     1       2.956  36.336  28.138  1.00  0.00     0.344 HD
ATOM      5  H   UNL     1       2.319  35.119  29.142  1.00  0.00     0.344 HD
ENDBRANCH   1   2
BRANCH   1   6
ATOM      6  C   UNL     1       2.779  35.282  26.024  1.00  0.00     0.096 C 
ATOM      7  O   UNL     1       3.163  34.400  25.213  1.00  0.00    -0.544 OA
ATOM      8  O   UNL     1       3.185  36.600  25.852  1.00  0.00    -0.544 OA
ENDBRANCH   1   6
TORSDOF 2
ENDMDL
MODEL 8
REMARK VINA RESULT:    -2.673      2.424      2.655
REMARK INTER + INTRA:          -2.907
REMARK INTER:                  -2.907
REMARK INTRA:                   0.000
REMARK UNBOUND:                 0.000
REMARK SMILES [NH3+]CC(=O)[O-]
REMARK SMILES IDX 2 1 1 2 3 6 4 7 5 8
REMARK H PARENT 1 3 1 4 1 5
REMARK Flexibility Score: inf
ROOT
ATOM      1  C   UNL     1      -1.765  26.083  36.563  1.00  0.00     0.312 C 
ENDROOT
BRANCH   1   2
ATOM      2  N   UNL     1      -2.929  25.977  37.442  1.00  0.00    -0.353 N 
ATOM      3  H   UNL     1      -3.249  26.930  37.731  1.00  0.00     0.344 HD
ATOM      4  H   UNL     1      -2.663  25.436  38.297  1.00  0.00     0.344 HD
ATOM      5  H   UNL     1      -3.705  25.477  36.952  1.00  0.00     0.344 HD
ENDBRANCH   1   2
BRANCH   1   6
ATOM      6  C   UNL     1      -2.190  26.400  35.163  1.00  0.00     0.096 C 
ATOM      7  O   UNL     1      -1.866  27.496  34.635  1.00  0.00    -0.544 OA
ATOM      8  O   UNL     1      -2.899  25.463  34.422  1.00  0.00    -0.544 OA
ENDBRANCH   1   6
TORSDOF 2
ENDMDL
MODEL 9
REMARK VINA RESULT:    -2.629     14.614     14.816
REMARK INTER + INTRA:          -2.860
REMARK INTER:                  -2.860
REMARK INTRA:                   0.000
REMARK UNBOUND:                 0.000
REMARK SMILES [NH3+]CC(=O)[O-]
REMARK SMILES IDX 2 1 1 2 3 6 4 7 5 8
REMARK H PARENT 1 3 1 4 1 5
REMARK Flexibility Score: inf
ROOT
ATOM      1  C   UNL     1       1.041  35.542  25.194  1.00  0.00     0.312 C 
ENDROOT
BRANCH   1   2
ATOM      2  N   UNL     1       0.712  34.696  24.048  1.00  0.00    -0.353 N 
ATOM      3  H   UNL     1       0.623  35.279  23.185  1.00  0.00     0.344 HD
ATOM      4  H   UNL     1      -0.200  34.216  24.228  1.00  0.00     0.344 HD
ATOM      5  H   UNL     1       1.455  33.972  23.911  1.00  0.00     0.344 HD
ENDBRANCH   1   2
BRANCH   1   6
ATOM      6  C   UNL     1       2.497  35.435  25.528  1.00  0.00     0.096 C 
ATOM      7  O   UNL     1       3.106  34.346  25.364  1.00  0.00    -0.544 OA
ATOM      8  O   UNL     1       3.192  36.554  25.971  1.00  0.00    -0.544 OA
ENDBRANCH   1   6
TORSDOF 2
ENDMDL
