MODEL 1
REMARK VINA RESULT:    -7.172      0.000      0.000
REMARK INTER + INTRA:         -10.475
REMARK INTER:                  -9.477
REMARK INTRA:                  -0.998
REMARK UNBOUND:                -0.998
REMARK SMILES CC[C@@H](C=C[C@@H](C)[C@@H]1CC[C@@H]2[C@H]3CC=C4C[C@H](O)CC[C@@]4(C)[C@@H]3CC[C@]21C)C(C)C
REMARK SMILES IDX 6 1 7 2 5 3 4 4 3 5 2 6 1 7 28 8 29 9 30 10 8 11 9 12 26 13
REMARK SMILES IDX 10 14 11 15 25 16 27 17 12 18 24 19 23 20 13 21 21 22 14 23
REMARK SMILES IDX 15 24 20 25 22 26 16 27 19 28 17 29 18 30
REMARK H PARENT 18 31
REMARK Flexibility Score: inf
ROOT
ATOM      1  C   UNL     1      15.450  21.108  50.386  1.00  0.00     0.012 C 
ATOM      2  C   UNL     1      15.616  19.727  51.028  1.00  0.00     0.012 C 
ENDROOT
BRANCH   1   3
ATOM      3  C   UNL     1      15.183  20.955  48.901  1.00  0.00    -0.028 C 
ATOM      4  C   UNL     1      15.672  19.923  48.196  1.00  0.00    -0.027 C 
BRANCH   4   5
ATOM      5  C   UNL     1      15.387  19.756  46.718  1.00  0.00     0.014 C 
BRANCH   5   6
ATOM      6  C   UNL     1      14.075  20.502  46.360  1.00  0.00     0.004 C 
ATOM      7  C   UNL     1      14.134  21.315  45.062  1.00  0.00     0.004 C 
ENDBRANCH   5   6
BRANCH   5   8
ATOM      8  C   UNL     1      15.408  18.249  46.319  1.00  0.00    -0.011 C 
ATOM      9  C   UNL     1      13.991  17.689  46.106  1.00  0.00     0.008 C 
ATOM     10  C   UNL     1      16.227  18.033  45.032  1.00  0.00     0.008 C 
ENDBRANCH   5   8
ENDBRANCH   4   5
ENDBRANCH   1   3
BRANCH   1  11
ATOM     11  C   UNL     1      16.604  22.101  50.758  1.00  0.00     0.002 C 
ATOM     12  C   UNL     1      17.844  21.406  51.381  1.00  0.00     0.005 C 
ATOM     13  C   UNL     1      16.346  23.333  51.680  1.00  0.00    -0.026 C 
ATOM     14  C   UNL     1      18.519  22.439  52.296  1.00  0.00     0.005 C 
ATOM     15  C   UNL     1      17.800  23.740  51.979  1.00  0.00    -0.001 C 
ATOM     16  C   UNL     1      15.677  24.552  50.997  1.00  0.00     0.007 C 
ATOM     17  C   UNL     1      15.551  22.923  52.956  1.00  0.00     0.012 C 
ATOM     18  C   UNL     1      17.928  24.915  52.974  1.00  0.00     0.000 C 
ATOM     19  C   UNL     1      15.743  25.808  51.896  1.00  0.00     0.005 C 
ATOM     20  C   UNL     1      17.186  26.152  52.385  1.00  0.00     0.003 C 
ATOM     21  C   UNL     1      19.406  25.269  53.195  1.00  0.00     0.031 C 
ATOM     22  C   UNL     1      17.255  27.389  53.363  1.00  0.00    -0.008 C 
ATOM     23  C   UNL     1      19.592  26.576  53.916  1.00  0.00    -0.027 C 
ATOM     24  C   UNL     1      18.689  27.580  53.892  1.00  0.00    -0.065 C 
ATOM     25  C   UNL     1      16.838  28.675  52.580  1.00  0.00     0.014 C 
ATOM     26  C   UNL     1      16.309  27.200  54.581  1.00  0.00     0.016 C 
ATOM     27  C   UNL     1      19.050  28.890  54.566  1.00  0.00     0.063 C 
ATOM     28  C   UNL     1      17.129  29.983  53.332  1.00  0.00     0.033 C 
ATOM     29  C   UNL     1      18.616  30.082  53.704  1.00  0.00     0.118 C 
BRANCH  29  30
ATOM     30  O   UNL     1      18.879  31.296  54.362  1.00  0.00    -0.393 OA
ATOM     31  H   UNL     1      18.451  32.024  53.839  1.00  0.00     0.210 HD
ENDBRANCH  29  30
ENDBRANCH   1  11
TORSDOF 6
ENDMDL
MODEL 2
REMARK VINA RESULT:    -7.065      2.760      4.202
REMARK INTER + INTRA:         -10.335
REMARK INTER:                  -9.343
REMARK INTRA:                  -0.992
REMARK UNBOUND:                -0.998
REMARK SMILES CC[C@@H](C=C[C@@H](C)[C@@H]1CC[C@@H]2[C@H]3CC=C4C[C@H](O)CC[C@@]4(C)[C@@H]3CC[C@]21C)C(C)C
REMARK SMILES IDX 6 1 7 2 5 3 4 4 3 5 2 6 1 7 28 8 29 9 30 10 8 11 9 12 26 13
REMARK SMILES IDX 10 14 11 15 25 16 27 17 12 18 24 19 23 20 13 21 21 22 14 23
REMARK SMILES IDX 15 24 20 25 22 26 16 27 19 28 17 29 18 30
REMARK H PARENT 18 31
REMARK Flexibility Score: inf
ROOT
ATOM      1  C   UNL     1      13.185  24.964  46.787  1.00  0.00     0.012 C 
ATOM      2  C   UNL     1      12.198  23.815  47.018  1.00  0.00     0.012 C 
ENDROOT
BRANCH   1   3
ATOM      3  C   UNL     1      13.706  24.915  45.364  1.00  0.00    -0.028 C 
ATOM      4  C   UNL     1      13.858  23.755  44.706  1.00  0.00    -0.027 C 
BRANCH   4   5
ATOM      5  C   UNL     1      14.357  23.705  43.277  1.00  0.00     0.014 C 
BRANCH   5   6
ATOM      6  C   UNL     1      13.329  24.406  42.349  1.00  0.00     0.004 C 
ATOM      7  C   UNL     1      13.946  25.313  41.279  1.00  0.00     0.004 C 
ENDBRANCH   5   6
BRANCH   5   8
ATOM      8  C   UNL     1      14.712  22.244  42.867  1.00  0.00    -0.011 C 
ATOM      9  C   UNL     1      16.207  21.938  43.060  1.00  0.00     0.008 C 
ATOM     10  C   UNL     1      13.887  21.229  43.683  1.00  0.00     0.008 C 
ENDBRANCH   5   8
ENDBRANCH   4   5
ENDBRANCH   1   3
BRANCH   1  11
ATOM     11  C   UNL     1      14.285  25.061  47.900  1.00  0.00     0.002 C 
ATOM     12  C   UNL     1      14.464  23.751  48.712  1.00  0.00     0.005 C 
ATOM     13  C   UNL     1      14.247  26.186  48.980  1.00  0.00    -0.026 C 
ATOM     14  C   UNL     1      14.972  24.158  50.104  1.00  0.00     0.005 C 
ATOM     15  C   UNL     1      15.298  25.636  49.961  1.00  0.00    -0.001 C 
ATOM     16  C   UNL     1      14.758  27.574  48.518  1.00  0.00     0.007 C 
ATOM     17  C   UNL     1      12.828  26.313  49.609  1.00  0.00     0.012 C 
ATOM     18  C   UNL     1      15.459  26.483  51.243  1.00  0.00     0.000 C 
ATOM     19  C   UNL     1      14.968  28.526  49.719  1.00  0.00     0.005 C 
ATOM     20  C   UNL     1      15.879  27.928  50.838  1.00  0.00     0.003 C 
ATOM     21  C   UNL     1      16.539  25.877  52.151  1.00  0.00     0.031 C 
ATOM     22  C   UNL     1      16.040  28.860  52.102  1.00  0.00    -0.008 C 
ATOM     23  C   UNL     1      16.950  26.800  53.265  1.00  0.00    -0.027 C 
ATOM     24  C   UNL     1      16.847  28.145  53.201  1.00  0.00    -0.065 C 
ATOM     25  C   UNL     1      16.809  30.153  51.680  1.00  0.00     0.014 C 
ATOM     26  C   UNL     1      14.658  29.255  52.692  1.00  0.00     0.016 C 
ATOM     27  C   UNL     1      17.404  28.966  54.349  1.00  0.00     0.063 C 
ATOM     28  C   UNL     1      17.277  31.012  52.864  1.00  0.00     0.033 C 
ATOM     29  C   UNL     1      18.157  30.195  53.822  1.00  0.00     0.118 C 
BRANCH  29  30
ATOM     30  O   UNL     1      18.606  30.997  54.885  1.00  0.00    -0.393 OA
ATOM     31  H   UNL     1      17.809  31.295  55.398  1.00  0.00     0.210 HD
ENDBRANCH  29  30
ENDBRANCH   1  11
TORSDOF 6
ENDMDL
MODEL 3
REMARK VINA RESULT:    -6.878      2.240      3.383
REMARK INTER + INTRA:         -10.087
REMARK INTER:                  -8.620
REMARK INTRA:                  -1.466
REMARK UNBOUND:                -0.998
REMARK SMILES CC[C@@H](C=C[C@@H](C)[C@@H]1CC[C@@H]2[C@H]3CC=C4C[C@H](O)CC[C@@]4(C)[C@@H]3CC[C@]21C)C(C)C
REMARK SMILES IDX 6 1 7 2 5 3 4 4 3 5 2 6 1 7 28 8 29 9 30 10 8 11 9 12 26 13
REMARK SMILES IDX 10 14 11 15 25 16 27 17 12 18 24 19 23 20 13 21 21 22 14 23
REMARK SMILES IDX 15 24 20 25 22 26 16 27 19 28 17 29 18 30
REMARK H PARENT 18 31
REMARK Flexibility Score: inf
ROOT
ATOM      1  C   UNL     1      13.914  22.521  49.865  1.00  0.00     0.012 C 
ATOM      2  C   UNL     1      14.066  21.017  49.617  1.00  0.00     0.012 C 
ENDROOT
BRANCH   1   3
ATOM      3  C   UNL     1      13.206  23.167  48.690  1.00  0.00    -0.028 C 
ATOM      4  C   UNL     1      13.873  23.870  47.761  1.00  0.00    -0.027 C 
BRANCH   4   5
ATOM      5  C   UNL     1      13.171  24.496  46.574  1.00  0.00     0.014 C 
BRANCH   5   6
ATOM      6  C   UNL     1      13.473  23.663  45.300  1.00  0.00     0.004 C 
ATOM      7  C   UNL     1      13.767  24.493  44.046  1.00  0.00     0.004 C 
ENDBRANCH   5   6
BRANCH   5   8
ATOM      8  C   UNL     1      13.524  26.010  46.459  1.00  0.00    -0.011 C 
ATOM      9  C   UNL     1      12.514  26.896  47.207  1.00  0.00     0.008 C 
ATOM     10  C   UNL     1      14.935  26.287  47.014  1.00  0.00     0.008 C 
ENDBRANCH   5   8
ENDBRANCH   4   5
ENDBRANCH   1   3
BRANCH   1  11
ATOM     11  C   UNL     1      15.254  23.211  50.299  1.00  0.00     0.002 C 
ATOM     12  C   UNL     1      16.275  22.234  50.940  1.00  0.00     0.005 C 
ATOM     13  C   UNL     1      15.256  24.452  51.244  1.00  0.00    -0.026 C 
ATOM     14  C   UNL     1      17.139  23.064  51.902  1.00  0.00     0.005 C 
ATOM     15  C   UNL     1      16.754  24.503  51.597  1.00  0.00    -0.001 C 
ATOM     16  C   UNL     1      14.914  25.806  50.573  1.00  0.00     0.007 C 
ATOM     17  C   UNL     1      14.343  24.215  52.484  1.00  0.00     0.012 C 
ATOM     18  C   UNL     1      17.116  25.597  52.627  1.00  0.00     0.000 C 
ATOM     19  C   UNL     1      15.238  26.995  51.506  1.00  0.00     0.005 C 
ATOM     20  C   UNL     1      16.704  26.984  52.048  1.00  0.00     0.003 C 
ATOM     21  C   UNL     1      18.626  25.592  52.902  1.00  0.00     0.031 C 
ATOM     22  C   UNL     1      17.023  28.152  53.060  1.00  0.00    -0.008 C 
ATOM     23  C   UNL     1      19.085  26.806  53.662  1.00  0.00    -0.027 C 
ATOM     24  C   UNL     1      18.442  27.993  53.637  1.00  0.00    -0.065 C 
ATOM     25  C   UNL     1      16.944  29.514  52.299  1.00  0.00     0.014 C 
ATOM     26  C   UNL     1      16.016  28.167  54.243  1.00  0.00     0.016 C 
ATOM     27  C   UNL     1      19.074  29.170  54.356  1.00  0.00     0.063 C 
ATOM     28  C   UNL     1      17.505  30.704  53.093  1.00  0.00     0.033 C 
ATOM     29  C   UNL     1      18.960  30.447  53.513  1.00  0.00     0.118 C 
BRANCH  29  30
ATOM     30  O   UNL     1      19.474  31.553  54.211  1.00  0.00    -0.393 OA
ATOM     31  H   UNL     1      20.349  31.286  54.599  1.00  0.00     0.210 HD
ENDBRANCH  29  30
ENDBRANCH   1  11
TORSDOF 6
ENDMDL
MODEL 4
REMARK VINA RESULT:    -6.503      5.962     10.045
REMARK INTER + INTRA:          -9.592
REMARK INTER:                  -8.707
REMARK INTRA:                  -0.885
REMARK UNBOUND:                -0.998
REMARK SMILES CC[C@@H](C=C[C@@H](C)[C@@H]1CC[C@@H]2[C@H]3CC=C4C[C@H](O)CC[C@@]4(C)[C@@H]3CC[C@]21C)C(C)C
REMARK SMILES IDX 6 1 7 2 5 3 4 4 3 5 2 6 1 7 28 8 29 9 30 10 8 11 9 12 26 13
REMARK SMILES IDX 10 14 11 15 25 16 27 17 12 18 24 19 23 20 13 21 21 22 14 23
REMARK SMILES IDX 15 24 20 25 22 26 16 27 19 28 17 29 18 30
REMARK H PARENT 18 31
REMARK Flexibility Score: inf
ROOT
ATOM      1  C   UNL     1      14.808  17.971  45.796  1.00  0.00     0.012 C 
ATOM      2  C   UNL     1      13.284  17.888  45.925  1.00  0.00     0.012 C 
ENDROOT
BRANCH   1   3
ATOM      3  C   UNL     1      15.423  18.270  47.149  1.00  0.00    -0.028 C 
ATOM      4  C   UNL     1      14.667  18.490  48.237  1.00  0.00    -0.027 C 
BRANCH   4   5
ATOM      5  C   UNL     1      15.279  18.766  49.595  1.00  0.00     0.014 C 
BRANCH   5   6
ATOM      6  C   UNL     1      14.935  17.601  50.559  1.00  0.00     0.004 C 
ATOM      7  C   UNL     1      15.095  17.932  52.047  1.00  0.00     0.004 C 
ENDBRANCH   5   6
BRANCH   5   8
ATOM      8  C   UNL     1      14.867  20.179  50.108  1.00  0.00    -0.011 C 
ATOM      9  C   UNL     1      16.015  21.195  49.985  1.00  0.00     0.008 C 
ATOM     10  C   UNL     1      13.646  20.710  49.333  1.00  0.00     0.008 C 
ENDBRANCH   5   8
ENDBRANCH   4   5
ENDBRANCH   1   3
BRANCH   1  11
ATOM     11  C   UNL     1      15.275  18.907  44.628  1.00  0.00     0.002 C 
ATOM     12  C   UNL     1      16.801  19.192  44.634  1.00  0.00     0.005 C 
ATOM     13  C   UNL     1      14.620  20.304  44.398  1.00  0.00    -0.026 C 
ATOM     14  C   UNL     1      16.998  20.567  43.976  1.00  0.00     0.005 C 
ATOM     15  C   UNL     1      15.631  20.902  43.403  1.00  0.00    -0.001 C 
ATOM     16  C   UNL     1      13.248  20.290  43.680  1.00  0.00     0.007 C 
ATOM     17  C   UNL     1      14.526  21.106  45.731  1.00  0.00     0.012 C 
ATOM     18  C   UNL     1      15.333  22.367  43.014  1.00  0.00     0.000 C 
ATOM     19  C   UNL     1      12.831  21.709  43.230  1.00  0.00     0.005 C 
ATOM     20  C   UNL     1      13.915  22.436  42.371  1.00  0.00     0.003 C 
ATOM     21  C   UNL     1      16.372  22.874  42.004  1.00  0.00     0.031 C 
ATOM     22  C   UNL     1      13.532  23.913  41.969  1.00  0.00    -0.008 C 
ATOM     23  C   UNL     1      15.981  24.179  41.367  1.00  0.00    -0.027 C 
ATOM     24  C   UNL     1      14.702  24.593  41.235  1.00  0.00    -0.065 C 
ATOM     25  C   UNL     1      12.299  23.872  41.011  1.00  0.00     0.014 C 
ATOM     26  C   UNL     1      13.182  24.766  43.219  1.00  0.00     0.016 C 
ATOM     27  C   UNL     1      14.437  25.877  40.470  1.00  0.00     0.063 C 
ATOM     28  C   UNL     1      11.999  25.213  40.325  1.00  0.00     0.033 C 
ATOM     29  C   UNL     1      13.223  25.718  39.546  1.00  0.00     0.118 C 
BRANCH  29  30
ATOM     30  O   UNL     1      12.929  26.929  38.896  1.00  0.00    -0.393 OA
ATOM     31  H   UNL     1      12.524  26.710  38.016  1.00  0.00     0.210 HD
ENDBRANCH  29  30
ENDBRANCH   1  11
TORSDOF 6
ENDMDL
MODEL 5
REMARK VINA RESULT:    -6.474      2.015      3.407
REMARK INTER + INTRA:          -9.553
REMARK INTER:                  -8.660
REMARK INTRA:                  -0.893
REMARK UNBOUND:                -0.998
REMARK SMILES CC[C@@H](C=C[C@@H](C)[C@@H]1CC[C@@H]2[C@H]3CC=C4C[C@H](O)CC[C@@]4(C)[C@@H]3CC[C@]21C)C(C)C
REMARK SMILES IDX 6 1 7 2 5 3 4 4 3 5 2 6 1 7 28 8 29 9 30 10 8 11 9 12 26 13
REMARK SMILES IDX 10 14 11 15 25 16 27 17 12 18 24 19 23 20 13 21 21 22 14 23
REMARK SMILES IDX 15 24 20 25 22 26 16 27 19 28 17 29 18 30
REMARK H PARENT 18 31
REMARK Flexibility Score: inf
ROOT
ATOM      1  C   UNL     1      13.184  24.086  47.978  1.00  0.00     0.012 C 
ATOM      2  C   UNL     1      12.303  22.997  48.597  1.00  0.00     0.012 C 
ENDROOT
BRANCH   1   3
ATOM      3  C   UNL     1      13.468  23.753  46.526  1.00  0.00    -0.028 C 
ATOM      4  C   UNL     1      13.354  22.503  46.051  1.00  0.00    -0.027 C 
BRANCH   4   5
ATOM      5  C   UNL     1      13.614  22.173  44.596  1.00  0.00     0.014 C 
BRANCH   5   6
ATOM      6  C   UNL     1      13.988  20.673  44.468  1.00  0.00     0.004 C 
ATOM      7  C   UNL     1      14.588  20.052  45.734  1.00  0.00     0.004 C 
ENDBRANCH   5   6
BRANCH   5   8
ATOM      8  C   UNL     1      14.657  23.158  43.985  1.00  0.00    -0.011 C 
ATOM      9  C   UNL     1      15.708  22.428  43.130  1.00  0.00     0.008 C 
ATOM     10  C   UNL     1      13.961  24.224  43.116  1.00  0.00     0.008 C 
ENDBRANCH   5   8
ENDBRANCH   4   5
ENDBRANCH   1   3
BRANCH   1  11
ATOM     11  C   UNL     1      14.446  24.421  48.846  1.00  0.00     0.002 C 
ATOM     12  C   UNL     1      14.956  23.222  49.688  1.00  0.00     0.005 C 
ATOM     13  C   UNL     1      14.449  25.623  49.840  1.00  0.00    -0.026 C 
ATOM     14  C   UNL     1      15.650  23.812  50.926  1.00  0.00     0.005 C 
ATOM     15  C   UNL     1      15.730  25.301  50.630  1.00  0.00    -0.001 C 
ATOM     16  C   UNL     1      14.663  27.019  49.202  1.00  0.00     0.007 C 
ATOM     17  C   UNL     1      13.167  25.623  50.725  1.00  0.00     0.012 C 
ATOM     18  C   UNL     1      16.003  26.272  51.801  1.00  0.00     0.000 C 
ATOM     19  C   UNL     1      14.953  28.092  50.277  1.00  0.00     0.005 C 
ATOM     20  C   UNL     1      16.131  27.717  51.232  1.00  0.00     0.003 C 
ATOM     21  C   UNL     1      17.307  25.892  52.517  1.00  0.00     0.031 C 
ATOM     22  C   UNL     1      16.388  28.770  52.379  1.00  0.00    -0.008 C 
ATOM     23  C   UNL     1      17.781  26.954  53.469  1.00  0.00    -0.027 C 
ATOM     24  C   UNL     1      17.477  28.264  53.342  1.00  0.00    -0.065 C 
ATOM     25  C   UNL     1      16.874  30.108  51.736  1.00  0.00     0.014 C 
ATOM     26  C   UNL     1      15.097  29.036  53.202  1.00  0.00     0.016 C 
ATOM     27  C   UNL     1      18.115  29.248  54.306  1.00  0.00     0.063 C 
ATOM     28  C   UNL     1      17.425  31.122  52.750  1.00  0.00     0.033 C 
ATOM     29  C   UNL     1      18.574  30.512  53.567  1.00  0.00     0.118 C 
BRANCH  29  30
ATOM     30  O   UNL     1      19.093  31.456  54.469  1.00  0.00    -0.393 OA
ATOM     31  H   UNL     1      18.402  31.624  55.162  1.00  0.00     0.210 HD
ENDBRANCH  29  30
ENDBRANCH   1  11
TORSDOF 6
ENDMDL
MODEL 6
REMARK VINA RESULT:    -6.304      1.695      3.337
REMARK INTER + INTRA:          -9.328
REMARK INTER:                  -8.083
REMARK INTRA:                  -1.245
REMARK UNBOUND:                -0.998
REMARK SMILES CC[C@@H](C=C[C@@H](C)[C@@H]1CC[C@@H]2[C@H]3CC=C4C[C@H](O)CC[C@@]4(C)[C@@H]3CC[C@]21C)C(C)C
REMARK SMILES IDX 6 1 7 2 5 3 4 4 3 5 2 6 1 7 28 8 29 9 30 10 8 11 9 12 26 13
REMARK SMILES IDX 10 14 11 15 25 16 27 17 12 18 24 19 23 20 13 21 21 22 14 23
REMARK SMILES IDX 15 24 20 25 22 26 16 27 19 28 17 29 18 30
REMARK H PARENT 18 31
REMARK Flexibility Score: inf
ROOT
ATOM      1  C   UNL     1      13.762  19.751  47.989  1.00  0.00     0.012 C 
ATOM      2  C   UNL     1      13.497  18.439  48.734  1.00  0.00     0.012 C 
ENDROOT
BRANCH   1   3
ATOM      3  C   UNL     1      13.981  19.470  46.515  1.00  0.00    -0.028 C 
ATOM      4  C   UNL     1      14.919  20.116  45.804  1.00  0.00    -0.027 C 
BRANCH   4   5
ATOM      5  C   UNL     1      15.155  19.820  44.337  1.00  0.00     0.014 C 
BRANCH   5   6
ATOM      6  C   UNL     1      16.663  19.533  44.107  1.00  0.00     0.004 C 
ATOM      7  C   UNL     1      17.160  18.211  44.700  1.00  0.00     0.004 C 
ENDBRANCH   5   6
BRANCH   5   8
ATOM      8  C   UNL     1      14.566  20.954  43.445  1.00  0.00    -0.011 C 
ATOM      9  C   UNL     1      13.103  20.681  43.056  1.00  0.00     0.008 C 
ATOM     10  C   UNL     1      14.644  22.315  44.164  1.00  0.00     0.008 C 
ENDBRANCH   5   8
ENDBRANCH   4   5
ENDBRANCH   1   3
BRANCH   1  11
ATOM     11  C   UNL     1      14.864  20.633  48.673  1.00  0.00     0.002 C 
ATOM     12  C   UNL     1      15.764  19.845  49.662  1.00  0.00     0.005 C 
ATOM     13  C   UNL     1      14.494  21.939  49.440  1.00  0.00    -0.026 C 
ATOM     14  C   UNL     1      16.254  20.852  50.714  1.00  0.00     0.005 C 
ATOM     15  C   UNL     1      15.830  22.202  50.159  1.00  0.00    -0.001 C 
ATOM     16  C   UNL     1      14.217  23.180  48.555  1.00  0.00     0.007 C 
ATOM     17  C   UNL     1      13.308  21.698  50.421  1.00  0.00     0.012 C 
ATOM     18  C   UNL     1      15.796  23.415  51.116  1.00  0.00     0.000 C 
ATOM     19  C   UNL     1      14.164  24.475  49.399  1.00  0.00     0.005 C 
ATOM     20  C   UNL     1      15.424  24.687  50.297  1.00  0.00     0.003 C 
ATOM     21  C   UNL     1      17.170  23.617  51.770  1.00  0.00     0.031 C 
ATOM     22  C   UNL     1      15.347  25.967  51.218  1.00  0.00    -0.008 C 
ATOM     23  C   UNL     1      17.290  24.938  52.480  1.00  0.00    -0.027 C 
ATOM     24  C   UNL     1      16.567  26.031  52.156  1.00  0.00    -0.065 C 
ATOM     25  C   UNL     1      15.346  27.240  50.314  1.00  0.00     0.014 C 
ATOM     26  C   UNL     1      14.063  25.958  52.092  1.00  0.00     0.016 C 
ATOM     27  C   UNL     1      16.867  27.333  52.875  1.00  0.00     0.063 C 
ATOM     28  C   UNL     1      15.557  28.552  51.085  1.00  0.00     0.033 C 
ATOM     29  C   UNL     1      16.863  28.511  51.892  1.00  0.00     0.118 C 
BRANCH  29  30
ATOM     30  O   UNL     1      17.064  29.726  52.569  1.00  0.00    -0.393 OA
ATOM     31  H   UNL     1      16.193  30.202  52.600  1.00  0.00     0.210 HD
ENDBRANCH  29  30
ENDBRANCH   1  11
TORSDOF 6
ENDMDL
MODEL 7
REMARK VINA RESULT:    -6.282      3.363      5.224
REMARK INTER + INTRA:          -9.300
REMARK INTER:                  -8.255
REMARK INTRA:                  -1.045
REMARK UNBOUND:                -0.998
REMARK SMILES CC[C@@H](C=C[C@@H](C)[C@@H]1CC[C@@H]2[C@H]3CC=C4C[C@H](O)CC[C@@]4(C)[C@@H]3CC[C@]21C)C(C)C
REMARK SMILES IDX 6 1 7 2 5 3 4 4 3 5 2 6 1 7 28 8 29 9 30 10 8 11 9 12 26 13
REMARK SMILES IDX 10 14 11 15 25 16 27 17 12 18 24 19 23 20 13 21 21 22 14 23
REMARK SMILES IDX 15 24 20 25 22 26 16 27 19 28 17 29 18 30
REMARK H PARENT 18 31
REMARK Flexibility Score: inf
ROOT
ATOM      1  C   UNL     1      12.835  24.253  45.406  1.00  0.00     0.012 C 
ATOM      2  C   UNL     1      12.151  22.903  45.168  1.00  0.00     0.012 C 
ENDROOT
BRANCH   1   3
ATOM      3  C   UNL     1      13.485  24.733  44.123  1.00  0.00    -0.028 C 
ATOM      4  C   UNL     1      14.134  23.894  43.302  1.00  0.00    -0.027 C 
BRANCH   4   5
ATOM      5  C   UNL     1      14.764  24.367  42.008  1.00  0.00     0.014 C 
BRANCH   5   6
ATOM      6  C   UNL     1      13.653  24.604  40.952  1.00  0.00     0.004 C 
ATOM      7  C   UNL     1      13.835  25.867  40.102  1.00  0.00     0.004 C 
ENDBRANCH   5   6
BRANCH   5   8
ATOM      8  C   UNL     1      15.894  23.393  41.556  1.00  0.00    -0.011 C 
ATOM      9  C   UNL     1      17.118  24.145  41.005  1.00  0.00     0.008 C 
ATOM     10  C   UNL     1      16.345  22.496  42.725  1.00  0.00     0.008 C 
ENDBRANCH   5   8
ENDBRANCH   4   5
ENDBRANCH   1   3
BRANCH   1  11
ATOM     11  C   UNL     1      13.765  24.255  46.669  1.00  0.00     0.002 C 
ATOM     12  C   UNL     1      13.692  22.944  47.495  1.00  0.00     0.005 C 
ATOM     13  C   UNL     1      13.681  25.392  47.734  1.00  0.00    -0.026 C 
ATOM     14  C   UNL     1      14.028  23.316  48.948  1.00  0.00     0.005 C 
ATOM     15  C   UNL     1      14.517  24.753  48.858  1.00  0.00    -0.001 C 
ATOM     16  C   UNL     1      14.388  26.717  47.356  1.00  0.00     0.007 C 
ATOM     17  C   UNL     1      12.204  25.664  48.148  1.00  0.00     0.012 C 
ATOM     18  C   UNL     1      14.571  25.596  50.152  1.00  0.00     0.000 C 
ATOM     19  C   UNL     1      14.513  27.658  48.577  1.00  0.00     0.005 C 
ATOM     20  C   UNL     1      15.187  26.987  49.816  1.00  0.00     0.003 C 
ATOM     21  C   UNL     1      15.441  24.898  51.207  1.00  0.00     0.031 C 
ATOM     22  C   UNL     1      15.252  27.914  51.092  1.00  0.00    -0.008 C 
ATOM     23  C   UNL     1      15.774  25.789  52.372  1.00  0.00    -0.027 C 
ATOM     24  C   UNL     1      15.814  27.137  52.296  1.00  0.00    -0.065 C 
ATOM     25  C   UNL     1      16.198  29.120  50.791  1.00  0.00     0.014 C 
ATOM     26  C   UNL     1      13.845  28.450  51.474  1.00  0.00     0.016 C 
ATOM     27  C   UNL     1      16.276  27.913  53.515  1.00  0.00     0.063 C 
ATOM     28  C   UNL     1      16.571  29.944  52.033  1.00  0.00     0.033 C 
ATOM     29  C   UNL     1      17.215  29.056  53.108  1.00  0.00     0.118 C 
BRANCH  29  30
ATOM     30  O   UNL     1      17.581  29.823  54.227  1.00  0.00    -0.393 OA
ATOM     31  H   UNL     1      16.812  30.407  54.459  1.00  0.00     0.210 HD
ENDBRANCH  29  30
ENDBRANCH   1  11
TORSDOF 6
ENDMDL
MODEL 8
REMARK VINA RESULT:    -6.259      3.719      9.206
REMARK INTER + INTRA:          -9.269
REMARK INTER:                  -8.099
REMARK INTRA:                  -1.170
REMARK UNBOUND:                -0.998
REMARK SMILES CC[C@@H](C=C[C@@H](C)[C@@H]1CC[C@@H]2[C@H]3CC=C4C[C@H](O)CC[C@@]4(C)[C@@H]3CC[C@]21C)C(C)C
REMARK SMILES IDX 6 1 7 2 5 3 4 4 3 5 2 6 1 7 28 8 29 9 30 10 8 11 9 12 26 13
REMARK SMILES IDX 10 14 11 15 25 16 27 17 12 18 24 19 23 20 13 21 21 22 14 23
REMARK SMILES IDX 15 24 20 25 22 26 16 27 19 28 17 29 18 30
REMARK H PARENT 18 31
REMARK Flexibility Score: inf
ROOT
ATOM      1  C   UNL     1      16.076  28.105  52.554  1.00  0.00     0.012 C 
ATOM      2  C   UNL     1      16.552  29.552  52.710  1.00  0.00     0.012 C 
ENDROOT
BRANCH   1   3
ATOM      3  C   UNL     1      16.826  27.209  53.521  1.00  0.00    -0.028 C 
ATOM      4  C   UNL     1      18.076  26.789  53.271  1.00  0.00    -0.027 C 
BRANCH   4   5
ATOM      5  C   UNL     1      18.836  25.914  54.246  1.00  0.00     0.014 C 
BRANCH   5   6
ATOM      6  C   UNL     1      19.975  26.741  54.899  1.00  0.00     0.004 C 
ATOM      7  C   UNL     1      19.644  28.220  55.125  1.00  0.00     0.004 C 
ENDBRANCH   5   6
BRANCH   5   8
ATOM      8  C   UNL     1      19.302  24.596  53.556  1.00  0.00    -0.011 C 
ATOM      9  C   UNL     1      19.519  23.459  54.570  1.00  0.00     0.008 C 
ATOM     10  C   UNL     1      18.276  24.135  52.503  1.00  0.00     0.008 C 
ENDBRANCH   5   8
ENDBRANCH   4   5
ENDBRANCH   1   3
BRANCH   1  11
ATOM     11  C   UNL     1      16.066  27.619  51.063  1.00  0.00     0.002 C 
ATOM     12  C   UNL     1      16.023  28.778  50.033  1.00  0.00     0.005 C 
ATOM     13  C   UNL     1      14.999  26.603  50.550  1.00  0.00    -0.026 C 
ATOM     14  C   UNL     1      15.330  28.229  48.776  1.00  0.00     0.005 C 
ATOM     15  C   UNL     1      15.228  26.735  49.033  1.00  0.00    -0.001 C 
ATOM     16  C   UNL     1      15.261  25.118  50.908  1.00  0.00     0.007 C 
ATOM     17  C   UNL     1      13.566  27.022  50.992  1.00  0.00     0.012 C 
ATOM     18  C   UNL     1      14.243  25.905  48.179  1.00  0.00     0.000 C 
ATOM     19  C   UNL     1      14.335  24.173  50.110  1.00  0.00     0.005 C 
ATOM     20  C   UNL     1      14.389  24.403  48.565  1.00  0.00     0.003 C 
ATOM     21  C   UNL     1      14.556  26.076  46.685  1.00  0.00     0.031 C 
ATOM     22  C   UNL     1      13.392  23.494  47.745  1.00  0.00    -0.008 C 
ATOM     23  C   UNL     1      13.834  25.082  45.819  1.00  0.00    -0.027 C 
ATOM     24  C   UNL     1      13.421  23.871  46.253  1.00  0.00    -0.065 C 
ATOM     25  C   UNL     1      13.833  22.003  47.891  1.00  0.00     0.014 C 
ATOM     26  C   UNL     1      11.934  23.650  48.258  1.00  0.00     0.016 C 
ATOM     27  C   UNL     1      12.807  22.916  45.246  1.00  0.00     0.063 C 
ATOM     28  C   UNL     1      13.121  21.046  46.922  1.00  0.00     0.033 C 
ATOM     29  C   UNL     1      13.324  21.489  45.466  1.00  0.00     0.118 C 
BRANCH  29  30
ATOM     30  O   UNL     1      12.697  20.591  44.585  1.00  0.00    -0.393 OA
ATOM     31  H   UNL     1      11.761  20.898  44.455  1.00  0.00     0.210 HD
ENDBRANCH  29  30
ENDBRANCH   1  11
TORSDOF 6
ENDMDL
MODEL 9
REMARK VINA RESULT:    -6.183      3.600      5.713
REMARK INTER + INTRA:          -9.168
REMARK INTER:                  -8.198
REMARK INTRA:                  -0.970
REMARK UNBOUND:                -0.998
REMARK SMILES CC[C@@H](C=C[C@@H](C)[C@@H]1CC[C@@H]2[C@H]3CC=C4C[C@H](O)CC[C@@]4(C)[C@@H]3CC[C@]21C)C(C)C
REMARK SMILES IDX 6 1 7 2 5 3 4 4 3 5 2 6 1 7 28 8 29 9 30 10 8 11 9 12 26 13
REMARK SMILES IDX 10 14 11 15 25 16 27 17 12 18 24 19 23 20 13 21 21 22 14 23
REMARK SMILES IDX 15 24 20 25 22 26 16 27 19 28 17 29 18 30
REMARK H PARENT 18 31
REMARK Flexibility Score: inf
ROOT
ATOM      1  C   UNL     1      13.759  23.771  44.916  1.00  0.00     0.012 C 
ATOM      2  C   UNL     1      13.250  24.086  43.506  1.00  0.00     0.012 C 
ENDROOT
BRANCH   1   3
ATOM      3  C   UNL     1      13.808  22.269  45.121  1.00  0.00    -0.028 C 
ATOM      4  C   UNL     1      14.266  21.440  44.169  1.00  0.00    -0.027 C 
BRANCH   4   5
ATOM      5  C   UNL     1      14.338  19.942  44.380  1.00  0.00     0.014 C 
BRANCH   5   6
ATOM      6  C   UNL     1      13.993  19.614  45.857  1.00  0.00     0.004 C 
ATOM      7  C   UNL     1      12.843  18.617  46.040  1.00  0.00     0.004 C 
ENDBRANCH   5   6
BRANCH   5   8
ATOM      8  C   UNL     1      15.708  19.382  43.892  1.00  0.00    -0.011 C 
ATOM      9  C   UNL     1      16.803  20.462  43.882  1.00  0.00     0.008 C 
ATOM     10  C   UNL     1      16.171  18.212  44.783  1.00  0.00     0.008 C 
ENDBRANCH   5   8
ENDBRANCH   4   5
ENDBRANCH   1   3
BRANCH   1  11
ATOM     11  C   UNL     1      13.008  24.574  46.033  1.00  0.00     0.002 C 
ATOM     12  C   UNL     1      11.985  25.601  45.478  1.00  0.00     0.005 C 
ATOM     13  C   UNL     1      13.790  25.359  47.131  1.00  0.00    -0.026 C 
ATOM     14  C   UNL     1      11.878  26.727  46.519  1.00  0.00     0.005 C 
ATOM     15  C   UNL     1      12.638  26.193  47.722  1.00  0.00    -0.001 C 
ATOM     16  C   UNL     1      14.356  24.502  48.292  1.00  0.00     0.007 C 
ATOM     17  C   UNL     1      14.917  26.231  46.502  1.00  0.00     0.012 C 
ATOM     18  C   UNL     1      13.085  27.189  48.814  1.00  0.00     0.000 C 
ATOM     19  C   UNL     1      14.838  25.388  49.464  1.00  0.00     0.005 C 
ATOM     20  C   UNL     1      13.755  26.393  49.974  1.00  0.00     0.003 C 
ATOM     21  C   UNL     1      11.875  27.959  49.362  1.00  0.00     0.031 C 
ATOM     22  C   UNL     1      14.260  27.353  51.120  1.00  0.00    -0.008 C 
ATOM     23  C   UNL     1      12.190  28.727  50.616  1.00  0.00    -0.027 C 
ATOM     24  C   UNL     1      13.176  28.388  51.475  1.00  0.00    -0.065 C 
ATOM     25  C   UNL     1      14.571  26.501  52.392  1.00  0.00     0.014 C 
ATOM     26  C   UNL     1      15.542  28.120  50.692  1.00  0.00     0.016 C 
ATOM     27  C   UNL     1      13.314  29.178  52.762  1.00  0.00     0.063 C 
ATOM     28  C   UNL     1      14.801  27.337  53.660  1.00  0.00     0.033 C 
ATOM     29  C   UNL     1      13.594  28.244  53.946  1.00  0.00     0.118 C 
BRANCH  29  30
ATOM     30  O   UNL     1      13.800  28.981  55.125  1.00  0.00    -0.393 OA
ATOM     31  H   UNL     1      13.019  28.827  55.719  1.00  0.00     0.210 HD
ENDBRANCH  29  30
ENDBRANCH   1  11
TORSDOF 6
ENDMDL
