MODEL 1
REMARK VINA RESULT:    -5.361      0.000      0.000
REMARK INTER + INTRA:          -5.831
REMARK INTER:                  -5.831
REMARK INTRA:                   0.000
REMARK UNBOUND:                 0.000
REMARK SMILES Cc1cc(O)c2c(c1)C(=O)c1cc(O)cc(O)c1C2=O
REMARK SMILES IDX 1 1 2 2 8 3 7 4 6 5 4 6 3 7 19 8 20 9 18 10 11 11 9 12 10 13
REMARK SMILES IDX 12 14 13 15 15 16 16 17 5 18 17 20 14 22
REMARK H PARENT 5 19 17 21 14 23
REMARK Flexibility Score: inf
ROOT
ATOM      1  C   UNL     1       2.397 -14.969   6.233  1.00  0.00     0.044 C 
ATOM      2  C   UNL     1       1.580 -13.744   5.945  1.00  0.00    -0.047 A 
ATOM      3  C   UNL     1       0.274 -13.637   6.438  1.00  0.00     0.016 A 
ATOM      4  C   UNL     1      -0.484 -12.475   6.212  1.00  0.00     0.038 A 
ATOM      5  C   UNL     1       0.082 -11.392   5.504  1.00  0.00     0.076 A 
ATOM      6  C   UNL     1       1.389 -11.525   4.967  1.00  0.00     0.127 A 
ATOM      7  C   UNL     1       2.132 -12.681   5.222  1.00  0.00     0.050 A 
ATOM      8  C   UNL     1      -0.696 -10.129   5.414  1.00  0.00     0.201 C 
ATOM      9  O   UNL     1      -0.092  -9.025   5.337  1.00  0.00    -0.288 OA
ATOM     10  C   UNL     1      -2.169 -10.155   5.604  1.00  0.00     0.076 A 
ATOM     11  C   UNL     1      -2.731 -11.241   6.313  1.00  0.00     0.041 A 
ATOM     12  C   UNL     1      -1.877 -12.384   6.711  1.00  0.00     0.194 C 
ATOM     13  O   UNL     1      -2.343 -13.292   7.453  1.00  0.00    -0.289 OA
ATOM     14  C   UNL     1      -4.100 -11.233   6.633  1.00  0.00     0.059 A 
ATOM     15  C   UNL     1      -4.913 -10.167   6.242  1.00  0.00     0.120 A 
ATOM     16  C   UNL     1      -4.370  -9.113   5.507  1.00  0.00     0.093 A 
ATOM     17  C   UNL     1      -3.016  -9.107   5.159  1.00  0.00     0.131 A 
ENDROOT
BRANCH   6  18
ATOM     18  O   UNL     1       1.974 -10.551   4.153  1.00  0.00    -0.507 OA
ATOM     19  H   UNL     1       2.534 -10.766   3.340  1.00  0.00     0.293 HD
ENDBRANCH   6  18
BRANCH  17  20
ATOM     20  O   UNL     1      -2.565  -8.065   4.345  1.00  0.00    -0.507 OA
ATOM     21  H   UNL     1      -2.459  -8.145   3.343  1.00  0.00     0.293 HD
ENDBRANCH  17  20
BRANCH  15  22
ATOM     22  O   UNL     1      -6.268 -10.149   6.568  1.00  0.00    -0.508 OA
ATOM     23  H   UNL     1      -6.964 -10.569   5.964  1.00  0.00     0.293 HD
ENDBRANCH  15  22
TORSDOF 3
ENDMDL
MODEL 2
REMARK VINA RESULT:    -5.249     12.058     14.223
REMARK INTER + INTRA:          -5.709
REMARK INTER:                  -5.709
REMARK INTRA:                   0.000
REMARK UNBOUND:                 0.000
REMARK SMILES Cc1cc(O)c2c(c1)C(=O)c1cc(O)cc(O)c1C2=O
REMARK SMILES IDX 1 1 2 2 8 3 7 4 6 5 4 6 3 7 19 8 20 9 18 10 11 11 9 12 10 13
REMARK SMILES IDX 12 14 13 15 15 16 16 17 5 18 17 20 14 22
REMARK H PARENT 5 19 17 21 14 23
REMARK Flexibility Score: inf
ROOT
ATOM      1  C   UNL     1     -15.559  -8.141  -0.096  1.00  0.00     0.044 C 
ATOM      2  C   UNL     1     -15.170  -9.462   0.498  1.00  0.00    -0.047 A 
ATOM      3  C   UNL     1     -14.905  -9.567   1.868  1.00  0.00     0.016 A 
ATOM      4  C   UNL     1     -14.583 -10.809   2.443  1.00  0.00     0.038 A 
ATOM      5  C   UNL     1     -14.552 -11.969   1.638  1.00  0.00     0.076 A 
ATOM      6  C   UNL     1     -14.777 -11.849   0.242  1.00  0.00     0.127 A 
ATOM      7  C   UNL     1     -15.115 -10.607  -0.303  1.00  0.00     0.050 A 
ATOM      8  C   UNL     1     -14.354 -13.282   2.307  1.00  0.00     0.201 C 
ATOM      9  O   UNL     1     -14.863 -14.322   1.809  1.00  0.00    -0.288 OA
ATOM     10  C   UNL     1     -13.722 -13.337   3.650  1.00  0.00     0.076 A 
ATOM     11  C   UNL     1     -13.756 -12.174   4.452  1.00  0.00     0.041 A 
ATOM     12  C   UNL     1     -14.273 -10.904   3.889  1.00  0.00     0.194 C 
ATOM     13  O   UNL     1     -14.425  -9.899   4.636  1.00  0.00    -0.289 OA
ATOM     14  C   UNL     1     -13.293 -12.225   5.778  1.00  0.00     0.059 A 
ATOM     15  C   UNL     1     -12.787 -13.415   6.307  1.00  0.00     0.120 A 
ATOM     16  C   UNL     1     -12.715 -14.554   5.506  1.00  0.00     0.093 A 
ATOM     17  C   UNL     1     -13.149 -14.524   4.177  1.00  0.00     0.131 A 
ENDROOT
BRANCH   6  18
ATOM     18  O   UNL     1     -14.644 -12.925  -0.640  1.00  0.00    -0.507 OA
ATOM     19  H   UNL     1     -14.160 -12.864  -1.525  1.00  0.00     0.293 HD
ENDBRANCH   6  18
BRANCH  17  20
ATOM     20  O   UNL     1     -12.962 -15.677   3.411  1.00  0.00    -0.507 OA
ATOM     21  H   UNL     1     -12.111 -15.878   2.903  1.00  0.00     0.293 HD
ENDBRANCH  17  20
BRANCH  15  22
ATOM     22  O   UNL     1     -12.339 -13.473   7.625  1.00  0.00    -0.508 OA
ATOM     23  H   UNL     1     -11.386 -13.236   7.871  1.00  0.00     0.293 HD
ENDBRANCH  15  22
TORSDOF 3
ENDMDL
MODEL 3
REMARK VINA RESULT:    -5.234     11.879     13.968
REMARK INTER + INTRA:          -5.693
REMARK INTER:                  -5.693
REMARK INTRA:                   0.000
REMARK UNBOUND:                 0.000
REMARK SMILES Cc1cc(O)c2c(c1)C(=O)c1cc(O)cc(O)c1C2=O
REMARK SMILES IDX 1 1 2 2 8 3 7 4 6 5 4 6 3 7 19 8 20 9 18 10 11 11 9 12 10 13
REMARK SMILES IDX 12 14 13 15 15 16 16 17 5 18 17 20 14 22
REMARK H PARENT 5 19 17 21 14 23
REMARK Flexibility Score: inf
ROOT
ATOM      1  C   UNL     1     -15.923 -13.383  -1.457  1.00  0.00     0.044 C 
ATOM      2  C   UNL     1     -15.545 -12.859  -0.103  1.00  0.00    -0.047 A 
ATOM      3  C   UNL     1     -14.757 -13.632   0.756  1.00  0.00     0.016 A 
ATOM      4  C   UNL     1     -14.359 -13.133   2.009  1.00  0.00     0.038 A 
ATOM      5  C   UNL     1     -14.735 -11.828   2.396  1.00  0.00     0.076 A 
ATOM      6  C   UNL     1     -15.573 -11.066   1.541  1.00  0.00     0.127 A 
ATOM      7  C   UNL     1     -15.938 -11.576   0.292  1.00  0.00     0.050 A 
ATOM      8  C   UNL     1     -14.173 -11.282   3.660  1.00  0.00     0.201 C 
ATOM      9  O   UNL     1     -13.981 -10.042   3.776  1.00  0.00    -0.288 OA
ATOM     10  C   UNL     1     -13.667 -12.211   4.703  1.00  0.00     0.076 A 
ATOM     11  C   UNL     1     -13.292 -13.515   4.310  1.00  0.00     0.041 A 
ATOM     12  C   UNL     1     -13.550 -13.972   2.924  1.00  0.00     0.194 C 
ATOM     13  O   UNL     1     -13.104 -15.085   2.533  1.00  0.00    -0.289 OA
ATOM     14  C   UNL     1     -12.681 -14.377   5.238  1.00  0.00     0.059 A 
ATOM     15  C   UNL     1     -12.453 -13.957   6.551  1.00  0.00     0.120 A 
ATOM     16  C   UNL     1     -12.859 -12.685   6.953  1.00  0.00     0.093 A 
ATOM     17  C   UNL     1     -13.488 -11.817   6.055  1.00  0.00     0.131 A 
ENDROOT
BRANCH   6  18
ATOM     18  O   UNL     1     -16.088  -9.819   1.903  1.00  0.00    -0.507 OA
ATOM     19  H   UNL     1     -16.110  -9.022   1.282  1.00  0.00     0.293 HD
ENDBRANCH   6  18
BRANCH  17  20
ATOM     20  O   UNL     1     -13.947 -10.595   6.553  1.00  0.00    -0.507 OA
ATOM     21  H   UNL     1     -14.764 -10.504   7.141  1.00  0.00     0.293 HD
ENDBRANCH  17  20
BRANCH  15  22
ATOM     22  O   UNL     1     -11.836 -14.803   7.470  1.00  0.00    -0.508 OA
ATOM     23  H   UNL     1     -11.875 -15.811   7.372  1.00  0.00     0.293 HD
ENDBRANCH  15  22
TORSDOF 3
ENDMDL
MODEL 4
REMARK VINA RESULT:    -5.136     12.137     13.741
REMARK INTER + INTRA:          -5.586
REMARK INTER:                  -5.586
REMARK INTRA:                   0.000
REMARK UNBOUND:                 0.000
REMARK SMILES Cc1cc(O)c2c(c1)C(=O)c1cc(O)cc(O)c1C2=O
REMARK SMILES IDX 1 1 2 2 8 3 7 4 6 5 4 6 3 7 19 8 20 9 18 10 11 11 9 12 10 13
REMARK SMILES IDX 12 14 13 15 15 16 16 17 5 18 17 20 14 22
REMARK H PARENT 5 19 17 21 14 23
REMARK Flexibility Score: inf
ROOT
ATOM      1  C   UNL     1     -15.323 -11.827  -0.792  1.00  0.00     0.044 C 
ATOM      2  C   UNL     1     -14.758 -12.386   0.480  1.00  0.00    -0.047 A 
ATOM      3  C   UNL     1     -15.157 -11.867   1.717  1.00  0.00     0.016 A 
ATOM      4  C   UNL     1     -14.668 -12.413   2.916  1.00  0.00     0.038 A 
ATOM      5  C   UNL     1     -13.784 -13.514   2.878  1.00  0.00     0.076 A 
ATOM      6  C   UNL     1     -13.346 -14.006   1.621  1.00  0.00     0.127 A 
ATOM      7  C   UNL     1     -13.862 -13.460   0.442  1.00  0.00     0.050 A 
ATOM      8  C   UNL     1     -13.406 -14.155   4.164  1.00  0.00     0.201 C 
ATOM      9  O   UNL     1     -13.138 -15.386   4.196  1.00  0.00    -0.288 OA
ATOM     10  C   UNL     1     -13.529 -13.392   5.433  1.00  0.00     0.076 A 
ATOM     11  C   UNL     1     -14.415 -12.292   5.466  1.00  0.00     0.041 A 
ATOM     12  C   UNL     1     -15.073 -11.836   4.220  1.00  0.00     0.194 C 
ATOM     13  O   UNL     1     -15.960 -10.939   4.266  1.00  0.00    -0.289 OA
ATOM     14  C   UNL     1     -14.663 -11.630   6.682  1.00  0.00     0.059 A 
ATOM     15  C   UNL     1     -14.029 -12.044   7.856  1.00  0.00     0.120 A 
ATOM     16  C   UNL     1     -13.123 -13.104   7.819  1.00  0.00     0.093 A 
ATOM     17  C   UNL     1     -12.844 -13.764   6.618  1.00  0.00     0.131 A 
ENDROOT
BRANCH   6  18
ATOM     18  O   UNL     1     -12.381 -15.009   1.497  1.00  0.00    -0.507 OA
ATOM     19  H   UNL     1     -11.706 -15.227   2.217  1.00  0.00     0.293 HD
ENDBRANCH   6  18
BRANCH  17  20
ATOM     20  O   UNL     1     -11.859 -14.755   6.643  1.00  0.00    -0.507 OA
ATOM     21  H   UNL     1     -11.961 -15.655   6.193  1.00  0.00     0.293 HD
ENDBRANCH  17  20
BRANCH  15  22
ATOM     22  O   UNL     1     -14.281 -11.399   9.065  1.00  0.00    -0.508 OA
ATOM     23  H   UNL     1     -14.996 -11.729   9.702  1.00  0.00     0.293 HD
ENDBRANCH  15  22
TORSDOF 3
ENDMDL
MODEL 5
REMARK VINA RESULT:    -5.118     11.353     13.051
REMARK INTER + INTRA:          -5.566
REMARK INTER:                  -5.566
REMARK INTRA:                   0.000
REMARK UNBOUND:                 0.000
REMARK SMILES Cc1cc(O)c2c(c1)C(=O)c1cc(O)cc(O)c1C2=O
REMARK SMILES IDX 1 1 2 2 8 3 7 4 6 5 4 6 3 7 19 8 20 9 18 10 11 11 9 12 10 13
REMARK SMILES IDX 12 14 13 15 15 16 16 17 5 18 17 20 14 22
REMARK H PARENT 5 19 17 21 14 23
REMARK Flexibility Score: inf
ROOT
ATOM      1  C   UNL     1     -11.273 -14.511   8.248  1.00  0.00     0.044 C 
ATOM      2  C   UNL     1     -11.967 -13.678   7.212  1.00  0.00    -0.047 A 
ATOM      3  C   UNL     1     -12.362 -14.250   5.997  1.00  0.00     0.016 A 
ATOM      4  C   UNL     1     -13.053 -13.489   5.038  1.00  0.00     0.038 A 
ATOM      5  C   UNL     1     -13.377 -12.142   5.309  1.00  0.00     0.076 A 
ATOM      6  C   UNL     1     -12.933 -11.554   6.522  1.00  0.00     0.127 A 
ATOM      7  C   UNL     1     -12.266 -12.335   7.469  1.00  0.00     0.050 A 
ATOM      8  C   UNL     1     -14.234 -11.416   4.335  1.00  0.00     0.201 C 
ATOM      9  O   UNL     1     -15.001 -10.500   4.736  1.00  0.00    -0.288 OA
ATOM     10  C   UNL     1     -14.324 -11.895   2.932  1.00  0.00     0.076 A 
ATOM     11  C   UNL     1     -14.000 -13.245   2.666  1.00  0.00     0.041 A 
ATOM     12  C   UNL     1     -13.440 -14.096   3.742  1.00  0.00     0.194 C 
ATOM     13  O   UNL     1     -13.269 -15.331   3.546  1.00  0.00    -0.289 OA
ATOM     14  C   UNL     1     -14.204 -13.772   1.378  1.00  0.00     0.059 A 
ATOM     15  C   UNL     1     -14.713 -12.968   0.356  1.00  0.00     0.120 A 
ATOM     16  C   UNL     1     -14.996 -11.626   0.604  1.00  0.00     0.093 A 
ATOM     17  C   UNL     1     -14.781 -11.072   1.871  1.00  0.00     0.131 A 
ENDROOT
BRANCH   6  18
ATOM     18  O   UNL     1     -13.105 -10.198   6.812  1.00  0.00    -0.507 OA
ATOM     19  H   UNL     1     -13.976  -9.802   7.136  1.00  0.00     0.293 HD
ENDBRANCH   6  18
BRANCH  17  20
ATOM     20  O   UNL     1     -15.002  -9.700   2.020  1.00  0.00    -0.507 OA
ATOM     21  H   UNL     1     -15.343  -9.279   2.873  1.00  0.00     0.293 HD
ENDBRANCH  17  20
BRANCH  15  22
ATOM     22  O   UNL     1     -14.928 -13.490  -0.918  1.00  0.00    -0.508 OA
ATOM     23  H   UNL     1     -15.134 -14.472  -1.060  1.00  0.00     0.293 HD
ENDBRANCH  15  22
TORSDOF 3
ENDMDL
MODEL 6
REMARK VINA RESULT:    -4.904     10.711     12.816
REMARK INTER + INTRA:          -5.334
REMARK INTER:                  -5.334
REMARK INTRA:                   0.000
REMARK UNBOUND:                 0.000
REMARK SMILES Cc1cc(O)c2c(c1)C(=O)c1cc(O)cc(O)c1C2=O
REMARK SMILES IDX 1 1 2 2 8 3 7 4 6 5 4 6 3 7 19 8 20 9 18 10 11 11 9 12 10 13
REMARK SMILES IDX 12 14 13 15 15 16 16 17 5 18 17 20 14 22
REMARK H PARENT 5 19 17 21 14 23
REMARK Flexibility Score: inf
ROOT
ATOM      1  C   UNL     1     -15.389 -13.131   0.382  1.00  0.00     0.044 C 
ATOM      2  C   UNL     1     -14.645 -13.138   1.684  1.00  0.00    -0.047 A 
ATOM      3  C   UNL     1     -14.593 -11.982   2.472  1.00  0.00     0.016 A 
ATOM      4  C   UNL     1     -13.937 -11.991   3.715  1.00  0.00     0.038 A 
ATOM      5  C   UNL     1     -13.345 -13.182   4.190  1.00  0.00     0.076 A 
ATOM      6  C   UNL     1     -13.360 -14.337   3.366  1.00  0.00     0.127 A 
ATOM      7  C   UNL     1     -14.036 -14.311   2.143  1.00  0.00     0.050 A 
ATOM      8  C   UNL     1     -12.791 -13.189   5.569  1.00  0.00     0.201 C 
ATOM      9  O   UNL     1     -12.788 -14.257   6.238  1.00  0.00    -0.288 OA
ATOM     10  C   UNL     1     -12.418 -11.907   6.221  1.00  0.00     0.076 A 
ATOM     11  C   UNL     1     -13.014 -10.718   5.743  1.00  0.00     0.041 A 
ATOM     12  C   UNL     1     -13.861 -10.753   4.528  1.00  0.00     0.194 C 
ATOM     13  O   UNL     1     -14.497  -9.723   4.171  1.00  0.00    -0.289 OA
ATOM     14  C   UNL     1     -12.795  -9.505   6.420  1.00  0.00     0.059 A 
ATOM     15  C   UNL     1     -11.981  -9.464   7.554  1.00  0.00     0.120 A 
ATOM     16  C   UNL     1     -11.359 -10.628   8.005  1.00  0.00     0.093 A 
ATOM     17  C   UNL     1     -11.544 -11.843   7.337  1.00  0.00     0.131 A 
ENDROOT
BRANCH   6  18
ATOM     18  O   UNL     1     -12.692 -15.517   3.708  1.00  0.00    -0.507 OA
ATOM     19  H   UNL     1     -11.690 -15.579   3.819  1.00  0.00     0.293 HD
ENDBRANCH   6  18
BRANCH  17  20
ATOM     20  O   UNL     1     -10.818 -12.946   7.793  1.00  0.00    -0.507 OA
ATOM     21  H   UNL     1     -11.026 -13.435   8.653  1.00  0.00     0.293 HD
ENDBRANCH  17  20
BRANCH  15  22
ATOM     22  O   UNL     1     -11.771  -8.267   8.235  1.00  0.00    -0.508 OA
ATOM     23  H   UNL     1     -12.511  -7.583   8.345  1.00  0.00     0.293 HD
ENDBRANCH  15  22
TORSDOF 3
ENDMDL
MODEL 7
REMARK VINA RESULT:    -4.833      1.544      3.427
REMARK INTER + INTRA:          -5.257
REMARK INTER:                  -5.257
REMARK INTRA:                   0.000
REMARK UNBOUND:                 0.000
REMARK SMILES Cc1cc(O)c2c(c1)C(=O)c1cc(O)cc(O)c1C2=O
REMARK SMILES IDX 1 1 2 2 8 3 7 4 6 5 4 6 3 7 19 8 20 9 18 10 11 11 9 12 10 13
REMARK SMILES IDX 12 14 13 15 15 16 16 17 5 18 17 20 14 22
REMARK H PARENT 5 19 17 21 14 23
REMARK Flexibility Score: inf
ROOT
ATOM      1  C   UNL     1       4.041 -10.112   4.438  1.00  0.00     0.044 C 
ATOM      2  C   UNL     1       2.816 -10.791   4.976  1.00  0.00    -0.047 A 
ATOM      3  C   UNL     1       1.578 -10.141   4.943  1.00  0.00     0.016 A 
ATOM      4  C   UNL     1       0.417 -10.786   5.403  1.00  0.00     0.038 A 
ATOM      5  C   UNL     1       0.492 -12.113   5.880  1.00  0.00     0.076 A 
ATOM      6  C   UNL     1       1.757 -12.751   5.954  1.00  0.00     0.127 A 
ATOM      7  C   UNL     1       2.895 -12.097   5.472  1.00  0.00     0.050 A 
ATOM      8  C   UNL     1      -0.777 -12.810   6.218  1.00  0.00     0.201 C 
ATOM      9  O   UNL     1      -0.859 -14.060   6.087  1.00  0.00    -0.288 OA
ATOM     10  C   UNL     1      -1.994 -12.016   6.527  1.00  0.00     0.076 A 
ATOM     11  C   UNL     1      -2.065 -10.689   6.047  1.00  0.00     0.041 A 
ATOM     12  C   UNL     1      -0.885 -10.077   5.393  1.00  0.00     0.194 C 
ATOM     13  O   UNL     1      -0.982  -8.942   4.850  1.00  0.00    -0.289 OA
ATOM     14  C   UNL     1      -3.253  -9.953   6.199  1.00  0.00     0.059 A 
ATOM     15  C   UNL     1      -4.362 -10.520   6.832  1.00  0.00     0.120 A 
ATOM     16  C   UNL     1      -4.282 -11.815   7.343  1.00  0.00     0.093 A 
ATOM     17  C   UNL     1      -3.105 -12.560   7.224  1.00  0.00     0.131 A 
ENDROOT
BRANCH   6  18
ATOM     18  O   UNL     1       1.934 -14.014   6.526  1.00  0.00    -0.507 OA
ATOM     19  H   UNL     1       2.819 -14.346   6.882  1.00  0.00     0.293 HD
ENDBRANCH   6  18
BRANCH  17  20
ATOM     20  O   UNL     1      -3.071 -13.814   7.838  1.00  0.00    -0.507 OA
ATOM     21  H   UNL     1      -2.795 -14.662   7.362  1.00  0.00     0.293 HD
ENDBRANCH  17  20
BRANCH  15  22
ATOM     22  O   UNL     1      -5.545  -9.798   6.973  1.00  0.00    -0.508 OA
ATOM     23  H   UNL     1      -5.569  -8.906   7.452  1.00  0.00     0.293 HD
ENDBRANCH  15  22
TORSDOF 3
ENDMDL
MODEL 8
REMARK VINA RESULT:    -4.818      1.841      2.535
REMARK INTER + INTRA:          -5.240
REMARK INTER:                  -5.240
REMARK INTRA:                   0.000
REMARK UNBOUND:                 0.000
REMARK SMILES Cc1cc(O)c2c(c1)C(=O)c1cc(O)cc(O)c1C2=O
REMARK SMILES IDX 1 1 2 2 8 3 7 4 6 5 4 6 3 7 19 8 20 9 18 10 11 11 9 12 10 13
REMARK SMILES IDX 12 14 13 15 15 16 16 17 5 18 17 20 14 22
REMARK H PARENT 5 19 17 21 14 23
REMARK Flexibility Score: inf
ROOT
ATOM      1  C   UNL     1      -0.965 -14.835   8.296  1.00  0.00     0.044 C 
ATOM      2  C   UNL     1      -1.370 -13.609   7.532  1.00  0.00    -0.047 A 
ATOM      3  C   UNL     1      -2.648 -13.063   7.701  1.00  0.00     0.016 A 
ATOM      4  C   UNL     1      -3.022 -11.890   7.024  1.00  0.00     0.038 A 
ATOM      5  C   UNL     1      -2.093 -11.236   6.184  1.00  0.00     0.076 A 
ATOM      6  C   UNL     1      -0.815 -11.819   5.980  1.00  0.00     0.127 A 
ATOM      7  C   UNL     1      -0.459 -12.975   6.680  1.00  0.00     0.050 A 
ATOM      8  C   UNL     1      -2.476  -9.922   5.603  1.00  0.00     0.201 C 
ATOM      9  O   UNL     1      -1.587  -9.062   5.360  1.00  0.00    -0.288 OA
ATOM     10  C   UNL     1      -3.911  -9.556   5.489  1.00  0.00     0.076 A 
ATOM     11  C   UNL     1      -4.836 -10.212   6.332  1.00  0.00     0.041 A 
ATOM     12  C   UNL     1      -4.388 -11.338   7.186  1.00  0.00     0.194 C 
ATOM     13  O   UNL     1      -5.177 -11.841   8.032  1.00  0.00    -0.289 OA
ATOM     14  C   UNL     1      -6.179  -9.798   6.352  1.00  0.00     0.059 A 
ATOM     15  C   UNL     1      -6.610  -8.751   5.534  1.00  0.00     0.120 A 
ATOM     16  C   UNL     1      -5.709  -8.128   4.672  1.00  0.00     0.093 A 
ATOM     17  C   UNL     1      -4.372  -8.536   4.618  1.00  0.00     0.131 A 
ENDROOT
BRANCH   6  18
ATOM     18  O   UNL     1       0.114 -11.303   5.072  1.00  0.00    -0.507 OA
ATOM     19  H   UNL     1      -0.140 -10.906   4.179  1.00  0.00     0.293 HD
ENDBRANCH   6  18
BRANCH  17  20
ATOM     20  O   UNL     1      -3.551  -7.927   3.666  1.00  0.00    -0.507 OA
ATOM     21  H   UNL     1      -3.471  -8.247   2.710  1.00  0.00     0.293 HD
ENDBRANCH  17  20
BRANCH  15  22
ATOM     22  O   UNL     1      -7.938  -8.329   5.561  1.00  0.00    -0.508 OA
ATOM     23  H   UNL     1      -8.319  -7.827   6.354  1.00  0.00     0.293 HD
ENDBRANCH  15  22
TORSDOF 3
ENDMDL
MODEL 9
REMARK VINA RESULT:    -4.351      2.138      4.310
REMARK INTER + INTRA:          -4.733
REMARK INTER:                  -4.733
REMARK INTRA:                   0.000
REMARK UNBOUND:                 0.000
REMARK SMILES Cc1cc(O)c2c(c1)C(=O)c1cc(O)cc(O)c1C2=O
REMARK SMILES IDX 1 1 2 2 8 3 7 4 6 5 4 6 3 7 19 8 20 9 18 10 11 11 9 12 10 13
REMARK SMILES IDX 12 14 13 15 15 16 16 17 5 18 17 20 14 22
REMARK H PARENT 5 19 17 21 14 23
REMARK Flexibility Score: inf
ROOT
ATOM      1  C   UNL     1       4.125  -8.993   4.093  1.00  0.00     0.044 C 
ATOM      2  C   UNL     1       3.353 -10.120   4.713  1.00  0.00    -0.047 A 
ATOM      3  C   UNL     1       1.968 -10.015   4.884  1.00  0.00     0.016 A 
ATOM      4  C   UNL     1       1.230 -11.083   5.423  1.00  0.00     0.038 A 
ATOM      5  C   UNL     1       1.884 -12.285   5.772  1.00  0.00     0.076 A 
ATOM      6  C   UNL     1       3.294 -12.368   5.640  1.00  0.00     0.127 A 
ATOM      7  C   UNL     1       4.005 -11.301   5.083  1.00  0.00     0.050 A 
ATOM      8  C   UNL     1       1.050 -13.439   6.199  1.00  0.00     0.201 C 
ATOM      9  O   UNL     1       1.444 -14.614   5.973  1.00  0.00    -0.288 OA
ATOM     10  C   UNL     1      -0.323 -13.205   6.718  1.00  0.00     0.076 A 
ATOM     11  C   UNL     1      -0.973 -12.001   6.365  1.00  0.00     0.041 A 
ATOM     12  C   UNL     1      -0.232 -10.950   5.629  1.00  0.00     0.194 C 
ATOM     13  O   UNL     1      -0.841  -9.931   5.201  1.00  0.00    -0.289 OA
ATOM     14  C   UNL     1      -2.319 -11.804   6.719  1.00  0.00     0.059 A 
ATOM     15  C   UNL     1      -3.016 -12.785   7.430  1.00  0.00     0.120 A 
ATOM     16  C   UNL     1      -2.365 -13.956   7.815  1.00  0.00     0.093 A 
ATOM     17  C   UNL     1      -1.020 -14.167   7.493  1.00  0.00     0.131 A 
ENDROOT
BRANCH   6  18
ATOM     18  O   UNL     1       4.030 -13.474   6.077  1.00  0.00    -0.507 OA
ATOM     19  H   UNL     1       3.748 -14.062   6.849  1.00  0.00     0.293 HD
ENDBRANCH   6  18
BRANCH  17  20
ATOM     20  O   UNL     1      -0.412 -15.323   7.990  1.00  0.00    -0.507 OA
ATOM     21  H   UNL     1       0.521 -15.615   7.737  1.00  0.00     0.293 HD
ENDBRANCH  17  20
BRANCH  15  22
ATOM     22  O   UNL     1      -4.353 -12.598   7.772  1.00  0.00    -0.508 OA
ATOM     23  H   UNL     1      -4.898 -13.336   8.204  1.00  0.00     0.293 HD
ENDBRANCH  15  22
TORSDOF 3
ENDMDL
