MODEL 1
REMARK VINA RESULT:    -2.692      0.000      0.000
REMARK INTER + INTRA:          -2.692
REMARK INTER:                  -2.692
REMARK INTRA:                   0.000
REMARK UNBOUND:                 0.000
REMARK SMILES CC(=O)[O-]
REMARK SMILES IDX 1 1 2 2 3 3 4 4
REMARK H PARENT
REMARK Flexibility Score: inf
ROOT
ATOM      1  C   UNL     1      46.389  -6.898   0.594  1.00  0.00     0.063 C 
ATOM      2  C   UNL     1      44.914  -6.864   0.381  1.00  0.00     0.038 C 
ATOM      3  O   UNL     1      44.403  -7.469  -0.598  1.00  0.00    -0.550 OA
ATOM      4  O   UNL     1      44.106  -6.121   1.231  1.00  0.00    -0.550 OA
ENDROOT
TORSDOF 0
ENDMDL
MODEL 2
REMARK VINA RESULT:    -2.619     16.625     16.933
REMARK INTER + INTRA:          -2.619
REMARK INTER:                  -2.619
REMARK INTRA:                   0.000
REMARK UNBOUND:                 0.000
REMARK SMILES CC(=O)[O-]
REMARK SMILES IDX 1 1 2 2 3 3 4 4
REMARK H PARENT
REMARK Flexibility Score: inf
ROOT
ATOM      1  C   UNL     1      59.573   1.405  -3.571  1.00  0.00     0.063 C 
ATOM      2  C   UNL     1      58.593   2.462  -3.190  1.00  0.00     0.038 C 
ATOM      3  O   UNL     1      58.766   3.650  -3.570  1.00  0.00    -0.550 OA
ATOM      4  O   UNL     1      57.517   2.150  -2.370  1.00  0.00    -0.550 OA
ENDROOT
TORSDOF 0
ENDMDL
MODEL 3
REMARK VINA RESULT:    -2.553      2.543      2.732
REMARK INTER + INTRA:          -2.553
REMARK INTER:                  -2.553
REMARK INTRA:                   0.000
REMARK UNBOUND:                 0.000
REMARK SMILES CC(=O)[O-]
REMARK SMILES IDX 1 1 2 2 3 3 4 4
REMARK H PARENT
REMARK Flexibility Score: inf
ROOT
ATOM      1  C   UNL     1      46.936  -8.431  -0.981  1.00  0.00     0.063 C 
ATOM      2  C   UNL     1      47.077  -7.244  -0.089  1.00  0.00     0.038 C 
ATOM      3  O   UNL     1      48.164  -6.612  -0.046  1.00  0.00    -0.550 OA
ATOM      4  O   UNL     1      46.026  -6.867   0.737  1.00  0.00    -0.550 OA
ENDROOT
TORSDOF 0
ENDMDL
MODEL 4
REMARK VINA RESULT:    -2.553      2.626      3.065
REMARK INTER + INTRA:          -2.553
REMARK INTER:                  -2.553
REMARK INTRA:                   0.000
REMARK UNBOUND:                 0.000
REMARK SMILES CC(=O)[O-]
REMARK SMILES IDX 1 1 2 2 3 3 4 4
REMARK H PARENT
REMARK Flexibility Score: inf
ROOT
ATOM      1  C   UNL     1      45.900  -6.851   0.568  1.00  0.00     0.063 C 
ATOM      2  C   UNL     1      47.010  -7.364  -0.285  1.00  0.00     0.038 C 
ATOM      3  O   UNL     1      48.004  -6.635  -0.535  1.00  0.00    -0.550 OA
ATOM      4  O   UNL     1      46.923  -8.629  -0.853  1.00  0.00    -0.550 OA
ENDROOT
TORSDOF 0
ENDMDL
MODEL 5
REMARK VINA RESULT:    -2.516     16.696     17.019
REMARK INTER + INTRA:          -2.516
REMARK INTER:                  -2.516
REMARK INTRA:                   0.000
REMARK UNBOUND:                 0.000
REMARK SMILES CC(=O)[O-]
REMARK SMILES IDX 1 1 2 2 3 3 4 4
REMARK H PARENT
REMARK Flexibility Score: inf
ROOT
ATOM      1  C   UNL     1      57.802   2.041  -2.004  1.00  0.00     0.063 C 
ATOM      2  C   UNL     1      58.735   2.345  -3.127  1.00  0.00     0.038 C 
ATOM      3  O   UNL     1      58.887   3.532  -3.519  1.00  0.00    -0.550 OA
ATOM      4  O   UNL     1      59.399   1.314  -3.779  1.00  0.00    -0.550 OA
ENDROOT
TORSDOF 0
ENDMDL
MODEL 6
REMARK VINA RESULT:    -2.434     13.616     14.122
REMARK INTER + INTRA:          -2.434
REMARK INTER:                  -2.434
REMARK INTRA:                   0.000
REMARK UNBOUND:                 0.000
REMARK SMILES CC(=O)[O-]
REMARK SMILES IDX 1 1 2 2 3 3 4 4
REMARK H PARENT
REMARK Flexibility Score: inf
ROOT
ATOM      1  C   UNL     1      51.446   2.898   8.856  1.00  0.00     0.063 C 
ATOM      2  C   UNL     1      49.982   3.179   8.882  1.00  0.00     0.038 C 
ATOM      3  O   UNL     1      49.566   4.366   8.842  1.00  0.00    -0.550 OA
ATOM      4  O   UNL     1      49.075   2.135   9.006  1.00  0.00    -0.550 OA
ENDROOT
TORSDOF 0
ENDMDL
MODEL 7
REMARK VINA RESULT:    -2.402     14.781     15.030
REMARK INTER + INTRA:          -2.402
REMARK INTER:                  -2.402
REMARK INTRA:                   0.000
REMARK UNBOUND:                 0.000
REMARK SMILES CC(=O)[O-]
REMARK SMILES IDX 1 1 2 2 3 3 4 4
REMARK H PARENT
REMARK Flexibility Score: inf
ROOT
ATOM      1  C   UNL     1      53.320   2.065   9.293  1.00  0.00     0.063 C 
ATOM      2  C   UNL     1      52.019   2.774   9.465  1.00  0.00     0.038 C 
ATOM      3  O   UNL     1      51.461   3.317   8.476  1.00  0.00    -0.550 OA
ATOM      4  O   UNL     1      51.448   2.883  10.725  1.00  0.00    -0.550 OA
ENDROOT
TORSDOF 0
ENDMDL
MODEL 8
REMARK VINA RESULT:    -2.395     16.450     16.724
REMARK INTER + INTRA:          -2.395
REMARK INTER:                  -2.395
REMARK INTRA:                   0.000
REMARK UNBOUND:                 0.000
REMARK SMILES CC(=O)[O-]
REMARK SMILES IDX 1 1 2 2 3 3 4 4
REMARK H PARENT
REMARK Flexibility Score: inf
ROOT
ATOM      1  C   UNL     1      58.611   3.387  -3.350  1.00  0.00     0.063 C 
ATOM      2  C   UNL     1      58.694   1.919  -3.104  1.00  0.00     0.038 C 
ATOM      3  O   UNL     1      59.431   1.197  -3.825  1.00  0.00    -0.550 OA
ATOM      4  O   UNL     1      57.916   1.335  -2.113  1.00  0.00    -0.550 OA
ENDROOT
TORSDOF 0
ENDMDL
MODEL 9
REMARK VINA RESULT:    -2.374     14.265     14.684
REMARK INTER + INTRA:          -2.374
REMARK INTER:                  -2.374
REMARK INTRA:                   0.000
REMARK UNBOUND:                 0.000
REMARK SMILES CC(=O)[O-]
REMARK SMILES IDX 1 1 2 2 3 3 4 4
REMARK H PARENT
REMARK Flexibility Score: inf
ROOT
ATOM      1  C   UNL     1      50.099   3.545   8.612  1.00  0.00     0.063 C 
ATOM      2  C   UNL     1      51.270   2.883   9.255  1.00  0.00     0.038 C 
ATOM      3  O   UNL     1      52.086   2.225   8.558  1.00  0.00    -0.550 OA
ATOM      4  O   UNL     1      51.433   2.946  10.633  1.00  0.00    -0.550 OA
ENDROOT
TORSDOF 0
ENDMDL
