MODEL 1
REMARK VINA RESULT:    -4.140      0.000      0.000
REMARK INTER + INTRA:          -4.481
REMARK INTER:                  -4.382
REMARK INTRA:                  -0.098
REMARK UNBOUND:                -0.098
REMARK SMILES C=C(C)[C@H]1CC=C(C)C(=O)C1
REMARK SMILES IDX 8 1 7 2 6 3 5 4 4 5 11 6 9 7 10 8 2 9 1 10 3 11
REMARK H PARENT
REMARK Flexibility Score: inf
ROOT
ATOM      1  C   UNL     1      28.590  44.707  87.806  1.00  0.00     0.048 C 
ATOM      2  C   UNL     1      28.900  45.056  86.377  1.00  0.00    -0.012 C 
ATOM      3  C   UNL     1      29.324  44.101  85.531  1.00  0.00    -0.019 C 
ATOM      4  C   UNL     1      29.665  44.398  84.096  1.00  0.00     0.036 C 
ATOM      5  C   UNL     1      28.783  45.532  83.539  1.00  0.00     0.025 C 
ATOM      6  C   UNL     1      28.889  46.779  84.435  1.00  0.00     0.089 C 
ATOM      7  C   UNL     1      28.621  46.424  85.872  1.00  0.00     0.158 C 
ATOM      8  O   UNL     1      28.190  47.313  86.655  1.00  0.00    -0.295 OA
ENDROOT
BRANCH   5   9
ATOM      9  C   UNL     1      29.135  45.853  82.093  1.00  0.00    -0.077 C 
ATOM     10  C   UNL     1      29.272  47.130  81.702  1.00  0.00     0.008 C 
ATOM     11  C   UNL     1      29.338  44.761  81.072  1.00  0.00     0.039 C 
ENDBRANCH   5   9
TORSDOF 1
ENDMDL
MODEL 2
REMARK VINA RESULT:    -4.120      2.029      4.681
REMARK INTER + INTRA:          -4.460
REMARK INTER:                  -4.364
REMARK INTRA:                  -0.096
REMARK UNBOUND:                -0.098
REMARK SMILES C=C(C)[C@H]1CC=C(C)C(=O)C1
REMARK SMILES IDX 8 1 7 2 6 3 5 4 4 5 11 6 9 7 10 8 2 9 1 10 3 11
REMARK H PARENT
REMARK Flexibility Score: inf
ROOT
ATOM      1  C   UNL     1      29.395  44.700  81.955  1.00  0.00     0.048 C 
ATOM      2  C   UNL     1      28.887  44.568  83.364  1.00  0.00    -0.012 C 
ATOM      3  C   UNL     1      29.757  44.505  84.386  1.00  0.00    -0.019 C 
ATOM      4  C   UNL     1      29.304  44.355  85.814  1.00  0.00     0.036 C 
ATOM      5  C   UNL     1      27.952  45.057  86.043  1.00  0.00     0.025 C 
ATOM      6  C   UNL     1      26.905  44.540  85.041  1.00  0.00     0.089 C 
ATOM      7  C   UNL     1      27.429  44.631  83.634  1.00  0.00     0.158 C 
ATOM      8  O   UNL     1      26.610  44.726  82.679  1.00  0.00    -0.295 OA
ENDROOT
BRANCH   5   9
ATOM      9  C   UNL     1      27.476  44.893  87.480  1.00  0.00    -0.077 C 
ATOM     10  C   UNL     1      28.361  44.919  88.490  1.00  0.00     0.008 C 
ATOM     11  C   UNL     1      26.016  44.701  87.808  1.00  0.00     0.039 C 
ENDBRANCH   5   9
TORSDOF 1
ENDMDL
MODEL 3
REMARK VINA RESULT:    -4.007     17.624     19.122
REMARK INTER + INTRA:          -4.340
REMARK INTER:                  -4.242
REMARK INTRA:                  -0.098
REMARK UNBOUND:                -0.098
REMARK SMILES C=C(C)[C@H]1CC=C(C)C(=O)C1
REMARK SMILES IDX 8 1 7 2 6 3 5 4 4 5 11 6 9 7 10 8 2 9 1 10 3 11
REMARK H PARENT
REMARK Flexibility Score: inf
ROOT
ATOM      1  C   UNL     1      29.974  33.915  71.762  1.00  0.00     0.048 C 
ATOM      2  C   UNL     1      29.477  32.670  72.443  1.00  0.00    -0.012 C 
ATOM      3  C   UNL     1      28.166  32.522  72.695  1.00  0.00    -0.019 C 
ATOM      4  C   UNL     1      27.617  31.305  73.390  1.00  0.00     0.036 C 
ATOM      5  C   UNL     1      28.444  30.051  73.047  1.00  0.00     0.025 C 
ATOM      6  C   UNL     1      29.930  30.287  73.370  1.00  0.00     0.089 C 
ATOM      7  C   UNL     1      30.417  31.555  72.725  1.00  0.00     0.158 C 
ATOM      8  O   UNL     1      31.644  31.677  72.458  1.00  0.00    -0.295 OA
ENDROOT
BRANCH   5   9
ATOM      9  C   UNL     1      27.907  28.818  73.761  1.00  0.00    -0.077 C 
ATOM     10  C   UNL     1      28.757  27.910  74.266  1.00  0.00     0.008 C 
ATOM     11  C   UNL     1      26.425  28.583  73.921  1.00  0.00     0.039 C 
ENDBRANCH   5   9
TORSDOF 1
ENDMDL
MODEL 4
REMARK VINA RESULT:    -3.891      2.234      4.905
REMARK INTER + INTRA:          -4.216
REMARK INTER:                  -4.118
REMARK INTRA:                  -0.099
REMARK UNBOUND:                -0.098
REMARK SMILES C=C(C)[C@H]1CC=C(C)C(=O)C1
REMARK SMILES IDX 8 1 7 2 6 3 5 4 4 5 11 6 9 7 10 8 2 9 1 10 3 11
REMARK H PARENT
REMARK Flexibility Score: inf
ROOT
ATOM      1  C   UNL     1      28.849  47.413  80.131  1.00  0.00     0.048 C 
ATOM      2  C   UNL     1      29.117  46.757  81.457  1.00  0.00    -0.012 C 
ATOM      3  C   UNL     1      29.078  47.486  82.585  1.00  0.00    -0.019 C 
ATOM      4  C   UNL     1      29.356  46.884  83.936  1.00  0.00     0.036 C 
ATOM      5  C   UNL     1      28.892  45.417  83.995  1.00  0.00     0.025 C 
ATOM      6  C   UNL     1      29.532  44.607  82.853  1.00  0.00     0.089 C 
ATOM      7  C   UNL     1      29.301  45.286  81.530  1.00  0.00     0.158 C 
ATOM      8  O   UNL     1      29.303  44.593  80.476  1.00  0.00    -0.295 OA
ENDROOT
BRANCH   5   9
ATOM      9  C   UNL     1      29.187  44.793  85.352  1.00  0.00    -0.077 C 
ATOM     10  C   UNL     1      30.024  43.748  85.445  1.00  0.00     0.008 C 
ATOM     11  C   UNL     1      28.556  45.324  86.617  1.00  0.00     0.039 C 
ENDBRANCH   5   9
TORSDOF 1
ENDMDL
MODEL 5
REMARK VINA RESULT:    -3.828     12.039     14.205
REMARK INTER + INTRA:          -4.150
REMARK INTER:                  -4.052
REMARK INTRA:                  -0.098
REMARK UNBOUND:                -0.098
REMARK SMILES C=C(C)[C@H]1CC=C(C)C(=O)C1
REMARK SMILES IDX 8 1 7 2 6 3 5 4 4 5 11 6 9 7 10 8 2 9 1 10 3 11
REMARK H PARENT
REMARK Flexibility Score: inf
ROOT
ATOM      1  C   UNL     1      29.574  35.945  71.907  1.00  0.00     0.048 C 
ATOM      2  C   UNL     1      30.290  37.176  72.390  1.00  0.00    -0.012 C 
ATOM      3  C   UNL     1      29.788  37.884  73.416  1.00  0.00    -0.019 C 
ATOM      4  C   UNL     1      30.455  39.133  73.927  1.00  0.00     0.036 C 
ATOM      5  C   UNL     1      31.985  39.047  73.774  1.00  0.00     0.025 C 
ATOM      6  C   UNL     1      32.359  38.742  72.313  1.00  0.00     0.089 C 
ATOM      7  C   UNL     1      31.610  37.536  71.815  1.00  0.00     0.158 C 
ATOM      8  O   UNL     1      32.101  36.853  70.875  1.00  0.00    -0.295 OA
ENDROOT
BRANCH   5   9
ATOM      9  C   UNL     1      32.666  40.315  74.270  1.00  0.00    -0.077 C 
ATOM     10  C   UNL     1      31.929  41.354  74.693  1.00  0.00     0.008 C 
ATOM     11  C   UNL     1      34.170  40.438  74.303  1.00  0.00     0.039 C 
ENDBRANCH   5   9
TORSDOF 1
ENDMDL
MODEL 6
REMARK VINA RESULT:    -3.821      2.616      4.811
REMARK INTER + INTRA:          -4.143
REMARK INTER:                  -4.055
REMARK INTRA:                  -0.088
REMARK UNBOUND:                -0.098
REMARK SMILES C=C(C)[C@H]1CC=C(C)C(=O)C1
REMARK SMILES IDX 8 1 7 2 6 3 5 4 4 5 11 6 9 7 10 8 2 9 1 10 3 11
REMARK H PARENT
REMARK Flexibility Score: inf
ROOT
ATOM      1  C   UNL     1      26.701  43.807  79.169  1.00  0.00     0.048 C 
ATOM      2  C   UNL     1      27.360  44.054  80.498  1.00  0.00    -0.012 C 
ATOM      3  C   UNL     1      28.700  44.105  80.581  1.00  0.00    -0.019 C 
ATOM      4  C   UNL     1      29.412  44.331  81.888  1.00  0.00     0.036 C 
ATOM      5  C   UNL     1      28.584  45.236  82.820  1.00  0.00     0.025 C 
ATOM      6  C   UNL     1      27.174  44.651  83.018  1.00  0.00     0.089 C 
ATOM      7  C   UNL     1      26.530  44.363  81.689  1.00  0.00     0.158 C 
ATOM      8  O   UNL     1      25.272  44.351  81.607  1.00  0.00    -0.295 OA
ENDROOT
BRANCH   5   9
ATOM      9  C   UNL     1      29.287  45.455  84.153  1.00  0.00    -0.077 C 
ATOM     10  C   UNL     1      29.416  46.695  84.651  1.00  0.00     0.008 C 
ATOM     11  C   UNL     1      29.852  44.299  84.944  1.00  0.00     0.039 C 
ENDBRANCH   5   9
TORSDOF 1
ENDMDL
MODEL 7
REMARK VINA RESULT:    -3.818     19.296     19.917
REMARK INTER + INTRA:          -4.140
REMARK INTER:                  -4.042
REMARK INTRA:                  -0.098
REMARK UNBOUND:                -0.098
REMARK SMILES C=C(C)[C@H]1CC=C(C)C(=O)C1
REMARK SMILES IDX 8 1 7 2 6 3 5 4 4 5 11 6 9 7 10 8 2 9 1 10 3 11
REMARK H PARENT
REMARK Flexibility Score: inf
ROOT
ATOM      1  C   UNL     1      31.248  29.005  74.837  1.00  0.00     0.048 C 
ATOM      2  C   UNL     1      29.842  28.937  74.310  1.00  0.00    -0.012 C 
ATOM      3  C   UNL     1      28.997  28.001  74.773  1.00  0.00    -0.019 C 
ATOM      4  C   UNL     1      27.585  27.877  74.267  1.00  0.00     0.036 C 
ATOM      5  C   UNL     1      27.013  29.253  73.879  1.00  0.00     0.025 C 
ATOM      6  C   UNL     1      27.937  29.949  72.864  1.00  0.00     0.089 C 
ATOM      7  C   UNL     1      29.353  29.979  73.371  1.00  0.00     0.158 C 
ATOM      8  O   UNL     1      30.133  30.880  72.961  1.00  0.00    -0.295 OA
ENDROOT
BRANCH   5   9
ATOM      9  C   UNL     1      25.591  29.135  73.347  1.00  0.00    -0.077 C 
ATOM     10  C   UNL     1      25.106  30.066  72.510  1.00  0.00     0.008 C 
ATOM     11  C   UNL     1      24.698  27.983  73.738  1.00  0.00     0.039 C 
ENDBRANCH   5   9
TORSDOF 1
ENDMDL
MODEL 8
REMARK VINA RESULT:    -3.742     11.552     12.807
REMARK INTER + INTRA:          -4.059
REMARK INTER:                  -3.962
REMARK INTRA:                  -0.098
REMARK UNBOUND:                -0.098
REMARK SMILES C=C(C)[C@H]1CC=C(C)C(=O)C1
REMARK SMILES IDX 8 1 7 2 6 3 5 4 4 5 11 6 9 7 10 8 2 9 1 10 3 11
REMARK H PARENT
REMARK Flexibility Score: inf
ROOT
ATOM      1  C   UNL     1      24.315  34.249  91.114  1.00  0.00     0.048 C 
ATOM      2  C   UNL     1      23.750  34.660  89.783  1.00  0.00    -0.012 C 
ATOM      3  C   UNL     1      23.730  35.958  89.435  1.00  0.00    -0.019 C 
ATOM      4  C   UNL     1      23.160  36.426  88.123  1.00  0.00     0.036 C 
ATOM      5  C   UNL     1      23.376  35.374  87.019  1.00  0.00     0.025 C 
ATOM      6  C   UNL     1      22.798  34.016  87.454  1.00  0.00     0.089 C 
ATOM      7  C   UNL     1      23.329  33.624  88.806  1.00  0.00     0.158 C 
ATOM      8  O   UNL     1      23.379  32.403  89.116  1.00  0.00    -0.295 OA
ENDROOT
BRANCH   5   9
ATOM      9  C   UNL     1      22.784  35.830  85.692  1.00  0.00    -0.077 C 
ATOM     10  C   UNL     1      22.443  34.926  84.760  1.00  0.00     0.008 C 
ATOM     11  C   UNL     1      22.566  37.293  85.389  1.00  0.00     0.039 C 
ENDBRANCH   5   9
TORSDOF 1
ENDMDL
MODEL 9
REMARK VINA RESULT:    -3.737      2.098      4.700
REMARK INTER + INTRA:          -4.054
REMARK INTER:                  -3.959
REMARK INTRA:                  -0.095
REMARK UNBOUND:                -0.098
REMARK SMILES C=C(C)[C@H]1CC=C(C)C(=O)C1
REMARK SMILES IDX 8 1 7 2 6 3 5 4 4 5 11 6 9 7 10 8 2 9 1 10 3 11
REMARK H PARENT
REMARK Flexibility Score: inf
ROOT
ATOM      1  C   UNL     1      29.812  45.289  79.402  1.00  0.00     0.048 C 
ATOM      2  C   UNL     1      29.421  45.463  80.843  1.00  0.00    -0.012 C 
ATOM      3  C   UNL     1      29.251  44.385  81.626  1.00  0.00    -0.019 C 
ATOM      4  C   UNL     1      28.841  44.501  83.070  1.00  0.00     0.036 C 
ATOM      5  C   UNL     1      29.407  45.786  83.704  1.00  0.00     0.025 C 
ATOM      6  C   UNL     1      28.991  47.017  82.879  1.00  0.00     0.089 C 
ATOM      7  C   UNL     1      29.343  46.825  81.429  1.00  0.00     0.158 C 
ATOM      8  O   UNL     1      29.537  47.840  80.705  1.00  0.00    -0.295 OA
ENDROOT
BRANCH   5   9
ATOM      9  C   UNL     1      28.982  45.922  85.160  1.00  0.00    -0.077 C 
ATOM     10  C   UNL     1      28.965  44.845  85.960  1.00  0.00     0.008 C 
ATOM     11  C   UNL     1      28.573  47.255  85.739  1.00  0.00     0.039 C 
ENDBRANCH   5   9
TORSDOF 1
ENDMDL
