MODEL 1
REMARK VINA RESULT:    -4.325      0.000      0.000
REMARK INTER + INTRA:          -5.019
REMARK INTER:                  -5.084
REMARK INTRA:                   0.065
REMARK UNBOUND:                 0.065
REMARK SMILES O=c1c(O)c(-c2ccc(O)cc2)oc2cc(O)cc(O)c12
REMARK SMILES IDX 5 1 3 2 2 3 1 4 21 5 19 6 18 7 16 8 15 9 14 10 13 11 6 12
REMARK SMILES IDX 7 13 8 14 9 15 12 16 11 17 10 18 4 20 20 22 17 24
REMARK H PARENT 10 19 4 21 20 23 17 25
REMARK Flexibility Score: inf
ROOT
ATOM      1  C   UNL     1       2.423  23.157   4.802  1.00  0.00     0.180 A 
ATOM      2  C   UNL     1       2.936  23.870   3.702  1.00  0.00     0.208 A 
ATOM      3  C   UNL     1       4.244  24.373   3.771  1.00  0.00     0.238 A 
ATOM      4  O   UNL     1       4.719  25.005   2.788  1.00  0.00    -0.285 OA
ATOM      5  C   UNL     1       5.008  24.174   4.940  1.00  0.00     0.111 A 
ATOM      6  C   UNL     1       6.332  24.652   5.091  1.00  0.00     0.134 A 
ATOM      7  C   UNL     1       7.022  24.421   6.290  1.00  0.00     0.093 A 
ATOM      8  C   UNL     1       6.417  23.724   7.337  1.00  0.00     0.123 A 
ATOM      9  C   UNL     1       5.110  23.248   7.194  1.00  0.00     0.094 A 
ATOM     10  C   UNL     1       4.405  23.467   6.007  1.00  0.00     0.146 A 
ATOM     11  O   UNL     1       3.166  23.001   5.894  1.00  0.00    -0.452 OA
ENDROOT
BRANCH   1  12
ATOM     12  C   UNL     1       1.060  22.579   4.799  1.00  0.00     0.021 A 
ATOM     13  C   UNL     1       0.255  22.699   5.944  1.00  0.00     0.016 A 
ATOM     14  C   UNL     1      -1.027  22.141   5.971  1.00  0.00     0.047 A 
ATOM     15  C   UNL     1      -1.514  21.443   4.859  1.00  0.00     0.115 A 
ATOM     16  C   UNL     1       0.571  21.858   3.693  1.00  0.00     0.016 A 
ATOM     17  C   UNL     1      -0.711  21.301   3.723  1.00  0.00     0.047 A 
BRANCH  15  18
ATOM     18  O   UNL     1      -2.790  20.884   4.873  1.00  0.00    -0.508 OA
ATOM     19  H   UNL     1      -3.543  21.299   5.411  1.00  0.00     0.293 HD
ENDBRANCH  15  18
ENDBRANCH   1  12
BRANCH   2  20
ATOM     20  O   UNL     1       2.143  24.097   2.575  1.00  0.00    -0.502 OA
ATOM     21  H   UNL     1       1.400  23.467   2.297  1.00  0.00     0.293 HD
ENDBRANCH   2  20
BRANCH   6  22
ATOM     22  O   UNL     1       6.965  25.353   4.063  1.00  0.00    -0.507 OA
ATOM     23  H   UNL     1       6.702  25.227   3.092  1.00  0.00     0.293 HD
ENDBRANCH   6  22
BRANCH   8  24
ATOM     24  O   UNL     1       7.125  23.508   8.518  1.00  0.00    -0.508 OA
ATOM     25  H   UNL     1       7.005  22.659   9.060  1.00  0.00     0.293 HD
ENDBRANCH   8  24
TORSDOF 5
ENDMDL
MODEL 2
REMARK VINA RESULT:    -4.158      2.055      6.373
REMARK INTER + INTRA:          -4.822
REMARK INTER:                  -4.922
REMARK INTRA:                   0.099
REMARK UNBOUND:                 0.065
REMARK SMILES O=c1c(O)c(-c2ccc(O)cc2)oc2cc(O)cc(O)c12
REMARK SMILES IDX 5 1 3 2 2 3 1 4 21 5 19 6 18 7 16 8 15 9 14 10 13 11 6 12
REMARK SMILES IDX 7 13 8 14 9 15 12 16 11 17 10 18 4 20 20 22 17 24
REMARK H PARENT 10 19 4 21 20 23 17 25
REMARK Flexibility Score: inf
ROOT
ATOM      1  C   UNL     1       2.138  23.098   4.217  1.00  0.00     0.180 A 
ATOM      2  C   UNL     1       1.112  22.753   3.318  1.00  0.00     0.208 A 
ATOM      3  C   UNL     1      -0.059  22.163   3.819  1.00  0.00     0.238 A 
ATOM      4  O   UNL     1      -0.990  21.859   3.024  1.00  0.00    -0.285 OA
ATOM      5  C   UNL     1      -0.175  21.909   5.201  1.00  0.00     0.111 A 
ATOM      6  C   UNL     1      -1.320  21.314   5.785  1.00  0.00     0.134 A 
ATOM      7  C   UNL     1      -1.355  21.086   7.169  1.00  0.00     0.093 A 
ATOM      8  C   UNL     1      -0.273  21.439   7.977  1.00  0.00     0.123 A 
ATOM      9  C   UNL     1       0.860  22.028   7.406  1.00  0.00     0.094 A 
ATOM     10  C   UNL     1       0.914  22.265   6.029  1.00  0.00     0.146 A 
ATOM     11  O   UNL     1       2.000  22.830   5.513  1.00  0.00    -0.452 OA
ENDROOT
BRANCH   1  12
ATOM     12  C   UNL     1       3.394  23.741   3.769  1.00  0.00     0.021 A 
ATOM     13  C   UNL     1       4.616  23.343   4.339  1.00  0.00     0.016 A 
ATOM     14  C   UNL     1       5.812  23.953   3.947  1.00  0.00     0.047 A 
ATOM     15  C   UNL     1       5.800  24.977   2.991  1.00  0.00     0.115 A 
ATOM     16  C   UNL     1       3.388  24.784   2.825  1.00  0.00     0.016 A 
ATOM     17  C   UNL     1       4.586  25.392   2.436  1.00  0.00     0.047 A 
BRANCH  15  18
ATOM     18  O   UNL     1       6.985  25.591   2.592  1.00  0.00    -0.508 OA
ATOM     19  H   UNL     1       7.698  25.850   3.264  1.00  0.00     0.293 HD
ENDBRANCH  15  18
ENDBRANCH   1  12
BRANCH   2  20
ATOM     20  O   UNL     1       1.272  22.969   1.947  1.00  0.00    -0.502 OA
ATOM     21  H   UNL     1       1.333  22.209   1.281  1.00  0.00     0.293 HD
ENDBRANCH   2  20
BRANCH   6  22
ATOM     22  O   UNL     1      -2.418  20.948   5.004  1.00  0.00    -0.507 OA
ATOM     23  H   UNL     1      -2.536  21.291   4.058  1.00  0.00     0.293 HD
ENDBRANCH   6  22
BRANCH   8  24
ATOM     24  O   UNL     1      -0.333  21.201   9.349  1.00  0.00    -0.508 OA
ATOM     25  H   UNL     1       0.016  21.876  10.020  1.00  0.00     0.293 HD
ENDBRANCH   8  24
TORSDOF 5
ENDMDL
MODEL 3
REMARK VINA RESULT:    -4.053      1.677      3.048
REMARK INTER + INTRA:          -4.699
REMARK INTER:                  -4.417
REMARK INTRA:                  -0.281
REMARK UNBOUND:                 0.065
REMARK SMILES O=c1c(O)c(-c2ccc(O)cc2)oc2cc(O)cc(O)c12
REMARK SMILES IDX 5 1 3 2 2 3 1 4 21 5 19 6 18 7 16 8 15 9 14 10 13 11 6 12
REMARK SMILES IDX 7 13 8 14 9 15 12 16 11 17 10 18 4 20 20 22 17 24
REMARK H PARENT 10 19 4 21 20 23 17 25
REMARK Flexibility Score: inf
ROOT
ATOM      1  C   UNL     1       2.041  22.996   4.232  1.00  0.00     0.180 A 
ATOM      2  C   UNL     1       2.327  22.746   5.588  1.00  0.00     0.208 A 
ATOM      3  C   UNL     1       3.554  23.181   6.113  1.00  0.00     0.238 A 
ATOM      4  O   UNL     1       3.818  22.972   7.329  1.00  0.00    -0.285 OA
ATOM      5  C   UNL     1       4.478  23.837   5.274  1.00  0.00     0.111 A 
ATOM      6  C   UNL     1       5.738  24.302   5.724  1.00  0.00     0.134 A 
ATOM      7  C   UNL     1       6.607  24.938   4.824  1.00  0.00     0.093 A 
ATOM      8  C   UNL     1       6.243  25.116   3.489  1.00  0.00     0.123 A 
ATOM      9  C   UNL     1       5.001  24.659   3.038  1.00  0.00     0.094 A 
ATOM     10  C   UNL     1       4.120  24.024   3.919  1.00  0.00     0.146 A 
ATOM     11  O   UNL     1       2.944  23.604   3.467  1.00  0.00    -0.452 OA
ENDROOT
BRANCH   1  12
ATOM     12  C   UNL     1       0.762  22.586   3.609  1.00  0.00     0.021 A 
ATOM     13  C   UNL     1      -0.308  23.495   3.563  1.00  0.00     0.016 A 
ATOM     14  C   UNL     1      -1.531  23.121   3.000  1.00  0.00     0.047 A 
ATOM     15  C   UNL     1      -1.706  21.829   2.488  1.00  0.00     0.115 A 
ATOM     16  C   UNL     1       0.573  21.283   3.112  1.00  0.00     0.016 A 
ATOM     17  C   UNL     1      -0.652  20.912   2.550  1.00  0.00     0.047 A 
BRANCH  15  18
ATOM     18  O   UNL     1      -2.920  21.445   1.924  1.00  0.00    -0.508 OA
ATOM     19  H   UNL     1      -3.786  21.917   2.160  1.00  0.00     0.293 HD
ENDBRANCH  15  18
ENDBRANCH   1  12
BRANCH   2  20
ATOM     20  O   UNL     1       1.416  22.050   6.385  1.00  0.00    -0.502 OA
ATOM     21  H   UNL     1       0.414  22.132   6.263  1.00  0.00     0.293 HD
ENDBRANCH   2  20
BRANCH   6  22
ATOM     22  O   UNL     1       6.131  24.138   7.054  1.00  0.00    -0.507 OA
ATOM     23  H   UNL     1       6.183  24.922   7.694  1.00  0.00     0.293 HD
ENDBRANCH   6  22
BRANCH   8  24
ATOM     24  O   UNL     1       7.125  25.750   2.615  1.00  0.00    -0.508 OA
ATOM     25  H   UNL     1       6.803  26.173   1.752  1.00  0.00     0.293 HD
ENDBRANCH   8  24
TORSDOF 5
ENDMDL
MODEL 4
REMARK VINA RESULT:    -3.966      2.118      7.122
REMARK INTER + INTRA:          -4.596
REMARK INTER:                  -4.457
REMARK INTRA:                  -0.140
REMARK UNBOUND:                 0.065
REMARK SMILES O=c1c(O)c(-c2ccc(O)cc2)oc2cc(O)cc(O)c12
REMARK SMILES IDX 5 1 3 2 2 3 1 4 21 5 19 6 18 7 16 8 15 9 14 10 13 11 6 12
REMARK SMILES IDX 7 13 8 14 9 15 12 16 11 17 10 18 4 20 20 22 17 24
REMARK H PARENT 10 19 4 21 20 23 17 25
REMARK Flexibility Score: inf
ROOT
ATOM      1  C   UNL     1       2.385  23.257   4.156  1.00  0.00     0.180 A 
ATOM      2  C   UNL     1       2.159  23.157   5.542  1.00  0.00     0.208 A 
ATOM      3  C   UNL     1       0.963  22.578   5.994  1.00  0.00     0.238 A 
ATOM      4  O   UNL     1       0.754  22.473   7.234  1.00  0.00    -0.285 OA
ATOM      5  C   UNL     1       0.008  22.130   5.059  1.00  0.00     0.111 A 
ATOM      6  C   UNL     1      -1.224  21.539   5.432  1.00  0.00     0.134 A 
ATOM      7  C   UNL     1      -2.126  21.127   4.440  1.00  0.00     0.093 A 
ATOM      8  C   UNL     1      -1.822  21.294   3.088  1.00  0.00     0.123 A 
ATOM      9  C   UNL     1      -0.608  21.876   2.712  1.00  0.00     0.094 A 
ATOM     10  C   UNL     1       0.306  22.292   3.686  1.00  0.00     0.146 A 
ATOM     11  O   UNL     1       1.455  22.838   3.303  1.00  0.00    -0.452 OA
ENDROOT
BRANCH   1  12
ATOM     12  C   UNL     1       3.629  23.838   3.601  1.00  0.00     0.021 A 
ATOM     13  C   UNL     1       3.553  24.965   2.766  1.00  0.00     0.016 A 
ATOM     14  C   UNL     1       4.713  25.515   2.213  1.00  0.00     0.047 A 
ATOM     15  C   UNL     1       5.962  24.937   2.476  1.00  0.00     0.115 A 
ATOM     16  C   UNL     1       4.884  23.250   3.845  1.00  0.00     0.016 A 
ATOM     17  C   UNL     1       6.042  23.803   3.289  1.00  0.00     0.047 A 
BRANCH  15  18
ATOM     18  O   UNL     1       7.124  25.477   1.931  1.00  0.00    -0.508 OA
ATOM     19  H   UNL     1       7.651  24.988   1.216  1.00  0.00     0.293 HD
ENDBRANCH  15  18
ENDBRANCH   1  12
BRANCH   2  20
ATOM     20  O   UNL     1       3.099  23.654   6.449  1.00  0.00    -0.502 OA
ATOM     21  H   UNL     1       3.131  23.356   7.416  1.00  0.00     0.293 HD
ENDBRANCH   2  20
BRANCH   6  22
ATOM     22  O   UNL     1      -1.557  21.360   6.776  1.00  0.00    -0.507 OA
ATOM     23  H   UNL     1      -0.847  21.233   7.488  1.00  0.00     0.293 HD
ENDBRANCH   6  22
BRANCH   8  24
ATOM     24  O   UNL     1      -2.737  20.876   2.122  1.00  0.00    -0.508 OA
ATOM     25  H   UNL     1      -2.454  20.296   1.340  1.00  0.00     0.293 HD
ENDBRANCH   8  24
TORSDOF 5
ENDMDL
MODEL 5
REMARK VINA RESULT:    -3.943     23.386     25.027
REMARK INTER + INTRA:          -4.570
REMARK INTER:                  -5.036
REMARK INTRA:                   0.466
REMARK UNBOUND:                 0.065
REMARK SMILES O=c1c(O)c(-c2ccc(O)cc2)oc2cc(O)cc(O)c12
REMARK SMILES IDX 5 1 3 2 2 3 1 4 21 5 19 6 18 7 16 8 15 9 14 10 13 11 6 12
REMARK SMILES IDX 7 13 8 14 9 15 12 16 11 17 10 18 4 20 20 22 17 24
REMARK H PARENT 10 19 4 21 20 23 17 25
REMARK Flexibility Score: inf
ROOT
ATOM      1  C   UNL     1      -6.537  40.881  18.309  1.00  0.00     0.180 A 
ATOM      2  C   UNL     1      -7.332  40.937  19.469  1.00  0.00     0.208 A 
ATOM      3  C   UNL     1      -8.726  40.832  19.342  1.00  0.00     0.238 A 
ATOM      4  O   UNL     1      -9.449  40.871  20.375  1.00  0.00    -0.285 OA
ATOM      5  C   UNL     1      -9.300  40.694  18.061  1.00  0.00     0.111 A 
ATOM      6  C   UNL     1     -10.696  40.586  17.847  1.00  0.00     0.134 A 
ATOM      7  C   UNL     1     -11.191  40.461  16.539  1.00  0.00     0.093 A 
ATOM      8  C   UNL     1     -10.321  40.441  15.448  1.00  0.00     0.123 A 
ATOM      9  C   UNL     1      -8.942  40.548  15.653  1.00  0.00     0.094 A 
ATOM     10  C   UNL     1      -8.429  40.672  16.948  1.00  0.00     0.146 A 
ATOM     11  O   UNL     1      -7.115  40.766  17.116  1.00  0.00    -0.452 OA
ENDROOT
BRANCH   1  12
ATOM     12  C   UNL     1      -5.060  40.966  18.362  1.00  0.00     0.021 A 
ATOM     13  C   UNL     1      -4.327  41.029  17.165  1.00  0.00     0.016 A 
ATOM     14  C   UNL     1      -2.930  41.087  17.192  1.00  0.00     0.047 A 
ATOM     15  C   UNL     1      -2.248  41.067  18.415  1.00  0.00     0.115 A 
ATOM     16  C   UNL     1      -4.367  40.926  19.587  1.00  0.00     0.016 A 
ATOM     17  C   UNL     1      -2.970  40.983  19.609  1.00  0.00     0.047 A 
BRANCH  15  18
ATOM     18  O   UNL     1      -0.857  41.125  18.454  1.00  0.00    -0.508 OA
ATOM     19  H   UNL     1      -0.298  40.990  17.619  1.00  0.00     0.293 HD
ENDBRANCH  15  18
ENDBRANCH   1  12
BRANCH   2  20
ATOM     20  O   UNL     1      -6.742  41.125  20.722  1.00  0.00    -0.502 OA
ATOM     21  H   UNL     1      -6.114  40.446  21.133  1.00  0.00     0.293 HD
ENDBRANCH   2  20
BRANCH   6  22
ATOM     22  O   UNL     1     -11.592  40.603  18.917  1.00  0.00    -0.507 OA
ATOM     23  H   UNL     1     -11.297  40.383  19.862  1.00  0.00     0.293 HD
ENDBRANCH   6  22
BRANCH   8  24
ATOM     24  O   UNL     1     -10.839  40.316  14.160  1.00  0.00    -0.508 OA
ATOM     25  H   UNL     1     -11.721  39.848  13.986  1.00  0.00     0.293 HD
ENDBRANCH   8  24
TORSDOF 5
ENDMDL
MODEL 6
REMARK VINA RESULT:    -3.593      2.397      2.679
REMARK INTER + INTRA:          -4.158
REMARK INTER:                  -4.052
REMARK INTRA:                  -0.106
REMARK UNBOUND:                 0.065
REMARK SMILES O=c1c(O)c(-c2ccc(O)cc2)oc2cc(O)cc(O)c12
REMARK SMILES IDX 5 1 3 2 2 3 1 4 21 5 19 6 18 7 16 8 15 9 14 10 13 11 6 12
REMARK SMILES IDX 7 13 8 14 9 15 12 16 11 17 10 18 4 20 20 22 17 24
REMARK H PARENT 10 19 4 21 20 23 17 25
REMARK Flexibility Score: inf
ROOT
ATOM      1  C   UNL     1       1.231  23.368   3.072  1.00  0.00     0.180 A 
ATOM      2  C   UNL     1       1.390  24.682   2.593  1.00  0.00     0.208 A 
ATOM      3  C   UNL     1       2.687  25.193   2.432  1.00  0.00     0.238 A 
ATOM      4  O   UNL     1       2.842  26.366   1.994  1.00  0.00    -0.285 OA
ATOM      5  C   UNL     1       3.798  24.394   2.771  1.00  0.00     0.111 A 
ATOM      6  C   UNL     1       5.137  24.836   2.642  1.00  0.00     0.134 A 
ATOM      7  C   UNL     1       6.189  23.983   3.009  1.00  0.00     0.093 A 
ATOM      8  C   UNL     1       5.929  22.703   3.500  1.00  0.00     0.123 A 
ATOM      9  C   UNL     1       4.609  22.260   3.630  1.00  0.00     0.094 A 
ATOM     10  C   UNL     1       3.547  23.094   3.268  1.00  0.00     0.146 A 
ATOM     11  O   UNL     1       2.302  22.649   3.395  1.00  0.00    -0.452 OA
ENDROOT
BRANCH   1  12
ATOM     12  C   UNL     1      -0.103  22.751   3.251  1.00  0.00     0.021 A 
ATOM     13  C   UNL     1      -0.469  22.248   4.511  1.00  0.00     0.016 A 
ATOM     14  C   UNL     1      -1.714  21.641   4.696  1.00  0.00     0.047 A 
ATOM     15  C   UNL     1      -2.604  21.516   3.622  1.00  0.00     0.115 A 
ATOM     16  C   UNL     1      -0.994  22.604   2.171  1.00  0.00     0.016 A 
ATOM     17  C   UNL     1      -2.238  21.995   2.360  1.00  0.00     0.047 A 
BRANCH  15  18
ATOM     18  O   UNL     1      -3.848  20.914   3.794  1.00  0.00    -0.508 OA
ATOM     19  H   UNL     1      -4.702  21.461   3.819  1.00  0.00     0.293 HD
ENDBRANCH  15  18
ENDBRANCH   1  12
BRANCH   2  20
ATOM     20  O   UNL     1       0.272  25.472   2.313  1.00  0.00    -0.502 OA
ATOM     21  H   UNL     1       0.108  26.363   2.765  1.00  0.00     0.293 HD
ENDBRANCH   2  20
BRANCH   6  22
ATOM     22  O   UNL     1       5.430  26.111   2.155  1.00  0.00    -0.507 OA
ATOM     23  H   UNL     1       5.101  26.948   2.622  1.00  0.00     0.293 HD
ENDBRANCH   6  22
BRANCH   8  24
ATOM     24  O   UNL     1       6.993  21.875   3.858  1.00  0.00    -0.508 OA
ATOM     25  H   UNL     1       6.841  20.998   4.344  1.00  0.00     0.293 HD
ENDBRANCH   8  24
TORSDOF 5
ENDMDL
MODEL 7
REMARK VINA RESULT:    -2.951      1.779      3.925
REMARK INTER + INTRA:          -3.404
REMARK INTER:                  -3.897
REMARK INTRA:                   0.494
REMARK UNBOUND:                 0.065
REMARK SMILES O=c1c(O)c(-c2ccc(O)cc2)oc2cc(O)cc(O)c12
REMARK SMILES IDX 5 1 3 2 2 3 1 4 21 5 19 6 18 7 16 8 15 9 14 10 13 11 6 12
REMARK SMILES IDX 7 13 8 14 9 15 12 16 11 17 10 18 4 20 20 22 17 24
REMARK H PARENT 10 19 4 21 20 23 17 25
REMARK Flexibility Score: inf
ROOT
ATOM      1  C   UNL     1       0.189  22.113   4.409  1.00  0.00     0.180 A 
ATOM      2  C   UNL     1       0.517  21.664   5.703  1.00  0.00     0.208 A 
ATOM      3  C   UNL     1       1.771  21.998   6.238  1.00  0.00     0.238 A 
ATOM      4  O   UNL     1       2.073  21.610   7.400  1.00  0.00    -0.285 OA
ATOM      5  C   UNL     1       2.679  22.753   5.468  1.00  0.00     0.111 A 
ATOM      6  C   UNL     1       3.964  23.127   5.932  1.00  0.00     0.134 A 
ATOM      7  C   UNL     1       4.814  23.872   5.101  1.00  0.00     0.093 A 
ATOM      8  C   UNL     1       4.407  24.248   3.820  1.00  0.00     0.123 A 
ATOM      9  C   UNL     1       3.140  23.882   3.356  1.00  0.00     0.094 A 
ATOM     10  C   UNL     1       2.277  23.141   4.169  1.00  0.00     0.146 A 
ATOM     11  O   UNL     1       1.077  22.810   3.706  1.00  0.00    -0.452 OA
ENDROOT
BRANCH   1  12
ATOM     12  C   UNL     1      -1.120  21.819   3.783  1.00  0.00     0.021 A 
ATOM     13  C   UNL     1      -1.387  22.288   2.485  1.00  0.00     0.016 A 
ATOM     14  C   UNL     1      -2.625  22.041   1.884  1.00  0.00     0.047 A 
ATOM     15  C   UNL     1      -3.616  21.335   2.577  1.00  0.00     0.115 A 
ATOM     16  C   UNL     1      -2.129  21.128   4.481  1.00  0.00     0.016 A 
ATOM     17  C   UNL     1      -3.366  20.884   3.876  1.00  0.00     0.047 A 
BRANCH  15  18
ATOM     18  O   UNL     1      -4.853  21.082   1.988  1.00  0.00    -0.508 OA
ATOM     19  H   UNL     1      -5.481  21.836   1.733  1.00  0.00     0.293 HD
ENDBRANCH  15  18
ENDBRANCH   1  12
BRANCH   2  20
ATOM     20  O   UNL     1      -0.381  20.875   6.426  1.00  0.00    -0.502 OA
ATOM     21  H   UNL     1      -1.370  20.841   6.211  1.00  0.00     0.293 HD
ENDBRANCH   2  20
BRANCH   6  22
ATOM     22  O   UNL     1       4.400  22.765   7.208  1.00  0.00    -0.507 OA
ATOM     23  H   UNL     1       5.377  22.580   7.404  1.00  0.00     0.293 HD
ENDBRANCH   6  22
BRANCH   8  24
ATOM     24  O   UNL     1       5.271  24.988   3.014  1.00  0.00    -0.508 OA
ATOM     25  H   UNL     1       5.920  25.659   3.410  1.00  0.00     0.293 HD
ENDBRANCH   8  24
TORSDOF 5
ENDMDL
MODEL 8
REMARK VINA RESULT:    -2.641      1.935      2.875
REMARK INTER + INTRA:          -3.040
REMARK INTER:                  -3.546
REMARK INTRA:                   0.507
REMARK UNBOUND:                 0.065
REMARK SMILES O=c1c(O)c(-c2ccc(O)cc2)oc2cc(O)cc(O)c12
REMARK SMILES IDX 5 1 3 2 2 3 1 4 21 5 19 6 18 7 16 8 15 9 14 10 13 11 6 12
REMARK SMILES IDX 7 13 8 14 9 15 12 16 11 17 10 18 4 20 20 22 17 24
REMARK H PARENT 10 19 4 21 20 23 17 25
REMARK Flexibility Score: inf
ROOT
ATOM      1  C   UNL     1       1.578  22.166   5.552  1.00  0.00     0.180 A 
ATOM      2  C   UNL     1       1.573  21.814   4.189  1.00  0.00     0.208 A 
ATOM      3  C   UNL     1       2.673  22.168   3.393  1.00  0.00     0.238 A 
ATOM      4  O   UNL     1       2.684  21.850   2.172  1.00  0.00    -0.285 OA
ATOM      5  C   UNL     1       3.746  22.882   3.965  1.00  0.00     0.111 A 
ATOM      6  C   UNL     1       4.890  23.280   3.230  1.00  0.00     0.134 A 
ATOM      7  C   UNL     1       5.912  23.997   3.870  1.00  0.00     0.093 A 
ATOM      8  C   UNL     1       5.814  24.323   5.224  1.00  0.00     0.123 A 
ATOM      9  C   UNL     1       4.687  23.932   5.955  1.00  0.00     0.094 A 
ATOM     10  C   UNL     1       3.658  23.216   5.336  1.00  0.00     0.146 A 
ATOM     11  O   UNL     1       2.601  22.852   6.053  1.00  0.00    -0.452 OA
ENDROOT
BRANCH   1  12
ATOM     12  C   UNL     1       0.464  21.812   6.461  1.00  0.00     0.021 A 
ATOM     13  C   UNL     1      -0.778  21.438   5.920  1.00  0.00     0.016 A 
ATOM     14  C   UNL     1      -1.850  21.122   6.760  1.00  0.00     0.047 A 
ATOM     15  C   UNL     1      -1.698  21.189   8.151  1.00  0.00     0.115 A 
ATOM     16  C   UNL     1       0.603  21.897   7.859  1.00  0.00     0.016 A 
ATOM     17  C   UNL     1      -0.472  21.581   8.696  1.00  0.00     0.047 A 
BRANCH  15  18
ATOM     18  O   UNL     1      -2.759  20.876   8.998  1.00  0.00    -0.508 OA
ATOM     19  H   UNL     1      -3.117  21.547   9.667  1.00  0.00     0.293 HD
ENDBRANCH  15  18
ENDBRANCH   1  12
BRANCH   2  20
ATOM     20  O   UNL     1       0.475  21.150   3.635  1.00  0.00    -0.502 OA
ATOM     21  H   UNL     1      -0.080  20.486   4.161  1.00  0.00     0.293 HD
ENDBRANCH   2  20
BRANCH   6  22
ATOM     22  O   UNL     1       5.017  22.971   1.875  1.00  0.00    -0.507 OA
ATOM     23  H   UNL     1       5.845  22.514   1.509  1.00  0.00     0.293 HD
ENDBRANCH   6  22
BRANCH   8  24
ATOM     24  O   UNL     1       6.843  25.036   5.835  1.00  0.00    -0.508 OA
ATOM     25  H   UNL     1       7.512  24.582   6.447  1.00  0.00     0.293 HD
ENDBRANCH   8  24
TORSDOF 5
ENDMDL
