MODEL 1
REMARK VINA RESULT:     9.181      0.000      0.000
REMARK INTER + INTRA:          16.382
REMARK INTER:                  17.231
REMARK INTRA:                  -0.850
REMARK UNBOUND:                -0.850
REMARK SMILES O=C([O-])CCCCCCCCCCCCCCC(=O)[O-]
REMARK SMILES IDX 10 1 9 2 8 3 7 4 6 5 5 6 4 7 2 8 1 9 3 10 11 11 12 12 13 13
REMARK SMILES IDX 14 14 15 15 16 16 17 17 18 18 19 19 20 20
REMARK H PARENT
REMARK Flexibility Score: inf
ROOT
ATOM      1  C   UNL     1      -9.154  31.016 -15.130  1.00  0.00     0.000 C 
ENDROOT
BRANCH   1   2
ATOM      2  C   UNL     1      -9.053  32.306 -15.959  1.00  0.00     0.000 C 
BRANCH   2   3
ATOM      3  C   UNL     1      -8.300  33.426 -15.224  1.00  0.00     0.000 C 
BRANCH   3   4
ATOM      4  C   UNL     1      -7.480  34.272 -16.210  1.00  0.00     0.000 C 
BRANCH   4   5
ATOM      5  C   UNL     1      -6.139  34.735 -15.621  1.00  0.00     0.000 C 
BRANCH   5   6
ATOM      6  C   UNL     1      -5.353  35.643 -16.578  1.00  0.00     0.006 C 
BRANCH   6   7
ATOM      7  C   UNL     1      -6.299  36.520 -17.403  1.00  0.00     0.053 C 
BRANCH   7   8
ATOM      8  C   UNL     1      -5.934  36.465 -18.853  1.00  0.00     0.041 C 
ATOM      9  O   UNL     1      -6.232  37.421 -19.618  1.00  0.00    -0.550 OA
ATOM     10  O   UNL     1      -5.310  35.338 -19.371  1.00  0.00    -0.550 OA
ENDBRANCH   7   8
ENDBRANCH   6   7
ENDBRANCH   5   6
ENDBRANCH   4   5
ENDBRANCH   3   4
ENDBRANCH   2   3
ENDBRANCH   1   2
BRANCH   1  11
ATOM     11  C   UNL     1      -8.743  29.765 -15.926  1.00  0.00     0.000 C 
BRANCH  11  12
ATOM     12  C   UNL     1      -9.200  29.837 -17.398  1.00  0.00     0.000 C 
BRANCH  12  13
ATOM     13  C   UNL     1      -8.067  29.590 -18.408  1.00  0.00     0.000 C 
BRANCH  13  14
ATOM     14  C   UNL     1      -6.832  28.934 -17.770  1.00  0.00     0.000 C 
BRANCH  14  15
ATOM     15  C   UNL     1      -6.072  28.029 -18.754  1.00  0.00     0.000 C 
BRANCH  15  16
ATOM     16  C   UNL     1      -6.784  27.899 -20.111  1.00  0.00     0.006 C 
BRANCH  16  17
ATOM     17  C   UNL     1      -6.140  28.783 -21.188  1.00  0.00     0.053 C 
BRANCH  17  18
ATOM     18  C   UNL     1      -5.959  28.043 -22.479  1.00  0.00     0.041 C 
ATOM     19  O   UNL     1      -4.882  28.149 -23.124  1.00  0.00    -0.550 OA
ATOM     20  O   UNL     1      -6.965  27.208 -22.950  1.00  0.00    -0.550 OA
ENDBRANCH  17  18
ENDBRANCH  16  17
ENDBRANCH  15  16
ENDBRANCH  14  15
ENDBRANCH  13  14
ENDBRANCH  12  13
ENDBRANCH  11  12
ENDBRANCH   1  11
TORSDOF 15
ENDMDL
MODEL 2
REMARK VINA RESULT:     9.573      0.684      7.231
REMARK INTER + INTRA:          17.118
REMARK INTER:                  17.976
REMARK INTRA:                  -0.858
REMARK UNBOUND:                -0.850
REMARK SMILES O=C([O-])CCCCCCCCCCCCCCC(=O)[O-]
REMARK SMILES IDX 10 1 9 2 8 3 7 4 6 5 5 6 4 7 2 8 1 9 3 10 11 11 12 12 13 13
REMARK SMILES IDX 14 14 15 15 16 16 17 17 18 18 19 19 20 20
REMARK H PARENT
REMARK Flexibility Score: inf
ROOT
ATOM      1  C   UNL     1      -9.754  30.696 -16.817  1.00  0.00     0.000 C 
ENDROOT
BRANCH   1   2
ATOM      2  C   UNL     1      -8.769  29.695 -17.442  1.00  0.00     0.000 C 
BRANCH   2   3
ATOM      3  C   UNL     1      -7.933  28.951 -16.390  1.00  0.00     0.000 C 
BRANCH   3   4
ATOM      4  C   UNL     1      -6.735  28.244 -17.044  1.00  0.00     0.000 C 
BRANCH   4   5
ATOM      5  C   UNL     1      -6.233  28.970 -18.302  1.00  0.00     0.000 C 
BRANCH   5   6
ATOM      6  C   UNL     1      -6.379  28.122 -19.574  1.00  0.00     0.006 C 
BRANCH   6   7
ATOM      7  C   UNL     1      -6.059  28.947 -20.823  1.00  0.00     0.053 C 
BRANCH   7   8
ATOM      8  C   UNL     1      -6.039  28.075 -22.038  1.00  0.00     0.041 C 
ATOM      9  O   UNL     1      -7.053  27.395 -22.347  1.00  0.00    -0.550 OA
ATOM     10  O   UNL     1      -4.883  27.973 -22.802  1.00  0.00    -0.550 OA
ENDBRANCH   7   8
ENDBRANCH   6   7
ENDBRANCH   5   6
ENDBRANCH   4   5
ENDBRANCH   3   4
ENDBRANCH   2   3
ENDBRANCH   1   2
BRANCH   1  11
ATOM     11  C   UNL     1      -9.115  32.068 -16.545  1.00  0.00     0.000 C 
BRANCH  11  12
ATOM     12  C   UNL     1      -9.027  32.379 -15.036  1.00  0.00     0.000 C 
BRANCH  12  13
ATOM     13  C   UNL     1      -7.997  33.468 -14.689  1.00  0.00     0.000 C 
BRANCH  13  14
ATOM     14  C   UNL     1      -7.320  34.066 -15.934  1.00  0.00     0.000 C 
BRANCH  14  15
ATOM     15  C   UNL     1      -6.199  35.055 -15.576  1.00  0.00     0.000 C 
BRANCH  15  16
ATOM     16  C   UNL     1      -5.374  35.484 -16.802  1.00  0.00     0.006 C 
BRANCH  16  17
ATOM     17  C   UNL     1      -6.010  36.669 -17.541  1.00  0.00     0.053 C 
BRANCH  17  18
ATOM     18  C   UNL     1      -5.961  36.487 -19.028  1.00  0.00     0.041 C 
ATOM     19  O   UNL     1      -6.170  37.467 -19.793  1.00  0.00    -0.550 OA
ATOM     20  O   UNL     1      -5.649  35.246 -19.569  1.00  0.00    -0.550 OA
ENDBRANCH  17  18
ENDBRANCH  16  17
ENDBRANCH  15  16
ENDBRANCH  14  15
ENDBRANCH  13  14
ENDBRANCH  12  13
ENDBRANCH  11  12
ENDBRANCH   1  11
TORSDOF 15
ENDMDL
MODEL 3
REMARK VINA RESULT:    10.040      3.461      6.441
REMARK INTER + INTRA:          17.994
REMARK INTER:                  18.637
REMARK INTRA:                  -0.643
REMARK UNBOUND:                -0.850
REMARK SMILES O=C([O-])CCCCCCCCCCCCCCC(=O)[O-]
REMARK SMILES IDX 10 1 9 2 8 3 7 4 6 5 5 6 4 7 2 8 1 9 3 10 11 11 12 12 13 13
REMARK SMILES IDX 14 14 15 15 16 16 17 17 18 18 19 19 20 20
REMARK H PARENT
REMARK Flexibility Score: inf
ROOT
ATOM      1  C   UNL     1      -9.518  30.466 -15.805  1.00  0.00     0.000 C 
ENDROOT
BRANCH   1   2
ATOM      2  C   UNL     1      -8.671  29.707 -16.839  1.00  0.00     0.000 C 
BRANCH   2   3
ATOM      3  C   UNL     1      -7.527  28.909 -16.197  1.00  0.00     0.000 C 
BRANCH   3   4
ATOM      4  C   UNL     1      -6.633  28.273 -17.273  1.00  0.00     0.000 C 
BRANCH   4   5
ATOM      5  C   UNL     1      -6.938  28.799 -18.684  1.00  0.00     0.000 C 
BRANCH   5   6
ATOM      6  C   UNL     1      -5.761  28.615 -19.653  1.00  0.00     0.006 C 
BRANCH   6   7
ATOM      7  C   UNL     1      -6.096  29.179 -21.037  1.00  0.00     0.053 C 
BRANCH   7   8
ATOM      8  C   UNL     1      -5.974  28.115 -22.081  1.00  0.00     0.041 C 
ATOM      9  O   UNL     1      -5.025  28.146 -22.909  1.00  0.00    -0.550 OA
ATOM     10  O   UNL     1      -6.935  27.116 -22.172  1.00  0.00    -0.550 OA
ENDBRANCH   7   8
ENDBRANCH   6   7
ENDBRANCH   5   6
ENDBRANCH   4   5
ENDBRANCH   3   4
ENDBRANCH   2   3
ENDBRANCH   1   2
BRANCH   1  11
ATOM     11  C   UNL     1      -9.062  31.924 -15.617  1.00  0.00     0.000 C 
BRANCH  11  12
ATOM     12  C   UNL     1      -8.609  32.566 -16.946  1.00  0.00     0.000 C 
BRANCH  12  13
ATOM     13  C   UNL     1      -9.630  32.408 -18.086  1.00  0.00     0.000 C 
BRANCH  13  14
ATOM     14  C   UNL     1      -9.738  33.664 -18.967  1.00  0.00     0.000 C 
BRANCH  14  15
ATOM     15  C   UNL     1      -9.029  33.497 -20.320  1.00  0.00     0.000 C 
BRANCH  15  16
ATOM     16  C   UNL     1      -9.701  32.440 -21.214  1.00  0.00     0.006 C 
BRANCH  16  17
ATOM     17  C   UNL     1     -10.261  33.048 -22.507  1.00  0.00     0.053 C 
BRANCH  17  18
ATOM     18  C   UNL     1     -11.540  32.389 -22.923  1.00  0.00     0.041 C 
ATOM     19  O   UNL     1     -12.573  33.082 -23.124  1.00  0.00    -0.550 OA
ATOM     20  O   UNL     1     -11.583  31.015 -23.125  1.00  0.00    -0.550 OA
ENDBRANCH  17  18
ENDBRANCH  16  17
ENDBRANCH  15  16
ENDBRANCH  14  15
ENDBRANCH  13  14
ENDBRANCH  12  13
ENDBRANCH  11  12
ENDBRANCH   1  11
TORSDOF 15
ENDMDL
MODEL 4
REMARK VINA RESULT:    10.686      3.372      4.368
REMARK INTER + INTRA:          19.206
REMARK INTER:                  19.573
REMARK INTRA:                  -0.366
REMARK UNBOUND:                -0.850
REMARK SMILES O=C([O-])CCCCCCCCCCCCCCC(=O)[O-]
REMARK SMILES IDX 10 1 9 2 8 3 7 4 6 5 5 6 4 7 2 8 1 9 3 10 11 11 12 12 13 13
REMARK SMILES IDX 14 14 15 15 16 16 17 17 18 18 19 19 20 20
REMARK H PARENT
REMARK Flexibility Score: inf
ROOT
ATOM      1  C   UNL     1      -9.048  32.013 -15.531  1.00  0.00     0.000 C 
ENDROOT
BRANCH   1   2
ATOM      2  C   UNL     1      -8.556  32.865 -16.712  1.00  0.00     0.000 C 
BRANCH   2   3
ATOM      3  C   UNL     1      -9.265  32.518 -18.029  1.00  0.00     0.000 C 
BRANCH   3   4
ATOM      4  C   UNL     1      -9.789  33.787 -18.719  1.00  0.00     0.000 C 
BRANCH   4   5
ATOM      5  C   UNL     1      -9.550  33.779 -20.236  1.00  0.00     0.000 C 
BRANCH   5   6
ATOM      6  C   UNL     1      -9.721  32.384 -20.856  1.00  0.00     0.006 C 
BRANCH   6   7
ATOM      7  C   UNL     1      -9.810  32.470 -22.383  1.00  0.00     0.053 C 
BRANCH   7   8
ATOM      8  C   UNL     1     -11.227  32.309 -22.835  1.00  0.00     0.041 C 
ATOM      9  O   UNL     1     -11.713  31.159 -23.002  1.00  0.00    -0.550 OA
ATOM     10  O   UNL     1     -11.996  33.430 -23.121  1.00  0.00    -0.550 OA
ENDBRANCH   7   8
ENDBRANCH   6   7
ENDBRANCH   5   6
ENDBRANCH   4   5
ENDBRANCH   3   4
ENDBRANCH   2   3
ENDBRANCH   1   2
BRANCH   1  11
ATOM     11  C   UNL     1      -9.679  30.684 -15.980  1.00  0.00     0.000 C 
BRANCH  11  12
ATOM     12  C   UNL     1      -8.773  29.913 -16.962  1.00  0.00     0.000 C 
BRANCH  12  13
ATOM     13  C   UNL     1      -7.728  29.023 -16.269  1.00  0.00     0.000 C 
BRANCH  13  14
ATOM     14  C   UNL     1      -6.648  28.506 -17.235  1.00  0.00     0.000 C 
BRANCH  14  15
ATOM     15  C   UNL     1      -7.014  28.745 -18.708  1.00  0.00     0.000 C 
BRANCH  15  16
ATOM     16  C   UNL     1      -5.966  28.175 -19.679  1.00  0.00     0.006 C 
BRANCH  16  17
ATOM     17  C   UNL     1      -6.612  27.495 -20.894  1.00  0.00     0.053 C 
BRANCH  17  18
ATOM     18  C   UNL     1      -5.873  27.800 -22.161  1.00  0.00     0.041 C 
ATOM     19  O   UNL     1      -6.021  28.916 -22.727  1.00  0.00    -0.550 OA
ATOM     20  O   UNL     1      -4.993  26.868 -22.696  1.00  0.00    -0.550 OA
ENDBRANCH  17  18
ENDBRANCH  16  17
ENDBRANCH  15  16
ENDBRANCH  14  15
ENDBRANCH  13  14
ENDBRANCH  12  13
ENDBRANCH  11  12
ENDBRANCH   1  11
TORSDOF 15
ENDMDL
MODEL 5
REMARK VINA RESULT:    11.008      3.561      6.718
REMARK INTER + INTRA:          19.810
REMARK INTER:                  16.074
REMARK INTRA:                   3.736
REMARK UNBOUND:                -0.850
REMARK SMILES O=C([O-])CCCCCCCCCCCCCCC(=O)[O-]
REMARK SMILES IDX 10 1 9 2 8 3 7 4 6 5 5 6 4 7 2 8 1 9 3 10 11 11 12 12 13 13
REMARK SMILES IDX 14 14 15 15 16 16 17 17 18 18 19 19 20 20
REMARK H PARENT
REMARK Flexibility Score: inf
ROOT
ATOM      1  C   UNL     1      -9.413  30.816 -17.004  1.00  0.00     0.000 C 
ENDROOT
BRANCH   1   2
ATOM      2  C   UNL     1      -9.537  29.858 -18.200  1.00  0.00     0.000 C 
BRANCH   2   3
ATOM      3  C   UNL     1      -8.207  29.178 -18.556  1.00  0.00     0.000 C 
BRANCH   3   4
ATOM      4  C   UNL     1      -7.950  29.238 -20.069  1.00  0.00     0.000 C 
BRANCH   4   5
ATOM      5  C   UNL     1      -6.746  28.387 -20.500  1.00  0.00     0.000 C 
BRANCH   5   6
ATOM      6  C   UNL     1      -5.677  29.204 -21.241  1.00  0.00     0.006 C 
BRANCH   6   7
ATOM      7  C   UNL     1      -5.652  28.851 -22.731  1.00  0.00     0.053 C 
BRANCH   7   8
ATOM      8  C   UNL     1      -5.924  27.394 -22.929  1.00  0.00     0.041 C 
ATOM      9  O   UNL     1      -7.103  26.987 -23.106  1.00  0.00    -0.550 OA
ATOM     10  O   UNL     1      -4.881  26.478 -22.870  1.00  0.00    -0.550 OA
ENDBRANCH   7   8
ENDBRANCH   6   7
ENDBRANCH   5   6
ENDBRANCH   4   5
ENDBRANCH   3   4
ENDBRANCH   2   3
ENDBRANCH   1   2
BRANCH   1  11
ATOM     11  C   UNL     1      -9.066  32.253 -17.428  1.00  0.00     0.000 C 
BRANCH  11  12
ATOM     12  C   UNL     1      -8.960  33.206 -16.218  1.00  0.00     0.000 C 
BRANCH  12  13
ATOM     13  C   UNL     1      -8.858  32.478 -14.867  1.00  0.00     0.000 C 
BRANCH  13  14
ATOM     14  C   UNL     1      -9.236  30.990 -14.962  1.00  0.00     0.000 C 
BRANCH  14  15
ATOM     15  C   UNL     1      -8.542  30.137 -13.888  1.00  0.00     0.000 C 
BRANCH  15  16
ATOM     16  C   UNL     1      -7.960  28.830 -14.454  1.00  0.00     0.006 C 
BRANCH  16  17
ATOM     17  C   UNL     1      -7.250  29.047 -15.797  1.00  0.00     0.053 C 
BRANCH  17  18
ATOM     18  C   UNL     1      -6.594  27.793 -16.289  1.00  0.00     0.041 C 
ATOM     19  O   UNL     1      -6.720  26.718 -15.644  1.00  0.00    -0.550 OA
ATOM     20  O   UNL     1      -5.875  27.802 -17.478  1.00  0.00    -0.550 OA
ENDBRANCH  17  18
ENDBRANCH  16  17
ENDBRANCH  15  16
ENDBRANCH  14  15
ENDBRANCH  13  14
ENDBRANCH  12  13
ENDBRANCH  11  12
ENDBRANCH   1  11
TORSDOF 15
ENDMDL
MODEL 6
REMARK VINA RESULT:    11.352      2.803      6.658
REMARK INTER + INTRA:          20.458
REMARK INTER:                  19.669
REMARK INTRA:                   0.788
REMARK UNBOUND:                -0.850
REMARK SMILES O=C([O-])CCCCCCCCCCCCCCC(=O)[O-]
REMARK SMILES IDX 10 1 9 2 8 3 7 4 6 5 5 6 4 7 2 8 1 9 3 10 11 11 12 12 13 13
REMARK SMILES IDX 14 14 15 15 16 16 17 17 18 18 19 19 20 20
REMARK H PARENT
REMARK Flexibility Score: inf
ROOT
ATOM      1  C   UNL     1      -7.839  29.235 -16.567  1.00  0.00     0.000 C 
ENDROOT
BRANCH   1   2
ATOM      2  C   UNL     1      -8.896  29.324 -17.679  1.00  0.00     0.000 C 
BRANCH   2   3
ATOM      3  C   UNL     1      -8.280  29.300 -19.085  1.00  0.00     0.000 C 
BRANCH   3   4
ATOM      4  C   UNL     1      -6.877  28.674 -19.057  1.00  0.00     0.000 C 
BRANCH   4   5
ATOM      5  C   UNL     1      -6.417  28.188 -20.441  1.00  0.00     0.000 C 
BRANCH   5   6
ATOM      6  C   UNL     1      -5.671  29.274 -21.232  1.00  0.00     0.006 C 
BRANCH   6   7
ATOM      7  C   UNL     1      -5.422  28.826 -22.675  1.00  0.00     0.053 C 
BRANCH   7   8
ATOM      8  C   UNL     1      -5.780  27.383 -22.846  1.00  0.00     0.041 C 
ATOM      9  O   UNL     1      -4.877  26.506 -22.883  1.00  0.00    -0.550 OA
ATOM     10  O   UNL     1      -7.108  27.012 -23.014  1.00  0.00    -0.550 OA
ENDBRANCH   7   8
ENDBRANCH   6   7
ENDBRANCH   5   6
ENDBRANCH   4   5
ENDBRANCH   3   4
ENDBRANCH   2   3
ENDBRANCH   1   2
BRANCH   1  11
ATOM     11  C   UNL     1      -8.412  29.555 -15.175  1.00  0.00     0.000 C 
BRANCH  11  12
ATOM     12  C   UNL     1      -9.162  30.903 -15.152  1.00  0.00     0.000 C 
BRANCH  12  13
ATOM     13  C   UNL     1      -9.558  31.413 -16.548  1.00  0.00     0.000 C 
BRANCH  13  14
ATOM     14  C   UNL     1      -8.864  32.734 -16.920  1.00  0.00     0.000 C 
BRANCH  14  15
ATOM     15  C   UNL     1      -9.608  33.498 -18.027  1.00  0.00     0.000 C 
BRANCH  15  16
ATOM     16  C   UNL     1      -9.087  33.158 -19.434  1.00  0.00     0.006 C 
BRANCH  16  17
ATOM     17  C   UNL     1     -10.127  33.457 -20.523  1.00  0.00     0.053 C 
BRANCH  17  18
ATOM     18  C   UNL     1      -9.775  32.801 -21.823  1.00  0.00     0.041 C 
ATOM     19  O   UNL     1      -8.595  32.415 -22.039  1.00  0.00    -0.550 OA
ATOM     20  O   UNL     1     -10.757  32.581 -22.781  1.00  0.00    -0.550 OA
ENDBRANCH  17  18
ENDBRANCH  16  17
ENDBRANCH  15  16
ENDBRANCH  14  15
ENDBRANCH  13  14
ENDBRANCH  12  13
ENDBRANCH  11  12
ENDBRANCH   1  11
TORSDOF 15
ENDMDL
