MODEL 1
REMARK VINA RESULT:    -5.018      0.000      0.000
REMARK INTER + INTRA:          -5.927
REMARK INTER:                  -5.751
REMARK INTRA:                  -0.176
REMARK UNBOUND:                -0.176
REMARK SMILES CC=Cc1ccc(O)c(OC)c1
REMARK SMILES IDX 4 1 12 2 9 3 7 4 6 5 5 6 3 7 1 8 2 9 10 10 11 11 8 12
REMARK H PARENT 8 13
REMARK Flexibility Score: inf
ROOT
ATOM      1  C   UNL     1      69.822  52.072  18.273  1.00  0.00    -0.022 A 
ATOM      2  C   UNL     1      69.912  51.427  19.522  1.00  0.00     0.058 A 
ATOM      3  C   UNL     1      68.836  50.660  20.016  1.00  0.00     0.161 A 
ATOM      4  C   UNL     1      67.669  50.535  19.242  1.00  0.00     0.157 A 
ATOM      5  C   UNL     1      67.587  51.162  17.996  1.00  0.00     0.051 A 
ATOM      6  C   UNL     1      68.653  51.918  17.512  1.00  0.00     0.012 A 
ENDROOT
BRANCH   1   7
ATOM      7  C   UNL     1      70.931  52.881  17.710  1.00  0.00     0.003 C 
ATOM      8  C   UNL     1      71.965  54.485  16.152  1.00  0.00     0.035 C 
ATOM      9  C   UNL     1      70.794  53.715  16.672  1.00  0.00    -0.030 C 
ENDBRANCH   1   7
BRANCH   3  10
ATOM     10  O   UNL     1      68.895  50.011  21.260  1.00  0.00    -0.493 OA
ATOM     11  C   UNL     1      69.871  50.272  22.264  1.00  0.00     0.278 C 
ENDBRANCH   3  10
BRANCH   4  12
ATOM     12  O   UNL     1      66.581  49.790  19.694  1.00  0.00    -0.504 OA
ATOM     13  H   UNL     1      66.195  49.020  19.161  1.00  0.00     0.293 HD
ENDBRANCH   4  12
TORSDOF 3
ENDMDL
MODEL 2
REMARK VINA RESULT:    -4.491      3.505      4.962
REMARK INTER + INTRA:          -5.323
REMARK INTER:                  -5.132
REMARK INTRA:                  -0.192
REMARK UNBOUND:                -0.176
REMARK SMILES CC=Cc1ccc(O)c(OC)c1
REMARK SMILES IDX 4 1 12 2 9 3 7 4 6 5 5 6 3 7 1 8 2 9 10 10 11 11 8 12
REMARK H PARENT 8 13
REMARK Flexibility Score: inf
ROOT
ATOM      1  C   UNL     1      69.779  51.076  21.029  1.00  0.00    -0.022 A 
ATOM      2  C   UNL     1      70.799  52.000  21.329  1.00  0.00     0.058 A 
ATOM      3  C   UNL     1      71.441  51.981  22.584  1.00  0.00     0.161 A 
ATOM      4  C   UNL     1      71.060  51.021  23.537  1.00  0.00     0.157 A 
ATOM      5  C   UNL     1      70.059  50.095  23.234  1.00  0.00     0.051 A 
ATOM      6  C   UNL     1      69.428  50.116  21.990  1.00  0.00     0.012 A 
ENDROOT
BRANCH   1   7
ATOM      7  C   UNL     1      69.083  51.052  19.719  1.00  0.00     0.003 C 
ATOM      8  C   UNL     1      67.230  50.542  18.177  1.00  0.00     0.035 C 
ATOM      9  C   UNL     1      67.859  50.543  19.533  1.00  0.00    -0.030 C 
ENDBRANCH   1   7
BRANCH   3  10
ATOM     10  O   UNL     1      72.458  52.894  22.914  1.00  0.00    -0.493 OA
ATOM     11  C   UNL     1      73.825  52.751  22.543  1.00  0.00     0.278 C 
ENDBRANCH   3  10
BRANCH   4  12
ATOM     12  O   UNL     1      71.666  50.970  24.792  1.00  0.00    -0.504 OA
ATOM     13  H   UNL     1      72.016  50.106  25.189  1.00  0.00     0.293 HD
ENDBRANCH   4  12
TORSDOF 3
ENDMDL
MODEL 3
REMARK VINA RESULT:    -4.456      1.447      1.923
REMARK INTER + INTRA:          -5.283
REMARK INTER:                  -5.118
REMARK INTRA:                  -0.165
REMARK UNBOUND:                -0.176
REMARK SMILES CC=Cc1ccc(O)c(OC)c1
REMARK SMILES IDX 4 1 12 2 9 3 7 4 6 5 5 6 3 7 1 8 2 9 10 10 11 11 8 12
REMARK H PARENT 8 13
REMARK Flexibility Score: inf
ROOT
ATOM      1  C   UNL     1      69.999  52.414  18.327  1.00  0.00    -0.022 A 
ATOM      2  C   UNL     1      70.710  52.577  19.531  1.00  0.00     0.058 A 
ATOM      3  C   UNL     1      70.383  51.810  20.670  1.00  0.00     0.161 A 
ATOM      4  C   UNL     1      69.343  50.869  20.589  1.00  0.00     0.157 A 
ATOM      5  C   UNL     1      68.649  50.696  19.388  1.00  0.00     0.051 A 
ATOM      6  C   UNL     1      68.976  51.455  18.266  1.00  0.00     0.012 A 
ENDROOT
BRANCH   1   7
ATOM      7  C   UNL     1      70.314  53.191  17.102  1.00  0.00     0.003 C 
ATOM      8  C   UNL     1      71.747  54.513  15.597  1.00  0.00     0.035 C 
ATOM      9  C   UNL     1      71.512  53.730  16.848  1.00  0.00    -0.030 C 
ENDBRANCH   1   7
BRANCH   3  10
ATOM     10  O   UNL     1      71.070  51.956  21.887  1.00  0.00    -0.493 OA
ATOM     11  C   UNL     1      70.841  53.000  22.826  1.00  0.00     0.278 C 
ENDBRANCH   3  10
BRANCH   4  12
ATOM     12  O   UNL     1      68.985  50.093  21.691  1.00  0.00    -0.504 OA
ATOM     13  H   UNL     1      69.613  49.941  22.471  1.00  0.00     0.293 HD
ENDBRANCH   4  12
TORSDOF 3
ENDMDL
MODEL 4
REMARK VINA RESULT:    -4.449      3.493      5.030
REMARK INTER + INTRA:          -5.275
REMARK INTER:                  -5.084
REMARK INTRA:                  -0.191
REMARK UNBOUND:                -0.176
REMARK SMILES CC=Cc1ccc(O)c(OC)c1
REMARK SMILES IDX 4 1 12 2 9 3 7 4 6 5 5 6 3 7 1 8 2 9 10 10 11 11 8 12
REMARK H PARENT 8 13
REMARK Flexibility Score: inf
ROOT
ATOM      1  C   UNL     1      69.801  51.010  21.412  1.00  0.00    -0.022 A 
ATOM      2  C   UNL     1      70.121  50.500  22.685  1.00  0.00     0.058 A 
ATOM      3  C   UNL     1      71.171  51.060  23.442  1.00  0.00     0.161 A 
ATOM      4  C   UNL     1      71.895  52.144  22.917  1.00  0.00     0.157 A 
ATOM      5  C   UNL     1      71.567  52.661  21.661  1.00  0.00     0.051 A 
ATOM      6  C   UNL     1      70.527  52.105  20.917  1.00  0.00     0.012 A 
ENDROOT
BRANCH   1   7
ATOM      7  C   UNL     1      68.699  50.460  20.585  1.00  0.00     0.003 C 
ATOM      8  C   UNL     1      67.126  50.424  18.689  1.00  0.00     0.035 C 
ATOM      9  C   UNL     1      68.253  51.032  19.460  1.00  0.00    -0.030 C 
ENDBRANCH   1   7
BRANCH   3  10
ATOM     10  O   UNL     1      71.517  50.568  24.712  1.00  0.00    -0.493 OA
ATOM     11  C   UNL     1      72.094  49.289  24.956  1.00  0.00     0.278 C 
ENDBRANCH   3  10
BRANCH   4  12
ATOM     12  O   UNL     1      72.943  52.725  23.631  1.00  0.00    -0.504 OA
ATOM     13  H   UNL     1      73.070  52.573  24.624  1.00  0.00     0.293 HD
ENDBRANCH   4  12
TORSDOF 3
ENDMDL
MODEL 5
REMARK VINA RESULT:    -4.421      3.964      7.177
REMARK INTER + INTRA:          -5.243
REMARK INTER:                  -5.079
REMARK INTRA:                  -0.165
REMARK UNBOUND:                -0.176
REMARK SMILES CC=Cc1ccc(O)c(OC)c1
REMARK SMILES IDX 4 1 12 2 9 3 7 4 6 5 5 6 3 7 1 8 2 9 10 10 11 11 8 12
REMARK H PARENT 8 13
REMARK Flexibility Score: inf
ROOT
ATOM      1  C   UNL     1      71.710  51.970  25.291  1.00  0.00    -0.022 A 
ATOM      2  C   UNL     1      70.909  52.220  24.160  1.00  0.00     0.058 A 
ATOM      3  C   UNL     1      70.529  51.168  23.300  1.00  0.00     0.161 A 
ATOM      4  C   UNL     1      70.952  49.858  23.587  1.00  0.00     0.157 A 
ATOM      5  C   UNL     1      71.733  49.609  24.718  1.00  0.00     0.051 A 
ATOM      6  C   UNL     1      72.105  50.651  25.566  1.00  0.00     0.012 A 
ENDROOT
BRANCH   1   7
ATOM      7  C   UNL     1      72.125  53.042  26.228  1.00  0.00     0.003 C 
ATOM      8  C   UNL     1      71.772  54.780  27.940  1.00  0.00     0.035 C 
ATOM      9  C   UNL     1      71.279  53.699  27.032  1.00  0.00    -0.030 C 
ENDBRANCH   1   7
BRANCH   3  10
ATOM     10  O   UNL     1      69.736  51.388  22.161  1.00  0.00    -0.493 OA
ATOM     11  C   UNL     1      70.235  51.813  20.897  1.00  0.00     0.278 C 
ENDBRANCH   3  10
BRANCH   4  12
ATOM     12  O   UNL     1      70.603  48.791  22.761  1.00  0.00    -0.504 OA
ATOM     13  H   UNL     1      70.738  47.826  23.039  1.00  0.00     0.293 HD
ENDBRANCH   4  12
TORSDOF 3
ENDMDL
MODEL 6
REMARK VINA RESULT:    -4.375      1.881      2.851
REMARK INTER + INTRA:          -5.190
REMARK INTER:                  -4.995
REMARK INTRA:                  -0.195
REMARK UNBOUND:                -0.176
REMARK SMILES CC=Cc1ccc(O)c(OC)c1
REMARK SMILES IDX 4 1 12 2 9 3 7 4 6 5 5 6 3 7 1 8 2 9 10 10 11 11 8 12
REMARK H PARENT 8 13
REMARK Flexibility Score: inf
ROOT
ATOM      1  C   UNL     1      70.404  52.040  20.204  1.00  0.00    -0.022 A 
ATOM      2  C   UNL     1      70.880  52.185  21.521  1.00  0.00     0.058 A 
ATOM      3  C   UNL     1      70.407  51.348  22.554  1.00  0.00     0.161 A 
ATOM      4  C   UNL     1      69.458  50.356  22.255  1.00  0.00     0.157 A 
ATOM      5  C   UNL     1      68.997  50.202  20.945  1.00  0.00     0.051 A 
ATOM      6  C   UNL     1      69.469  51.030  19.927  1.00  0.00     0.012 A 
ENDROOT
BRANCH   1   7
ATOM      7  C   UNL     1      70.879  52.889  19.085  1.00  0.00     0.003 C 
ATOM      8  C   UNL     1      70.925  53.716  16.764  1.00  0.00     0.035 C 
ATOM      9  C   UNL     1      70.381  52.836  17.843  1.00  0.00    -0.030 C 
ENDBRANCH   1   7
BRANCH   3  10
ATOM     10  O   UNL     1      70.859  51.474  23.879  1.00  0.00    -0.493 OA
ATOM     11  C   UNL     1      72.111  50.990  24.356  1.00  0.00     0.278 C 
ENDBRANCH   3  10
BRANCH   4  12
ATOM     12  O   UNL     1      68.961  49.511  23.247  1.00  0.00    -0.504 OA
ATOM     13  H   UNL     1      69.466  49.332  24.107  1.00  0.00     0.293 HD
ENDBRANCH   4  12
TORSDOF 3
ENDMDL
MODEL 7
REMARK VINA RESULT:    -4.300      2.950      4.698
REMARK INTER + INTRA:          -5.104
REMARK INTER:                  -4.929
REMARK INTRA:                  -0.175
REMARK UNBOUND:                -0.176
REMARK SMILES CC=Cc1ccc(O)c(OC)c1
REMARK SMILES IDX 4 1 12 2 9 3 7 4 6 5 5 6 3 7 1 8 2 9 10 10 11 11 8 12
REMARK H PARENT 8 13
REMARK Flexibility Score: inf
ROOT
ATOM      1  C   UNL     1      69.418  51.553  21.036  1.00  0.00    -0.022 A 
ATOM      2  C   UNL     1      69.065  52.889  20.764  1.00  0.00     0.058 A 
ATOM      3  C   UNL     1      68.126  53.195  19.756  1.00  0.00     0.161 A 
ATOM      4  C   UNL     1      67.535  52.148  19.027  1.00  0.00     0.157 A 
ATOM      5  C   UNL     1      67.874  50.822  19.308  1.00  0.00     0.051 A 
ATOM      6  C   UNL     1      68.801  50.525  20.306  1.00  0.00     0.012 A 
ENDROOT
BRANCH   1   7
ATOM      7  C   UNL     1      70.392  51.184  22.092  1.00  0.00     0.003 C 
ATOM      8  C   UNL     1      71.165  50.000  24.110  1.00  0.00     0.035 C 
ATOM      9  C   UNL     1      70.135  50.309  23.072  1.00  0.00    -0.030 C 
ENDBRANCH   1   7
BRANCH   3  10
ATOM     10  O   UNL     1      67.759  54.518  19.458  1.00  0.00    -0.493 OA
ATOM     11  C   UNL     1      67.262  55.454  20.409  1.00  0.00     0.278 C 
ENDBRANCH   3  10
BRANCH   4  12
ATOM     12  O   UNL     1      66.606  52.407  18.020  1.00  0.00    -0.504 OA
ATOM     13  H   UNL     1      66.330  51.703  17.345  1.00  0.00     0.293 HD
ENDBRANCH   4  12
TORSDOF 3
ENDMDL
MODEL 8
REMARK VINA RESULT:    -4.197      2.898      4.985
REMARK INTER + INTRA:          -4.987
REMARK INTER:                  -4.828
REMARK INTRA:                  -0.159
REMARK UNBOUND:                -0.176
REMARK SMILES CC=Cc1ccc(O)c(OC)c1
REMARK SMILES IDX 4 1 12 2 9 3 7 4 6 5 5 6 3 7 1 8 2 9 10 10 11 11 8 12
REMARK H PARENT 8 13
REMARK Flexibility Score: inf
ROOT
ATOM      1  C   UNL     1      69.778  51.602  19.437  1.00  0.00    -0.022 A 
ATOM      2  C   UNL     1      70.850  52.497  19.618  1.00  0.00     0.058 A 
ATOM      3  C   UNL     1      71.195  53.421  18.608  1.00  0.00     0.161 A 
ATOM      4  C   UNL     1      70.449  53.447  17.417  1.00  0.00     0.157 A 
ATOM      5  C   UNL     1      69.375  52.570  17.245  1.00  0.00     0.051 A 
ATOM      6  C   UNL     1      69.038  51.660  18.246  1.00  0.00     0.012 A 
ENDROOT
BRANCH   1   7
ATOM      7  C   UNL     1      69.374  50.621  20.474  1.00  0.00     0.003 C 
ATOM      8  C   UNL     1      69.255  49.694  22.754  1.00  0.00     0.035 C 
ATOM      9  C   UNL     1      69.687  50.734  21.771  1.00  0.00    -0.030 C 
ENDBRANCH   1   7
BRANCH   3  10
ATOM     10  O   UNL     1      72.263  54.322  18.758  1.00  0.00    -0.493 OA
ATOM     11  C   UNL     1      73.615  54.037  18.416  1.00  0.00     0.278 C 
ENDBRANCH   3  10
BRANCH   4  12
ATOM     12  O   UNL     1      70.758  54.342  16.393  1.00  0.00    -0.504 OA
ATOM     13  H   UNL     1      71.658  54.803  16.332  1.00  0.00     0.293 HD
ENDBRANCH   4  12
TORSDOF 3
ENDMDL
MODEL 9
REMARK VINA RESULT:    -4.141      3.393      5.718
REMARK INTER + INTRA:          -4.922
REMARK INTER:                  -4.753
REMARK INTRA:                  -0.169
REMARK UNBOUND:                -0.176
REMARK SMILES CC=Cc1ccc(O)c(OC)c1
REMARK SMILES IDX 4 1 12 2 9 3 7 4 6 5 5 6 3 7 1 8 2 9 10 10 11 11 8 12
REMARK H PARENT 8 13
REMARK Flexibility Score: inf
ROOT
ATOM      1  C   UNL     1      69.733  52.641  18.310  1.00  0.00    -0.022 A 
ATOM      2  C   UNL     1      70.279  53.093  17.093  1.00  0.00     0.058 A 
ATOM      3  C   UNL     1      71.510  53.782  17.067  1.00  0.00     0.161 A 
ATOM      4  C   UNL     1      72.197  54.006  18.272  1.00  0.00     0.157 A 
ATOM      5  C   UNL     1      71.664  53.543  19.478  1.00  0.00     0.051 A 
ATOM      6  C   UNL     1      70.447  52.862  19.498  1.00  0.00     0.012 A 
ENDROOT
BRANCH   1   7
ATOM      7  C   UNL     1      68.448  51.905  18.384  1.00  0.00     0.003 C 
ATOM      8  C   UNL     1      66.937  50.107  19.131  1.00  0.00     0.035 C 
ATOM      9  C   UNL     1      68.260  50.803  19.120  1.00  0.00    -0.030 C 
ENDBRANCH   1   7
BRANCH   3  10
ATOM     10  O   UNL     1      72.076  54.250  15.869  1.00  0.00    -0.493 OA
ATOM     11  C   UNL     1      71.849  55.543  15.317  1.00  0.00     0.278 C 
ENDBRANCH   3  10
BRANCH   4  12
ATOM     12  O   UNL     1      73.415  54.686  18.292  1.00  0.00    -0.504 OA
ATOM     13  H   UNL     1      73.491  55.650  18.594  1.00  0.00     0.293 HD
ENDBRANCH   4  12
TORSDOF 3
ENDMDL
