MODEL 1
REMARK VINA RESULT:    -5.875      0.000      0.000
REMARK INTER + INTRA:         -10.082
REMARK INTER:                  -7.764
REMARK INTRA:                  -2.318
REMARK UNBOUND:                -2.318
REMARK SMILES CC[C@@H](C=C[C@@H](C)[C@@H]1CC[C@H]2[C@@H]3CC=C4C[C@@H](O)CC[C@]4(C)[C@@H]3CC[C@]21C)C(C)C
REMARK SMILES IDX 6 1 7 2 5 3 4 4 3 5 2 6 1 7 28 8 29 9 30 10 8 11 9 12 26 13
REMARK SMILES IDX 10 14 11 15 25 16 27 17 12 18 24 19 23 20 13 21 21 22 14 23
REMARK SMILES IDX 15 24 20 25 22 26 16 27 19 28 17 29 18 30
REMARK H PARENT 18 31
REMARK Flexibility Score: inf
ROOT
ATOM      1  C   UNL     1     116.220 121.122 132.333  1.00  0.00     0.012 C 
ATOM      2  C   UNL     1     115.088 120.225 132.865  1.00  0.00     0.012 C 
ENDROOT
BRANCH   1   3
ATOM      3  C   UNL     1     117.141 120.339 131.402  1.00  0.00    -0.028 C 
ATOM      4  C   UNL     1     117.767 120.844 130.317  1.00  0.00    -0.027 C 
BRANCH   4   5
ATOM      5  C   UNL     1     117.694 122.279 129.830  1.00  0.00     0.014 C 
BRANCH   5   6
ATOM      6  C   UNL     1     116.322 122.539 129.168  1.00  0.00     0.004 C 
ATOM      7  C   UNL     1     115.763 123.925 129.504  1.00  0.00     0.004 C 
ENDBRANCH   5   6
BRANCH   5   8
ATOM      8  C   UNL     1     118.912 122.611 128.909  1.00  0.00    -0.011 C 
ATOM      9  C   UNL     1     120.093 121.654 129.163  1.00  0.00     0.008 C 
ATOM     10  C   UNL     1     119.383 124.071 129.020  1.00  0.00     0.008 C 
ENDBRANCH   5   8
ENDBRANCH   4   5
ENDBRANCH   1   3
BRANCH   1  11
ATOM     11  C   UNL     1     116.964 121.909 133.474  1.00  0.00     0.002 C 
ATOM     12  C   UNL     1     116.454 121.581 134.890  1.00  0.00     0.005 C 
ATOM     13  C   UNL     1     117.095 123.475 133.435  1.00  0.00    -0.026 C 
ATOM     14  C   UNL     1     116.661 122.834 135.739  1.00  0.00     0.005 C 
ATOM     15  C   UNL     1     117.477 123.827 134.888  1.00  0.00    -0.001 C 
ATOM     16  C   UNL     1     118.143 124.069 132.473  1.00  0.00     0.007 C 
ATOM     17  C   UNL     1     115.742 124.168 133.109  1.00  0.00     0.012 C 
ATOM     18  C   UNL     1     119.007 123.767 135.287  1.00  0.00     0.000 C 
ATOM     19  C   UNL     1     119.563 123.583 132.734  1.00  0.00     0.005 C 
ATOM     20  C   UNL     1     120.104 123.957 134.143  1.00  0.00     0.003 C 
ATOM     21  C   UNL     1     119.204 124.761 136.462  1.00  0.00     0.031 C 
ATOM     22  C   UNL     1     120.972 125.298 134.258  1.00  0.00    -0.008 C 
ATOM     23  C   UNL     1     119.328 126.156 135.918  1.00  0.00    -0.027 C 
ATOM     24  C   UNL     1     120.078 126.414 134.829  1.00  0.00    -0.065 C 
ATOM     25  C   UNL     1     121.691 125.734 132.931  1.00  0.00     0.014 C 
ATOM     26  C   UNL     1     122.147 125.057 135.254  1.00  0.00     0.016 C 
ATOM     27  C   UNL     1     119.838 127.751 134.135  1.00  0.00     0.063 C 
ATOM     28  C   UNL     1     120.892 126.720 132.079  1.00  0.00     0.033 C 
ATOM     29  C   UNL     1     120.657 128.012 132.866  1.00  0.00     0.118 C 
BRANCH  29  30
ATOM     30  O   UNL     1     121.880 128.621 133.202  1.00  0.00    -0.393 OA
ATOM     31  H   UNL     1     122.581 127.923 133.112  1.00  0.00     0.210 HD
ENDBRANCH  29  30
ENDBRANCH   1  11
TORSDOF 6
ENDMDL
MODEL 2
REMARK VINA RESULT:    -5.839      1.652      2.731
REMARK INTER + INTRA:         -10.034
REMARK INTER:                  -8.036
REMARK INTRA:                  -1.997
REMARK UNBOUND:                -2.318
REMARK SMILES CC[C@@H](C=C[C@@H](C)[C@@H]1CC[C@H]2[C@@H]3CC=C4C[C@@H](O)CC[C@]4(C)[C@@H]3CC[C@]21C)C(C)C
REMARK SMILES IDX 6 1 7 2 5 3 4 4 3 5 2 6 1 7 28 8 29 9 30 10 8 11 9 12 26 13
REMARK SMILES IDX 10 14 11 15 25 16 27 17 12 18 24 19 23 20 13 21 21 22 14 23
REMARK SMILES IDX 15 24 20 25 22 26 16 27 19 28 17 29 18 30
REMARK H PARENT 18 31
REMARK Flexibility Score: inf
ROOT
ATOM      1  C   UNL     1     116.659 121.583 131.354  1.00  0.00     0.012 C 
ATOM      2  C   UNL     1     115.890 120.351 131.861  1.00  0.00     0.012 C 
ENDROOT
BRANCH   1   3
ATOM      3  C   UNL     1     117.660 121.192 130.272  1.00  0.00    -0.028 C 
ATOM      4  C   UNL     1     118.652 120.288 130.416  1.00  0.00    -0.027 C 
BRANCH   4   5
ATOM      5  C   UNL     1     118.948 119.476 131.664  1.00  0.00     0.014 C 
BRANCH   5   6
ATOM      6  C   UNL     1     120.012 120.200 132.520  1.00  0.00     0.004 C 
ATOM      7  C   UNL     1     119.631 120.256 134.002  1.00  0.00     0.004 C 
ENDBRANCH   5   6
BRANCH   5   8
ATOM      8  C   UNL     1     119.331 118.008 131.289  1.00  0.00    -0.011 C 
ATOM      9  C   UNL     1     119.795 117.899 129.823  1.00  0.00     0.008 C 
ATOM     10  C   UNL     1     118.208 116.993 131.564  1.00  0.00     0.008 C 
ENDBRANCH   5   8
ENDBRANCH   4   5
ENDBRANCH   1   3
BRANCH   1  11
ATOM     11  C   UNL     1     117.265 122.448 132.521  1.00  0.00     0.002 C 
ATOM     12  C   UNL     1     116.507 122.313 133.854  1.00  0.00     0.005 C 
ATOM     13  C   UNL     1     117.524 123.989 132.347  1.00  0.00    -0.026 C 
ATOM     14  C   UNL     1     116.670 123.639 134.596  1.00  0.00     0.005 C 
ATOM     15  C   UNL     1     117.689 124.478 133.801  1.00  0.00    -0.001 C 
ATOM     16  C   UNL     1     118.758 124.406 131.524  1.00  0.00     0.007 C 
ATOM     17  C   UNL     1     116.301 124.722 131.726  1.00  0.00     0.012 C 
ATOM     18  C   UNL     1     119.124 124.371 134.460  1.00  0.00     0.000 C 
ATOM     19  C   UNL     1     120.074 123.868 132.071  1.00  0.00     0.005 C 
ATOM     20  C   UNL     1     120.405 124.365 133.507  1.00  0.00     0.003 C 
ATOM     21  C   UNL     1     119.203 125.478 135.545  1.00  0.00     0.031 C 
ATOM     22  C   UNL     1     121.344 125.655 133.634  1.00  0.00    -0.008 C 
ATOM     23  C   UNL     1     119.524 126.793 134.892  1.00  0.00    -0.027 C 
ATOM     24  C   UNL     1     120.460 126.881 133.927  1.00  0.00    -0.065 C 
ATOM     25  C   UNL     1     122.304 125.895 132.412  1.00  0.00     0.014 C 
ATOM     26  C   UNL     1     122.319 125.458 134.835  1.00  0.00     0.016 C 
ATOM     27  C   UNL     1     120.443 128.142 133.072  1.00  0.00     0.063 C 
ATOM     28  C   UNL     1     121.735 126.825 131.341  1.00  0.00     0.033 C 
ATOM     29  C   UNL     1     121.476 128.209 131.942  1.00  0.00     0.118 C 
BRANCH  29  30
ATOM     30  O   UNL     1     122.671 128.777 132.418  1.00  0.00    -0.393 OA
ATOM     31  H   UNL     1     123.191 129.061 131.620  1.00  0.00     0.210 HD
ENDBRANCH  29  30
ENDBRANCH   1  11
TORSDOF 6
ENDMDL
MODEL 3
REMARK VINA RESULT:    -5.833      2.472      6.427
REMARK INTER + INTRA:         -10.026
REMARK INTER:                  -7.596
REMARK INTRA:                  -2.430
REMARK UNBOUND:                -2.318
REMARK SMILES CC[C@@H](C=C[C@@H](C)[C@@H]1CC[C@H]2[C@@H]3CC=C4C[C@@H](O)CC[C@]4(C)[C@@H]3CC[C@]21C)C(C)C
REMARK SMILES IDX 6 1 7 2 5 3 4 4 3 5 2 6 1 7 28 8 29 9 30 10 8 11 9 12 26 13
REMARK SMILES IDX 10 14 11 15 25 16 27 17 12 18 24 19 23 20 13 21 21 22 14 23
REMARK SMILES IDX 15 24 20 25 22 26 16 27 19 28 17 29 18 30
REMARK H PARENT 18 31
REMARK Flexibility Score: inf
ROOT
ATOM      1  C   UNL     1     119.800 128.081 133.862  1.00  0.00     0.012 C 
ATOM      2  C   UNL     1     119.389 129.126 134.914  1.00  0.00     0.012 C 
ENDROOT
BRANCH   1   3
ATOM      3  C   UNL     1     120.518 128.744 132.690  1.00  0.00    -0.028 C 
ATOM      4  C   UNL     1     121.512 128.185 131.967  1.00  0.00    -0.027 C 
BRANCH   4   5
ATOM      5  C   UNL     1     122.088 126.795 132.162  1.00  0.00     0.014 C 
BRANCH   5   6
ATOM      6  C   UNL     1     123.062 126.796 133.362  1.00  0.00     0.004 C 
ATOM      7  C   UNL     1     122.617 125.845 134.478  1.00  0.00     0.004 C 
ENDBRANCH   5   6
BRANCH   5   8
ATOM      8  C   UNL     1     122.722 126.269 130.835  1.00  0.00    -0.011 C 
ATOM      9  C   UNL     1     121.975 126.805 129.598  1.00  0.00     0.008 C 
ATOM     10  C   UNL     1     122.820 124.736 130.770  1.00  0.00     0.008 C 
ENDBRANCH   5   8
ENDBRANCH   4   5
ENDBRANCH   1   3
BRANCH   1  11
ATOM     11  C   UNL     1     118.616 127.132 133.449  1.00  0.00     0.002 C 
ATOM     12  C   UNL     1     117.229 127.640 133.886  1.00  0.00     0.005 C 
ATOM     13  C   UNL     1     118.629 125.602 133.812  1.00  0.00    -0.026 C 
ATOM     14  C   UNL     1     116.355 126.408 134.115  1.00  0.00     0.005 C 
ATOM     15  C   UNL     1     117.155 125.188 133.618  1.00  0.00    -0.001 C 
ATOM     16  C   UNL     1     119.533 124.686 132.965  1.00  0.00     0.007 C 
ATOM     17  C   UNL     1     119.008 125.357 135.300  1.00  0.00     0.012 C 
ATOM     18  C   UNL     1     116.686 124.778 132.163  1.00  0.00     0.000 C 
ATOM     19  C   UNL     1     119.213 124.711 131.476  1.00  0.00     0.005 C 
ATOM     20  C   UNL     1     117.776 124.225 131.136  1.00  0.00     0.003 C 
ATOM     21  C   UNL     1     115.491 123.804 132.334  1.00  0.00     0.031 C 
ATOM     22  C   UNL     1     117.603 122.684 130.736  1.00  0.00    -0.008 C 
ATOM     23  C   UNL     1     116.011 122.426 132.631  1.00  0.00    -0.027 C 
ATOM     24  C   UNL     1     117.061 121.918 131.956  1.00  0.00    -0.065 C 
ATOM     25  C   UNL     1     118.890 122.010 130.137  1.00  0.00     0.014 C 
ATOM     26  C   UNL     1     116.557 122.573 129.585  1.00  0.00     0.016 C 
ATOM     27  C   UNL     1     117.747 120.705 132.574  1.00  0.00     0.063 C 
ATOM     28  C   UNL     1     119.765 121.300 131.169  1.00  0.00     0.033 C 
ATOM     29  C   UNL     1     118.974 120.168 131.828  1.00  0.00     0.118 C 
BRANCH  29  30
ATOM     30  O   UNL     1     118.574 119.216 130.872  1.00  0.00    -0.393 OA
ATOM     31  H   UNL     1     119.162 119.343 130.080  1.00  0.00     0.210 HD
ENDBRANCH  29  30
ENDBRANCH   1  11
TORSDOF 6
ENDMDL
MODEL 4
REMARK VINA RESULT:    -5.813      2.455      3.930
REMARK INTER + INTRA:         -10.000
REMARK INTER:                  -7.701
REMARK INTRA:                  -2.299
REMARK UNBOUND:                -2.318
REMARK SMILES CC[C@@H](C=C[C@@H](C)[C@@H]1CC[C@H]2[C@@H]3CC=C4C[C@@H](O)CC[C@]4(C)[C@@H]3CC[C@]21C)C(C)C
REMARK SMILES IDX 6 1 7 2 5 3 4 4 3 5 2 6 1 7 28 8 29 9 30 10 8 11 9 12 26 13
REMARK SMILES IDX 10 14 11 15 25 16 27 17 12 18 24 19 23 20 13 21 21 22 14 23
REMARK SMILES IDX 15 24 20 25 22 26 16 27 19 28 17 29 18 30
REMARK H PARENT 18 31
REMARK Flexibility Score: inf
ROOT
ATOM      1  C   UNL     1     119.914 118.868 133.106  1.00  0.00     0.012 C 
ATOM      2  C   UNL     1     120.883 117.674 133.057  1.00  0.00     0.012 C 
ENDROOT
BRANCH   1   3
ATOM      3  C   UNL     1     119.370 119.183 131.716  1.00  0.00    -0.028 C 
ATOM      4  C   UNL     1     118.064 119.312 131.399  1.00  0.00    -0.027 C 
BRANCH   4   5
ATOM      5  C   UNL     1     116.894 119.190 132.359  1.00  0.00     0.014 C 
BRANCH   5   6
ATOM      6  C   UNL     1     116.297 117.767 132.279  1.00  0.00     0.004 C 
ATOM      7  C   UNL     1     114.810 117.776 131.914  1.00  0.00     0.004 C 
ENDBRANCH   5   6
BRANCH   5   8
ATOM      8  C   UNL     1     115.853 120.327 132.106  1.00  0.00    -0.011 C 
ATOM      9  C   UNL     1     116.393 121.383 131.121  1.00  0.00     0.008 C 
ATOM     10  C   UNL     1     115.365 121.008 133.396  1.00  0.00     0.008 C 
ENDBRANCH   5   8
ENDBRANCH   4   5
ENDBRANCH   1   3
BRANCH   1  11
ATOM     11  C   UNL     1     120.508 120.108 133.870  1.00  0.00     0.002 C 
ATOM     12  C   UNL     1     121.578 119.740 134.916  1.00  0.00     0.005 C 
ATOM     13  C   UNL     1     119.576 121.153 134.583  1.00  0.00    -0.026 C 
ATOM     14  C   UNL     1     121.507 120.797 136.016  1.00  0.00     0.005 C 
ATOM     15  C   UNL     1     120.546 121.897 135.525  1.00  0.00    -0.001 C 
ATOM     16  C   UNL     1     118.850 122.174 133.686  1.00  0.00     0.007 C 
ATOM     17  C   UNL     1     118.487 120.467 135.456  1.00  0.00     0.012 C 
ATOM     18  C   UNL     1     121.362 123.117 134.933  1.00  0.00     0.000 C 
ATOM     19  C   UNL     1     119.787 123.028 132.842  1.00  0.00     0.005 C 
ATOM     20  C   UNL     1     120.763 123.903 133.680  1.00  0.00     0.003 C 
ATOM     21  C   UNL     1     121.683 124.061 136.121  1.00  0.00     0.031 C 
ATOM     22  C   UNL     1     120.314 125.410 133.982  1.00  0.00    -0.008 C 
ATOM     23  C   UNL     1     120.483 124.917 136.415  1.00  0.00    -0.027 C 
ATOM     24  C   UNL     1     119.771 125.482 135.420  1.00  0.00    -0.065 C 
ATOM     25  C   UNL     1     119.312 126.022 132.937  1.00  0.00     0.014 C 
ATOM     26  C   UNL     1     121.562 126.340 133.884  1.00  0.00     0.016 C 
ATOM     27  C   UNL     1     118.381 125.994 135.780  1.00  0.00     0.063 C 
ATOM     28  C   UNL     1     117.839 125.860 133.313  1.00  0.00     0.033 C 
ATOM     29  C   UNL     1     117.558 126.586 134.631  1.00  0.00     0.118 C 
BRANCH  29  30
ATOM     30  O   UNL     1     117.825 127.962 134.509  1.00  0.00    -0.393 OA
ATOM     31  H   UNL     1     117.194 128.431 135.117  1.00  0.00     0.210 HD
ENDBRANCH  29  30
ENDBRANCH   1  11
TORSDOF 6
ENDMDL
MODEL 5
REMARK VINA RESULT:    -5.703      1.975      2.697
REMARK INTER + INTRA:          -9.855
REMARK INTER:                  -7.584
REMARK INTRA:                  -2.270
REMARK UNBOUND:                -2.318
REMARK SMILES CC[C@@H](C=C[C@@H](C)[C@@H]1CC[C@H]2[C@@H]3CC=C4C[C@@H](O)CC[C@]4(C)[C@@H]3CC[C@]21C)C(C)C
REMARK SMILES IDX 6 1 7 2 5 3 4 4 3 5 2 6 1 7 28 8 29 9 30 10 8 11 9 12 26 13
REMARK SMILES IDX 10 14 11 15 25 16 27 17 12 18 24 19 23 20 13 21 21 22 14 23
REMARK SMILES IDX 15 24 20 25 22 26 16 27 19 28 17 29 18 30
REMARK H PARENT 18 31
REMARK Flexibility Score: inf
ROOT
ATOM      1  C   UNL     1     118.898 119.530 131.683  1.00  0.00     0.012 C 
ATOM      2  C   UNL     1     118.504 118.121 132.159  1.00  0.00     0.012 C 
ENDROOT
BRANCH   1   3
ATOM      3  C   UNL     1     119.555 119.474 130.307  1.00  0.00    -0.028 C 
ATOM      4  C   UNL     1     119.571 120.481 129.408  1.00  0.00    -0.027 C 
BRANCH   4   5
ATOM      5  C   UNL     1     118.963 121.859 129.598  1.00  0.00     0.014 C 
BRANCH   5   6
ATOM      6  C   UNL     1     117.481 121.843 129.160  1.00  0.00     0.004 C 
ATOM      7  C   UNL     1     116.523 122.106 130.326  1.00  0.00     0.004 C 
ENDBRANCH   5   6
BRANCH   5   8
ATOM      8  C   UNL     1     119.823 122.945 128.875  1.00  0.00    -0.011 C 
ATOM      9  C   UNL     1     121.295 122.899 129.330  1.00  0.00     0.008 C 
ATOM     10  C   UNL     1     119.266 124.370 129.032  1.00  0.00     0.008 C 
ENDBRANCH   5   8
ENDBRANCH   4   5
ENDBRANCH   1   3
BRANCH   1  11
ATOM     11  C   UNL     1     119.712 120.334 132.762  1.00  0.00     0.002 C 
ATOM     12  C   UNL     1     120.566 119.446 133.686  1.00  0.00     0.005 C 
ATOM     13  C   UNL     1     119.009 121.367 133.715  1.00  0.00    -0.026 C 
ATOM     14  C   UNL     1     120.664 120.167 135.030  1.00  0.00     0.005 C 
ATOM     15  C   UNL     1     120.049 121.567 134.837  1.00  0.00    -0.001 C 
ATOM     16  C   UNL     1     118.635 122.736 133.114  1.00  0.00     0.007 C 
ATOM     17  C   UNL     1     117.715 120.788 134.353  1.00  0.00     0.012 C 
ATOM     18  C   UNL     1     121.187 122.643 134.609  1.00  0.00     0.000 C 
ATOM     19  C   UNL     1     119.821 123.505 132.546  1.00  0.00     0.005 C 
ATOM     20  C   UNL     1     120.907 123.851 133.604  1.00  0.00     0.003 C 
ATOM     21  C   UNL     1     121.628 123.135 136.012  1.00  0.00     0.031 C 
ATOM     22  C   UNL     1     120.819 125.294 134.293  1.00  0.00    -0.008 C 
ATOM     23  C   UNL     1     120.654 124.168 136.506  1.00  0.00    -0.027 C 
ATOM     24  C   UNL     1     120.191 125.134 135.689  1.00  0.00    -0.065 C 
ATOM     25  C   UNL     1     120.090 126.391 133.436  1.00  0.00     0.014 C 
ATOM     26  C   UNL     1     122.261 125.861 134.469  1.00  0.00     0.016 C 
ATOM     27  C   UNL     1     118.943 125.879 136.152  1.00  0.00     0.063 C 
ATOM     28  C   UNL     1     118.596 126.526 133.731  1.00  0.00     0.033 C 
ATOM     29  C   UNL     1     118.391 126.938 135.191  1.00  0.00     0.118 C 
BRANCH  29  30
ATOM     30  O   UNL     1     118.998 128.181 135.449  1.00  0.00    -0.393 OA
ATOM     31  H   UNL     1     119.161 128.222 136.428  1.00  0.00     0.210 HD
ENDBRANCH  29  30
ENDBRANCH   1  11
TORSDOF 6
ENDMDL
MODEL 6
REMARK VINA RESULT:    -5.688      3.270      4.443
REMARK INTER + INTRA:          -9.834
REMARK INTER:                  -7.542
REMARK INTRA:                  -2.292
REMARK UNBOUND:                -2.318
REMARK SMILES CC[C@@H](C=C[C@@H](C)[C@@H]1CC[C@H]2[C@@H]3CC=C4C[C@@H](O)CC[C@]4(C)[C@@H]3CC[C@]21C)C(C)C
REMARK SMILES IDX 6 1 7 2 5 3 4 4 3 5 2 6 1 7 28 8 29 9 30 10 8 11 9 12 26 13
REMARK SMILES IDX 10 14 11 15 25 16 27 17 12 18 24 19 23 20 13 21 21 22 14 23
REMARK SMILES IDX 15 24 20 25 22 26 16 27 19 28 17 29 18 30
REMARK H PARENT 18 31
REMARK Flexibility Score: inf
ROOT
ATOM      1  C   UNL     1     119.203 118.602 131.286  1.00  0.00     0.012 C 
ATOM      2  C   UNL     1     118.702 117.205 130.881  1.00  0.00     0.012 C 
ENDROOT
BRANCH   1   3
ATOM      3  C   UNL     1     120.126 119.179 130.216  1.00  0.00    -0.028 C 
ATOM      4  C   UNL     1     120.126 120.462 129.794  1.00  0.00    -0.027 C 
BRANCH   4   5
ATOM      5  C   UNL     1     119.232 121.574 130.313  1.00  0.00     0.014 C 
BRANCH   5   6
ATOM      6  C   UNL     1     117.797 121.388 129.771  1.00  0.00     0.004 C 
ATOM      7  C   UNL     1     116.741 121.442 130.879  1.00  0.00     0.004 C 
ENDBRANCH   5   6
BRANCH   5   8
ATOM      8  C   UNL     1     119.851 122.972 129.994  1.00  0.00    -0.011 C 
ATOM      9  C   UNL     1     119.944 123.853 131.255  1.00  0.00     0.008 C 
ATOM     10  C   UNL     1     119.114 123.727 128.875  1.00  0.00     0.008 C 
ENDBRANCH   5   8
ENDBRANCH   4   5
ENDBRANCH   1   3
BRANCH   1  11
ATOM     11  C   UNL     1     119.791 118.642 132.744  1.00  0.00     0.002 C 
ATOM     12  C   UNL     1     119.957 117.252 133.386  1.00  0.00     0.005 C 
ATOM     13  C   UNL     1     119.146 119.539 133.862  1.00  0.00    -0.026 C 
ATOM     14  C   UNL     1     119.793 117.435 134.894  1.00  0.00     0.005 C 
ATOM     15  C   UNL     1     119.737 118.952 135.161  1.00  0.00    -0.001 C 
ATOM     16  C   UNL     1     119.438 121.051 133.805  1.00  0.00     0.007 C 
ATOM     17  C   UNL     1     117.601 119.381 133.920  1.00  0.00     0.012 C 
ATOM     18  C   UNL     1     121.151 119.480 135.636  1.00  0.00     0.000 C 
ATOM     19  C   UNL     1     120.920 121.395 133.864  1.00  0.00     0.005 C 
ATOM     20  C   UNL     1     121.619 120.935 135.175  1.00  0.00     0.003 C 
ATOM     21  C   UNL     1     121.200 119.308 137.177  1.00  0.00     0.031 C 
ATOM     22  C   UNL     1     121.735 122.011 136.355  1.00  0.00    -0.008 C 
ATOM     23  C   UNL     1     120.476 120.452 137.829  1.00  0.00    -0.027 C 
ATOM     24  C   UNL     1     120.642 121.717 137.398  1.00  0.00    -0.065 C 
ATOM     25  C   UNL     1     121.719 123.510 135.885  1.00  0.00     0.014 C 
ATOM     26  C   UNL     1     123.124 121.856 137.047  1.00  0.00     0.016 C 
ATOM     27  C   UNL     1     119.599 122.734 137.847  1.00  0.00     0.063 C 
ATOM     28  C   UNL     1     120.332 124.153 135.885  1.00  0.00     0.033 C 
ATOM     29  C   UNL     1     119.764 124.159 137.307  1.00  0.00     0.118 C 
BRANCH  29  30
ATOM     30  O   UNL     1     120.588 124.906 138.169  1.00  0.00    -0.393 OA
ATOM     31  H   UNL     1     121.006 124.258 138.797  1.00  0.00     0.210 HD
ENDBRANCH  29  30
ENDBRANCH   1  11
TORSDOF 6
ENDMDL
MODEL 7
REMARK VINA RESULT:    -5.630      3.207      4.926
REMARK INTER + INTRA:          -9.758
REMARK INTER:                  -7.264
REMARK INTRA:                  -2.494
REMARK UNBOUND:                -2.318
REMARK SMILES CC[C@@H](C=C[C@@H](C)[C@@H]1CC[C@H]2[C@@H]3CC=C4C[C@@H](O)CC[C@]4(C)[C@@H]3CC[C@]21C)C(C)C
REMARK SMILES IDX 6 1 7 2 5 3 4 4 3 5 2 6 1 7 28 8 29 9 30 10 8 11 9 12 26 13
REMARK SMILES IDX 10 14 11 15 25 16 27 17 12 18 24 19 23 20 13 21 21 22 14 23
REMARK SMILES IDX 15 24 20 25 22 26 16 27 19 28 17 29 18 30
REMARK H PARENT 18 31
REMARK Flexibility Score: inf
ROOT
ATOM      1  C   UNL     1     119.525 120.457 130.012  1.00  0.00     0.012 C 
ATOM      2  C   UNL     1     119.515 119.416 128.879  1.00  0.00     0.012 C 
ENDROOT
BRANCH   1   3
ATOM      3  C   UNL     1     120.380 121.663 129.634  1.00  0.00    -0.028 C 
ATOM      4  C   UNL     1     120.043 122.954 129.839  1.00  0.00    -0.027 C 
BRANCH   4   5
ATOM      5  C   UNL     1     118.771 123.452 130.499  1.00  0.00     0.014 C 
BRANCH   5   6
ATOM      6  C   UNL     1     117.658 123.610 129.439  1.00  0.00     0.004 C 
ATOM      7  C   UNL     1     116.496 122.637 129.659  1.00  0.00     0.004 C 
ENDBRANCH   5   6
BRANCH   5   8
ATOM      8  C   UNL     1     119.048 124.752 131.321  1.00  0.00    -0.011 C 
ATOM      9  C   UNL     1     120.533 124.865 131.720  1.00  0.00     0.008 C 
ATOM     10  C   UNL     1     118.154 124.891 132.565  1.00  0.00     0.008 C 
ENDBRANCH   5   8
ENDBRANCH   4   5
ENDBRANCH   1   3
BRANCH   1  11
ATOM     11  C   UNL     1     119.864 119.831 131.415  1.00  0.00     0.002 C 
ATOM     12  C   UNL     1     119.837 118.291 131.431  1.00  0.00     0.005 C 
ATOM     13  C   UNL     1     119.097 120.272 132.714  1.00  0.00    -0.026 C 
ATOM     14  C   UNL     1     119.435 117.868 132.843  1.00  0.00     0.005 C 
ATOM     15  C   UNL     1     119.428 119.142 133.711  1.00  0.00    -0.001 C 
ATOM     16  C   UNL     1     119.485 121.629 133.332  1.00  0.00     0.007 C 
ATOM     17  C   UNL     1     117.557 120.297 132.505  1.00  0.00     0.012 C 
ATOM     18  C   UNL     1     120.773 119.253 134.538  1.00  0.00     0.000 C 
ATOM     19  C   UNL     1     120.956 121.734 133.716  1.00  0.00     0.005 C 
ATOM     20  C   UNL     1     121.398 120.700 134.790  1.00  0.00     0.003 C 
ATOM     21  C   UNL     1     120.555 118.468 135.858  1.00  0.00     0.031 C 
ATOM     22  C   UNL     1     121.382 121.184 136.317  1.00  0.00    -0.008 C 
ATOM     23  C   UNL     1     119.803 119.330 136.832  1.00  0.00    -0.027 C 
ATOM     24  C   UNL     1     120.115 120.632 136.994  1.00  0.00    -0.065 C 
ATOM     25  C   UNL     1     121.535 122.735 136.519  1.00  0.00     0.014 C 
ATOM     26  C   UNL     1     122.624 120.591 137.050  1.00  0.00     0.016 C 
ATOM     27  C   UNL     1     119.075 121.501 137.692  1.00  0.00     0.063 C 
ATOM     28  C   UNL     1     120.209 123.489 136.613  1.00  0.00     0.033 C 
ATOM     29  C   UNL     1     119.414 122.990 137.823  1.00  0.00     0.118 C 
BRANCH  29  30
ATOM     30  O   UNL     1     120.127 123.216 139.015  1.00  0.00    -0.393 OA
ATOM     31  H   UNL     1     120.894 123.805 138.783  1.00  0.00     0.210 HD
ENDBRANCH  29  30
ENDBRANCH   1  11
TORSDOF 6
ENDMDL
MODEL 8
REMARK VINA RESULT:    -5.629      2.854      3.737
REMARK INTER + INTRA:          -9.757
REMARK INTER:                  -7.625
REMARK INTRA:                  -2.133
REMARK UNBOUND:                -2.318
REMARK SMILES CC[C@@H](C=C[C@@H](C)[C@@H]1CC[C@H]2[C@@H]3CC=C4C[C@@H](O)CC[C@]4(C)[C@@H]3CC[C@]21C)C(C)C
REMARK SMILES IDX 6 1 7 2 5 3 4 4 3 5 2 6 1 7 28 8 29 9 30 10 8 11 9 12 26 13
REMARK SMILES IDX 10 14 11 15 25 16 27 17 12 18 24 19 23 20 13 21 21 22 14 23
REMARK SMILES IDX 15 24 20 25 22 26 16 27 19 28 17 29 18 30
REMARK H PARENT 18 31
REMARK Flexibility Score: inf
ROOT
ATOM      1  C   UNL     1     120.181 118.411 134.275  1.00  0.00     0.012 C 
ATOM      2  C   UNL     1     120.160 117.298 135.337  1.00  0.00     0.012 C 
ENDROOT
BRANCH   1   3
ATOM      3  C   UNL     1     120.955 117.967 133.038  1.00  0.00    -0.028 C 
ATOM      4  C   UNL     1     120.591 118.210 131.760  1.00  0.00    -0.027 C 
BRANCH   4   5
ATOM      5  C   UNL     1     119.365 118.983 131.311  1.00  0.00     0.014 C 
BRANCH   5   6
ATOM      6  C   UNL     1     118.088 118.176 131.637  1.00  0.00     0.004 C 
ATOM      7  C   UNL     1     117.015 119.027 132.323  1.00  0.00     0.004 C 
ENDBRANCH   5   6
BRANCH   5   8
ATOM      8  C   UNL     1     119.488 119.389 129.807  1.00  0.00    -0.011 C 
ATOM      9  C   UNL     1     120.381 118.405 129.026  1.00  0.00     0.008 C 
ATOM     10  C   UNL     1     119.985 120.830 129.601  1.00  0.00     0.008 C 
ENDBRANCH   5   8
ENDBRANCH   4   5
ENDBRANCH   1   3
BRANCH   1  11
ATOM     11  C   UNL     1     120.626 119.804 134.857  1.00  0.00     0.002 C 
ATOM     12  C   UNL     1     121.381 119.705 136.196  1.00  0.00     0.005 C 
ATOM     13  C   UNL     1     119.598 120.977 135.048  1.00  0.00    -0.026 C 
ATOM     14  C   UNL     1     121.089 120.992 136.967  1.00  0.00     0.005 C 
ATOM     15  C   UNL     1     120.338 121.934 136.006  1.00  0.00    -0.001 C 
ATOM     16  C   UNL     1     119.170 121.749 133.784  1.00  0.00     0.007 C 
ATOM     17  C   UNL     1     118.293 120.504 135.749  1.00  0.00     0.012 C 
ATOM     18  C   UNL     1     121.335 122.988 135.377  1.00  0.00     0.000 C 
ATOM     19  C   UNL     1     120.330 122.390 133.032  1.00  0.00     0.005 C 
ATOM     20  C   UNL     1     121.107 123.449 133.865  1.00  0.00     0.003 C 
ATOM     21  C   UNL     1     121.394 124.191 136.355  1.00  0.00     0.031 C 
ATOM     22  C   UNL     1     120.672 124.980 133.686  1.00  0.00    -0.008 C 
ATOM     23  C   UNL     1     120.202 125.077 136.128  1.00  0.00    -0.027 C 
ATOM     24  C   UNL     1     119.790 125.384 134.882  1.00  0.00    -0.065 C 
ATOM     25  C   UNL     1     119.993 125.316 132.309  1.00  0.00     0.014 C 
ATOM     26  C   UNL     1     121.949 125.875 133.697  1.00  0.00     0.016 C 
ATOM     27  C   UNL     1     118.381 125.949 134.748  1.00  0.00     0.063 C 
ATOM     28  C   UNL     1     118.467 125.230 132.324  1.00  0.00     0.033 C 
ATOM     29  C   UNL     1     117.902 126.244 133.322  1.00  0.00     0.118 C 
BRANCH  29  30
ATOM     30  O   UNL     1     118.258 127.555 132.958  1.00  0.00    -0.393 OA
ATOM     31  H   UNL     1     117.518 128.147 133.258  1.00  0.00     0.210 HD
ENDBRANCH  29  30
ENDBRANCH   1  11
TORSDOF 6
ENDMDL
MODEL 9
REMARK VINA RESULT:    -5.588      3.117      4.849
REMARK INTER + INTRA:          -9.702
REMARK INTER:                  -7.588
REMARK INTRA:                  -2.114
REMARK UNBOUND:                -2.318
REMARK SMILES CC[C@@H](C=C[C@@H](C)[C@@H]1CC[C@H]2[C@@H]3CC=C4C[C@@H](O)CC[C@]4(C)[C@@H]3CC[C@]21C)C(C)C
REMARK SMILES IDX 6 1 7 2 5 3 4 4 3 5 2 6 1 7 28 8 29 9 30 10 8 11 9 12 26 13
REMARK SMILES IDX 10 14 11 15 25 16 27 17 12 18 24 19 23 20 13 21 21 22 14 23
REMARK SMILES IDX 15 24 20 25 22 26 16 27 19 28 17 29 18 30
REMARK H PARENT 18 31
REMARK Flexibility Score: inf
ROOT
ATOM      1  C   UNL     1     117.766 122.666 131.301  1.00  0.00     0.012 C 
ATOM      2  C   UNL     1     116.848 123.607 130.503  1.00  0.00     0.012 C 
ENDROOT
BRANCH   1   3
ATOM      3  C   UNL     1     117.135 121.285 131.446  1.00  0.00    -0.028 C 
ATOM      4  C   UNL     1     117.731 120.116 131.127  1.00  0.00    -0.027 C 
BRANCH   4   5
ATOM      5  C   UNL     1     119.140 119.949 130.589  1.00  0.00     0.014 C 
BRANCH   5   6
ATOM      6  C   UNL     1     119.190 120.385 129.107  1.00  0.00     0.004 C 
ATOM      7  C   UNL     1     120.142 121.562 128.875  1.00  0.00     0.004 C 
ENDBRANCH   5   6
BRANCH   5   8
ATOM      8  C   UNL     1     119.656 118.495 130.836  1.00  0.00    -0.011 C 
ATOM      9  C   UNL     1     120.299 118.350 132.230  1.00  0.00     0.008 C 
ATOM     10  C   UNL     1     120.627 117.998 129.752  1.00  0.00     0.008 C 
ENDBRANCH   5   8
ENDBRANCH   4   5
ENDBRANCH   1   3
BRANCH   1  11
ATOM     11  C   UNL     1     118.265 123.299 132.652  1.00  0.00     0.002 C 
ATOM     12  C   UNL     1     118.112 124.831 132.715  1.00  0.00     0.005 C 
ATOM     13  C   UNL     1     119.703 123.004 133.213  1.00  0.00    -0.026 C 
ATOM     14  C   UNL     1     119.226 125.352 133.621  1.00  0.00     0.005 C 
ATOM     15  C   UNL     1     119.905 124.123 134.256  1.00  0.00    -0.001 C 
ATOM     16  C   UNL     1     119.929 121.634 133.882  1.00  0.00     0.007 C 
ATOM     17  C   UNL     1     120.799 123.158 132.121  1.00  0.00     0.012 C 
ATOM     18  C   UNL     1     119.350 123.881 135.718  1.00  0.00     0.000 C 
ATOM     19  C   UNL     1     119.009 121.367 135.065  1.00  0.00     0.005 C 
ATOM     20  C   UNL     1     119.180 122.380 136.233  1.00  0.00     0.003 C 
ATOM     21  C   UNL     1     120.221 124.737 136.675  1.00  0.00     0.031 C 
ATOM     22  C   UNL     1     120.167 121.960 137.423  1.00  0.00    -0.008 C 
ATOM     23  C   UNL     1     121.503 124.009 136.966  1.00  0.00    -0.027 C 
ATOM     24  C   UNL     1     121.509 122.687 137.227  1.00  0.00    -0.065 C 
ATOM     25  C   UNL     1     120.352 120.411 137.610  1.00  0.00     0.014 C 
ATOM     26  C   UNL     1     119.553 122.425 138.779  1.00  0.00     0.016 C 
ATOM     27  C   UNL     1     122.855 121.977 137.125  1.00  0.00     0.063 C 
ATOM     28  C   UNL     1     121.548 119.827 136.858  1.00  0.00     0.033 C 
ATOM     29  C   UNL     1     122.843 120.464 137.370  1.00  0.00     0.118 C 
BRANCH  29  30
ATOM     30  O   UNL     1     123.021 120.199 138.740  1.00  0.00    -0.393 OA
ATOM     31  H   UNL     1     123.992 120.033 138.875  1.00  0.00     0.210 HD
ENDBRANCH  29  30
ENDBRANCH   1  11
TORSDOF 6
ENDMDL
