MODEL 1
REMARK VINA RESULT:    -6.139      0.000      0.000
REMARK INTER + INTRA:         -13.120
REMARK INTER:                 -11.163
REMARK INTRA:                  -1.956
REMARK UNBOUND:                -1.956
REMARK SMILES CCCCCCCCCCCCCC[C@H](C)C(=O)[O-]
REMARK SMILES IDX 9 1 10 2 11 3 12 4 13 5 14 6 15 7 16 8 17 9 18 10 19 11 8 12
REMARK SMILES IDX 7 13 6 14 5 15 4 16 3 17 2 18 1 19
REMARK H PARENT
REMARK Flexibility Score: inf
ROOT
ATOM      1  C   UNL     1      11.226 -13.987  36.452  1.00  0.00     0.000 C 
ENDROOT
BRANCH   1   2
ATOM      2  C   UNL     1      10.774 -15.317  37.086  1.00  0.00     0.000 C 
BRANCH   2   3
ATOM      3  C   UNL     1       9.918 -15.102  38.347  1.00  0.00     0.000 C 
BRANCH   3   4
ATOM      4  C   UNL     1       9.187 -13.746  38.342  1.00  0.00     0.000 C 
BRANCH   4   5
ATOM      5  C   UNL     1       7.669 -13.856  38.110  1.00  0.00     0.001 C 
BRANCH   5   6
ATOM      6  C   UNL     1       7.265 -13.629  36.630  1.00  0.00     0.009 C 
BRANCH   6   7
ATOM      7  C   UNL     1       7.870 -12.363  35.986  1.00  0.00     0.032 C 
ATOM      8  C   UNL     1       6.934 -11.150  36.101  1.00  0.00     0.014 C 
BRANCH   7   9
ATOM      9  C   UNL     1       8.299 -12.614  34.562  1.00  0.00     0.044 C 
ATOM     10  O   UNL     1       9.340 -12.064  34.117  1.00  0.00    -0.550 OA
ATOM     11  O   UNL     1       7.578 -13.475  33.740  1.00  0.00    -0.550 OA
ENDBRANCH   7   9
ENDBRANCH   6   7
ENDBRANCH   5   6
ENDBRANCH   4   5
ENDBRANCH   3   4
ENDBRANCH   2   3
ENDBRANCH   1   2
BRANCH   1  12
ATOM     12  C   UNL     1      12.732 -13.705  36.607  1.00  0.00     0.000 C 
BRANCH  12  13
ATOM     13  C   UNL     1      13.355 -13.139  35.318  1.00  0.00    -0.000 C 
BRANCH  13  14
ATOM     14  C   UNL     1      12.955 -11.676  35.054  1.00  0.00    -0.000 C 
BRANCH  14  15
ATOM     15  C   UNL     1      13.683 -10.632  35.923  1.00  0.00    -0.000 C 
BRANCH  15  16
ATOM     16  C   UNL     1      12.763  -9.692  36.728  1.00  0.00    -0.000 C 
BRANCH  16  17
ATOM     17  C   UNL     1      11.472 -10.343  37.256  1.00  0.00    -0.000 C 
BRANCH  17  18
ATOM     18  C   UNL     1      11.559 -10.717  38.743  1.00  0.00    -0.003 C 
ATOM     19  C   UNL     1      12.924 -10.350  39.323  1.00  0.00     0.004 C 
ENDBRANCH  17  18
ENDBRANCH  16  17
ENDBRANCH  15  16
ENDBRANCH  14  15
ENDBRANCH  13  14
ENDBRANCH  12  13
ENDBRANCH   1  12
TORSDOF 14
ENDMDL
MODEL 2
REMARK VINA RESULT:    -6.037      2.246      5.683
REMARK INTER + INTRA:         -12.933
REMARK INTER:                 -10.962
REMARK INTRA:                  -1.971
REMARK UNBOUND:                -1.956
REMARK SMILES CCCCCCCCCCCCCC[C@H](C)C(=O)[O-]
REMARK SMILES IDX 9 1 10 2 11 3 12 4 13 5 14 6 15 7 16 8 17 9 18 10 19 11 8 12
REMARK SMILES IDX 7 13 6 14 5 15 4 16 3 17 2 18 1 19
REMARK H PARENT
REMARK Flexibility Score: inf
ROOT
ATOM      1  C   UNL     1      11.414 -13.618  37.294  1.00  0.00     0.000 C 
ENDROOT
BRANCH   1   2
ATOM      2  C   UNL     1      12.889 -13.927  36.968  1.00  0.00     0.000 C 
BRANCH   2   3
ATOM      3  C   UNL     1      13.276 -13.487  35.544  1.00  0.00     0.000 C 
BRANCH   3   4
ATOM      4  C   UNL     1      12.741 -12.087  35.191  1.00  0.00     0.000 C 
BRANCH   4   5
ATOM      5  C   UNL     1      13.775 -10.960  35.366  1.00  0.00     0.001 C 
BRANCH   5   6
ATOM      6  C   UNL     1      13.702 -10.282  36.758  1.00  0.00     0.009 C 
BRANCH   6   7
ATOM      7  C   UNL     1      12.269 -10.041  37.282  1.00  0.00     0.032 C 
ATOM      8  C   UNL     1      11.722  -8.669  36.862  1.00  0.00     0.014 C 
BRANCH   7   9
ATOM      9  C   UNL     1      12.177 -10.256  38.771  1.00  0.00     0.044 C 
ATOM     10  O   UNL     1      11.083 -10.606  39.286  1.00  0.00    -0.550 OA
ATOM     11  O   UNL     1      13.296 -10.108  39.585  1.00  0.00    -0.550 OA
ENDBRANCH   7   9
ENDBRANCH   6   7
ENDBRANCH   5   6
ENDBRANCH   4   5
ENDBRANCH   3   4
ENDBRANCH   2   3
ENDBRANCH   1   2
BRANCH   1  12
ATOM     12  C   UNL     1      10.502 -14.859  37.280  1.00  0.00     0.000 C 
BRANCH  12  13
ATOM     13  C   UNL     1       9.736 -15.035  38.603  1.00  0.00    -0.000 C 
BRANCH  13  14
ATOM     14  C   UNL     1       8.350 -14.364  38.583  1.00  0.00    -0.000 C 
BRANCH  14  15
ATOM     15  C   UNL     1       8.369 -12.827  38.457  1.00  0.00    -0.000 C 
BRANCH  15  16
ATOM     16  C   UNL     1       7.801 -12.271  37.136  1.00  0.00    -0.000 C 
BRANCH  16  17
ATOM     17  C   UNL     1       7.230 -13.331  36.178  1.00  0.00    -0.000 C 
BRANCH  17  18
ATOM     18  C   UNL     1       7.986 -13.396  34.843  1.00  0.00    -0.003 C 
ATOM     19  C   UNL     1       9.040 -12.294  34.755  1.00  0.00     0.004 C 
ENDBRANCH  17  18
ENDBRANCH  16  17
ENDBRANCH  15  16
ENDBRANCH  14  15
ENDBRANCH  13  14
ENDBRANCH  12  13
ENDBRANCH   1  12
TORSDOF 14
ENDMDL
MODEL 3
REMARK VINA RESULT:    -5.964      1.490      5.557
REMARK INTER + INTRA:         -12.802
REMARK INTER:                 -10.733
REMARK INTRA:                  -2.069
REMARK UNBOUND:                -1.956
REMARK SMILES CCCCCCCCCCCCCC[C@H](C)C(=O)[O-]
REMARK SMILES IDX 9 1 10 2 11 3 12 4 13 5 14 6 15 7 16 8 17 9 18 10 19 11 8 12
REMARK SMILES IDX 7 13 6 14 5 15 4 16 3 17 2 18 1 19
REMARK H PARENT
REMARK Flexibility Score: inf
ROOT
ATOM      1  C   UNL     1      12.541 -14.253  37.353  1.00  0.00     0.000 C 
ENDROOT
BRANCH   1   2
ATOM      2  C   UNL     1      13.573 -13.318  36.692  1.00  0.00     0.000 C 
BRANCH   2   3
ATOM      3  C   UNL     1      13.182 -12.943  35.251  1.00  0.00     0.000 C 
BRANCH   3   4
ATOM      4  C   UNL     1      13.567 -11.496  34.891  1.00  0.00     0.000 C 
BRANCH   4   5
ATOM      5  C   UNL     1      13.950 -10.631  36.106  1.00  0.00     0.001 C 
BRANCH   5   6
ATOM      6  C   UNL     1      12.849  -9.610  36.493  1.00  0.00     0.009 C 
BRANCH   6   7
ATOM      7  C   UNL     1      12.163  -9.887  37.848  1.00  0.00     0.032 C 
ATOM      8  C   UNL     1      13.154 -10.388  38.909  1.00  0.00     0.014 C 
BRANCH   7   9
ATOM      9  C   UNL     1      10.982 -10.812  37.695  1.00  0.00     0.044 C 
ATOM     10  O   UNL     1      10.446 -10.958  36.566  1.00  0.00    -0.550 OA
ATOM     11  O   UNL     1      10.496 -11.536  38.779  1.00  0.00    -0.550 OA
ENDBRANCH   7   9
ENDBRANCH   6   7
ENDBRANCH   5   6
ENDBRANCH   4   5
ENDBRANCH   3   4
ENDBRANCH   2   3
ENDBRANCH   1   2
BRANCH   1  12
ATOM     12  C   UNL     1      11.239 -14.413  36.547  1.00  0.00     0.000 C 
BRANCH  12  13
ATOM     13  C   UNL     1      10.255 -15.388  37.215  1.00  0.00    -0.000 C 
BRANCH  13  14
ATOM     14  C   UNL     1       9.741 -14.879  38.575  1.00  0.00    -0.000 C 
BRANCH  14  15
ATOM     15  C   UNL     1       8.240 -14.532  38.618  1.00  0.00    -0.000 C 
BRANCH  15  16
ATOM     16  C   UNL     1       7.829 -13.298  37.790  1.00  0.00    -0.000 C 
BRANCH  16  17
ATOM     17  C   UNL     1       7.184 -13.615  36.428  1.00  0.00    -0.000 C 
BRANCH  17  18
ATOM     18  C   UNL     1       7.563 -12.601  35.340  1.00  0.00    -0.003 C 
ATOM     19  C   UNL     1       7.836 -13.299  34.009  1.00  0.00     0.004 C 
ENDBRANCH  17  18
ENDBRANCH  16  17
ENDBRANCH  15  16
ENDBRANCH  14  15
ENDBRANCH  13  14
ENDBRANCH  12  13
ENDBRANCH   1  12
TORSDOF 14
ENDMDL
MODEL 4
REMARK VINA RESULT:    -5.934      1.588      5.467
REMARK INTER + INTRA:         -12.746
REMARK INTER:                 -10.537
REMARK INTRA:                  -2.210
REMARK UNBOUND:                -1.956
REMARK SMILES CCCCCCCCCCCCCC[C@H](C)C(=O)[O-]
REMARK SMILES IDX 9 1 10 2 11 3 12 4 13 5 14 6 15 7 16 8 17 9 18 10 19 11 8 12
REMARK SMILES IDX 7 13 6 14 5 15 4 16 3 17 2 18 1 19
REMARK H PARENT
REMARK Flexibility Score: inf
ROOT
ATOM      1  C   UNL     1       9.078 -11.649  38.453  1.00  0.00     0.000 C 
ENDROOT
BRANCH   1   2
ATOM      2  C   UNL     1      10.617 -11.578  38.488  1.00  0.00     0.000 C 
BRANCH   2   3
ATOM      3  C   UNL     1      11.129 -10.343  39.251  1.00  0.00     0.000 C 
BRANCH   3   4
ATOM      4  C   UNL     1      12.654 -10.166  39.137  1.00  0.00     0.000 C 
BRANCH   4   5
ATOM      5  C   UNL     1      13.320 -11.124  38.132  1.00  0.00     0.001 C 
BRANCH   5   6
ATOM      6  C   UNL     1      13.644 -10.449  36.775  1.00  0.00     0.009 C 
BRANCH   6   7
ATOM      7  C   UNL     1      13.031 -11.153  35.544  1.00  0.00     0.032 C 
ATOM      8  C   UNL     1      13.987 -11.155  34.342  1.00  0.00     0.014 C 
BRANCH   7   9
ATOM      9  C   UNL     1      11.680 -10.582  35.192  1.00  0.00     0.044 C 
ATOM     10  O   UNL     1      10.878 -11.259  34.498  1.00  0.00    -0.550 OA
ATOM     11  O   UNL     1      11.291  -9.329  35.656  1.00  0.00    -0.550 OA
ENDBRANCH   7   9
ENDBRANCH   6   7
ENDBRANCH   5   6
ENDBRANCH   4   5
ENDBRANCH   3   4
ENDBRANCH   2   3
ENDBRANCH   1   2
BRANCH   1  12
ATOM     12  C   UNL     1       8.506 -12.070  37.087  1.00  0.00     0.000 C 
BRANCH  12  13
ATOM     13  C   UNL     1       7.729 -13.395  37.163  1.00  0.00    -0.000 C 
BRANCH  13  14
ATOM     14  C   UNL     1       7.763 -14.027  38.566  1.00  0.00    -0.000 C 
BRANCH  14  15
ATOM     15  C   UNL     1       8.601 -15.317  38.682  1.00  0.00    -0.000 C 
BRANCH  15  16
ATOM     16  C   UNL     1      10.117 -15.135  38.470  1.00  0.00    -0.000 C 
BRANCH  16  17
ATOM     17  C   UNL     1      10.618 -15.464  37.053  1.00  0.00    -0.000 C 
BRANCH  17  18
ATOM     18  C   UNL     1      11.604 -14.419  36.512  1.00  0.00    -0.003 C 
ATOM     19  C   UNL     1      12.917 -14.448  37.292  1.00  0.00     0.004 C 
ENDBRANCH  17  18
ENDBRANCH  16  17
ENDBRANCH  15  16
ENDBRANCH  14  15
ENDBRANCH  13  14
ENDBRANCH  12  13
ENDBRANCH   1  12
TORSDOF 14
ENDMDL
MODEL 5
REMARK VINA RESULT:    -5.930      1.620      5.485
REMARK INTER + INTRA:         -12.740
REMARK INTER:                 -10.798
REMARK INTRA:                  -1.943
REMARK UNBOUND:                -1.956
REMARK SMILES CCCCCCCCCCCCCC[C@H](C)C(=O)[O-]
REMARK SMILES IDX 9 1 10 2 11 3 12 4 13 5 14 6 15 7 16 8 17 9 18 10 19 11 8 12
REMARK SMILES IDX 7 13 6 14 5 15 4 16 3 17 2 18 1 19
REMARK H PARENT
REMARK Flexibility Score: inf
ROOT
ATOM      1  C   UNL     1      11.699 -14.583  37.022  1.00  0.00     0.000 C 
ENDROOT
BRANCH   1   2
ATOM      2  C   UNL     1      11.895 -13.467  35.976  1.00  0.00     0.000 C 
BRANCH   2   3
ATOM      3  C   UNL     1      13.368 -13.042  35.843  1.00  0.00     0.000 C 
BRANCH   3   4
ATOM      4  C   UNL     1      13.557 -11.853  34.882  1.00  0.00     0.000 C 
BRANCH   4   5
ATOM      5  C   UNL     1      13.760 -10.503  35.593  1.00  0.00     0.001 C 
BRANCH   5   6
ATOM      6  C   UNL     1      13.651 -10.608  37.136  1.00  0.00     0.009 C 
BRANCH   6   7
ATOM      7  C   UNL     1      12.474  -9.818  37.752  1.00  0.00     0.032 C 
ATOM      8  C   UNL     1      11.753 -10.615  38.849  1.00  0.00     0.014 C 
BRANCH   7   9
ATOM      9  C   UNL     1      11.522  -9.322  36.694  1.00  0.00     0.044 C 
ATOM     10  O   UNL     1      10.689 -10.114  36.182  1.00  0.00    -0.550 OA
ATOM     11  O   UNL     1      11.528  -7.988  36.298  1.00  0.00    -0.550 OA
ENDBRANCH   7   9
ENDBRANCH   6   7
ENDBRANCH   5   6
ENDBRANCH   4   5
ENDBRANCH   3   4
ENDBRANCH   2   3
ENDBRANCH   1   2
BRANCH   1  12
ATOM     12  C   UNL     1      10.254 -15.106  37.110  1.00  0.00     0.000 C 
BRANCH  12  13
ATOM     13  C   UNL     1       9.643 -14.899  38.507  1.00  0.00    -0.000 C 
BRANCH  13  14
ATOM     14  C   UNL     1       8.372 -14.030  38.480  1.00  0.00    -0.000 C 
BRANCH  14  15
ATOM     15  C   UNL     1       8.589 -12.569  38.034  1.00  0.00    -0.000 C 
BRANCH  15  16
ATOM     16  C   UNL     1       7.855 -12.163  36.741  1.00  0.00    -0.000 C 
BRANCH  16  17
ATOM     17  C   UNL     1       7.301 -13.336  35.913  1.00  0.00    -0.000 C 
BRANCH  17  18
ATOM     18  C   UNL     1       7.650 -13.228  34.421  1.00  0.00    -0.003 C 
ATOM     19  C   UNL     1       8.848 -12.307  34.203  1.00  0.00     0.004 C 
ENDBRANCH  17  18
ENDBRANCH  16  17
ENDBRANCH  15  16
ENDBRANCH  14  15
ENDBRANCH  13  14
ENDBRANCH  12  13
ENDBRANCH   1  12
TORSDOF 14
ENDMDL
MODEL 6
REMARK VINA RESULT:    -5.909      2.280      5.700
REMARK INTER + INTRA:         -12.702
REMARK INTER:                 -10.546
REMARK INTRA:                  -2.156
REMARK UNBOUND:                -1.956
REMARK SMILES CCCCCCCCCCCCCC[C@H](C)C(=O)[O-]
REMARK SMILES IDX 9 1 10 2 11 3 12 4 13 5 14 6 15 7 16 8 17 9 18 10 19 11 8 12
REMARK SMILES IDX 7 13 6 14 5 15 4 16 3 17 2 18 1 19
REMARK H PARENT
REMARK Flexibility Score: inf
ROOT
ATOM      1  C   UNL     1       7.767 -13.612  35.223  1.00  0.00     0.000 C 
ENDROOT
BRANCH   1   2
ATOM      2  C   UNL     1       8.041 -12.326  34.418  1.00  0.00     0.000 C 
BRANCH   2   3
ATOM      3  C   UNL     1       9.545 -12.031  34.281  1.00  0.00     0.000 C 
BRANCH   3   4
ATOM      4  C   UNL     1      10.162 -11.483  35.582  1.00  0.00     0.000 C 
BRANCH   4   5
ATOM      5  C   UNL     1      11.340 -10.519  35.356  1.00  0.00     0.001 C 
BRANCH   5   6
ATOM      6  C   UNL     1      11.513  -9.494  36.507  1.00  0.00     0.009 C 
BRANCH   6   7
ATOM      7  C   UNL     1      12.763  -9.718  37.385  1.00  0.00     0.032 C 
ATOM      8  C   UNL     1      13.847 -10.524  36.655  1.00  0.00     0.014 C 
BRANCH   7   9
ATOM      9  C   UNL     1      12.405 -10.326  38.718  1.00  0.00     0.044 C 
ATOM     10  O   UNL     1      13.209 -10.235  39.682  1.00  0.00    -0.550 OA
ATOM     11  O   UNL     1      11.181 -10.958  38.909  1.00  0.00    -0.550 OA
ENDBRANCH   7   9
ENDBRANCH   6   7
ENDBRANCH   5   6
ENDBRANCH   4   5
ENDBRANCH   3   4
ENDBRANCH   2   3
ENDBRANCH   1   2
BRANCH   1  12
ATOM     12  C   UNL     1       6.896 -13.389  36.473  1.00  0.00     0.000 C 
BRANCH  12  13
ATOM     13  C   UNL     1       7.734 -13.020  37.709  1.00  0.00    -0.000 C 
BRANCH  13  14
ATOM     14  C   UNL     1       7.777 -14.145  38.759  1.00  0.00    -0.000 C 
BRANCH  14  15
ATOM     15  C   UNL     1       9.064 -14.994  38.756  1.00  0.00    -0.000 C 
BRANCH  15  16
ATOM     16  C   UNL     1      10.274 -14.348  38.051  1.00  0.00    -0.000 C 
BRANCH  16  17
ATOM     17  C   UNL     1      10.719 -15.047  36.755  1.00  0.00    -0.000 C 
BRANCH  17  18
ATOM     18  C   UNL     1      12.112 -14.602  36.287  1.00  0.00    -0.003 C 
ATOM     19  C   UNL     1      12.875 -13.912  37.415  1.00  0.00     0.004 C 
ENDBRANCH  17  18
ENDBRANCH  16  17
ENDBRANCH  15  16
ENDBRANCH  14  15
ENDBRANCH  13  14
ENDBRANCH  12  13
ENDBRANCH   1  12
TORSDOF 14
ENDMDL
MODEL 7
REMARK VINA RESULT:    -5.849      1.813      2.433
REMARK INTER + INTRA:         -12.593
REMARK INTER:                 -10.425
REMARK INTRA:                  -2.167
REMARK UNBOUND:                -1.956
REMARK SMILES CCCCCCCCCCCCCC[C@H](C)C(=O)[O-]
REMARK SMILES IDX 9 1 10 2 11 3 12 4 13 5 14 6 15 7 16 8 17 9 18 10 19 11 8 12
REMARK SMILES IDX 7 13 6 14 5 15 4 16 3 17 2 18 1 19
REMARK H PARENT
REMARK Flexibility Score: inf
ROOT
ATOM      1  C   UNL     1      13.337 -13.619  36.659  1.00  0.00     0.000 C 
ENDROOT
BRANCH   1   2
ATOM      2  C   UNL     1      11.994 -13.489  37.405  1.00  0.00     0.000 C 
BRANCH   2   3
ATOM      3  C   UNL     1      11.212 -14.815  37.436  1.00  0.00     0.000 C 
BRANCH   3   4
ATOM      4  C   UNL     1      10.224 -14.946  36.262  1.00  0.00     0.000 C 
BRANCH   4   5
ATOM      5  C   UNL     1       9.638 -13.604  35.787  1.00  0.00     0.001 C 
BRANCH   5   6
ATOM      6  C   UNL     1       8.093 -13.633  35.650  1.00  0.00     0.009 C 
BRANCH   6   7
ATOM      7  C   UNL     1       7.338 -12.796  36.706  1.00  0.00     0.032 C 
ATOM      8  C   UNL     1       7.171 -11.332  36.274  1.00  0.00     0.014 C 
BRANCH   7   9
ATOM      9  C   UNL     1       7.973 -12.917  38.068  1.00  0.00     0.044 C 
ATOM     10  O   UNL     1       7.777 -13.949  38.760  1.00  0.00    -0.550 OA
ATOM     11  O   UNL     1       8.805 -11.915  38.560  1.00  0.00    -0.550 OA
ENDBRANCH   7   9
ENDBRANCH   6   7
ENDBRANCH   5   6
ENDBRANCH   4   5
ENDBRANCH   3   4
ENDBRANCH   2   3
ENDBRANCH   1   2
BRANCH   1  12
ATOM     12  C   UNL     1      13.260 -13.230  35.171  1.00  0.00     0.000 C 
BRANCH  12  13
ATOM     13  C   UNL     1      14.167 -12.033  34.834  1.00  0.00    -0.000 C 
BRANCH  13  14
ATOM     14  C   UNL     1      13.481 -10.677  35.081  1.00  0.00    -0.000 C 
BRANCH  14  15
ATOM     15  C   UNL     1      11.941 -10.703  35.022  1.00  0.00    -0.000 C 
BRANCH  15  16
ATOM     16  C   UNL     1      11.228  -9.995  36.192  1.00  0.00    -0.000 C 
BRANCH  16  17
ATOM     17  C   UNL     1      12.157  -9.500  37.315  1.00  0.00    -0.000 C 
BRANCH  17  18
ATOM     18  C   UNL     1      11.873 -10.177  38.663  1.00  0.00    -0.003 C 
ATOM     19  C   UNL     1      13.161 -10.378  39.459  1.00  0.00     0.004 C 
ENDBRANCH  17  18
ENDBRANCH  16  17
ENDBRANCH  15  16
ENDBRANCH  14  15
ENDBRANCH  13  14
ENDBRANCH  12  13
ENDBRANCH   1  12
TORSDOF 14
ENDMDL
MODEL 8
REMARK VINA RESULT:    -5.787      1.902      5.245
REMARK INTER + INTRA:         -12.480
REMARK INTER:                 -10.252
REMARK INTRA:                  -2.227
REMARK UNBOUND:                -1.956
REMARK SMILES CCCCCCCCCCCCCC[C@H](C)C(=O)[O-]
REMARK SMILES IDX 9 1 10 2 11 3 12 4 13 5 14 6 15 7 16 8 17 9 18 10 19 11 8 12
REMARK SMILES IDX 7 13 6 14 5 15 4 16 3 17 2 18 1 19
REMARK H PARENT
REMARK Flexibility Score: inf
ROOT
ATOM      1  C   UNL     1      10.093 -14.682  38.301  1.00  0.00     0.000 C 
ENDROOT
BRANCH   1   2
ATOM      2  C   UNL     1      10.299 -15.017  36.810  1.00  0.00     0.000 C 
BRANCH   2   3
ATOM      3  C   UNL     1      11.612 -14.434  36.256  1.00  0.00     0.000 C 
BRANCH   3   4
ATOM      4  C   UNL     1      12.713 -14.332  37.328  1.00  0.00     0.000 C 
BRANCH   4   5
ATOM      5  C   UNL     1      13.526 -13.026  37.266  1.00  0.00     0.001 C 
BRANCH   5   6
ATOM      6  C   UNL     1      12.657 -11.761  37.485  1.00  0.00     0.009 C 
BRANCH   6   7
ATOM      7  C   UNL     1      13.139 -10.508  36.721  1.00  0.00     0.032 C 
ATOM      8  C   UNL     1      12.234  -9.293  36.970  1.00  0.00     0.014 C 
BRANCH   7   9
ATOM      9  C   UNL     1      13.319 -10.789  35.251  1.00  0.00     0.044 C 
ATOM     10  O   UNL     1      14.474 -10.980  34.788  1.00  0.00    -0.550 OA
ATOM     11  O   UNL     1      12.222 -10.876  34.400  1.00  0.00    -0.550 OA
ENDBRANCH   7   9
ENDBRANCH   6   7
ENDBRANCH   5   6
ENDBRANCH   4   5
ENDBRANCH   3   4
ENDBRANCH   2   3
ENDBRANCH   1   2
BRANCH   1  12
ATOM     12  C   UNL     1       8.684 -15.018  38.824  1.00  0.00     0.000 C 
BRANCH  12  13
ATOM     13  C   UNL     1       7.692 -13.860  38.611  1.00  0.00    -0.000 C 
BRANCH  13  14
ATOM     14  C   UNL     1       8.390 -12.494  38.480  1.00  0.00    -0.000 C 
BRANCH  14  15
ATOM     15  C   UNL     1       8.085 -11.727  37.177  1.00  0.00    -0.000 C 
BRANCH  15  16
ATOM     16  C   UNL     1       9.261 -11.623  36.187  1.00  0.00    -0.000 C 
BRANCH  16  17
ATOM     17  C   UNL     1       8.946 -12.085  34.753  1.00  0.00    -0.000 C 
BRANCH  17  18
ATOM     18  C   UNL     1       7.802 -13.108  34.695  1.00  0.00    -0.003 C 
ATOM     19  C   UNL     1       7.705 -13.745  33.310  1.00  0.00     0.004 C 
ENDBRANCH  17  18
ENDBRANCH  16  17
ENDBRANCH  15  16
ENDBRANCH  14  15
ENDBRANCH  13  14
ENDBRANCH  12  13
ENDBRANCH   1  12
TORSDOF 14
ENDMDL
MODEL 9
REMARK VINA RESULT:    -5.756      2.425      6.116
REMARK INTER + INTRA:         -12.423
REMARK INTER:                 -10.465
REMARK INTRA:                  -1.958
REMARK UNBOUND:                -1.956
REMARK SMILES CCCCCCCCCCCCCC[C@H](C)C(=O)[O-]
REMARK SMILES IDX 9 1 10 2 11 3 12 4 13 5 14 6 15 7 16 8 17 9 18 10 19 11 8 12
REMARK SMILES IDX 7 13 6 14 5 15 4 16 3 17 2 18 1 19
REMARK H PARENT
REMARK Flexibility Score: inf
ROOT
ATOM      1  C   UNL     1       9.284 -11.612  35.156  1.00  0.00     0.000 C 
ENDROOT
BRANCH   1   2
ATOM      2  C   UNL     1      10.775 -11.969  34.996  1.00  0.00     0.000 C 
BRANCH   2   3
ATOM      3  C   UNL     1      11.641 -10.735  34.682  1.00  0.00     0.000 C 
BRANCH   3   4
ATOM      4  C   UNL     1      13.121 -11.093  34.455  1.00  0.00     0.000 C 
BRANCH   4   5
ATOM      5  C   UNL     1      14.063 -10.583  35.561  1.00  0.00     0.001 C 
BRANCH   5   6
ATOM      6  C   UNL     1      13.307 -10.107  36.828  1.00  0.00     0.009 C 
BRANCH   6   7
ATOM      7  C   UNL     1      13.442 -11.045  38.048  1.00  0.00     0.032 C 
ATOM      8  C   UNL     1      13.102 -12.501  37.700  1.00  0.00     0.014 C 
BRANCH   7   9
ATOM      9  C   UNL     1      12.646 -10.544  39.226  1.00  0.00     0.044 C 
ATOM     10  O   UNL     1      11.391 -10.480  39.151  1.00  0.00    -0.550 OA
ATOM     11  O   UNL     1      13.277 -10.182  40.413  1.00  0.00    -0.550 OA
ENDBRANCH   7   9
ENDBRANCH   6   7
ENDBRANCH   5   6
ENDBRANCH   4   5
ENDBRANCH   3   4
ENDBRANCH   2   3
ENDBRANCH   1   2
BRANCH   1  12
ATOM     12  C   UNL     1       8.338 -12.518  34.347  1.00  0.00     0.000 C 
BRANCH  12  13
ATOM     13  C   UNL     1       7.733 -13.644  35.204  1.00  0.00    -0.000 C 
BRANCH  13  14
ATOM     14  C   UNL     1       6.987 -13.115  36.443  1.00  0.00    -0.000 C 
BRANCH  14  15
ATOM     15  C   UNL     1       7.269 -13.880  37.751  1.00  0.00    -0.000 C 
BRANCH  15  16
ATOM     16  C   UNL     1       8.398 -13.294  38.622  1.00  0.00    -0.000 C 
BRANCH  16  17
ATOM     17  C   UNL     1       9.824 -13.607  38.133  1.00  0.00    -0.000 C 
BRANCH  17  18
ATOM     18  C   UNL     1      10.042 -15.100  37.850  1.00  0.00    -0.003 C 
ATOM     19  C   UNL     1      11.018 -15.302  36.693  1.00  0.00     0.004 C 
ENDBRANCH  17  18
ENDBRANCH  16  17
ENDBRANCH  15  16
ENDBRANCH  14  15
ENDBRANCH  13  14
ENDBRANCH  12  13
ENDBRANCH   1  12
TORSDOF 14
ENDMDL
