MODEL 1
REMARK VINA RESULT:    -3.786      0.000      0.000
REMARK INTER + INTRA:          -5.698
REMARK INTER:                  -5.114
REMARK INTRA:                  -0.584
REMARK UNBOUND:                -0.584
REMARK SMILES CCCCCCCC(=O)[O-]
REMARK SMILES IDX 5 1 6 2 7 3 8 4 9 5 10 6 4 7 3 8 2 9 1 10
REMARK H PARENT
REMARK Flexibility Score: inf
ROOT
ATOM      1  C   UNL     1      63.386  29.917  11.665  1.00  0.00     0.000 C 
ENDROOT
BRANCH   1   2
ATOM      2  C   UNL     1      63.486  29.220  10.303  1.00  0.00     0.006 C 
BRANCH   2   3
ATOM      3  C   UNL     1      62.580  29.900   9.271  1.00  0.00     0.053 C 
BRANCH   3   4
ATOM      4  C   UNL     1      61.235  29.245   9.245  1.00  0.00     0.041 C 
ATOM      5  O   UNL     1      60.190  29.940   9.354  1.00  0.00    -0.550 OA
ATOM      6  O   UNL     1      61.132  27.873   9.052  1.00  0.00    -0.550 OA
ENDBRANCH   3   4
ENDBRANCH   2   3
ENDBRANCH   1   2
BRANCH   1   7
ATOM      7  C   UNL     1      62.919  28.939  12.751  1.00  0.00     0.000 C 
BRANCH   7   8
ATOM      8  C   UNL     1      61.809  29.562  13.612  1.00  0.00    -0.000 C 
BRANCH   8   9
ATOM      9  C   UNL     1      60.440  29.537  12.916  1.00  0.00    -0.003 C 
ATOM     10  C   UNL     1      59.970  28.121  12.586  1.00  0.00     0.004 C 
ENDBRANCH   8   9
ENDBRANCH   7   8
ENDBRANCH   1   7
TORSDOF 6
ENDMDL
MODEL 2
REMARK VINA RESULT:    -3.754      2.435      3.440
REMARK INTER + INTRA:          -5.655
REMARK INTER:                  -5.363
REMARK INTRA:                  -0.292
REMARK UNBOUND:                -0.584
REMARK SMILES CCCCCCCC(=O)[O-]
REMARK SMILES IDX 5 1 6 2 7 3 8 4 9 5 10 6 4 7 3 8 2 9 1 10
REMARK H PARENT
REMARK Flexibility Score: inf
ROOT
ATOM      1  C   UNL     1      60.814  30.115  13.124  1.00  0.00     0.000 C 
ENDROOT
BRANCH   1   2
ATOM      2  C   UNL     1      60.540  28.819  12.351  1.00  0.00     0.006 C 
BRANCH   2   3
ATOM      3  C   UNL     1      60.345  29.102  10.858  1.00  0.00     0.053 C 
BRANCH   3   4
ATOM      4  C   UNL     1      61.453  28.490  10.061  1.00  0.00     0.041 C 
ATOM      5  O   UNL     1      61.193  27.802   9.039  1.00  0.00    -0.550 OA
ATOM      6  O   UNL     1      62.776  28.719  10.418  1.00  0.00    -0.550 OA
ENDBRANCH   3   4
ENDBRANCH   2   3
ENDBRANCH   1   2
BRANCH   1   7
ATOM      7  C   UNL     1      60.537  31.346  12.252  1.00  0.00     0.000 C 
BRANCH   7   8
ATOM      8  C   UNL     1      61.011  32.631  12.948  1.00  0.00    -0.000 C 
BRANCH   8   9
ATOM      9  C   UNL     1      60.429  32.784  14.362  1.00  0.00    -0.003 C 
ATOM     10  C   UNL     1      61.109  33.893  15.164  1.00  0.00     0.004 C 
ENDBRANCH   8   9
ENDBRANCH   7   8
ENDBRANCH   1   7
TORSDOF 6
ENDMDL
MODEL 3
REMARK VINA RESULT:    -3.715      2.053      3.042
REMARK INTER + INTRA:          -5.602
REMARK INTER:                  -5.103
REMARK INTRA:                  -0.499
REMARK UNBOUND:                -0.584
REMARK SMILES CCCCCCCC(=O)[O-]
REMARK SMILES IDX 5 1 6 2 7 3 8 4 9 5 10 6 4 7 3 8 2 9 1 10
REMARK H PARENT
REMARK Flexibility Score: inf
ROOT
ATOM      1  C   UNL     1      61.715  29.931  13.852  1.00  0.00     0.000 C 
ENDROOT
BRANCH   1   2
ATOM      2  C   UNL     1      61.635  28.623  13.055  1.00  0.00     0.006 C 
BRANCH   2   3
ATOM      3  C   UNL     1      60.323  28.540  12.268  1.00  0.00     0.053 C 
BRANCH   3   4
ATOM      4  C   UNL     1      60.533  28.980  10.853  1.00  0.00     0.041 C 
ATOM      5  O   UNL     1      60.056  30.075  10.452  1.00  0.00    -0.550 OA
ATOM      6  O   UNL     1      61.297  28.204   9.990  1.00  0.00    -0.550 OA
ENDBRANCH   3   4
ENDBRANCH   2   3
ENDBRANCH   1   2
BRANCH   1   7
ATOM      7  C   UNL     1      62.909  30.780  13.400  1.00  0.00     0.000 C 
BRANCH   7   8
ATOM      8  C   UNL     1      62.438  32.062  12.698  1.00  0.00    -0.000 C 
BRANCH   8   9
ATOM      9  C   UNL     1      60.979  32.414  13.029  1.00  0.00    -0.003 C 
ATOM     10  C   UNL     1      60.860  33.555  14.038  1.00  0.00     0.004 C 
ENDBRANCH   8   9
ENDBRANCH   7   8
ENDBRANCH   1   7
TORSDOF 6
ENDMDL
MODEL 4
REMARK VINA RESULT:    -3.710     13.918     15.632
REMARK INTER + INTRA:          -5.595
REMARK INTER:                  -5.103
REMARK INTRA:                  -0.493
REMARK UNBOUND:                -0.584
REMARK SMILES CCCCCCCC(=O)[O-]
REMARK SMILES IDX 5 1 6 2 7 3 8 4 9 5 10 6 4 7 3 8 2 9 1 10
REMARK H PARENT
REMARK Flexibility Score: inf
ROOT
ATOM      1  C   UNL     1      61.006  27.836  24.909  1.00  0.00     0.000 C 
ENDROOT
BRANCH   1   2
ATOM      2  C   UNL     1      61.046  27.825  26.441  1.00  0.00     0.006 C 
BRANCH   2   3
ATOM      3  C   UNL     1      62.222  28.655  26.966  1.00  0.00     0.053 C 
BRANCH   3   4
ATOM      4  C   UNL     1      61.823  29.407  28.197  1.00  0.00     0.041 C 
ATOM      5  O   UNL     1      62.469  30.428  28.553  1.00  0.00    -0.550 OA
ATOM      6  O   UNL     1      60.709  29.009  28.924  1.00  0.00    -0.550 OA
ENDBRANCH   3   4
ENDBRANCH   2   3
ENDBRANCH   1   2
BRANCH   1   7
ATOM      7  C   UNL     1      62.167  28.658  24.333  1.00  0.00     0.000 C 
BRANCH   7   8
ATOM      8  C   UNL     1      62.990  27.825  23.339  1.00  0.00    -0.000 C 
BRANCH   8   9
ATOM      9  C   UNL     1      63.315  26.422  23.873  1.00  0.00    -0.003 C 
ATOM     10  C   UNL     1      64.505  26.414  24.832  1.00  0.00     0.004 C 
ENDBRANCH   8   9
ENDBRANCH   7   8
ENDBRANCH   1   7
TORSDOF 6
ENDMDL
MODEL 5
REMARK VINA RESULT:    -3.699     14.920     16.590
REMARK INTER + INTRA:          -5.581
REMARK INTER:                  -5.041
REMARK INTRA:                  -0.539
REMARK UNBOUND:                -0.584
REMARK SMILES CCCCCCCC(=O)[O-]
REMARK SMILES IDX 5 1 6 2 7 3 8 4 9 5 10 6 4 7 3 8 2 9 1 10
REMARK H PARENT
REMARK Flexibility Score: inf
ROOT
ATOM      1  C   UNL     1      62.567  29.767  26.991  1.00  0.00     0.000 C 
ENDROOT
BRANCH   1   2
ATOM      2  C   UNL     1      62.389  29.430  28.477  1.00  0.00     0.006 C 
BRANCH   2   3
ATOM      3  C   UNL     1      60.962  28.953  28.764  1.00  0.00     0.053 C 
BRANCH   3   4
ATOM      4  C   UNL     1      60.922  27.462  28.874  1.00  0.00     0.041 C 
ATOM      5  O   UNL     1      59.837  26.874  29.125  1.00  0.00    -0.550 OA
ATOM      6  O   UNL     1      62.073  26.716  28.652  1.00  0.00    -0.550 OA
ENDBRANCH   3   4
ENDBRANCH   2   3
ENDBRANCH   1   2
BRANCH   1   7
ATOM      7  C   UNL     1      63.651  28.890  26.352  1.00  0.00     0.000 C 
BRANCH   7   8
ATOM      8  C   UNL     1      63.049  27.953  25.296  1.00  0.00    -0.000 C 
BRANCH   8   9
ATOM      9  C   UNL     1      61.722  28.479  24.727  1.00  0.00    -0.003 C 
ATOM     10  C   UNL     1      60.524  27.621  25.128  1.00  0.00     0.004 C 
ENDBRANCH   8   9
ENDBRANCH   7   8
ENDBRANCH   1   7
TORSDOF 6
ENDMDL
MODEL 6
REMARK VINA RESULT:    -3.687      2.944      4.551
REMARK INTER + INTRA:          -5.563
REMARK INTER:                  -5.115
REMARK INTRA:                  -0.448
REMARK UNBOUND:                -0.584
REMARK SMILES CCCCCCCC(=O)[O-]
REMARK SMILES IDX 5 1 6 2 7 3 8 4 9 5 10 6 4 7 3 8 2 9 1 10
REMARK H PARENT
REMARK Flexibility Score: inf
ROOT
ATOM      1  C   UNL     1      60.212  28.677  11.852  1.00  0.00     0.000 C 
ENDROOT
BRANCH   1   2
ATOM      2  C   UNL     1      60.684  29.752  12.838  1.00  0.00     0.006 C 
BRANCH   2   3
ATOM      3  C   UNL     1      60.675  31.137  12.185  1.00  0.00     0.053 C 
BRANCH   3   4
ATOM      4  C   UNL     1      60.420  32.197  13.210  1.00  0.00     0.041 C 
ATOM      5  O   UNL     1      61.106  33.254  13.213  1.00  0.00    -0.550 OA
ATOM      6  O   UNL     1      59.394  32.040  14.133  1.00  0.00    -0.550 OA
ENDBRANCH   3   4
ENDBRANCH   2   3
ENDBRANCH   1   2
BRANCH   1   7
ATOM      7  C   UNL     1      60.387  29.144  10.402  1.00  0.00     0.000 C 
BRANCH   7   8
ATOM      8  C   UNL     1      61.255  28.158   9.607  1.00  0.00    -0.000 C 
BRANCH   8   9
ATOM      9  C   UNL     1      62.549  28.801   9.084  1.00  0.00    -0.003 C 
ATOM     10  C   UNL     1      63.487  29.241  10.207  1.00  0.00     0.004 C 
ENDBRANCH   8   9
ENDBRANCH   7   8
ENDBRANCH   1   7
TORSDOF 6
ENDMDL
MODEL 7
REMARK VINA RESULT:    -3.678      1.700      2.586
REMARK INTER + INTRA:          -5.552
REMARK INTER:                  -5.021
REMARK INTRA:                  -0.531
REMARK UNBOUND:                -0.584
REMARK SMILES CCCCCCCC(=O)[O-]
REMARK SMILES IDX 5 1 6 2 7 3 8 4 9 5 10 6 4 7 3 8 2 9 1 10
REMARK H PARENT
REMARK Flexibility Score: inf
ROOT
ATOM      1  C   UNL     1      60.734  28.603  12.552  1.00  0.00     0.000 C 
ENDROOT
BRANCH   1   2
ATOM      2  C   UNL     1      60.507  29.325  11.219  1.00  0.00     0.006 C 
BRANCH   2   3
ATOM      3  C   UNL     1      61.840  29.695  10.561  1.00  0.00     0.053 C 
BRANCH   3   4
ATOM      4  C   UNL     1      62.207  28.685   9.520  1.00  0.00     0.041 C 
ATOM      5  O   UNL     1      63.389  28.621   9.088  1.00  0.00    -0.550 OA
ATOM      6  O   UNL     1      61.257  27.781   9.062  1.00  0.00    -0.550 OA
ENDBRANCH   3   4
ENDBRANCH   2   3
ENDBRANCH   1   2
BRANCH   1   7
ATOM      7  C   UNL     1      61.916  29.214  13.316  1.00  0.00     0.000 C 
BRANCH   7   8
ATOM      8  C   UNL     1      61.454  30.378  14.205  1.00  0.00    -0.000 C 
BRANCH   8   9
ATOM      9  C   UNL     1      62.027  31.729  13.752  1.00  0.00    -0.003 C 
ATOM     10  C   UNL     1      60.991  32.606  13.050  1.00  0.00     0.004 C 
ENDBRANCH   8   9
ENDBRANCH   7   8
ENDBRANCH   1   7
TORSDOF 6
ENDMDL
MODEL 8
REMARK VINA RESULT:    -3.638     13.689     14.563
REMARK INTER + INTRA:          -5.498
REMARK INTER:                  -4.865
REMARK INTRA:                  -0.633
REMARK UNBOUND:                -0.584
REMARK SMILES CCCCCCCC(=O)[O-]
REMARK SMILES IDX 5 1 6 2 7 3 8 4 9 5 10 6 4 7 3 8 2 9 1 10
REMARK H PARENT
REMARK Flexibility Score: inf
ROOT
ATOM      1  C   UNL     1      63.412  29.279  24.677  1.00  0.00     0.000 C 
ENDROOT
BRANCH   1   2
ATOM      2  C   UNL     1      61.886  29.322  24.541  1.00  0.00     0.006 C 
BRANCH   2   3
ATOM      3  C   UNL     1      61.265  27.968  24.901  1.00  0.00     0.053 C 
BRANCH   3   4
ATOM      4  C   UNL     1      61.525  27.640  26.338  1.00  0.00     0.041 C 
ATOM      5  O   UNL     1      62.203  26.623  26.643  1.00  0.00    -0.550 OA
ATOM      6  O   UNL     1      61.059  28.483  27.339  1.00  0.00    -0.550 OA
ENDBRANCH   3   4
ENDBRANCH   2   3
ENDBRANCH   1   2
BRANCH   1   7
ATOM      7  C   UNL     1      64.033  28.333  23.641  1.00  0.00     0.000 C 
BRANCH   7   8
ATOM      8  C   UNL     1      65.199  27.540  24.249  1.00  0.00    -0.000 C 
BRANCH   8   9
ATOM      9  C   UNL     1      64.881  26.044  24.396  1.00  0.00    -0.003 C 
ATOM     10  C   UNL     1      63.716  25.597  23.514  1.00  0.00     0.004 C 
ENDBRANCH   8   9
ENDBRANCH   7   8
ENDBRANCH   1   7
TORSDOF 6
ENDMDL
MODEL 9
REMARK VINA RESULT:    -3.608     13.935     15.470
REMARK INTER + INTRA:          -5.457
REMARK INTER:                  -4.901
REMARK INTRA:                  -0.555
REMARK UNBOUND:                -0.584
REMARK SMILES CCCCCCCC(=O)[O-]
REMARK SMILES IDX 5 1 6 2 7 3 8 4 9 5 10 6 4 7 3 8 2 9 1 10
REMARK H PARENT
REMARK Flexibility Score: inf
ROOT
ATOM      1  C   UNL     1      63.733  30.001  25.591  1.00  0.00     0.000 C 
ENDROOT
BRANCH   1   2
ATOM      2  C   UNL     1      62.314  29.795  25.047  1.00  0.00     0.006 C 
BRANCH   2   3
ATOM      3  C   UNL     1      62.156  28.395  24.445  1.00  0.00     0.053 C 
BRANCH   3   4
ATOM      4  C   UNL     1      61.165  27.597  25.232  1.00  0.00     0.041 C 
ATOM      5  O   UNL     1      61.550  26.875  26.190  1.00  0.00    -0.550 OA
ATOM      6  O   UNL     1      59.810  27.687  24.939  1.00  0.00    -0.550 OA
ENDBRANCH   3   4
ENDBRANCH   2   3
ENDBRANCH   1   2
BRANCH   1   7
ATOM      7  C   UNL     1      63.827  29.576  27.062  1.00  0.00     0.000 C 
BRANCH   7   8
ATOM      8  C   UNL     1      62.655  30.144  27.875  1.00  0.00    -0.000 C 
BRANCH   8   9
ATOM      9  C   UNL     1      62.195  29.194  28.991  1.00  0.00    -0.003 C 
ATOM     10  C   UNL     1      60.702  28.877  28.920  1.00  0.00     0.004 C 
ENDBRANCH   8   9
ENDBRANCH   7   8
ENDBRANCH   1   7
TORSDOF 6
ENDMDL
