MODEL 1
REMARK VINA RESULT:    -2.992      0.000      0.000
REMARK INTER + INTRA:          -5.895
REMARK INTER:                  -5.442
REMARK INTRA:                  -0.454
REMARK UNBOUND:                -0.454
REMARK SMILES CCCCCCCCCCCCCCCC(=O)[O-]
REMARK SMILES IDX 9 1 10 2 11 3 12 4 13 5 14 6 15 7 16 8 17 9 18 10 8 11 7 12
REMARK SMILES IDX 6 13 5 14 4 15 3 16 2 17 1 18
REMARK H PARENT
REMARK Flexibility Score: inf
ROOT
ATOM      1  C   UNL     1      23.895   1.130  -3.019  1.00  0.00     0.000 C 
ENDROOT
BRANCH   1   2
ATOM      2  C   UNL     1      23.718   2.623  -2.698  1.00  0.00     0.000 C 
BRANCH   2   3
ATOM      3  C   UNL     1      25.010   3.284  -2.183  1.00  0.00     0.000 C 
BRANCH   3   4
ATOM      4  C   UNL     1      24.974   4.820  -2.097  1.00  0.00     0.000 C 
BRANCH   4   5
ATOM      5  C   UNL     1      26.096   5.398  -1.218  1.00  0.00     0.000 C 
BRANCH   5   6
ATOM      6  C   UNL     1      26.418   6.863  -1.559  1.00  0.00     0.006 C 
BRANCH   6   7
ATOM      7  C   UNL     1      27.685   7.369  -0.858  1.00  0.00     0.053 C 
BRANCH   7   8
ATOM      8  C   UNL     1      27.842   8.843  -1.065  1.00  0.00     0.041 C 
ATOM      9  O   UNL     1      27.870   9.621  -0.077  1.00  0.00    -0.550 OA
ATOM     10  O   UNL     1      27.907   9.361  -2.352  1.00  0.00    -0.550 OA
ENDBRANCH   7   8
ENDBRANCH   6   7
ENDBRANCH   5   6
ENDBRANCH   4   5
ENDBRANCH   3   4
ENDBRANCH   2   3
ENDBRANCH   1   2
BRANCH   1  11
ATOM     11  C   UNL     1      22.819   0.253  -2.357  1.00  0.00     0.000 C 
BRANCH  11  12
ATOM     12  C   UNL     1      23.179  -1.243  -2.389  1.00  0.00    -0.000 C 
BRANCH  12  13
ATOM     13  C   UNL     1      24.446  -1.533  -3.213  1.00  0.00    -0.000 C 
BRANCH  13  14
ATOM     14  C   UNL     1      25.542  -2.330  -2.476  1.00  0.00    -0.000 C 
BRANCH  14  15
ATOM     15  C   UNL     1      26.296  -3.360  -3.336  1.00  0.00    -0.000 C 
BRANCH  15  16
ATOM     16  C   UNL     1      26.256  -4.778  -2.741  1.00  0.00    -0.000 C 
BRANCH  16  17
ATOM     17  C   UNL     1      27.560  -5.147  -2.013  1.00  0.00    -0.003 C 
ATOM     18  C   UNL     1      27.588  -4.661  -0.564  1.00  0.00     0.004 C 
ENDBRANCH  16  17
ENDBRANCH  15  16
ENDBRANCH  14  15
ENDBRANCH  13  14
ENDBRANCH  12  13
ENDBRANCH  11  12
ENDBRANCH   1  11
TORSDOF 14
ENDMDL
MODEL 2
REMARK VINA RESULT:    -2.769      4.860     10.091
REMARK INTER + INTRA:          -5.490
REMARK INTER:                  -5.068
REMARK INTRA:                  -0.422
REMARK UNBOUND:                -0.454
REMARK SMILES CCCCCCCCCCCCCCCC(=O)[O-]
REMARK SMILES IDX 9 1 10 2 11 3 12 4 13 5 14 6 15 7 16 8 17 9 18 10 8 11 7 12
REMARK SMILES IDX 6 13 5 14 4 15 3 16 2 17 1 18
REMARK H PARENT
REMARK Flexibility Score: inf
ROOT
ATOM      1  C   UNL     1      23.917   1.306  -3.066  1.00  0.00     0.000 C 
ENDROOT
BRANCH   1   2
ATOM      2  C   UNL     1      22.809   0.401  -2.501  1.00  0.00     0.000 C 
BRANCH   2   3
ATOM      3  C   UNL     1      23.259  -1.062  -2.329  1.00  0.00     0.000 C 
BRANCH   3   4
ATOM      4  C   UNL     1      24.326  -1.543  -3.329  1.00  0.00     0.000 C 
BRANCH   4   5
ATOM      5  C   UNL     1      25.474  -2.315  -2.656  1.00  0.00     0.000 C 
BRANCH   5   6
ATOM      6  C   UNL     1      25.974  -3.492  -3.510  1.00  0.00     0.006 C 
BRANCH   6   7
ATOM      7  C   UNL     1      26.124  -4.788  -2.701  1.00  0.00     0.053 C 
BRANCH   7   8
ATOM      8  C   UNL     1      27.554  -5.000  -2.317  1.00  0.00     0.041 C 
ATOM      9  O   UNL     1      28.414  -5.262  -3.198  1.00  0.00    -0.550 OA
ATOM     10  O   UNL     1      27.929  -4.955  -0.980  1.00  0.00    -0.550 OA
ENDBRANCH   7   8
ENDBRANCH   6   7
ENDBRANCH   5   6
ENDBRANCH   4   5
ENDBRANCH   3   4
ENDBRANCH   2   3
ENDBRANCH   1   2
BRANCH   1  11
ATOM     11  C   UNL     1      23.756   2.773  -2.634  1.00  0.00     0.000 C 
BRANCH  11  12
ATOM     12  C   UNL     1      25.016   3.324  -1.944  1.00  0.00    -0.000 C 
BRANCH  12  13
ATOM     13  C   UNL     1      25.139   4.854  -2.062  1.00  0.00    -0.000 C 
BRANCH  13  14
ATOM     14  C   UNL     1      26.200   5.500  -1.148  1.00  0.00    -0.000 C 
BRANCH  14  15
ATOM     15  C   UNL     1      26.484   6.988  -1.421  1.00  0.00    -0.000 C 
BRANCH  15  16
ATOM     16  C   UNL     1      27.886   7.422  -0.959  1.00  0.00    -0.000 C 
BRANCH  16  17
ATOM     17  C   UNL     1      28.487   8.517  -1.856  1.00  0.00    -0.003 C 
ATOM     18  C   UNL     1      28.366   9.914  -1.248  1.00  0.00     0.004 C 
ENDBRANCH  16  17
ENDBRANCH  15  16
ENDBRANCH  14  15
ENDBRANCH  13  14
ENDBRANCH  12  13
ENDBRANCH  11  12
ENDBRANCH   1  11
TORSDOF 14
ENDMDL
MODEL 3
REMARK VINA RESULT:    -2.726      0.717      1.396
REMARK INTER + INTRA:          -5.411
REMARK INTER:                  -4.871
REMARK INTRA:                  -0.540
REMARK UNBOUND:                -0.454
REMARK SMILES CCCCCCCCCCCCCCCC(=O)[O-]
REMARK SMILES IDX 9 1 10 2 11 3 12 4 13 5 14 6 15 7 16 8 17 9 18 10 8 11 7 12
REMARK SMILES IDX 6 13 5 14 4 15 3 16 2 17 1 18
REMARK H PARENT
REMARK Flexibility Score: inf
ROOT
ATOM      1  C   UNL     1      23.417   2.732  -3.109  1.00  0.00     0.000 C 
ENDROOT
BRANCH   1   2
ATOM      2  C   UNL     1      24.157   3.916  -2.464  1.00  0.00     0.000 C 
BRANCH   2   3
ATOM      3  C   UNL     1      25.524   3.521  -1.875  1.00  0.00     0.000 C 
BRANCH   3   4
ATOM      4  C   UNL     1      26.175   4.575  -0.962  1.00  0.00     0.000 C 
BRANCH   4   5
ATOM      5  C   UNL     1      26.012   6.010  -1.491  1.00  0.00     0.000 C 
BRANCH   5   6
ATOM      6  C   UNL     1      27.073   6.971  -0.929  1.00  0.00     0.006 C 
BRANCH   6   7
ATOM      7  C   UNL     1      27.411   8.111  -1.898  1.00  0.00     0.053 C 
BRANCH   7   8
ATOM      8  C   UNL     1      27.911   9.304  -1.145  1.00  0.00     0.041 C 
ATOM      9  O   UNL     1      28.269  10.339  -1.763  1.00  0.00    -0.550 OA
ATOM     10  O   UNL     1      28.026   9.254   0.239  1.00  0.00    -0.550 OA
ENDBRANCH   7   8
ENDBRANCH   6   7
ENDBRANCH   5   6
ENDBRANCH   4   5
ENDBRANCH   3   4
ENDBRANCH   2   3
ENDBRANCH   1   2
BRANCH   1  11
ATOM     11  C   UNL     1      23.966   1.372  -2.646  1.00  0.00     0.000 C 
BRANCH  11  12
ATOM     12  C   UNL     1      22.907   0.257  -2.718  1.00  0.00    -0.000 C 
BRANCH  12  13
ATOM     13  C   UNL     1      23.478  -1.129  -2.365  1.00  0.00    -0.000 C 
BRANCH  13  14
ATOM     14  C   UNL     1      24.586  -1.643  -3.306  1.00  0.00    -0.000 C 
BRANCH  14  15
ATOM     15  C   UNL     1      25.698  -2.461  -2.626  1.00  0.00    -0.000 C 
BRANCH  15  16
ATOM     16  C   UNL     1      26.006  -3.776  -3.361  1.00  0.00    -0.000 C 
BRANCH  16  17
ATOM     17  C   UNL     1      27.134  -4.576  -2.688  1.00  0.00    -0.003 C 
ATOM     18  C   UNL     1      27.163  -4.400  -1.170  1.00  0.00     0.004 C 
ENDBRANCH  16  17
ENDBRANCH  15  16
ENDBRANCH  14  15
ENDBRANCH  13  14
ENDBRANCH  12  13
ENDBRANCH  11  12
ENDBRANCH   1  11
TORSDOF 14
ENDMDL
MODEL 4
REMARK VINA RESULT:    -2.634      4.874     10.367
REMARK INTER + INTRA:          -5.244
REMARK INTER:                  -4.828
REMARK INTRA:                  -0.416
REMARK UNBOUND:                -0.454
REMARK SMILES CCCCCCCCCCCCCCCC(=O)[O-]
REMARK SMILES IDX 9 1 10 2 11 3 12 4 13 5 14 6 15 7 16 8 17 9 18 10 8 11 7 12
REMARK SMILES IDX 6 13 5 14 4 15 3 16 2 17 1 18
REMARK H PARENT
REMARK Flexibility Score: inf
ROOT
ATOM      1  C   UNL     1      23.841   2.925  -2.580  1.00  0.00     0.000 C 
ENDROOT
BRANCH   1   2
ATOM      2  C   UNL     1      24.014   1.441  -2.944  1.00  0.00     0.000 C 
BRANCH   2   3
ATOM      3  C   UNL     1      22.786   0.587  -2.578  1.00  0.00     0.000 C 
BRANCH   3   4
ATOM      4  C   UNL     1      23.050  -0.924  -2.449  1.00  0.00     0.000 C 
BRANCH   4   5
ATOM      5  C   UNL     1      24.414  -1.345  -3.024  1.00  0.00     0.000 C 
BRANCH   5   6
ATOM      6  C   UNL     1      24.856  -2.734  -2.535  1.00  0.00     0.006 C 
BRANCH   6   7
ATOM      7  C   UNL     1      26.329  -3.031  -2.850  1.00  0.00     0.053 C 
BRANCH   7   8
ATOM      8  C   UNL     1      26.691  -4.409  -2.395  1.00  0.00     0.041 C 
ATOM      9  O   UNL     1      26.128  -5.413  -2.904  1.00  0.00    -0.550 OA
ATOM     10  O   UNL     1      27.617  -4.583  -1.373  1.00  0.00    -0.550 OA
ENDBRANCH   7   8
ENDBRANCH   6   7
ENDBRANCH   5   6
ENDBRANCH   4   5
ENDBRANCH   3   4
ENDBRANCH   2   3
ENDBRANCH   1   2
BRANCH   1  11
ATOM     11  C   UNL     1      25.143   3.561  -2.065  1.00  0.00     0.000 C 
BRANCH  11  12
ATOM     12  C   UNL     1      25.089   5.099  -2.074  1.00  0.00    -0.000 C 
BRANCH  12  13
ATOM     13  C   UNL     1      26.189   5.738  -1.207  1.00  0.00    -0.000 C 
BRANCH  13  14
ATOM     14  C   UNL     1      26.613   7.160  -1.626  1.00  0.00    -0.000 C 
BRANCH  14  15
ATOM     15  C   UNL     1      27.883   7.696  -0.941  1.00  0.00    -0.000 C 
BRANCH  15  16
ATOM     16  C   UNL     1      27.744   9.159  -0.487  1.00  0.00    -0.000 C 
BRANCH  16  17
ATOM     17  C   UNL     1      28.686  10.104  -1.251  1.00  0.00    -0.003 C 
ATOM     18  C   UNL     1      28.262  10.317  -2.704  1.00  0.00     0.004 C 
ENDBRANCH  16  17
ENDBRANCH  15  16
ENDBRANCH  14  15
ENDBRANCH  13  14
ENDBRANCH  12  13
ENDBRANCH  11  12
ENDBRANCH   1  11
TORSDOF 14
ENDMDL
MODEL 5
REMARK VINA RESULT:    -2.297      4.842      9.739
REMARK INTER + INTRA:          -4.630
REMARK INTER:                  -4.142
REMARK INTRA:                  -0.488
REMARK UNBOUND:                -0.454
REMARK SMILES CCCCCCCCCCCCCCCC(=O)[O-]
REMARK SMILES IDX 9 1 10 2 11 3 12 4 13 5 14 6 15 7 16 8 17 9 18 10 8 11 7 12
REMARK SMILES IDX 6 13 5 14 4 15 3 16 2 17 1 18
REMARK H PARENT
REMARK Flexibility Score: inf
ROOT
ATOM      1  C   UNL     1      23.272  -1.246  -2.246  1.00  0.00     0.000 C 
ENDROOT
BRANCH   1   2
ATOM      2  C   UNL     1      24.479  -1.604  -3.130  1.00  0.00     0.000 C 
BRANCH   2   3
ATOM      3  C   UNL     1      25.391  -2.671  -2.497  1.00  0.00     0.000 C 
BRANCH   3   4
ATOM      4  C   UNL     1      26.205  -3.515  -3.494  1.00  0.00     0.000 C 
BRANCH   4   5
ATOM      5  C   UNL     1      25.850  -5.011  -3.444  1.00  0.00     0.000 C 
BRANCH   5   6
ATOM      6  C   UNL     1      26.936  -5.852  -2.753  1.00  0.00     0.006 C 
BRANCH   6   7
ATOM      7  C   UNL     1      27.978  -4.991  -2.026  1.00  0.00     0.053 C 
BRANCH   7   8
ATOM      8  C   UNL     1      27.678  -4.937  -0.561  1.00  0.00     0.041 C 
ATOM      9  O   UNL     1      26.796  -5.687  -0.067  1.00  0.00    -0.550 OA
ATOM     10  O   UNL     1      28.340  -4.025   0.252  1.00  0.00    -0.550 OA
ENDBRANCH   7   8
ENDBRANCH   6   7
ENDBRANCH   5   6
ENDBRANCH   4   5
ENDBRANCH   3   4
ENDBRANCH   2   3
ENDBRANCH   1   2
BRANCH   1  11
ATOM     11  C   UNL     1      22.776   0.191  -2.480  1.00  0.00     0.000 C 
BRANCH  11  12
ATOM     12  C   UNL     1      23.871   1.103  -3.061  1.00  0.00    -0.000 C 
BRANCH  12  13
ATOM     13  C   UNL     1      23.697   2.577  -2.651  1.00  0.00    -0.000 C 
BRANCH  13  14
ATOM     14  C   UNL     1      24.979   3.277  -2.155  1.00  0.00    -0.000 C 
BRANCH  14  15
ATOM     15  C   UNL     1      24.951   4.815  -2.209  1.00  0.00    -0.000 C 
BRANCH  15  16
ATOM     16  C   UNL     1      26.070   5.461  -1.376  1.00  0.00    -0.000 C 
BRANCH  16  17
ATOM     17  C   UNL     1      26.222   6.965  -1.662  1.00  0.00    -0.003 C 
ATOM     18  C   UNL     1      27.511   7.550  -1.086  1.00  0.00     0.004 C 
ENDBRANCH  16  17
ENDBRANCH  15  16
ENDBRANCH  14  15
ENDBRANCH  13  14
ENDBRANCH  12  13
ENDBRANCH  11  12
ENDBRANCH   1  11
TORSDOF 14
ENDMDL
MODEL 6
REMARK VINA RESULT:    -1.688      1.598      3.671
REMARK INTER + INTRA:          -3.524
REMARK INTER:                  -3.007
REMARK INTRA:                  -0.517
REMARK UNBOUND:                -0.454
REMARK SMILES CCCCCCCCCCCCCCCC(=O)[O-]
REMARK SMILES IDX 9 1 10 2 11 3 12 4 13 5 14 6 15 7 16 8 17 9 18 10 8 11 7 12
REMARK SMILES IDX 6 13 5 14 4 15 3 16 2 17 1 18
REMARK H PARENT
REMARK Flexibility Score: inf
ROOT
ATOM      1  C   UNL     1      25.276   4.282  -1.113  1.00  0.00     0.000 C 
ENDROOT
BRANCH   1   2
ATOM      2  C   UNL     1      26.541   5.157  -1.123  1.00  0.00     0.000 C 
BRANCH   2   3
ATOM      3  C   UNL     1      26.281   6.582  -1.644  1.00  0.00     0.000 C 
BRANCH   3   4
ATOM      4  C   UNL     1      26.889   7.713  -0.795  1.00  0.00     0.000 C 
BRANCH   4   5
ATOM      5  C   UNL     1      28.394   7.908  -1.045  1.00  0.00     0.000 C 
BRANCH   5   6
ATOM      6  C   UNL     1      28.683   8.635  -2.369  1.00  0.00     0.006 C 
BRANCH   6   7
ATOM      7  C   UNL     1      28.731  10.161  -2.208  1.00  0.00     0.053 C 
BRANCH   7   8
ATOM      8  C   UNL     1      28.308  10.832  -3.477  1.00  0.00     0.041 C 
ATOM      9  O   UNL     1      28.976  11.794  -3.937  1.00  0.00    -0.550 OA
ATOM     10  O   UNL     1      27.149  10.425  -4.125  1.00  0.00    -0.550 OA
ENDBRANCH   7   8
ENDBRANCH   6   7
ENDBRANCH   5   6
ENDBRANCH   4   5
ENDBRANCH   3   4
ENDBRANCH   2   3
ENDBRANCH   1   2
BRANCH   1  11
ATOM     11  C   UNL     1      24.729   4.022  -2.526  1.00  0.00     0.000 C 
BRANCH  11  12
ATOM     12  C   UNL     1      23.515   3.077  -2.521  1.00  0.00    -0.000 C 
BRANCH  12  13
ATOM     13  C   UNL     1      23.866   1.654  -2.994  1.00  0.00    -0.000 C 
BRANCH  13  14
ATOM     14  C   UNL     1      22.867   0.556  -2.575  1.00  0.00    -0.000 C 
BRANCH  14  15
ATOM     15  C   UNL     1      23.138  -0.839  -3.165  1.00  0.00    -0.000 C 
BRANCH  15  16
ATOM     16  C   UNL     1      24.176  -1.636  -2.359  1.00  0.00    -0.000 C 
BRANCH  16  17
ATOM     17  C   UNL     1      25.304  -2.195  -3.243  1.00  0.00    -0.003 C 
ATOM     18  C   UNL     1      26.070  -3.338  -2.575  1.00  0.00     0.004 C 
ENDBRANCH  16  17
ENDBRANCH  15  16
ENDBRANCH  14  15
ENDBRANCH  13  14
ENDBRANCH  12  13
ENDBRANCH  11  12
ENDBRANCH   1  11
TORSDOF 14
ENDMDL
MODEL 7
REMARK VINA RESULT:    -1.335      1.872      2.559
REMARK INTER + INTRA:          -2.881
REMARK INTER:                  -2.144
REMARK INTRA:                  -0.737
REMARK UNBOUND:                -0.454
REMARK SMILES CCCCCCCCCCCCCCCC(=O)[O-]
REMARK SMILES IDX 9 1 10 2 11 3 12 4 13 5 14 6 15 7 16 8 17 9 18 10 8 11 7 12
REMARK SMILES IDX 6 13 5 14 4 15 3 16 2 17 1 18
REMARK H PARENT
REMARK Flexibility Score: inf
ROOT
ATOM      1  C   UNL     1      22.723  -0.116  -1.810  1.00  0.00     0.000 C 
ENDROOT
BRANCH   1   2
ATOM      2  C   UNL     1      22.373   0.995  -2.814  1.00  0.00     0.000 C 
BRANCH   2   3
ATOM      3  C   UNL     1      23.598   1.820  -3.248  1.00  0.00     0.000 C 
BRANCH   3   4
ATOM      4  C   UNL     1      24.298   2.601  -2.120  1.00  0.00     0.000 C 
BRANCH   4   5
ATOM      5  C   UNL     1      24.521   4.083  -2.466  1.00  0.00     0.000 C 
BRANCH   5   6
ATOM      6  C   UNL     1      25.465   4.784  -1.476  1.00  0.00     0.006 C 
BRANCH   6   7
ATOM      7  C   UNL     1      26.657   3.906  -1.071  1.00  0.00     0.053 C 
BRANCH   7   8
ATOM      8  C   UNL     1      27.732   4.741  -0.450  1.00  0.00     0.041 C 
ATOM      9  O   UNL     1      28.684   4.193   0.164  1.00  0.00    -0.550 OA
ATOM     10  O   UNL     1      27.657   6.127  -0.509  1.00  0.00    -0.550 OA
ENDBRANCH   7   8
ENDBRANCH   6   7
ENDBRANCH   5   6
ENDBRANCH   4   5
ENDBRANCH   3   4
ENDBRANCH   2   3
ENDBRANCH   1   2
BRANCH   1  11
ATOM     11  C   UNL     1      23.203  -1.404  -2.501  1.00  0.00     0.000 C 
BRANCH  11  12
ATOM     12  C   UNL     1      24.738  -1.513  -2.539  1.00  0.00    -0.000 C 
BRANCH  12  13
ATOM     13  C   UNL     1      25.246  -2.358  -3.721  1.00  0.00    -0.000 C 
BRANCH  13  14
ATOM     14  C   UNL     1      26.449  -3.271  -3.408  1.00  0.00    -0.000 C 
BRANCH  14  15
ATOM     15  C   UNL     1      26.203  -4.776  -3.613  1.00  0.00    -0.000 C 
BRANCH  15  16
ATOM     16  C   UNL     1      26.582  -5.615  -2.381  1.00  0.00    -0.000 C 
BRANCH  16  17
ATOM     17  C   UNL     1      27.855  -5.101  -1.688  1.00  0.00    -0.003 C 
ATOM     18  C   UNL     1      27.625  -4.736  -0.221  1.00  0.00     0.004 C 
ENDBRANCH  16  17
ENDBRANCH  15  16
ENDBRANCH  14  15
ENDBRANCH  13  14
ENDBRANCH  12  13
ENDBRANCH  11  12
ENDBRANCH   1  11
TORSDOF 14
ENDMDL
MODEL 8
REMARK VINA RESULT:    -1.303      2.408      5.327
REMARK INTER + INTRA:          -2.824
REMARK INTER:                  -1.942
REMARK INTRA:                  -0.882
REMARK UNBOUND:                -0.454
REMARK SMILES CCCCCCCCCCCCCCCC(=O)[O-]
REMARK SMILES IDX 9 1 10 2 11 3 12 4 13 5 14 6 15 7 16 8 17 9 18 10 8 11 7 12
REMARK SMILES IDX 6 13 5 14 4 15 3 16 2 17 1 18
REMARK H PARENT
REMARK Flexibility Score: inf
ROOT
ATOM      1  C   UNL     1      26.501   6.119  -0.754  1.00  0.00     0.000 C 
ENDROOT
BRANCH   1   2
ATOM      2  C   UNL     1      27.553   6.994  -1.455  1.00  0.00     0.000 C 
BRANCH   2   3
ATOM      3  C   UNL     1      28.797   7.250  -0.584  1.00  0.00     0.000 C 
BRANCH   3   4
ATOM      4  C   UNL     1      28.963   8.696  -0.084  1.00  0.00     0.000 C 
BRANCH   4   5
ATOM      5  C   UNL     1      28.100   9.703  -0.864  1.00  0.00     0.000 C 
BRANCH   5   6
ATOM      6  C   UNL     1      28.944  10.700  -1.675  1.00  0.00     0.006 C 
BRANCH   6   7
ATOM      7  C   UNL     1      28.386  10.938  -3.085  1.00  0.00     0.053 C 
BRANCH   7   8
ATOM      8  C   UNL     1      28.151   9.633  -3.779  1.00  0.00     0.041 C 
ATOM      9  O   UNL     1      29.125   8.909  -4.113  1.00  0.00    -0.550 OA
ATOM     10  O   UNL     1      26.858   9.239  -4.099  1.00  0.00    -0.550 OA
ENDBRANCH   7   8
ENDBRANCH   6   7
ENDBRANCH   5   6
ENDBRANCH   4   5
ENDBRANCH   3   4
ENDBRANCH   2   3
ENDBRANCH   1   2
BRANCH   1  11
ATOM     11  C   UNL     1      26.863   4.624  -0.784  1.00  0.00     0.000 C 
BRANCH  11  12
ATOM     12  C   UNL     1      26.138   3.867  -1.911  1.00  0.00    -0.000 C 
BRANCH  12  13
ATOM     13  C   UNL     1      24.629   4.170  -1.957  1.00  0.00    -0.000 C 
BRANCH  13  14
ATOM     14  C   UNL     1      23.777   3.147  -2.736  1.00  0.00    -0.000 C 
BRANCH  14  15
ATOM     15  C   UNL     1      24.035   1.672  -2.382  1.00  0.00    -0.000 C 
BRANCH  15  16
ATOM     16  C   UNL     1      23.060   0.711  -3.084  1.00  0.00    -0.000 C 
BRANCH  16  17
ATOM     17  C   UNL     1      23.118  -0.712  -2.504  1.00  0.00    -0.003 C 
ATOM     18  C   UNL     1      24.319  -1.511  -3.009  1.00  0.00     0.004 C 
ENDBRANCH  16  17
ENDBRANCH  15  16
ENDBRANCH  14  15
ENDBRANCH  13  14
ENDBRANCH  12  13
ENDBRANCH  11  12
ENDBRANCH   1  11
TORSDOF 14
ENDMDL
MODEL 9
REMARK VINA RESULT:    -1.174      4.725     10.280
REMARK INTER + INTRA:          -2.588
REMARK INTER:                  -2.565
REMARK INTRA:                  -0.023
REMARK UNBOUND:                -0.454
REMARK SMILES CCCCCCCCCCCCCCCC(=O)[O-]
REMARK SMILES IDX 9 1 10 2 11 3 12 4 13 5 14 6 15 7 16 8 17 9 18 10 8 11 7 12
REMARK SMILES IDX 6 13 5 14 4 15 3 16 2 17 1 18
REMARK H PARENT
REMARK Flexibility Score: inf
ROOT
ATOM      1  C   UNL     1      27.120   4.951  -0.708  1.00  0.00     0.000 C 
ENDROOT
BRANCH   1   2
ATOM      2  C   UNL     1      26.174   5.892  -1.473  1.00  0.00     0.000 C 
BRANCH   2   3
ATOM      3  C   UNL     1      25.101   5.138  -2.280  1.00  0.00     0.000 C 
BRANCH   3   4
ATOM      4  C   UNL     1      24.964   3.640  -1.952  1.00  0.00     0.000 C 
BRANCH   4   5
ATOM      5  C   UNL     1      23.774   2.976  -2.667  1.00  0.00     0.000 C 
BRANCH   5   6
ATOM      6  C   UNL     1      24.031   1.494  -2.987  1.00  0.00     0.006 C 
BRANCH   6   7
ATOM      7  C   UNL     1      22.810   0.608  -2.705  1.00  0.00     0.053 C 
BRANCH   7   8
ATOM      8  C   UNL     1      23.241  -0.795  -2.411  1.00  0.00     0.041 C 
ATOM      9  O   UNL     1      22.669  -1.457  -1.507  1.00  0.00    -0.550 OA
ATOM     10  O   UNL     1      24.307  -1.354  -3.105  1.00  0.00    -0.550 OA
ENDBRANCH   7   8
ENDBRANCH   6   7
ENDBRANCH   5   6
ENDBRANCH   4   5
ENDBRANCH   3   4
ENDBRANCH   2   3
ENDBRANCH   1   2
BRANCH   1  11
ATOM     11  C   UNL     1      28.365   5.677  -0.172  1.00  0.00     0.000 C 
BRANCH  11  12
ATOM     12  C   UNL     1      28.599   7.031  -0.864  1.00  0.00    -0.000 C 
BRANCH  12  13
ATOM     13  C   UNL     1      27.551   8.089  -0.472  1.00  0.00    -0.000 C 
BRANCH  13  14
ATOM     14  C   UNL     1      28.071   9.540  -0.415  1.00  0.00    -0.000 C 
BRANCH  14  15
ATOM     15  C   UNL     1      29.102   9.911  -1.496  1.00  0.00    -0.000 C 
BRANCH  15  16
ATOM     16  C   UNL     1      28.640  11.079  -2.384  1.00  0.00    -0.000 C 
BRANCH  16  17
ATOM     17  C   UNL     1      28.471  10.668  -3.856  1.00  0.00    -0.003 C 
ATOM     18  C   UNL     1      28.034   9.212  -4.019  1.00  0.00     0.004 C 
ENDBRANCH  16  17
ENDBRANCH  15  16
ENDBRANCH  14  15
ENDBRANCH  13  14
ENDBRANCH  12  13
ENDBRANCH  11  12
ENDBRANCH   1  11
TORSDOF 14
ENDMDL
