MODEL 1
REMARK VINA RESULT:    -2.603      0.000      0.000
REMARK INTER + INTRA:          -2.679
REMARK INTER:                  -2.679
REMARK INTRA:                   0.000
REMARK UNBOUND:                 0.000
REMARK SMILES Nc1ncnc2nc[nH]c12
REMARK SMILES IDX 8 1 7 2 6 3 5 4 4 5 3 6 2 7 10 8 9 9 1 11
REMARK H PARENT 9 10 1 12 1 13
REMARK Flexibility Score: inf
ROOT
ATOM      1  C   UNL     1       6.471  -6.113   6.844  1.00  0.00     0.199 A 
ATOM      2  N   UNL     1       5.665  -5.892   7.919  1.00  0.00    -0.217 NA
ATOM      3  C   UNL     1       4.967  -4.811   7.535  1.00  0.00     0.182 A 
ATOM      4  N   UNL     1       4.012  -4.170   8.249  1.00  0.00    -0.215 NA
ATOM      5  C   UNL     1       3.408  -3.080   7.686  1.00  0.00     0.226 A 
ATOM      6  N   UNL     1       3.766  -2.655   6.433  1.00  0.00    -0.217 NA
ATOM      7  C   UNL     1       4.730  -3.301   5.710  1.00  0.00     0.152 A 
ATOM      8  C   UNL     1       5.336  -4.408   6.296  1.00  0.00     0.127 A 
ATOM      9  N   UNL     1       6.293  -5.223   5.836  1.00  0.00    -0.340 N 
ATOM     10  H   UNL     1       6.791  -5.192   4.920  1.00  0.00     0.168 HD
ENDROOT
BRANCH   7  11
ATOM     11  N   UNL     1       5.087  -2.840   4.406  1.00  0.00    -0.382 N 
ATOM     12  H   UNL     1       4.471  -2.188   3.872  1.00  0.00     0.158 HD
ATOM     13  H   UNL     1       5.982  -3.153   3.968  1.00  0.00     0.158 HD
ENDBRANCH   7  11
TORSDOF 1
ENDMDL
MODEL 2
REMARK VINA RESULT:    -2.539      1.129      3.105
REMARK INTER + INTRA:          -2.613
REMARK INTER:                  -2.613
REMARK INTRA:                   0.000
REMARK UNBOUND:                 0.000
REMARK SMILES Nc1ncnc2nc[nH]c12
REMARK SMILES IDX 8 1 7 2 6 3 5 4 4 5 3 6 2 7 10 8 9 9 1 11
REMARK H PARENT 9 10 1 12 1 13
REMARK Flexibility Score: inf
ROOT
ATOM      1  C   UNL     1       3.825  -2.105   4.470  1.00  0.00     0.199 A 
ATOM      2  N   UNL     1       3.164  -1.922   5.646  1.00  0.00    -0.217 NA
ATOM      3  C   UNL     1       3.756  -2.821   6.449  1.00  0.00     0.182 A 
ATOM      4  N   UNL     1       3.468  -3.054   7.752  1.00  0.00    -0.215 NA
ATOM      5  C   UNL     1       4.184  -4.016   8.409  1.00  0.00     0.226 A 
ATOM      6  N   UNL     1       5.164  -4.721   7.758  1.00  0.00    -0.217 NA
ATOM      7  C   UNL     1       5.456  -4.487   6.444  1.00  0.00     0.152 A 
ATOM      8  C   UNL     1       4.719  -3.505   5.789  1.00  0.00     0.127 A 
ATOM      9  N   UNL     1       4.782  -3.066   4.526  1.00  0.00    -0.340 N 
ATOM     10  H   UNL     1       5.413  -3.380   3.756  1.00  0.00     0.168 HD
ENDROOT
BRANCH   7  11
ATOM     11  N   UNL     1       6.482  -5.234   5.787  1.00  0.00    -0.382 N 
ATOM     12  H   UNL     1       6.647  -6.240   6.007  1.00  0.00     0.158 HD
ATOM     13  H   UNL     1       7.083  -4.774   5.067  1.00  0.00     0.158 HD
ENDBRANCH   7  11
TORSDOF 1
ENDMDL
MODEL 3
REMARK VINA RESULT:    -2.466      1.687      2.446
REMARK INTER + INTRA:          -2.538
REMARK INTER:                  -2.538
REMARK INTRA:                   0.000
REMARK UNBOUND:                 0.000
REMARK SMILES Nc1ncnc2nc[nH]c12
REMARK SMILES IDX 8 1 7 2 6 3 5 4 4 5 3 6 2 7 10 8 9 9 1 11
REMARK H PARENT 9 10 1 12 1 13
REMARK Flexibility Score: inf
ROOT
ATOM      1  C   UNL     1       5.170  -4.362   6.738  1.00  0.00     0.199 A 
ATOM      2  N   UNL     1       4.290  -3.544   7.378  1.00  0.00    -0.217 NA
ATOM      3  C   UNL     1       3.987  -2.647   6.425  1.00  0.00     0.182 A 
ATOM      4  N   UNL     1       3.140  -1.597   6.542  1.00  0.00    -0.215 NA
ATOM      5  C   UNL     1       2.958  -0.790   5.453  1.00  0.00     0.226 A 
ATOM      6  N   UNL     1       3.621  -1.044   4.280  1.00  0.00    -0.217 NA
ATOM      7  C   UNL     1       4.476  -2.103   4.160  1.00  0.00     0.152 A 
ATOM      8  C   UNL     1       4.651  -2.916   5.276  1.00  0.00     0.127 A 
ATOM      9  N   UNL     1       5.410  -4.004   5.451  1.00  0.00    -0.340 N 
ATOM     10  H   UNL     1       6.042  -4.475   4.768  1.00  0.00     0.168 HD
ENDROOT
BRANCH   7  11
ATOM     11  N   UNL     1       5.156  -2.348   2.927  1.00  0.00    -0.382 N 
ATOM     12  H   UNL     1       6.172  -2.583   2.905  1.00  0.00     0.158 HD
ATOM     13  H   UNL     1       4.634  -2.296   2.024  1.00  0.00     0.158 HD
ENDBRANCH   7  11
TORSDOF 1
ENDMDL
MODEL 4
REMARK VINA RESULT:    -2.384      4.390      5.546
REMARK INTER + INTRA:          -2.454
REMARK INTER:                  -2.454
REMARK INTRA:                   0.000
REMARK UNBOUND:                 0.000
REMARK SMILES Nc1ncnc2nc[nH]c12
REMARK SMILES IDX 8 1 7 2 6 3 5 4 4 5 3 6 2 7 10 8 9 9 1 11
REMARK H PARENT 9 10 1 12 1 13
REMARK Flexibility Score: inf
ROOT
ATOM      1  C   UNL     1      10.785  -5.470   3.407  1.00  0.00     0.199 A 
ATOM      2  N   UNL     1      11.178  -4.182   3.204  1.00  0.00    -0.217 NA
ATOM      3  C   UNL     1      10.177  -3.486   3.766  1.00  0.00     0.182 A 
ATOM      4  N   UNL     1      10.071  -2.137   3.839  1.00  0.00    -0.215 NA
ATOM      5  C   UNL     1       8.971  -1.609   4.456  1.00  0.00     0.226 A 
ATOM      6  N   UNL     1       8.005  -2.430   4.981  1.00  0.00    -0.217 NA
ATOM      7  C   UNL     1       8.110  -3.791   4.908  1.00  0.00     0.152 A 
ATOM      8  C   UNL     1       9.236  -4.313   4.278  1.00  0.00     0.127 A 
ATOM      9  N   UNL     1       9.602  -5.582   4.061  1.00  0.00    -0.340 N 
ATOM     10  H   UNL     1       9.104  -6.460   4.328  1.00  0.00     0.168 HD
ENDROOT
BRANCH   7  11
ATOM     11  N   UNL     1       7.092  -4.626   5.462  1.00  0.00    -0.382 N 
ATOM     12  H   UNL     1       6.689  -4.437   6.406  1.00  0.00     0.158 HD
ATOM     13  H   UNL     1       6.735  -5.444   4.920  1.00  0.00     0.158 HD
ENDBRANCH   7  11
TORSDOF 1
ENDMDL
MODEL 5
REMARK VINA RESULT:    -2.284      1.309      1.797
REMARK INTER + INTRA:          -2.350
REMARK INTER:                  -2.350
REMARK INTRA:                   0.000
REMARK UNBOUND:                 0.000
REMARK SMILES Nc1ncnc2nc[nH]c12
REMARK SMILES IDX 8 1 7 2 6 3 5 4 4 5 3 6 2 7 10 8 9 9 1 11
REMARK H PARENT 9 10 1 12 1 13
REMARK Flexibility Score: inf
ROOT
ATOM      1  C   UNL     1       8.296  -5.752   6.209  1.00  0.00     0.199 A 
ATOM      2  N   UNL     1       7.948  -6.029   7.495  1.00  0.00    -0.217 NA
ATOM      3  C   UNL     1       6.753  -5.425   7.604  1.00  0.00     0.182 A 
ATOM      4  N   UNL     1       5.960  -5.393   8.702  1.00  0.00    -0.215 NA
ATOM      5  C   UNL     1       4.771  -4.724   8.619  1.00  0.00     0.226 A 
ATOM      6  N   UNL     1       4.400  -4.103   7.454  1.00  0.00    -0.217 NA
ATOM      7  C   UNL     1       5.199  -4.134   6.345  1.00  0.00     0.152 A 
ATOM      8  C   UNL     1       6.406  -4.819   6.444  1.00  0.00     0.127 A 
ATOM      9  N   UNL     1       7.374  -5.014   5.540  1.00  0.00    -0.340 N 
ATOM     10  H   UNL     1       7.420  -4.683   4.552  1.00  0.00     0.168 HD
ENDROOT
BRANCH   7  11
ATOM     11  N   UNL     1       4.792  -3.480   5.142  1.00  0.00    -0.382 N 
ATOM     12  H   UNL     1       3.795  -3.477   4.836  1.00  0.00     0.158 HD
ATOM     13  H   UNL     1       5.499  -2.990   4.549  1.00  0.00     0.158 HD
ENDBRANCH   7  11
TORSDOF 1
ENDMDL
MODEL 6
REMARK VINA RESULT:    -2.277     22.707     23.549
REMARK INTER + INTRA:          -2.344
REMARK INTER:                  -2.344
REMARK INTRA:                   0.000
REMARK UNBOUND:                 0.000
REMARK SMILES Nc1ncnc2nc[nH]c12
REMARK SMILES IDX 8 1 7 2 6 3 5 4 4 5 3 6 2 7 10 8 9 9 1 11
REMARK H PARENT 9 10 1 12 1 13
REMARK Flexibility Score: inf
ROOT
ATOM      1  C   UNL     1      20.098  13.117   3.609  1.00  0.00     0.199 A 
ATOM      2  N   UNL     1      20.392  11.903   3.069  1.00  0.00    -0.217 NA
ATOM      3  C   UNL     1      21.313  11.426   3.923  1.00  0.00     0.182 A 
ATOM      4  N   UNL     1      21.946  10.231   3.845  1.00  0.00    -0.215 NA
ATOM      5  C   UNL     1      22.857   9.920   4.816  1.00  0.00     0.226 A 
ATOM      6  N   UNL     1      23.117  10.799   5.835  1.00  0.00    -0.217 NA
ATOM      7  C   UNL     1      22.480  12.005   5.915  1.00  0.00     0.152 A 
ATOM      8  C   UNL     1      21.555  12.308   4.921  1.00  0.00     0.127 A 
ATOM      9  N   UNL     1      20.792  13.394   4.742  1.00  0.00    -0.340 N 
ATOM     10  H   UNL     1      20.735  14.255   5.328  1.00  0.00     0.168 HD
ENDROOT
BRANCH   7  11
ATOM     11  N   UNL     1      22.767  12.906   6.987  1.00  0.00    -0.382 N 
ATOM     12  H   UNL     1      23.203  13.837   6.811  1.00  0.00     0.158 HD
ATOM     13  H   UNL     1      22.539  12.638   7.970  1.00  0.00     0.158 HD
ENDBRANCH   7  11
TORSDOF 1
ENDMDL
MODEL 7
REMARK VINA RESULT:    -2.249      1.214      2.483
REMARK INTER + INTRA:          -2.315
REMARK INTER:                  -2.315
REMARK INTRA:                   0.000
REMARK UNBOUND:                 0.000
REMARK SMILES Nc1ncnc2nc[nH]c12
REMARK SMILES IDX 8 1 7 2 6 3 5 4 4 5 3 6 2 7 10 8 9 9 1 11
REMARK H PARENT 9 10 1 12 1 13
REMARK Flexibility Score: inf
ROOT
ATOM      1  C   UNL     1       4.397  -4.234   9.413  1.00  0.00     0.199 A 
ATOM      2  N   UNL     1       3.406  -3.393   9.008  1.00  0.00    -0.217 NA
ATOM      3  C   UNL     1       3.679  -3.238   7.702  1.00  0.00     0.182 A 
ATOM      4  N   UNL     1       2.986  -2.484   6.815  1.00  0.00    -0.215 NA
ATOM      5  C   UNL     1       3.420  -2.451   5.519  1.00  0.00     0.226 A 
ATOM      6  N   UNL     1       4.528  -3.164   5.137  1.00  0.00    -0.217 NA
ATOM      7  C   UNL     1       5.229  -3.924   6.031  1.00  0.00     0.152 A 
ATOM      8  C   UNL     1       4.775  -3.948   7.346  1.00  0.00     0.127 A 
ATOM      9  N   UNL     1       5.250  -4.591   8.420  1.00  0.00    -0.340 N 
ATOM     10  H   UNL     1       6.079  -5.221   8.490  1.00  0.00     0.168 HD
ENDROOT
BRANCH   7  11
ATOM     11  N   UNL     1       6.381  -4.658   5.610  1.00  0.00    -0.382 N 
ATOM     12  H   UNL     1       6.311  -5.657   5.318  1.00  0.00     0.158 HD
ATOM     13  H   UNL     1       7.316  -4.194   5.589  1.00  0.00     0.158 HD
ENDBRANCH   7  11
TORSDOF 1
ENDMDL
MODEL 8
REMARK VINA RESULT:    -2.242      1.909      3.991
REMARK INTER + INTRA:          -2.307
REMARK INTER:                  -2.307
REMARK INTRA:                   0.000
REMARK UNBOUND:                 0.000
REMARK SMILES Nc1ncnc2nc[nH]c12
REMARK SMILES IDX 8 1 7 2 6 3 5 4 4 5 3 6 2 7 10 8 9 9 1 11
REMARK H PARENT 9 10 1 12 1 13
REMARK Flexibility Score: inf
ROOT
ATOM      1  C   UNL     1       5.258  -1.255   2.920  1.00  0.00     0.199 A 
ATOM      2  N   UNL     1       4.230  -0.567   3.488  1.00  0.00    -0.217 NA
ATOM      3  C   UNL     1       3.958  -1.307   4.576  1.00  0.00     0.182 A 
ATOM      4  N   UNL     1       3.002  -1.060   5.503  1.00  0.00    -0.215 NA
ATOM      5  C   UNL     1       2.875  -1.933   6.547  1.00  0.00     0.226 A 
ATOM      6  N   UNL     1       3.697  -3.027   6.644  1.00  0.00    -0.217 NA
ATOM      7  C   UNL     1       4.661  -3.278   5.709  1.00  0.00     0.152 A 
ATOM      8  C   UNL     1       4.779  -2.380   4.652  1.00  0.00     0.127 A 
ATOM      9  N   UNL     1       5.616  -2.369   3.608  1.00  0.00    -0.340 N 
ATOM     10  H   UNL     1       6.370  -3.049   3.369  1.00  0.00     0.168 HD
ENDROOT
BRANCH   7  11
ATOM     11  N   UNL     1       5.506  -4.424   5.831  1.00  0.00    -0.382 N 
ATOM     12  H   UNL     1       6.527  -4.329   6.020  1.00  0.00     0.158 HD
ATOM     13  H   UNL     1       5.103  -5.382   5.731  1.00  0.00     0.158 HD
ENDBRANCH   7  11
TORSDOF 1
ENDMDL
MODEL 9
REMARK VINA RESULT:    -2.235      1.200      3.005
REMARK INTER + INTRA:          -2.301
REMARK INTER:                  -2.301
REMARK INTRA:                   0.000
REMARK UNBOUND:                 0.000
REMARK SMILES Nc1ncnc2nc[nH]c12
REMARK SMILES IDX 8 1 7 2 6 3 5 4 4 5 3 6 2 7 10 8 9 9 1 11
REMARK H PARENT 9 10 1 12 1 13
REMARK Flexibility Score: inf
ROOT
ATOM      1  C   UNL     1       3.834  -2.111   6.923  1.00  0.00     0.199 A 
ATOM      2  N   UNL     1       3.355  -2.952   7.880  1.00  0.00    -0.217 NA
ATOM      3  C   UNL     1       4.171  -4.012   7.763  1.00  0.00     0.182 A 
ATOM      4  N   UNL     1       4.127  -5.151   8.495  1.00  0.00    -0.215 NA
ATOM      5  C   UNL     1       5.049  -6.125   8.229  1.00  0.00     0.226 A 
ATOM      6  N   UNL     1       5.988  -5.945   7.246  1.00  0.00    -0.217 NA
ATOM      7  C   UNL     1       6.034  -4.797   6.507  1.00  0.00     0.152 A 
ATOM      8  C   UNL     1       5.089  -3.814   6.789  1.00  0.00     0.127 A 
ATOM      9  N   UNL     1       4.895  -2.610   6.240  1.00  0.00    -0.340 N 
ATOM     10  H   UNL     1       5.426  -2.151   5.468  1.00  0.00     0.168 HD
ENDROOT
BRANCH   7  11
ATOM     11  N   UNL     1       7.022  -4.631   5.487  1.00  0.00    -0.382 N 
ATOM     12  H   UNL     1       7.944  -5.116   5.541  1.00  0.00     0.158 HD
ATOM     13  H   UNL     1       6.827  -4.016   4.666  1.00  0.00     0.158 HD
ENDBRANCH   7  11
TORSDOF 1
ENDMDL
