MODEL 1
REMARK VINA RESULT:    -6.291      0.000      0.000
REMARK INTER + INTRA:          -7.510
REMARK INTER:                  -7.210
REMARK INTRA:                  -0.300
REMARK UNBOUND:                -0.300
REMARK SMILES O=C1C[C@H](c2ccc(O)cc2)Oc2cc(O)cc(O)c21
REMARK SMILES IDX 3 1 4 2 12 3 13 4 14 5 15 6 17 7 18 8 20 9 2 10 1 11 5 12
REMARK SMILES IDX 6 13 11 14 7 15 10 16 8 17 9 18 19 20 16 22
REMARK H PARENT 9 19 19 21 16 23
REMARK Flexibility Score: inf
ROOT
ATOM      1  C   UNL     1      43.437  44.328  15.913  1.00  0.00     0.131 C 
ATOM      2  C   UNL     1      42.297  44.454  16.931  1.00  0.00     0.211 C 
ATOM      3  O   UNL     1      41.100  44.872  16.277  1.00  0.00    -0.484 OA
ATOM      4  C   UNL     1      41.097  45.912  15.342  1.00  0.00     0.138 A 
ATOM      5  C   UNL     1      39.879  46.489  14.980  1.00  0.00     0.093 A 
ATOM      6  C   UNL     1      39.842  47.547  14.069  1.00  0.00     0.123 A 
ATOM      7  C   UNL     1      41.034  48.038  13.532  1.00  0.00     0.093 A 
ATOM      8  C   UNL     1      42.269  47.481  13.886  1.00  0.00     0.133 A 
ATOM      9  C   UNL     1      42.307  46.364  14.768  1.00  0.00     0.102 A 
ATOM     10  C   UNL     1      43.535  45.571  15.074  1.00  0.00     0.174 C 
ATOM     11  O   UNL     1      44.648  45.850  14.557  1.00  0.00    -0.294 OA
ENDROOT
BRANCH   2  12
ATOM     12  C   UNL     1      42.069  43.143  17.644  1.00  0.00    -0.007 A 
ATOM     13  C   UNL     1      41.085  42.251  17.185  1.00  0.00     0.011 A 
ATOM     14  C   UNL     1      42.795  42.823  18.806  1.00  0.00     0.011 A 
ATOM     15  C   UNL     1      40.849  41.050  17.861  1.00  0.00     0.046 A 
ATOM     16  C   UNL     1      42.558  41.621  19.479  1.00  0.00     0.046 A 
ATOM     17  C   UNL     1      41.587  40.731  19.010  1.00  0.00     0.115 A 
BRANCH  17  18
ATOM     18  O   UNL     1      41.361  39.537  19.690  1.00  0.00    -0.508 OA
ATOM     19  H   UNL     1      41.546  39.450  20.683  1.00  0.00     0.293 HD
ENDBRANCH  17  18
ENDBRANCH   2  12
BRANCH   8  20
ATOM     20  O   UNL     1      43.408  48.082  13.347  1.00  0.00    -0.507 OA
ATOM     21  H   UNL     1      43.421  48.989  12.904  1.00  0.00     0.293 HD
ENDBRANCH   8  20
BRANCH   6  22
ATOM     22  O   UNL     1      38.631  48.124  13.699  1.00  0.00    -0.508 OA
ATOM     23  H   UNL     1      38.023  48.565  14.379  1.00  0.00     0.293 HD
ENDBRANCH   6  22
TORSDOF 4
ENDMDL
MODEL 2
REMARK VINA RESULT:    -6.228      3.278      4.418
REMARK INTER + INTRA:          -7.438
REMARK INTER:                  -7.154
REMARK INTRA:                  -0.283
REMARK UNBOUND:                -0.300
REMARK SMILES O=C1C[C@H](c2ccc(O)cc2)Oc2cc(O)cc(O)c21
REMARK SMILES IDX 3 1 4 2 12 3 13 4 14 5 15 6 17 7 18 8 20 9 2 10 1 11 5 12
REMARK SMILES IDX 6 13 11 14 7 15 10 16 8 17 9 18 19 20 16 22
REMARK H PARENT 9 19 19 21 16 23
REMARK Flexibility Score: inf
ROOT
ATOM      1  C   UNL     1      42.983  41.724  16.821  1.00  0.00     0.131 C 
ATOM      2  C   UNL     1      41.972  41.721  15.668  1.00  0.00     0.211 C 
ATOM      3  O   UNL     1      42.331  42.706  14.700  1.00  0.00    -0.484 OA
ATOM      4  C   UNL     1      42.712  44.000  15.072  1.00  0.00     0.138 A 
ATOM      5  C   UNL     1      42.738  45.000  14.099  1.00  0.00     0.093 A 
ATOM      6  C   UNL     1      43.088  46.307  14.441  1.00  0.00     0.123 A 
ATOM      7  C   UNL     1      43.398  46.616  15.767  1.00  0.00     0.093 A 
ATOM      8  C   UNL     1      43.372  45.631  16.762  1.00  0.00     0.133 A 
ATOM      9  C   UNL     1      43.073  44.285  16.408  1.00  0.00     0.102 A 
ATOM     10  C   UNL     1      43.193  43.121  17.337  1.00  0.00     0.174 C 
ATOM     11  O   UNL     1      43.575  43.261  18.527  1.00  0.00    -0.294 OA
ENDROOT
BRANCH   2  12
ATOM     12  C   UNL     1      41.901  40.359  15.021  1.00  0.00    -0.007 A 
ATOM     13  C   UNL     1      43.054  39.562  14.924  1.00  0.00     0.011 A 
ATOM     14  C   UNL     1      40.698  39.895  14.460  1.00  0.00     0.011 A 
ATOM     15  C   UNL     1      42.999  38.312  14.298  1.00  0.00     0.046 A 
ATOM     16  C   UNL     1      40.646  38.645  13.836  1.00  0.00     0.046 A 
ATOM     17  C   UNL     1      41.793  37.850  13.754  1.00  0.00     0.115 A 
BRANCH  17  18
ATOM     18  O   UNL     1      41.726  36.607  13.129  1.00  0.00    -0.508 OA
ATOM     19  H   UNL     1      41.295  36.494  12.219  1.00  0.00     0.293 HD
ENDBRANCH  17  18
ENDBRANCH   2  12
BRANCH   8  20
ATOM     20  O   UNL     1      43.633  46.049  18.069  1.00  0.00    -0.507 OA
ATOM     21  H   UNL     1      43.787  45.427  18.848  1.00  0.00     0.293 HD
ENDBRANCH   8  20
BRANCH   6  22
ATOM     22  O   UNL     1      43.122  47.311  13.476  1.00  0.00    -0.508 OA
ATOM     23  H   UNL     1      42.633  47.214  12.594  1.00  0.00     0.293 HD
ENDBRANCH   6  22
TORSDOF 4
ENDMDL
MODEL 3
REMARK VINA RESULT:    -5.970     14.284     15.985
REMARK INTER + INTRA:          -7.142
REMARK INTER:                  -6.862
REMARK INTRA:                  -0.281
REMARK UNBOUND:                -0.300
REMARK SMILES O=C1C[C@H](c2ccc(O)cc2)Oc2cc(O)cc(O)c21
REMARK SMILES IDX 3 1 4 2 12 3 13 4 14 5 15 6 17 7 18 8 20 9 2 10 1 11 5 12
REMARK SMILES IDX 6 13 11 14 7 15 10 16 8 17 9 18 19 20 16 22
REMARK H PARENT 9 19 19 21 16 23
REMARK Flexibility Score: inf
ROOT
ATOM      1  C   UNL     1      39.955  29.421  13.405  1.00  0.00     0.131 C 
ATOM      2  C   UNL     1      39.050  29.554  14.635  1.00  0.00     0.211 C 
ATOM      3  O   UNL     1      39.739  30.244  15.677  1.00  0.00    -0.484 OA
ATOM      4  C   UNL     1      41.060  29.935  16.018  1.00  0.00     0.138 A 
ATOM      5  C   UNL     1      41.570  30.401  17.230  1.00  0.00     0.093 A 
ATOM      6  C   UNL     1      42.876  30.089  17.613  1.00  0.00     0.123 A 
ATOM      7  C   UNL     1      43.667  29.292  16.784  1.00  0.00     0.093 A 
ATOM      8  C   UNL     1      43.175  28.806  15.566  1.00  0.00     0.133 A 
ATOM      9  C   UNL     1      41.866  29.170  15.143  1.00  0.00     0.102 A 
ATOM     10  C   UNL     1      41.300  28.871  13.794  1.00  0.00     0.174 C 
ATOM     11  O   UNL     1      41.963  28.258  12.919  1.00  0.00    -0.294 OA
ENDROOT
BRANCH   2  12
ATOM     12  C   UNL     1      37.774  30.281  14.286  1.00  0.00    -0.007 A 
ATOM     13  C   UNL     1      36.534  29.776  14.714  1.00  0.00     0.011 A 
ATOM     14  C   UNL     1      37.804  31.435  13.483  1.00  0.00     0.011 A 
ATOM     15  C   UNL     1      35.347  30.430  14.366  1.00  0.00     0.046 A 
ATOM     16  C   UNL     1      36.616  32.087  13.139  1.00  0.00     0.046 A 
ATOM     17  C   UNL     1      35.386  31.589  13.579  1.00  0.00     0.115 A 
BRANCH  17  18
ATOM     18  O   UNL     1      34.210  32.248  13.227  1.00  0.00    -0.508 OA
ATOM     19  H   UNL     1      33.601  31.892  12.499  1.00  0.00     0.293 HD
ENDBRANCH  17  18
ENDBRANCH   2  12
BRANCH   8  20
ATOM     20  O   UNL     1      44.018  27.964  14.837  1.00  0.00    -0.507 OA
ATOM     21  H   UNL     1      44.940  27.681  15.134  1.00  0.00     0.293 HD
ENDBRANCH   8  20
BRANCH   6  22
ATOM     22  O   UNL     1      43.394  30.555  18.818  1.00  0.00    -0.508 OA
ATOM     23  H   UNL     1      43.556  31.542  18.980  1.00  0.00     0.293 HD
ENDBRANCH   6  22
TORSDOF 4
ENDMDL
MODEL 4
REMARK VINA RESULT:    -5.931      4.485      7.328
REMARK INTER + INTRA:          -7.097
REMARK INTER:                  -6.795
REMARK INTRA:                  -0.302
REMARK UNBOUND:                -0.300
REMARK SMILES O=C1C[C@H](c2ccc(O)cc2)Oc2cc(O)cc(O)c21
REMARK SMILES IDX 3 1 4 2 12 3 13 4 14 5 15 6 17 7 18 8 20 9 2 10 1 11 5 12
REMARK SMILES IDX 6 13 11 14 7 15 10 16 8 17 9 18 19 20 16 22
REMARK H PARENT 9 19 19 21 16 23
REMARK Flexibility Score: inf
ROOT
ATOM      1  C   UNL     1      43.726  40.894  15.293  1.00  0.00     0.131 C 
ATOM      2  C   UNL     1      42.642  41.555  14.433  1.00  0.00     0.211 C 
ATOM      3  O   UNL     1      41.509  40.695  14.326  1.00  0.00    -0.484 OA
ATOM      4  C   UNL     1      41.644  39.330  14.056  1.00  0.00     0.138 A 
ATOM      5  C   UNL     1      40.520  38.609  13.647  1.00  0.00     0.093 A 
ATOM      6  C   UNL     1      40.625  37.251  13.345  1.00  0.00     0.123 A 
ATOM      7  C   UNL     1      41.865  36.615  13.436  1.00  0.00     0.093 A 
ATOM      8  C   UNL     1      43.008  37.319  13.837  1.00  0.00     0.133 A 
ATOM      9  C   UNL     1      42.895  38.689  14.204  1.00  0.00     0.102 A 
ATOM     10  C   UNL     1      43.994  39.492  14.818  1.00  0.00     0.174 C 
ATOM     11  O   UNL     1      45.124  38.994  15.056  1.00  0.00    -0.294 OA
ENDROOT
BRANCH   2  12
ATOM     12  C   UNL     1      42.232  42.885  15.018  1.00  0.00    -0.007 A 
ATOM     13  C   UNL     1      41.054  42.990  15.778  1.00  0.00     0.011 A 
ATOM     14  C   UNL     1      42.989  44.043  14.765  1.00  0.00     0.011 A 
ATOM     15  C   UNL     1      40.655  44.226  16.295  1.00  0.00     0.046 A 
ATOM     16  C   UNL     1      42.588  45.277  15.285  1.00  0.00     0.046 A 
ATOM     17  C   UNL     1      41.423  45.373  16.052  1.00  0.00     0.115 A 
BRANCH  17  18
ATOM     18  O   UNL     1      41.035  46.609  16.563  1.00  0.00    -0.508 OA
ATOM     19  H   UNL     1      41.711  47.339  16.756  1.00  0.00     0.293 HD
ENDBRANCH  17  18
ENDBRANCH   2  12
BRANCH   8  20
ATOM     20  O   UNL     1      44.213  36.613  13.835  1.00  0.00    -0.507 OA
ATOM     21  H   UNL     1      45.061  36.931  13.389  1.00  0.00     0.293 HD
ENDBRANCH   8  20
BRANCH   6  22
ATOM     22  O   UNL     1      39.508  36.524  12.941  1.00  0.00    -0.508 OA
ATOM     23  H   UNL     1      39.196  36.522  11.977  1.00  0.00     0.293 HD
ENDBRANCH   6  22
TORSDOF 4
ENDMDL
MODEL 5
REMARK VINA RESULT:    -5.863      3.652      5.812
REMARK INTER + INTRA:          -7.020
REMARK INTER:                  -6.737
REMARK INTRA:                  -0.283
REMARK UNBOUND:                -0.300
REMARK SMILES O=C1C[C@H](c2ccc(O)cc2)Oc2cc(O)cc(O)c21
REMARK SMILES IDX 3 1 4 2 12 3 13 4 14 5 15 6 17 7 18 8 20 9 2 10 1 11 5 12
REMARK SMILES IDX 6 13 11 14 7 15 10 16 8 17 9 18 19 20 16 22
REMARK H PARENT 9 19 19 21 16 23
REMARK Flexibility Score: inf
ROOT
ATOM      1  C   UNL     1      42.366  42.134  14.647  1.00  0.00     0.131 C 
ATOM      2  C   UNL     1      42.780  40.802  15.282  1.00  0.00     0.211 C 
ATOM      3  O   UNL     1      42.515  40.824  16.684  1.00  0.00    -0.484 OA
ATOM      4  C   UNL     1      42.855  41.923  17.480  1.00  0.00     0.138 A 
ATOM      5  C   UNL     1      42.873  41.770  18.868  1.00  0.00     0.093 A 
ATOM      6  C   UNL     1      43.233  42.838  19.690  1.00  0.00     0.123 A 
ATOM      7  C   UNL     1      43.594  44.060  19.119  1.00  0.00     0.093 A 
ATOM      8  C   UNL     1      43.591  44.236  17.729  1.00  0.00     0.133 A 
ATOM      9  C   UNL     1      43.167  43.168  16.889  1.00  0.00     0.102 A 
ATOM     10  C   UNL     1      42.945  43.289  15.417  1.00  0.00     0.174 C 
ATOM     11  O   UNL     1      43.127  44.375  14.807  1.00  0.00    -0.294 OA
ENDROOT
BRANCH   2  12
ATOM     12  C   UNL     1      42.050  39.650  14.634  1.00  0.00    -0.007 A 
ATOM     13  C   UNL     1      42.730  38.454  14.348  1.00  0.00     0.011 A 
ATOM     14  C   UNL     1      40.701  39.778  14.257  1.00  0.00     0.011 A 
ATOM     15  C   UNL     1      42.066  37.396  13.720  1.00  0.00     0.046 A 
ATOM     16  C   UNL     1      40.039  38.718  13.631  1.00  0.00     0.046 A 
ATOM     17  C   UNL     1      40.717  37.525  13.361  1.00  0.00     0.115 A 
BRANCH  17  18
ATOM     18  O   UNL     1      40.045  36.477  12.736  1.00  0.00    -0.508 OA
ATOM     19  H   UNL     1      40.004  36.403  11.726  1.00  0.00     0.293 HD
ENDBRANCH  17  18
ENDBRANCH   2  12
BRANCH   8  20
ATOM     20  O   UNL     1      44.029  45.472  17.250  1.00  0.00    -0.507 OA
ATOM     21  H   UNL     1      43.419  46.231  16.984  1.00  0.00     0.293 HD
ENDBRANCH   8  20
BRANCH   6  22
ATOM     22  O   UNL     1      43.248  42.696  21.075  1.00  0.00    -0.508 OA
ATOM     23  H   UNL     1      42.643  42.034  21.547  1.00  0.00     0.293 HD
ENDBRANCH   6  22
TORSDOF 4
ENDMDL
MODEL 6
REMARK VINA RESULT:    -5.841      3.834      6.147
REMARK INTER + INTRA:          -6.994
REMARK INTER:                  -6.710
REMARK INTRA:                  -0.284
REMARK UNBOUND:                -0.300
REMARK SMILES O=C1C[C@H](c2ccc(O)cc2)Oc2cc(O)cc(O)c21
REMARK SMILES IDX 3 1 4 2 12 3 13 4 14 5 15 6 17 7 18 8 20 9 2 10 1 11 5 12
REMARK SMILES IDX 6 13 11 14 7 15 10 16 8 17 9 18 19 20 16 22
REMARK H PARENT 9 19 19 21 16 23
REMARK Flexibility Score: inf
ROOT
ATOM      1  C   UNL     1      42.376  41.637  14.614  1.00  0.00     0.131 C 
ATOM      2  C   UNL     1      42.567  40.255  15.248  1.00  0.00     0.211 C 
ATOM      3  O   UNL     1      42.110  40.268  16.600  1.00  0.00    -0.484 OA
ATOM      4  C   UNL     1      42.436  41.307  17.477  1.00  0.00     0.138 A 
ATOM      5  C   UNL     1      42.242  41.118  18.847  1.00  0.00     0.093 A 
ATOM      6  C   UNL     1      42.581  42.124  19.753  1.00  0.00     0.123 A 
ATOM      7  C   UNL     1      43.132  43.319  19.285  1.00  0.00     0.093 A 
ATOM      8  C   UNL     1      43.343  43.529  17.916  1.00  0.00     0.133 A 
ATOM      9  C   UNL     1      42.944  42.530  16.984  1.00  0.00     0.102 A 
ATOM     10  C   UNL     1      42.946  42.709  15.501  1.00  0.00     0.174 C 
ATOM     11  O   UNL     1      43.314  43.786  14.966  1.00  0.00    -0.294 OA
ENDROOT
BRANCH   2  12
ATOM     12  C   UNL     1      41.832  39.198  14.461  1.00  0.00    -0.007 A 
ATOM     13  C   UNL     1      40.524  39.438  14.004  1.00  0.00     0.011 A 
ATOM     14  C   UNL     1      42.420  37.942  14.224  1.00  0.00     0.011 A 
ATOM     15  C   UNL     1      39.828  38.450  13.301  1.00  0.00     0.046 A 
ATOM     16  C   UNL     1      41.722  36.957  13.519  1.00  0.00     0.046 A 
ATOM     17  C   UNL     1      40.427  37.206  13.055  1.00  0.00     0.115 A 
BRANCH  17  18
ATOM     18  O   UNL     1      39.743  36.216  12.355  1.00  0.00    -0.508 OA
ATOM     19  H   UNL     1      40.235  35.506  11.825  1.00  0.00     0.293 HD
ENDBRANCH  17  18
ENDBRANCH   2  12
BRANCH   8  20
ATOM     20  O   UNL     1      43.959  44.728  17.551  1.00  0.00    -0.507 OA
ATOM     21  H   UNL     1      43.648  45.642  17.842  1.00  0.00     0.293 HD
ENDBRANCH   8  20
BRANCH   6  22
ATOM     22  O   UNL     1      42.386  41.946  21.120  1.00  0.00    -0.508 OA
ATOM     23  H   UNL     1      41.488  42.125  21.555  1.00  0.00     0.293 HD
ENDBRANCH   6  22
TORSDOF 4
ENDMDL
MODEL 7
REMARK VINA RESULT:    -5.744     15.206     16.296
REMARK INTER + INTRA:          -6.884
REMARK INTER:                  -6.601
REMARK INTRA:                  -0.283
REMARK UNBOUND:                -0.300
REMARK SMILES O=C1C[C@H](c2ccc(O)cc2)Oc2cc(O)cc(O)c21
REMARK SMILES IDX 3 1 4 2 12 3 13 4 14 5 15 6 17 7 18 8 20 9 2 10 1 11 5 12
REMARK SMILES IDX 6 13 11 14 7 15 10 16 8 17 9 18 19 20 16 22
REMARK H PARENT 9 19 19 21 16 23
REMARK Flexibility Score: inf
ROOT
ATOM      1  C   UNL     1      41.230  29.756  16.224  1.00  0.00     0.131 C 
ATOM      2  C   UNL     1      42.255  28.636  16.441  1.00  0.00     0.211 C 
ATOM      3  O   UNL     1      43.150  28.570  15.332  1.00  0.00    -0.484 OA
ATOM      4  C   UNL     1      42.691  28.625  14.011  1.00  0.00     0.138 A 
ATOM      5  C   UNL     1      43.552  28.237  12.983  1.00  0.00     0.093 A 
ATOM      6  C   UNL     1      43.118  28.255  11.656  1.00  0.00     0.123 A 
ATOM      7  C   UNL     1      41.811  28.647  11.361  1.00  0.00     0.093 A 
ATOM      8  C   UNL     1      40.927  29.033  12.376  1.00  0.00     0.133 A 
ATOM      9  C   UNL     1      41.382  29.074  13.724  1.00  0.00     0.102 A 
ATOM     10  C   UNL     1      40.599  29.639  14.863  1.00  0.00     0.174 C 
ATOM     11  O   UNL     1      39.452  30.128  14.700  1.00  0.00    -0.294 OA
ENDROOT
BRANCH   2  12
ATOM     12  C   UNL     1      43.026  28.857  17.719  1.00  0.00    -0.007 A 
ATOM     13  C   UNL     1      42.987  27.895  18.743  1.00  0.00     0.011 A 
ATOM     14  C   UNL     1      43.746  30.048  17.925  1.00  0.00     0.011 A 
ATOM     15  C   UNL     1      43.676  28.110  19.941  1.00  0.00     0.046 A 
ATOM     16  C   UNL     1      44.434  30.259  19.123  1.00  0.00     0.046 A 
ATOM     17  C   UNL     1      44.404  29.293  20.133  1.00  0.00     0.115 A 
BRANCH  17  18
ATOM     18  O   UNL     1      45.094  29.517  21.322  1.00  0.00    -0.508 OA
ATOM     19  H   UNL     1      45.110  30.430  21.761  1.00  0.00     0.293 HD
ENDBRANCH  17  18
ENDBRANCH   2  12
BRANCH   8  20
ATOM     20  O   UNL     1      39.622  29.346  11.989  1.00  0.00    -0.507 OA
ATOM     21  H   UNL     1      38.936  29.780  12.589  1.00  0.00     0.293 HD
ENDBRANCH   8  20
BRANCH   6  22
ATOM     22  O   UNL     1      43.972  27.875  10.624  1.00  0.00    -0.508 OA
ATOM     23  H   UNL     1      44.864  28.333  10.477  1.00  0.00     0.293 HD
ENDBRANCH   6  22
TORSDOF 4
ENDMDL
MODEL 8
REMARK VINA RESULT:    -5.354     18.357     19.788
REMARK INTER + INTRA:          -6.436
REMARK INTER:                  -6.143
REMARK INTRA:                  -0.293
REMARK UNBOUND:                -0.300
REMARK SMILES O=C1C[C@H](c2ccc(O)cc2)Oc2cc(O)cc(O)c21
REMARK SMILES IDX 3 1 4 2 12 3 13 4 14 5 15 6 17 7 18 8 20 9 2 10 1 11 5 12
REMARK SMILES IDX 6 13 11 14 7 15 10 16 8 17 9 18 19 20 16 22
REMARK H PARENT 9 19 19 21 16 23
REMARK Flexibility Score: inf
ROOT
ATOM      1  C   UNL     1      27.884  31.829  10.450  1.00  0.00     0.131 C 
ATOM      2  C   UNL     1      27.729  32.742   9.228  1.00  0.00     0.211 C 
ATOM      3  O   UNL     1      27.684  34.108   9.640  1.00  0.00    -0.484 OA
ATOM      4  C   UNL     1      26.900  34.526  10.720  1.00  0.00     0.138 A 
ATOM      5  C   UNL     1      26.640  35.888  10.877  1.00  0.00     0.093 A 
ATOM      6  C   UNL     1      25.841  36.337  11.930  1.00  0.00     0.123 A 
ATOM      7  C   UNL     1      25.285  35.415  12.819  1.00  0.00     0.093 A 
ATOM      8  C   UNL     1      25.526  34.042  12.677  1.00  0.00     0.133 A 
ATOM      9  C   UNL     1      26.388  33.584  11.642  1.00  0.00     0.102 A 
ATOM     10  C   UNL     1      26.866  32.176  11.502  1.00  0.00     0.174 C 
ATOM     11  O   UNL     1      26.524  31.277  12.313  1.00  0.00    -0.294 OA
ENDROOT
BRANCH   2  12
ATOM     12  C   UNL     1      28.862  32.531   8.254  1.00  0.00    -0.007 A 
ATOM     13  C   UNL     1      30.108  33.145   8.474  1.00  0.00     0.011 A 
ATOM     14  C   UNL     1      28.672  31.766   7.089  1.00  0.00     0.011 A 
ATOM     15  C   UNL     1      31.150  32.975   7.558  1.00  0.00     0.046 A 
ATOM     16  C   UNL     1      29.717  31.598   6.176  1.00  0.00     0.046 A 
ATOM     17  C   UNL     1      30.958  32.199   6.406  1.00  0.00     0.115 A 
BRANCH  17  18
ATOM     18  O   UNL     1      31.990  32.024   5.488  1.00  0.00    -0.508 OA
ATOM     19  H   UNL     1      32.937  32.322   5.692  1.00  0.00     0.293 HD
ENDBRANCH  17  18
ENDBRANCH   2  12
BRANCH   8  20
ATOM     20  O   UNL     1      24.875  33.193  13.576  1.00  0.00    -0.507 OA
ATOM     21  H   UNL     1      24.164  33.488  14.228  1.00  0.00     0.293 HD
ENDBRANCH   8  20
BRANCH   6  22
ATOM     22  O   UNL     1      25.581  37.695  12.097  1.00  0.00    -0.508 OA
ATOM     23  H   UNL     1      26.248  38.401  11.810  1.00  0.00     0.293 HD
ENDBRANCH   6  22
TORSDOF 4
ENDMDL
MODEL 9
REMARK VINA RESULT:    -3.881     14.504     15.488
REMARK INTER + INTRA:          -4.748
REMARK INTER:                  -4.463
REMARK INTRA:                  -0.285
REMARK UNBOUND:                -0.300
REMARK SMILES O=C1C[C@H](c2ccc(O)cc2)Oc2cc(O)cc(O)c21
REMARK SMILES IDX 3 1 4 2 12 3 13 4 14 5 15 6 17 7 18 8 20 9 2 10 1 11 5 12
REMARK SMILES IDX 6 13 11 14 7 15 10 16 8 17 9 18 19 20 16 22
REMARK H PARENT 9 19 19 21 16 23
REMARK Flexibility Score: inf
ROOT
ATOM      1  C   UNL     1      42.412  28.446  15.438  1.00  0.00     0.131 C 
ATOM      2  C   UNL     1      42.411  29.735  16.268  1.00  0.00     0.211 C 
ATOM      3  O   UNL     1      41.070  30.156  16.517  1.00  0.00    -0.484 OA
ATOM      4  C   UNL     1      40.103  30.171  15.507  1.00  0.00     0.138 A 
ATOM      5  C   UNL     1      38.921  30.883  15.717  1.00  0.00     0.093 A 
ATOM      6  C   UNL     1      37.946  30.940  14.719  1.00  0.00     0.123 A 
ATOM      7  C   UNL     1      38.165  30.296  13.500  1.00  0.00     0.093 A 
ATOM      8  C   UNL     1      39.347  29.583  13.263  1.00  0.00     0.133 A 
ATOM      9  C   UNL     1      40.318  29.471  14.298  1.00  0.00     0.102 A 
ATOM     10  C   UNL     1      41.524  28.592  14.233  1.00  0.00     0.174 C 
ATOM     11  O   UNL     1      41.766  27.875  13.229  1.00  0.00    -0.294 OA
ENDROOT
BRANCH   2  12
ATOM     12  C   UNL     1      43.143  29.533  17.572  1.00  0.00    -0.007 A 
ATOM     13  C   UNL     1      42.664  28.609  18.517  1.00  0.00     0.011 A 
ATOM     14  C   UNL     1      44.278  30.304  17.883  1.00  0.00     0.011 A 
ATOM     15  C   UNL     1      43.322  28.442  19.738  1.00  0.00     0.046 A 
ATOM     16  C   UNL     1      44.934  30.133  19.105  1.00  0.00     0.046 A 
ATOM     17  C   UNL     1      44.461  29.203  20.035  1.00  0.00     0.115 A 
BRANCH  17  18
ATOM     18  O   UNL     1      45.125  29.043  21.249  1.00  0.00    -0.508 OA
ATOM     19  H   UNL     1      44.645  28.701  22.074  1.00  0.00     0.293 HD
ENDBRANCH  17  18
ENDBRANCH   2  12
BRANCH   8  20
ATOM     20  O   UNL     1      39.503  29.028  11.991  1.00  0.00    -0.507 OA
ATOM     21  H   UNL     1      39.194  28.104  11.729  1.00  0.00     0.293 HD
ENDBRANCH   8  20
BRANCH   6  22
ATOM     22  O   UNL     1      36.761  31.643  14.923  1.00  0.00    -0.508 OA
ATOM     23  H   UNL     1      36.531  32.044  15.824  1.00  0.00     0.293 HD
ENDBRANCH   6  22
TORSDOF 4
ENDMDL
