MODEL 1
REMARK VINA RESULT:    -4.149      0.000      0.000
REMARK INTER + INTRA:          -7.657
REMARK INTER:                  -6.332
REMARK INTRA:                  -1.324
REMARK UNBOUND:                -1.324
REMARK SMILES CCCCCCCCCCC(=O)[O-]
REMARK SMILES IDX 7 1 8 2 9 3 10 4 11 5 12 6 13 7 6 8 5 9 4 10 3 11 2 12 1 13
REMARK H PARENT
REMARK Flexibility Score: inf
ROOT
ATOM      1  C   UNL     1      33.970   6.585   8.423  1.00  0.00     0.000 C 
ENDROOT
BRANCH   1   2
ATOM      2  C   UNL     1      33.952   7.803   9.364  1.00  0.00     0.000 C 
BRANCH   2   3
ATOM      3  C   UNL     1      33.362   7.477  10.745  1.00  0.00     0.006 C 
BRANCH   3   4
ATOM      4  C   UNL     1      34.392   7.609  11.874  1.00  0.00     0.053 C 
BRANCH   4   5
ATOM      5  C   UNL     1      34.359   6.400  12.754  1.00  0.00     0.041 C 
ATOM      6  O   UNL     1      35.403   6.021  13.349  1.00  0.00    -0.550 OA
ATOM      7  O   UNL     1      33.165   5.719  12.958  1.00  0.00    -0.550 OA
ENDBRANCH   4   5
ENDBRANCH   3   4
ENDBRANCH   2   3
ENDBRANCH   1   2
BRANCH   1   8
ATOM      8  C   UNL     1      33.366   5.330   9.088  1.00  0.00     0.000 C 
BRANCH   8   9
ATOM      9  C   UNL     1      34.408   4.249   9.427  1.00  0.00    -0.000 C 
BRANCH   9  10
ATOM     10  C   UNL     1      35.832   4.643   9.007  1.00  0.00    -0.000 C 
BRANCH  10  11
ATOM     11  C   UNL     1      36.717   5.056  10.199  1.00  0.00    -0.000 C 
BRANCH  11  12
ATOM     12  C   UNL     1      37.340   6.459  10.093  1.00  0.00    -0.003 C 
ATOM     13  C   UNL     1      38.275   6.788  11.256  1.00  0.00     0.004 C 
ENDBRANCH  11  12
ENDBRANCH  10  11
ENDBRANCH   9  10
ENDBRANCH   8   9
ENDBRANCH   1   8
TORSDOF 9
ENDMDL
MODEL 2
REMARK VINA RESULT:    -4.104      2.303      3.803
REMARK INTER + INTRA:          -7.587
REMARK INTER:                  -6.347
REMARK INTRA:                  -1.240
REMARK UNBOUND:                -1.324
REMARK SMILES CCCCCCCCCCC(=O)[O-]
REMARK SMILES IDX 7 1 8 2 9 3 10 4 11 5 12 6 13 7 6 8 5 9 4 10 3 11 2 12 1 13
REMARK H PARENT
REMARK Flexibility Score: inf
ROOT
ATOM      1  C   UNL     1      32.960   7.542  11.426  1.00  0.00     0.000 C 
ENDROOT
BRANCH   1   2
ATOM      2  C   UNL     1      34.337   7.859  12.035  1.00  0.00     0.000 C 
BRANCH   2   3
ATOM      3  C   UNL     1      35.496   7.561  11.071  1.00  0.00     0.006 C 
BRANCH   3   4
ATOM      4  C   UNL     1      36.534   6.605  11.672  1.00  0.00     0.053 C 
BRANCH   4   5
ATOM      5  C   UNL     1      37.847   6.752  10.970  1.00  0.00     0.041 C 
ATOM      6  O   UNL     1      37.885   6.883   9.718  1.00  0.00    -0.550 OA
ATOM      7  O   UNL     1      39.027   6.795  11.702  1.00  0.00    -0.550 OA
ENDBRANCH   4   5
ENDBRANCH   3   4
ENDBRANCH   2   3
ENDBRANCH   1   2
BRANCH   1   8
ATOM      8  C   UNL     1      32.186   6.494  12.254  1.00  0.00     0.000 C 
BRANCH   8   9
ATOM      9  C   UNL     1      32.758   5.070  12.138  1.00  0.00    -0.000 C 
BRANCH   9  10
ATOM     10  C   UNL     1      32.651   4.500  10.715  1.00  0.00    -0.000 C 
BRANCH  10  11
ATOM     11  C   UNL     1      33.928   3.764  10.267  1.00  0.00    -0.000 C 
BRANCH  11  12
ATOM     12  C   UNL     1      34.757   4.490   9.193  1.00  0.00    -0.003 C 
ATOM     13  C   UNL     1      33.920   5.425   8.320  1.00  0.00     0.004 C 
ENDBRANCH  11  12
ENDBRANCH  10  11
ENDBRANCH   9  10
ENDBRANCH   8   9
ENDBRANCH   1   8
TORSDOF 9
ENDMDL
MODEL 3
REMARK VINA RESULT:    -4.094      2.482      4.779
REMARK INTER + INTRA:          -7.572
REMARK INTER:                  -6.397
REMARK INTRA:                  -1.175
REMARK UNBOUND:                -1.324
REMARK SMILES CCCCCCCCCCC(=O)[O-]
REMARK SMILES IDX 7 1 8 2 9 3 10 4 11 5 12 6 13 7 6 8 5 9 4 10 3 11 2 12 1 13
REMARK H PARENT
REMARK Flexibility Score: inf
ROOT
ATOM      1  C   UNL     1      36.245   6.341  11.481  1.00  0.00     0.000 C 
ENDROOT
BRANCH   1   2
ATOM      2  C   UNL     1      36.514   5.709  10.104  1.00  0.00     0.000 C 
BRANCH   2   3
ATOM      3  C   UNL     1      35.403   4.741   9.668  1.00  0.00     0.006 C 
BRANCH   3   4
ATOM      4  C   UNL     1      35.080   4.845   8.172  1.00  0.00     0.053 C 
BRANCH   4   5
ATOM      5  C   UNL     1      33.808   5.604   7.964  1.00  0.00     0.041 C 
ATOM      6  O   UNL     1      32.722   4.987   7.801  1.00  0.00    -0.550 OA
ATOM      7  O   UNL     1      33.812   6.993   8.000  1.00  0.00    -0.550 OA
ENDBRANCH   4   5
ENDBRANCH   3   4
ENDBRANCH   2   3
ENDBRANCH   1   2
BRANCH   1   8
ATOM      8  C   UNL     1      35.658   7.764  11.363  1.00  0.00     0.000 C 
BRANCH   8   9
ATOM      9  C   UNL     1      34.341   7.954  12.135  1.00  0.00    -0.000 C 
BRANCH   9  10
ATOM     10  C   UNL     1      33.121   7.414  11.373  1.00  0.00    -0.000 C 
BRANCH  10  11
ATOM     11  C   UNL     1      32.263   6.452  12.216  1.00  0.00    -0.000 C 
BRANCH  11  12
ATOM     12  C   UNL     1      32.411   4.962  11.860  1.00  0.00    -0.003 C 
ATOM     13  C   UNL     1      33.362   4.215  12.795  1.00  0.00     0.004 C 
ENDBRANCH  11  12
ENDBRANCH  10  11
ENDBRANCH   9  10
ENDBRANCH   8   9
ENDBRANCH   1   8
TORSDOF 9
ENDMDL
MODEL 4
REMARK VINA RESULT:    -4.090      2.582      4.126
REMARK INTER + INTRA:          -7.567
REMARK INTER:                  -6.488
REMARK INTRA:                  -1.079
REMARK UNBOUND:                -1.324
REMARK SMILES CCCCCCCCCCC(=O)[O-]
REMARK SMILES IDX 7 1 8 2 9 3 10 4 11 5 12 6 13 7 6 8 5 9 4 10 3 11 2 12 1 13
REMARK H PARENT
REMARK Flexibility Score: inf
ROOT
ATOM      1  C   UNL     1      32.250   4.992  11.499  1.00  0.00     0.000 C 
ENDROOT
BRANCH   1   2
ATOM      2  C   UNL     1      33.556   4.375  10.968  1.00  0.00     0.000 C 
BRANCH   2   3
ATOM      3  C   UNL     1      33.488   4.042   9.469  1.00  0.00     0.006 C 
BRANCH   3   4
ATOM      4  C   UNL     1      34.457   4.885   8.632  1.00  0.00     0.053 C 
BRANCH   4   5
ATOM      5  C   UNL     1      33.703   5.856   7.780  1.00  0.00     0.041 C 
ATOM      6  O   UNL     1      32.944   5.439   6.866  1.00  0.00    -0.550 OA
ATOM      7  O   UNL     1      33.799   7.220   8.026  1.00  0.00    -0.550 OA
ENDBRANCH   4   5
ENDBRANCH   3   4
ENDBRANCH   2   3
ENDBRANCH   1   2
BRANCH   1   8
ATOM      8  C   UNL     1      32.505   6.268  12.328  1.00  0.00     0.000 C 
BRANCH   8   9
ATOM      9  C   UNL     1      33.103   7.427  11.511  1.00  0.00    -0.000 C 
BRANCH   9  10
ATOM     10  C   UNL     1      34.501   7.839  11.996  1.00  0.00    -0.000 C 
BRANCH  10  11
ATOM     11  C   UNL     1      35.611   7.512  10.979  1.00  0.00    -0.000 C 
BRANCH  11  12
ATOM     12  C   UNL     1      36.623   6.447  11.437  1.00  0.00    -0.003 C 
ATOM     13  C   UNL     1      38.019   6.658  10.854  1.00  0.00     0.004 C 
ENDBRANCH  11  12
ENDBRANCH  10  11
ENDBRANCH   9  10
ENDBRANCH   8   9
ENDBRANCH   1   8
TORSDOF 9
ENDMDL
MODEL 5
REMARK VINA RESULT:    -4.086      1.772      3.136
REMARK INTER + INTRA:          -7.561
REMARK INTER:                  -6.429
REMARK INTRA:                  -1.132
REMARK UNBOUND:                -1.324
REMARK SMILES CCCCCCCCCCC(=O)[O-]
REMARK SMILES IDX 7 1 8 2 9 3 10 4 11 5 12 6 13 7 6 8 5 9 4 10 3 11 2 12 1 13
REMARK H PARENT
REMARK Flexibility Score: inf
ROOT
ATOM      1  C   UNL     1      33.626   7.490  10.595  1.00  0.00     0.000 C 
ENDROOT
BRANCH   1   2
ATOM      2  C   UNL     1      34.862   7.632  11.500  1.00  0.00     0.000 C 
BRANCH   2   3
ATOM      3  C   UNL     1      34.962   6.513  12.549  1.00  0.00     0.006 C 
BRANCH   3   4
ATOM      4  C   UNL     1      33.812   5.503  12.446  1.00  0.00     0.053 C 
BRANCH   4   5
ATOM      5  C   UNL     1      33.812   4.590  13.631  1.00  0.00     0.041 C 
ATOM      6  O   UNL     1      34.693   4.710  14.523  1.00  0.00    -0.550 OA
ATOM      7  O   UNL     1      32.811   3.638  13.776  1.00  0.00    -0.550 OA
ENDBRANCH   4   5
ENDBRANCH   3   4
ENDBRANCH   2   3
ENDBRANCH   1   2
BRANCH   1   8
ATOM      8  C   UNL     1      33.961   7.744   9.110  1.00  0.00     0.000 C 
BRANCH   8   9
ATOM      9  C   UNL     1      33.848   6.489   8.227  1.00  0.00    -0.000 C 
BRANCH   9  10
ATOM     10  C   UNL     1      35.057   5.551   8.368  1.00  0.00    -0.000 C 
BRANCH  10  11
ATOM     11  C   UNL     1      34.720   4.245   9.111  1.00  0.00    -0.000 C 
BRANCH  11  12
ATOM     12  C   UNL     1      33.232   3.851   9.098  1.00  0.00    -0.003 C 
ATOM     13  C   UNL     1      32.893   2.755  10.107  1.00  0.00     0.004 C 
ENDBRANCH  11  12
ENDBRANCH  10  11
ENDBRANCH   9  10
ENDBRANCH   8   9
ENDBRANCH   1   8
TORSDOF 9
ENDMDL
MODEL 6
REMARK VINA RESULT:    -4.074      2.054      3.199
REMARK INTER + INTRA:          -7.541
REMARK INTER:                  -6.844
REMARK INTRA:                  -0.697
REMARK UNBOUND:                -1.324
REMARK SMILES CCCCCCCCCCC(=O)[O-]
REMARK SMILES IDX 7 1 8 2 9 3 10 4 11 5 12 6 13 7 6 8 5 9 4 10 3 11 2 12 1 13
REMARK H PARENT
REMARK Flexibility Score: inf
ROOT
ATOM      1  C   UNL     1      32.135   7.397  12.667  1.00  0.00     0.000 C 
ENDROOT
BRANCH   1   2
ATOM      2  C   UNL     1      31.528   6.057  12.215  1.00  0.00     0.000 C 
BRANCH   2   3
ATOM      3  C   UNL     1      32.566   4.925  12.161  1.00  0.00     0.006 C 
BRANCH   3   4
ATOM      4  C   UNL     1      32.565   4.062  13.430  1.00  0.00     0.053 C 
BRANCH   4   5
ATOM      5  C   UNL     1      33.888   4.150  14.122  1.00  0.00     0.041 C 
ATOM      6  O   UNL     1      34.642   5.139  13.924  1.00  0.00    -0.550 OA
ATOM      7  O   UNL     1      34.268   3.165  15.025  1.00  0.00    -0.550 OA
ENDBRANCH   4   5
ENDBRANCH   3   4
ENDBRANCH   2   3
ENDBRANCH   1   2
BRANCH   1   8
ATOM      8  C   UNL     1      32.969   8.063  11.552  1.00  0.00     0.000 C 
BRANCH   8   9
ATOM      9  C   UNL     1      34.489   7.933  11.757  1.00  0.00    -0.000 C 
BRANCH   9  10
ATOM     10  C   UNL     1      35.183   7.187  10.608  1.00  0.00    -0.000 C 
BRANCH  10  11
ATOM     11  C   UNL     1      36.405   6.373  11.073  1.00  0.00    -0.000 C 
BRANCH  11  12
ATOM     12  C   UNL     1      37.744   6.782  10.434  1.00  0.00    -0.003 C 
ATOM     13  C   UNL     1      38.915   6.737  11.415  1.00  0.00     0.004 C 
ENDBRANCH  11  12
ENDBRANCH  10  11
ENDBRANCH   9  10
ENDBRANCH   8   9
ENDBRANCH   1   8
TORSDOF 9
ENDMDL
MODEL 7
REMARK VINA RESULT:    -4.048      2.768      5.007
REMARK INTER + INTRA:          -7.501
REMARK INTER:                  -6.691
REMARK INTRA:                  -0.811
REMARK UNBOUND:                -1.324
REMARK SMILES CCCCCCCCCCC(=O)[O-]
REMARK SMILES IDX 7 1 8 2 9 3 10 4 11 5 12 6 13 7 6 8 5 9 4 10 3 11 2 12 1 13
REMARK H PARENT
REMARK Flexibility Score: inf
ROOT
ATOM      1  C   UNL     1      36.161   6.810  10.005  1.00  0.00     0.000 C 
ENDROOT
BRANCH   1   2
ATOM      2  C   UNL     1      36.188   5.271  10.002  1.00  0.00     0.000 C 
BRANCH   2   3
ATOM      3  C   UNL     1      35.215   4.663   8.979  1.00  0.00     0.006 C 
BRANCH   3   4
ATOM      4  C   UNL     1      33.848   5.357   8.979  1.00  0.00     0.053 C 
BRANCH   4   5
ATOM      5  C   UNL     1      33.561   5.945   7.633  1.00  0.00     0.041 C 
ATOM      6  O   UNL     1      33.693   7.183   7.442  1.00  0.00    -0.550 OA
ATOM      7  O   UNL     1      33.197   5.120   6.577  1.00  0.00    -0.550 OA
ENDBRANCH   4   5
ENDBRANCH   3   4
ENDBRANCH   2   3
ENDBRANCH   1   2
BRANCH   1   8
ATOM      8  C   UNL     1      35.874   7.382  11.409  1.00  0.00     0.000 C 
BRANCH   8   9
ATOM      9  C   UNL     1      35.212   6.374  12.364  1.00  0.00    -0.000 C 
BRANCH   9  10
ATOM     10  C   UNL     1      33.730   6.686  12.625  1.00  0.00    -0.000 C 
BRANCH  10  11
ATOM     11  C   UNL     1      33.328   8.105  12.182  1.00  0.00    -0.000 C 
BRANCH  11  12
ATOM     12  C   UNL     1      31.817   8.391  12.200  1.00  0.00    -0.003 C 
ATOM     13  C   UNL     1      31.489   9.883  12.173  1.00  0.00     0.004 C 
ENDBRANCH  11  12
ENDBRANCH  10  11
ENDBRANCH   9  10
ENDBRANCH   8   9
ENDBRANCH   1   8
TORSDOF 9
ENDMDL
MODEL 8
REMARK VINA RESULT:    -4.032      1.792      3.341
REMARK INTER + INTRA:          -7.477
REMARK INTER:                  -6.127
REMARK INTRA:                  -1.350
REMARK UNBOUND:                -1.324
REMARK SMILES CCCCCCCCCCC(=O)[O-]
REMARK SMILES IDX 7 1 8 2 9 3 10 4 11 5 12 6 13 7 6 8 5 9 4 10 3 11 2 12 1 13
REMARK H PARENT
REMARK Flexibility Score: inf
ROOT
ATOM      1  C   UNL     1      36.419   5.625  10.234  1.00  0.00     0.000 C 
ENDROOT
BRANCH   1   2
ATOM      2  C   UNL     1      35.723   6.979  10.012  1.00  0.00     0.000 C 
BRANCH   2   3
ATOM      3  C   UNL     1      34.831   7.388  11.194  1.00  0.00     0.006 C 
BRANCH   3   4
ATOM      4  C   UNL     1      33.427   7.819  10.753  1.00  0.00     0.053 C 
BRANCH   4   5
ATOM      5  C   UNL     1      32.597   8.191  11.941  1.00  0.00     0.041 C 
ATOM      6  O   UNL     1      31.915   9.250  11.932  1.00  0.00    -0.550 OA
ATOM      7  O   UNL     1      32.536   7.343  13.040  1.00  0.00    -0.550 OA
ENDBRANCH   4   5
ENDBRANCH   3   4
ENDBRANCH   2   3
ENDBRANCH   1   2
BRANCH   1   8
ATOM      8  C   UNL     1      35.875   4.530   9.292  1.00  0.00     0.000 C 
BRANCH   8   9
ATOM      9  C   UNL     1      34.875   5.056   8.248  1.00  0.00    -0.000 C 
BRANCH   9  10
ATOM     10  C   UNL     1      33.519   4.337   8.306  1.00  0.00    -0.000 C 
BRANCH  10  11
ATOM     11  C   UNL     1      33.333   3.509   9.592  1.00  0.00    -0.000 C 
BRANCH  11  12
ATOM     12  C   UNL     1      32.567   4.220  10.721  1.00  0.00    -0.003 C 
ATOM     13  C   UNL     1      33.215   4.039  12.093  1.00  0.00     0.004 C 
ENDBRANCH  11  12
ENDBRANCH  10  11
ENDBRANCH   9  10
ENDBRANCH   8   9
ENDBRANCH   1   8
TORSDOF 9
ENDMDL
MODEL 9
REMARK VINA RESULT:    -4.021      1.770      3.140
REMARK INTER + INTRA:          -7.460
REMARK INTER:                  -6.249
REMARK INTRA:                  -1.211
REMARK UNBOUND:                -1.324
REMARK SMILES CCCCCCCCCCC(=O)[O-]
REMARK SMILES IDX 7 1 8 2 9 3 10 4 11 5 12 6 13 7 6 8 5 9 4 10 3 11 2 12 1 13
REMARK H PARENT
REMARK Flexibility Score: inf
ROOT
ATOM      1  C   UNL     1      34.763   4.152   9.245  1.00  0.00     0.000 C 
ENDROOT
BRANCH   1   2
ATOM      2  C   UNL     1      33.327   3.857   9.712  1.00  0.00     0.000 C 
BRANCH   2   3
ATOM      3  C   UNL     1      33.277   3.241  11.119  1.00  0.00     0.006 C 
BRANCH   3   4
ATOM      4  C   UNL     1      32.888   4.261  12.197  1.00  0.00     0.053 C 
BRANCH   4   5
ATOM      5  C   UNL     1      33.549   3.925  13.496  1.00  0.00     0.041 C 
ATOM      6  O   UNL     1      34.301   4.764  14.060  1.00  0.00    -0.550 OA
ATOM      7  O   UNL     1      33.295   2.706  14.112  1.00  0.00    -0.550 OA
ENDBRANCH   4   5
ENDBRANCH   3   4
ENDBRANCH   2   3
ENDBRANCH   1   2
BRANCH   1   8
ATOM      8  C   UNL     1      34.807   5.254   8.165  1.00  0.00     0.000 C 
BRANCH   8   9
ATOM      9  C   UNL     1      33.672   6.285   8.288  1.00  0.00    -0.000 C 
BRANCH   9  10
ATOM     10  C   UNL     1      34.083   7.530   9.089  1.00  0.00    -0.000 C 
BRANCH  10  11
ATOM     11  C   UNL     1      33.650   7.464  10.566  1.00  0.00    -0.000 C 
BRANCH  11  12
ATOM     12  C   UNL     1      34.758   7.780  11.586  1.00  0.00    -0.003 C 
ATOM     13  C   UNL     1      35.881   6.744  11.591  1.00  0.00     0.004 C 
ENDBRANCH  11  12
ENDBRANCH  10  11
ENDBRANCH   9  10
ENDBRANCH   8   9
ENDBRANCH   1   8
TORSDOF 9
ENDMDL
