MODEL 1
REMARK VINA RESULT:    -8.063      0.000      0.000
REMARK INTER + INTRA:          -8.851
REMARK INTER:                  -8.534
REMARK INTRA:                  -0.316
REMARK UNBOUND:                -0.316
REMARK SMILES CC1=CC[C@@]23[C@@H]([C@@H]12)[C@H](C(C)C)CC[C@@H]3C
REMARK SMILES IDX 15 1 14 2 13 3 12 4 8 5 6 6 5 7 7 8 2 9 3 10 4 11 1 12 9 13
REMARK SMILES IDX 10 14 11 15
REMARK H PARENT
REMARK Flexibility Score: inf
ROOT
ATOM      1  C   UNL     1      -3.418 -18.798   8.283  1.00  0.00     0.008 C 
ATOM      2  C   UNL     1      -4.253 -17.590   8.747  1.00  0.00    -0.007 C 
ATOM      3  C   UNL     1      -4.075 -17.369  10.262  1.00  0.00     0.004 C 
ATOM      4  C   UNL     1      -2.763 -16.650  10.589  1.00  0.00     0.004 C 
ATOM      5  C   UNL     1      -2.773 -15.206  10.047  1.00  0.00    -0.004 C 
ATOM      6  C   UNL     1      -3.104 -15.186   8.528  1.00  0.00     0.007 C 
ATOM      7  C   UNL     1      -3.907 -16.337   7.900  1.00  0.00    -0.013 C 
ATOM      8  C   UNL     1      -4.606 -15.027   8.261  1.00  0.00     0.025 C 
ATOM      9  C   UNL     1      -4.967 -14.418   6.950  1.00  0.00    -0.073 C 
ATOM     10  C   UNL     1      -4.601 -15.169   5.920  1.00  0.00    -0.027 C 
ATOM     11  C   UNL     1      -3.938 -16.427   6.361  1.00  0.00     0.035 C 
ATOM     12  C   UNL     1      -5.615 -13.074   6.823  1.00  0.00     0.039 C 
ENDROOT
BRANCH   5  13
ATOM     13  C   UNL     1      -1.424 -14.459  10.308  1.00  0.00    -0.014 C 
ATOM     14  C   UNL     1      -1.582 -12.928  10.348  1.00  0.00     0.007 C 
ATOM     15  C   UNL     1      -0.381 -14.815   9.231  1.00  0.00     0.007 C 
ENDBRANCH   5  13
TORSDOF 1
ENDMDL
MODEL 2
REMARK VINA RESULT:    -8.020      1.025      4.188
REMARK INTER + INTRA:          -8.805
REMARK INTER:                  -8.561
REMARK INTRA:                  -0.244
REMARK UNBOUND:                -0.316
REMARK SMILES CC1=CC[C@@]23[C@@H]([C@@H]12)[C@H](C(C)C)CC[C@@H]3C
REMARK SMILES IDX 15 1 14 2 13 3 12 4 8 5 6 6 5 7 7 8 2 9 3 10 4 11 1 12 9 13
REMARK SMILES IDX 10 14 11 15
REMARK H PARENT
REMARK Flexibility Score: inf
ROOT
ATOM      1  C   UNL     1      -3.901 -18.494  10.587  1.00  0.00     0.008 C 
ATOM      2  C   UNL     1      -2.884 -17.607   9.847  1.00  0.00    -0.007 C 
ATOM      3  C   UNL     1      -2.878 -17.941   8.342  1.00  0.00     0.004 C 
ATOM      4  C   UNL     1      -4.053 -17.294   7.604  1.00  0.00     0.004 C 
ATOM      5  C   UNL     1      -3.924 -15.756   7.597  1.00  0.00    -0.004 C 
ATOM      6  C   UNL     1      -3.749 -15.209   9.042  1.00  0.00     0.007 C 
ATOM      7  C   UNL     1      -3.161 -16.108  10.141  1.00  0.00    -0.013 C 
ATOM      8  C   UNL     1      -2.274 -15.077   9.442  1.00  0.00     0.025 C 
ATOM      9  C   UNL     1      -1.979 -14.061  10.490  1.00  0.00    -0.073 C 
ATOM     10  C   UNL     1      -2.536 -14.354  11.657  1.00  0.00    -0.027 C 
ATOM     11  C   UNL     1      -3.297 -15.632  11.600  1.00  0.00     0.035 C 
ATOM     12  C   UNL     1      -1.189 -12.817  10.224  1.00  0.00     0.039 C 
ENDROOT
BRANCH   5  13
ATOM     13  C   UNL     1      -5.139 -15.057   6.905  1.00  0.00    -0.014 C 
ATOM     14  C   UNL     1      -5.260 -15.403   5.409  1.00  0.00     0.007 C 
ATOM     15  C   UNL     1      -5.045 -13.525   7.046  1.00  0.00     0.007 C 
ENDBRANCH   5  13
TORSDOF 1
ENDMDL
MODEL 3
REMARK VINA RESULT:    -7.796      0.961      4.273
REMARK INTER + INTRA:          -8.568
REMARK INTER:                  -8.290
REMARK INTRA:                  -0.278
REMARK UNBOUND:                -0.316
REMARK SMILES CC1=CC[C@@]23[C@@H]([C@@H]12)[C@H](C(C)C)CC[C@@H]3C
REMARK SMILES IDX 15 1 14 2 13 3 12 4 8 5 6 6 5 7 7 8 2 9 3 10 4 11 1 12 9 13
REMARK SMILES IDX 10 14 11 15
REMARK H PARENT
REMARK Flexibility Score: inf
ROOT
ATOM      1  C   UNL     1      -5.390 -16.741  10.896  1.00  0.00     0.008 C 
ATOM      2  C   UNL     1      -4.131 -17.007  10.051  1.00  0.00    -0.007 C 
ATOM      3  C   UNL     1      -4.512 -17.701   8.728  1.00  0.00     0.004 C 
ATOM      4  C   UNL     1      -5.057 -16.712   7.695  1.00  0.00     0.004 C 
ATOM      5  C   UNL     1      -3.961 -15.725   7.241  1.00  0.00    -0.004 C 
ATOM      6  C   UNL     1      -3.312 -15.017   8.464  1.00  0.00     0.007 C 
ATOM      7  C   UNL     1      -3.331 -15.693   9.844  1.00  0.00    -0.013 C 
ATOM      8  C   UNL     1      -2.074 -15.761   8.979  1.00  0.00     0.025 C 
ATOM      9  C   UNL     1      -1.073 -14.926   9.701  1.00  0.00    -0.073 C 
ATOM     10  C   UNL     1      -1.552 -14.414  10.827  1.00  0.00    -0.027 C 
ATOM     11  C   UNL     1      -2.961 -14.829  11.066  1.00  0.00     0.035 C 
ATOM     12  C   UNL     1       0.299 -14.651   9.169  1.00  0.00     0.039 C 
ENDROOT
BRANCH   5  13
ATOM     13  C   UNL     1      -4.496 -14.658   6.231  1.00  0.00    -0.014 C 
ATOM     14  C   UNL     1      -5.189 -13.469   6.922  1.00  0.00     0.007 C 
ATOM     15  C   UNL     1      -5.490 -15.292   5.237  1.00  0.00     0.007 C 
ENDBRANCH   5  13
TORSDOF 1
ENDMDL
MODEL 4
REMARK VINA RESULT:    -7.161      1.147      3.490
REMARK INTER + INTRA:          -7.896
REMARK INTER:                  -7.627
REMARK INTRA:                  -0.268
REMARK UNBOUND:                -0.316
REMARK SMILES CC1=CC[C@@]23[C@@H]([C@@H]12)[C@H](C(C)C)CC[C@@H]3C
REMARK SMILES IDX 15 1 14 2 13 3 12 4 8 5 6 6 5 7 7 8 2 9 3 10 4 11 1 12 9 13
REMARK SMILES IDX 10 14 11 15
REMARK H PARENT
REMARK Flexibility Score: inf
ROOT
ATOM      1  C   UNL     1      -2.026 -13.231   9.502  1.00  0.00     0.008 C 
ATOM      2  C   UNL     1      -2.146 -14.254   8.357  1.00  0.00    -0.007 C 
ATOM      3  C   UNL     1      -1.446 -15.572   8.743  1.00  0.00     0.004 C 
ATOM      4  C   UNL     1      -2.309 -16.434   9.668  1.00  0.00     0.004 C 
ATOM      5  C   UNL     1      -3.573 -16.936   8.938  1.00  0.00    -0.004 C 
ATOM      6  C   UNL     1      -4.362 -15.750   8.316  1.00  0.00     0.007 C 
ATOM      7  C   UNL     1      -3.634 -14.445   7.957  1.00  0.00    -0.013 C 
ATOM      8  C   UNL     1      -3.945 -15.469   6.867  1.00  0.00     0.025 C 
ATOM      9  C   UNL     1      -4.976 -14.812   6.015  1.00  0.00    -0.073 C 
ATOM     10  C   UNL     1      -5.284 -13.592   6.435  1.00  0.00    -0.027 C 
ATOM     11  C   UNL     1      -4.500 -13.209   7.641  1.00  0.00     0.035 C 
ATOM     12  C   UNL     1      -5.630 -15.491   4.852  1.00  0.00     0.039 C 
ENDROOT
BRANCH   5  13
ATOM     13  C   UNL     1      -4.511 -17.769   9.871  1.00  0.00    -0.014 C 
ATOM     14  C   UNL     1      -5.330 -16.894  10.838  1.00  0.00     0.007 C 
ATOM     15  C   UNL     1      -3.702 -18.786  10.700  1.00  0.00     0.007 C 
ENDBRANCH   5  13
TORSDOF 1
ENDMDL
MODEL 5
REMARK VINA RESULT:    -7.036      0.879      1.240
REMARK INTER + INTRA:          -7.763
REMARK INTER:                  -7.456
REMARK INTRA:                  -0.307
REMARK UNBOUND:                -0.316
REMARK SMILES CC1=CC[C@@]23[C@@H]([C@@H]12)[C@H](C(C)C)CC[C@@H]3C
REMARK SMILES IDX 15 1 14 2 13 3 12 4 8 5 6 6 5 7 7 8 2 9 3 10 4 11 1 12 9 13
REMARK SMILES IDX 10 14 11 15
REMARK H PARENT
REMARK Flexibility Score: inf
ROOT
ATOM      1  C   UNL     1      -3.883 -18.702  10.515  1.00  0.00     0.008 C 
ATOM      2  C   UNL     1      -4.550 -17.350  10.205  1.00  0.00    -0.007 C 
ATOM      3  C   UNL     1      -4.429 -16.404  11.416  1.00  0.00     0.004 C 
ATOM      4  C   UNL     1      -3.045 -15.756  11.505  1.00  0.00     0.004 C 
ATOM      5  C   UNL     1      -2.803 -14.799  10.319  1.00  0.00    -0.004 C 
ATOM      6  C   UNL     1      -3.039 -15.526   8.964  1.00  0.00     0.007 C 
ATOM      7  C   UNL     1      -3.969 -16.748   8.898  1.00  0.00    -0.013 C 
ATOM      8  C   UNL     1      -4.482 -15.375   8.465  1.00  0.00     0.025 C 
ATOM      9  C   UNL     1      -4.669 -15.489   6.992  1.00  0.00    -0.073 C 
ATOM     10  C   UNL     1      -4.362 -16.693   6.529  1.00  0.00    -0.027 C 
ATOM     11  C   UNL     1      -3.925 -17.608   7.619  1.00  0.00     0.035 C 
ATOM     12  C   UNL     1      -5.098 -14.341   6.131  1.00  0.00     0.039 C 
ENDROOT
BRANCH   5  13
ATOM     13  C   UNL     1      -1.374 -14.165  10.342  1.00  0.00    -0.014 C 
ATOM     14  C   UNL     1      -1.396 -12.629  10.233  1.00  0.00     0.007 C 
ATOM     15  C   UNL     1      -0.506 -14.724   9.198  1.00  0.00     0.007 C 
ENDBRANCH   5  13
TORSDOF 1
ENDMDL
MODEL 6
REMARK VINA RESULT:    -7.015      1.665      3.711
REMARK INTER + INTRA:          -7.742
REMARK INTER:                  -7.541
REMARK INTRA:                  -0.200
REMARK UNBOUND:                -0.316
REMARK SMILES CC1=CC[C@@]23[C@@H]([C@@H]12)[C@H](C(C)C)CC[C@@H]3C
REMARK SMILES IDX 15 1 14 2 13 3 12 4 8 5 6 6 5 7 7 8 2 9 3 10 4 11 1 12 9 13
REMARK SMILES IDX 10 14 11 15
REMARK H PARENT
REMARK Flexibility Score: inf
ROOT
ATOM      1  C   UNL     1      -3.488 -12.850   8.422  1.00  0.00     0.008 C 
ATOM      2  C   UNL     1      -2.549 -14.070   8.438  1.00  0.00    -0.007 C 
ATOM      3  C   UNL     1      -1.384 -13.835   9.420  1.00  0.00     0.004 C 
ATOM      4  C   UNL     1      -1.799 -14.074  10.874  1.00  0.00     0.004 C 
ATOM      5  C   UNL     1      -2.135 -15.560  11.117  1.00  0.00    -0.004 C 
ATOM      6  C   UNL     1      -3.199 -16.061  10.099  1.00  0.00     0.007 C 
ATOM      7  C   UNL     1      -3.350 -15.365   8.737  1.00  0.00    -0.013 C 
ATOM      8  C   UNL     1      -2.564 -16.671   8.844  1.00  0.00     0.025 C 
ATOM      9  C   UNL     1      -3.398 -17.673   8.122  1.00  0.00    -0.073 C 
ATOM     10  C   UNL     1      -4.507 -17.148   7.620  1.00  0.00    -0.027 C 
ATOM     11  C   UNL     1      -4.607 -15.691   7.906  1.00  0.00     0.035 C 
ATOM     12  C   UNL     1      -3.040 -19.125   8.036  1.00  0.00     0.039 C 
ENDROOT
BRANCH   5  13
ATOM     13  C   UNL     1      -2.623 -15.833  12.577  1.00  0.00    -0.014 C 
ATOM     14  C   UNL     1      -2.650 -14.564  13.449  1.00  0.00     0.007 C 
ATOM     15  C   UNL     1      -1.732 -16.882  13.268  1.00  0.00     0.007 C 
ENDBRANCH   5  13
TORSDOF 1
ENDMDL
MODEL 7
REMARK VINA RESULT:    -5.898      2.045      4.779
REMARK INTER + INTRA:          -6.559
REMARK INTER:                  -6.216
REMARK INTRA:                  -0.343
REMARK UNBOUND:                -0.316
REMARK SMILES CC1=CC[C@@]23[C@@H]([C@@H]12)[C@H](C(C)C)CC[C@@H]3C
REMARK SMILES IDX 15 1 14 2 13 3 12 4 8 5 6 6 5 7 7 8 2 9 3 10 4 11 1 12 9 13
REMARK SMILES IDX 10 14 11 15
REMARK H PARENT
REMARK Flexibility Score: inf
ROOT
ATOM      1  C   UNL     1      -5.887 -16.131  10.570  1.00  0.00     0.008 C 
ATOM      2  C   UNL     1      -4.753 -17.155  10.759  1.00  0.00    -0.007 C 
ATOM      3  C   UNL     1      -4.414 -17.830   9.416  1.00  0.00     0.004 C 
ATOM      4  C   UNL     1      -3.532 -16.944   8.532  1.00  0.00     0.004 C 
ATOM      5  C   UNL     1      -2.136 -16.749   9.161  1.00  0.00    -0.004 C 
ATOM      6  C   UNL     1      -2.255 -16.215  10.616  1.00  0.00     0.007 C 
ATOM      7  C   UNL     1      -3.527 -16.485  11.435  1.00  0.00    -0.013 C 
ATOM      8  C   UNL     1      -2.284 -17.346  11.652  1.00  0.00     0.025 C 
ATOM      9  C   UNL     1      -1.807 -16.984  13.016  1.00  0.00    -0.073 C 
ATOM     10  C   UNL     1      -2.578 -16.078  13.603  1.00  0.00    -0.027 C 
ATOM     11  C   UNL     1      -3.721 -15.682  12.736  1.00  0.00     0.035 C 
ATOM     12  C   UNL     1      -0.556 -17.543  13.620  1.00  0.00     0.039 C 
ENDROOT
BRANCH   5  13
ATOM     13  C   UNL     1      -1.227 -15.798   8.316  1.00  0.00    -0.014 C 
ATOM     14  C   UNL     1      -0.370 -14.857   9.184  1.00  0.00     0.007 C 
ATOM     15  C   UNL     1      -2.072 -14.940   7.354  1.00  0.00     0.007 C 
ENDBRANCH   5  13
TORSDOF 1
ENDMDL
MODEL 8
REMARK VINA RESULT:    -5.819      2.169      3.291
REMARK INTER + INTRA:          -6.475
REMARK INTER:                  -6.272
REMARK INTRA:                  -0.203
REMARK UNBOUND:                -0.316
REMARK SMILES CC1=CC[C@@]23[C@@H]([C@@H]12)[C@H](C(C)C)CC[C@@H]3C
REMARK SMILES IDX 15 1 14 2 13 3 12 4 8 5 6 6 5 7 7 8 2 9 3 10 4 11 1 12 9 13
REMARK SMILES IDX 10 14 11 15
REMARK H PARENT
REMARK Flexibility Score: inf
ROOT
ATOM      1  C   UNL     1      -3.059 -18.731   8.356  1.00  0.00     0.008 C 
ATOM      2  C   UNL     1      -3.628 -17.472   9.036  1.00  0.00    -0.007 C 
ATOM      3  C   UNL     1      -4.329 -17.848  10.357  1.00  0.00     0.004 C 
ATOM      4  C   UNL     1      -3.330 -18.072  11.495  1.00  0.00     0.004 C 
ATOM      5  C   UNL     1      -2.613 -16.758  11.870  1.00  0.00    -0.004 C 
ATOM      6  C   UNL     1      -1.959 -16.108  10.618  1.00  0.00     0.007 C 
ATOM      7  C   UNL     1      -2.515 -16.405   9.216  1.00  0.00    -0.013 C 
ATOM      8  C   UNL     1      -2.892 -15.106   9.926  1.00  0.00     0.025 C 
ATOM      9  C   UNL     1      -2.218 -14.036   9.137  1.00  0.00    -0.073 C 
ATOM     10  C   UNL     1      -1.541 -14.514   8.102  1.00  0.00    -0.027 C 
ATOM     11  C   UNL     1      -1.653 -15.995   8.005  1.00  0.00     0.035 C 
ATOM     12  C   UNL     1      -2.258 -12.589   9.521  1.00  0.00     0.039 C 
ENDROOT
BRANCH   5  13
ATOM     13  C   UNL     1      -1.539 -16.959  12.988  1.00  0.00    -0.014 C 
ATOM     14  C   UNL     1      -1.283 -18.442  13.317  1.00  0.00     0.007 C 
ATOM     15  C   UNL     1      -1.953 -16.235  14.285  1.00  0.00     0.007 C 
ENDBRANCH   5  13
TORSDOF 1
ENDMDL
MODEL 9
REMARK VINA RESULT:    -5.726      1.621      5.006
REMARK INTER + INTRA:          -6.377
REMARK INTER:                  -6.095
REMARK INTRA:                  -0.282
REMARK UNBOUND:                -0.316
REMARK SMILES CC1=CC[C@@]23[C@@H]([C@@H]12)[C@H](C(C)C)CC[C@@H]3C
REMARK SMILES IDX 15 1 14 2 13 3 12 4 8 5 6 6 5 7 7 8 2 9 3 10 4 11 1 12 9 13
REMARK SMILES IDX 10 14 11 15
REMARK H PARENT
REMARK Flexibility Score: inf
ROOT
ATOM      1  C   UNL     1      -0.032 -14.959   9.100  1.00  0.00     0.008 C 
ATOM      2  C   UNL     1      -1.269 -14.346   9.782  1.00  0.00    -0.007 C 
ATOM      3  C   UNL     1      -2.158 -13.640   8.740  1.00  0.00     0.004 C 
ATOM      4  C   UNL     1      -3.021 -14.629   7.953  1.00  0.00     0.004 C 
ATOM      5  C   UNL     1      -4.065 -15.304   8.868  1.00  0.00    -0.004 C 
ATOM      6  C   UNL     1      -3.379 -15.956  10.103  1.00  0.00     0.007 C 
ATOM      7  C   UNL     1      -2.025 -15.427  10.601  1.00  0.00    -0.013 C 
ATOM      8  C   UNL     1      -3.314 -15.004  11.304  1.00  0.00     0.025 C 
ATOM      9  C   UNL     1      -3.246 -15.657  12.641  1.00  0.00    -0.073 C 
ATOM     10  C   UNL     1      -2.135 -16.360  12.810  1.00  0.00    -0.027 C 
ATOM     11  C   UNL     1      -1.251 -16.292  11.615  1.00  0.00     0.035 C 
ATOM     12  C   UNL     1      -4.350 -15.571  13.650  1.00  0.00     0.039 C 
ENDROOT
BRANCH   5  13
ATOM     13  C   UNL     1      -4.925 -16.368   8.113  1.00  0.00    -0.014 C 
ATOM     14  C   UNL     1      -4.252 -17.753   8.052  1.00  0.00     0.007 C 
ATOM     15  C   UNL     1      -5.229 -15.909   6.673  1.00  0.00     0.007 C 
ENDBRANCH   5  13
TORSDOF 1
ENDMDL
