MODEL 1
REMARK VINA RESULT:    -1.200      0.000      0.000
REMARK INTER + INTRA:          -1.500
REMARK INTER:                  -1.376
REMARK INTRA:                  -0.124
REMARK UNBOUND:                -0.124
REMARK SMILES COc1ccc(C(C)=O)cc1O
REMARK SMILES IDX 6 1 10 2 11 3 3 4 4 5 5 6 7 7 8 8 9 9 12 10 2 12 1 13
REMARK H PARENT 12 11
REMARK Flexibility Score: inf
ROOT
ATOM      1  C   UNL     1      10.271  15.741   2.019  1.00  0.00     0.021 A 
ATOM      2  C   UNL     1       9.250  16.709   2.056  1.00  0.00     0.062 A 
ATOM      3  C   UNL     1       7.903  16.333   2.090  1.00  0.00     0.158 A 
ATOM      4  C   UNL     1       7.549  14.974   2.088  1.00  0.00     0.160 A 
ATOM      5  C   UNL     1       8.565  14.001   2.052  1.00  0.00     0.051 A 
ATOM      6  C   UNL     1       9.909  14.382   2.019  1.00  0.00     0.016 A 
ENDROOT
BRANCH   1   7
ATOM      7  C   UNL     1      11.697  16.163   1.984  1.00  0.00     0.159 C 
ATOM      8  C   UNL     1      12.819  15.178   2.122  1.00  0.00     0.093 C 
ATOM      9  O   UNL     1      11.987  17.381   1.832  1.00  0.00    -0.295 OA
ENDBRANCH   1   7
BRANCH   3  10
ATOM     10  O   UNL     1       6.928  17.331   2.125  1.00  0.00    -0.504 OA
ATOM     11  H   UNL     1       6.008  17.173   2.520  1.00  0.00     0.293 HD
ENDBRANCH   3  10
BRANCH   4  12
ATOM     12  O   UNL     1       6.189  14.626   2.123  1.00  0.00    -0.493 OA
ATOM     13  C   UNL     1       5.589  13.630   1.301  1.00  0.00     0.278 C 
ENDBRANCH   4  12
TORSDOF 3
ENDMDL
MODEL 2
REMARK VINA RESULT:     0.093      2.572      4.601
REMARK INTER + INTRA:          -0.017
REMARK INTER:                   0.082
REMARK INTRA:                  -0.099
REMARK UNBOUND:                -0.124
REMARK SMILES COc1ccc(C(C)=O)cc1O
REMARK SMILES IDX 6 1 10 2 11 3 3 4 4 5 5 6 7 7 8 8 9 9 12 10 2 12 1 13
REMARK H PARENT 12 11
REMARK Flexibility Score: inf
ROOT
ATOM      1  C   UNL     1       9.466  16.091   1.149  1.00  0.00     0.021 A 
ATOM      2  C   UNL     1       9.387  15.038   0.220  1.00  0.00     0.062 A 
ATOM      3  C   UNL     1      10.316  13.992   0.237  1.00  0.00     0.158 A 
ATOM      4  C   UNL     1      11.347  13.978   1.191  1.00  0.00     0.160 A 
ATOM      5  C   UNL     1      11.430  15.029   2.123  1.00  0.00     0.051 A 
ATOM      6  C   UNL     1      10.500  16.071   2.103  1.00  0.00     0.016 A 
ENDROOT
BRANCH   1   7
ATOM      7  C   UNL     1       8.467  17.194   1.113  1.00  0.00     0.159 C 
ATOM      8  C   UNL     1       7.365  17.298   2.125  1.00  0.00     0.093 C 
ATOM      9  O   UNL     1       8.538  18.074   0.213  1.00  0.00    -0.295 OA
ENDBRANCH   1   7
BRANCH   3  10
ATOM     10  O   UNL     1      10.196  12.971  -0.707  1.00  0.00    -0.504 OA
ATOM     11  H   UNL     1      10.261  13.145  -1.702  1.00  0.00     0.293 HD
ENDBRANCH   3  10
BRANCH   4  12
ATOM     12  O   UNL     1      12.264  12.915   1.185  1.00  0.00    -0.493 OA
ATOM     13  C   UNL     1      13.460  12.877   1.957  1.00  0.00     0.278 C 
ENDBRANCH   4  12
TORSDOF 3
ENDMDL
MODEL 3
REMARK VINA RESULT:     0.582      1.767      4.372
REMARK INTER + INTRA:           0.543
REMARK INTER:                   0.604
REMARK INTRA:                  -0.061
REMARK UNBOUND:                -0.124
REMARK SMILES COc1ccc(C(C)=O)cc1O
REMARK SMILES IDX 6 1 10 2 11 3 3 4 4 5 5 6 7 7 8 8 9 9 12 10 2 12 1 13
REMARK H PARENT 12 11
REMARK Flexibility Score: inf
ROOT
ATOM      1  C   UNL     1       8.903  16.406   1.578  1.00  0.00     0.021 A 
ATOM      2  C   UNL     1      10.265  16.755   1.608  1.00  0.00     0.062 A 
ATOM      3  C   UNL     1      11.254  15.783   1.790  1.00  0.00     0.158 A 
ATOM      4  C   UNL     1      10.897  14.433   1.945  1.00  0.00     0.160 A 
ATOM      5  C   UNL     1       9.536  14.077   1.914  1.00  0.00     0.051 A 
ATOM      6  C   UNL     1       8.552  15.052   1.732  1.00  0.00     0.016 A 
ENDROOT
BRANCH   1   7
ATOM      7  C   UNL     1       7.867  17.457   1.383  1.00  0.00     0.159 C 
ATOM      8  C   UNL     1       7.994  18.505   0.319  1.00  0.00     0.093 C 
ATOM      9  O   UNL     1       6.848  17.478   2.125  1.00  0.00    -0.295 OA
ENDBRANCH   1   7
BRANCH   3  10
ATOM     10  O   UNL     1      12.591  16.180   1.814  1.00  0.00    -0.504 OA
ATOM     11  H   UNL     1      13.123  16.236   2.674  1.00  0.00     0.293 HD
ENDBRANCH   3  10
BRANCH   4  12
ATOM     12  O   UNL     1      11.910  13.478   2.125  1.00  0.00    -0.493 OA
ATOM     13  C   UNL     1      12.670  12.898   1.070  1.00  0.00     0.278 C 
ENDBRANCH   4  12
TORSDOF 3
ENDMDL
