MODEL 1
REMARK VINA RESULT:    -4.540      0.000      0.000
REMARK INTER + INTRA:          -5.179
REMARK INTER:                  -4.938
REMARK INTRA:                  -0.241
REMARK UNBOUND:                -0.241
REMARK SMILES O=C([O-])c1ccccc1O
REMARK SMILES IDX 4 1 9 2 5 3 8 4 6 5 7 6 2 7 1 8 3 9 10 10
REMARK H PARENT 10 11
REMARK Flexibility Score: inf
ROOT
ATOM      1  C   UNL     1       8.265  52.151  22.777  1.00  0.00     0.039 A 
ATOM      2  C   UNL     1       9.658  52.406  22.839  1.00  0.00     0.124 A 
ATOM      3  C   UNL     1       7.629  51.574  23.893  1.00  0.00     0.014 A 
ATOM      4  C   UNL     1      10.360  52.140  24.020  1.00  0.00     0.047 A 
ATOM      5  C   UNL     1       8.348  51.295  25.057  1.00  0.00     0.001 A 
ATOM      6  C   UNL     1       9.710  51.586  25.125  1.00  0.00     0.004 A 
ENDROOT
BRANCH   1   7
ATOM      7  C   UNL     1       7.444  52.504  21.598  1.00  0.00     0.075 C 
ATOM      8  O   UNL     1       6.250  52.875  21.747  1.00  0.00    -0.545 OA
ATOM      9  O   UNL     1       7.993  52.499  20.322  1.00  0.00    -0.545 OA
ENDBRANCH   1   7
BRANCH   2  10
ATOM     10  O   UNL     1      10.383  52.885  21.745  1.00  0.00    -0.507 OA
ATOM     11  H   UNL     1      10.783  53.812  21.706  1.00  0.00     0.293 HD
ENDBRANCH   2  10
TORSDOF 2
ENDMDL
MODEL 2
REMARK VINA RESULT:    -4.364      0.898      2.547
REMARK INTER + INTRA:          -4.987
REMARK INTER:                  -4.739
REMARK INTRA:                  -0.248
REMARK UNBOUND:                -0.241
REMARK SMILES O=C([O-])c1ccccc1O
REMARK SMILES IDX 4 1 9 2 5 3 8 4 6 5 7 6 2 7 1 8 3 9 10 10
REMARK H PARENT 10 11
REMARK Flexibility Score: inf
ROOT
ATOM      1  C   UNL     1       9.336  52.330  22.676  1.00  0.00     0.039 A 
ATOM      2  C   UNL     1       7.932  52.168  22.793  1.00  0.00     0.124 A 
ATOM      3  C   UNL     1      10.141  52.129  23.814  1.00  0.00     0.014 A 
ATOM      4  C   UNL     1       7.381  51.754  24.012  1.00  0.00     0.047 A 
ATOM      5  C   UNL     1       9.574  51.736  25.028  1.00  0.00     0.001 A 
ATOM      6  C   UNL     1       8.196  51.540  25.125  1.00  0.00     0.004 A 
ENDROOT
BRANCH   1   7
ATOM      7  C   UNL     1       9.993  52.665  21.394  1.00  0.00     0.075 C 
ATOM      8  O   UNL     1       9.559  53.616  20.691  1.00  0.00    -0.545 OA
ATOM      9  O   UNL     1      11.133  51.987  20.980  1.00  0.00    -0.545 OA
ENDBRANCH   1   7
BRANCH   2  10
ATOM     10  O   UNL     1       7.054  52.442  21.742  1.00  0.00    -0.507 OA
ATOM     11  H   UNL     1       7.193  52.105  20.800  1.00  0.00     0.293 HD
ENDBRANCH   2  10
TORSDOF 2
ENDMDL
MODEL 3
REMARK VINA RESULT:    -4.286      1.710      2.420
REMARK INTER + INTRA:          -4.903
REMARK INTER:                  -4.664
REMARK INTRA:                  -0.239
REMARK UNBOUND:                -0.241
REMARK SMILES O=C([O-])c1ccccc1O
REMARK SMILES IDX 4 1 9 2 5 3 8 4 6 5 7 6 2 7 1 8 3 9 10 10
REMARK H PARENT 10 11
REMARK Flexibility Score: inf
ROOT
ATOM      1  C   UNL     1      10.118  51.885  22.878  1.00  0.00     0.039 A 
ATOM      2  C   UNL     1      11.103  50.998  22.374  1.00  0.00     0.124 A 
ATOM      3  C   UNL     1      10.066  52.128  24.264  1.00  0.00     0.014 A 
ATOM      4  C   UNL     1      12.040  50.434  23.248  1.00  0.00     0.047 A 
ATOM      5  C   UNL     1      10.995  51.540  25.125  1.00  0.00     0.001 A 
ATOM      6  C   UNL     1      11.986  50.701  24.617  1.00  0.00     0.004 A 
ENDROOT
BRANCH   1   7
ATOM      7  C   UNL     1       9.164  52.595  21.997  1.00  0.00     0.075 C 
ATOM      8  O   UNL     1       9.585  53.245  21.004  1.00  0.00    -0.545 OA
ATOM      9  O   UNL     1       7.794  52.500  22.209  1.00  0.00    -0.545 OA
ENDBRANCH   1   7
BRANCH   2  10
ATOM     10  O   UNL     1      11.163  50.627  21.029  1.00  0.00    -0.507 OA
ATOM     11  H   UNL     1      10.730  51.157  20.286  1.00  0.00     0.293 HD
ENDBRANCH   2  10
TORSDOF 2
ENDMDL
MODEL 4
REMARK VINA RESULT:    -4.216      1.052      2.196
REMARK INTER + INTRA:          -4.826
REMARK INTER:                  -4.576
REMARK INTRA:                  -0.250
REMARK UNBOUND:                -0.241
REMARK SMILES O=C([O-])c1ccccc1O
REMARK SMILES IDX 4 1 9 2 5 3 8 4 6 5 7 6 2 7 1 8 3 9 10 10
REMARK H PARENT 10 11
REMARK Flexibility Score: inf
ROOT
ATOM      1  C   UNL     1       8.675  52.183  22.814  1.00  0.00     0.039 A 
ATOM      2  C   UNL     1       7.944  51.880  23.991  1.00  0.00     0.124 A 
ATOM      3  C   UNL     1      10.078  52.065  22.834  1.00  0.00     0.014 A 
ATOM      4  C   UNL     1       8.620  51.412  25.125  1.00  0.00     0.047 A 
ATOM      5  C   UNL     1      10.738  51.618  23.980  1.00  0.00     0.001 A 
ATOM      6  C   UNL     1      10.010  51.283  25.122  1.00  0.00     0.004 A 
ENDROOT
BRANCH   1   7
ATOM      7  C   UNL     1       8.016  52.582  21.551  1.00  0.00     0.075 C 
ATOM      8  O   UNL     1       6.930  52.044  21.207  1.00  0.00    -0.545 OA
ATOM      9  O   UNL     1       8.543  53.598  20.763  1.00  0.00    -0.545 OA
ENDBRANCH   1   7
BRANCH   2  10
ATOM     10  O   UNL     1       6.563  52.062  24.086  1.00  0.00    -0.507 OA
ATOM     11  H   UNL     1       5.985  52.352  23.309  1.00  0.00     0.293 HD
ENDBRANCH   2  10
TORSDOF 2
ENDMDL
MODEL 5
REMARK VINA RESULT:    -4.022      1.480      2.181
REMARK INTER + INTRA:          -4.615
REMARK INTER:                  -4.380
REMARK INTRA:                  -0.236
REMARK UNBOUND:                -0.241
REMARK SMILES O=C([O-])c1ccccc1O
REMARK SMILES IDX 4 1 9 2 5 3 8 4 6 5 7 6 2 7 1 8 3 9 10 10
REMARK H PARENT 10 11
REMARK Flexibility Score: inf
ROOT
ATOM      1  C   UNL     1       7.326  52.885  21.473  1.00  0.00     0.039 A 
ATOM      2  C   UNL     1       8.660  53.257  21.168  1.00  0.00     0.124 A 
ATOM      3  C   UNL     1       7.078  52.133  22.637  1.00  0.00     0.014 A 
ATOM      4  C   UNL     1       9.692  52.926  22.055  1.00  0.00     0.047 A 
ATOM      5  C   UNL     1       8.122  51.792  23.500  1.00  0.00     0.001 A 
ATOM      6  C   UNL     1       9.426  52.196  23.215  1.00  0.00     0.004 A 
ENDROOT
BRANCH   1   7
ATOM      7  C   UNL     1       6.177  53.291  20.634  1.00  0.00     0.075 C 
ATOM      8  O   UNL     1       6.145  52.982  19.413  1.00  0.00    -0.545 OA
ATOM      9  O   UNL     1       5.090  53.955  21.189  1.00  0.00    -0.545 OA
ENDBRANCH   1   7
BRANCH   2  10
ATOM     10  O   UNL     1       9.005  53.918  19.987  1.00  0.00    -0.507 OA
ATOM     11  H   UNL     1       8.529  53.770  19.108  1.00  0.00     0.293 HD
ENDBRANCH   2  10
TORSDOF 2
ENDMDL
MODEL 6
REMARK VINA RESULT:    -4.004      1.753      3.409
REMARK INTER + INTRA:          -4.596
REMARK INTER:                  -4.347
REMARK INTRA:                  -0.249
REMARK UNBOUND:                -0.241
REMARK SMILES O=C([O-])c1ccccc1O
REMARK SMILES IDX 4 1 9 2 5 3 8 4 6 5 7 6 2 7 1 8 3 9 10 10
REMARK H PARENT 10 11
REMARK Flexibility Score: inf
ROOT
ATOM      1  C   UNL     1      11.005  51.722  22.704  1.00  0.00     0.039 A 
ATOM      2  C   UNL     1       9.602  51.890  22.583  1.00  0.00     0.124 A 
ATOM      3  C   UNL     1      11.568  51.601  23.989  1.00  0.00     0.014 A 
ATOM      4  C   UNL     1       8.800  51.869  23.731  1.00  0.00     0.047 A 
ATOM      5  C   UNL     1      10.756  51.603  25.125  1.00  0.00     0.001 A 
ATOM      6  C   UNL     1       9.373  51.728  24.996  1.00  0.00     0.004 A 
ENDROOT
BRANCH   1   7
ATOM      7  C   UNL     1      11.898  51.631  21.528  1.00  0.00     0.075 C 
ATOM      8  O   UNL     1      11.515  51.032  20.488  1.00  0.00    -0.545 OA
ATOM      9  O   UNL     1      13.137  52.260  21.525  1.00  0.00    -0.545 OA
ENDBRANCH   1   7
BRANCH   2  10
ATOM     10  O   UNL     1       8.975  52.115  21.356  1.00  0.00    -0.507 OA
ATOM     11  H   UNL     1       8.875  51.404  20.644  1.00  0.00     0.293 HD
ENDBRANCH   2  10
TORSDOF 2
ENDMDL
MODEL 7
REMARK VINA RESULT:    -2.276      1.565      3.498
REMARK INTER + INTRA:          -2.716
REMARK INTER:                  -2.463
REMARK INTRA:                  -0.253
REMARK UNBOUND:                -0.241
REMARK SMILES O=C([O-])c1ccccc1O
REMARK SMILES IDX 4 1 9 2 5 3 8 4 6 5 7 6 2 7 1 8 3 9 10 10
REMARK H PARENT 10 11
REMARK Flexibility Score: inf
ROOT
ATOM      1  C   UNL     1      10.165  51.956  24.032  1.00  0.00     0.039 A 
ATOM      2  C   UNL     1       9.404  52.459  22.946  1.00  0.00     0.124 A 
ATOM      3  C   UNL     1       9.491  51.378  25.125  1.00  0.00     0.014 A 
ATOM      4  C   UNL     1       8.011  52.317  22.951  1.00  0.00     0.047 A 
ATOM      5  C   UNL     1       8.099  51.263  25.124  1.00  0.00     0.001 A 
ATOM      6  C   UNL     1       7.360  51.724  24.034  1.00  0.00     0.004 A 
ENDROOT
BRANCH   1   7
ATOM      7  C   UNL     1      11.644  51.979  24.044  1.00  0.00     0.075 C 
ATOM      8  O   UNL     1      12.264  52.169  25.123  1.00  0.00    -0.545 OA
ATOM      9  O   UNL     1      12.369  51.725  22.886  1.00  0.00    -0.545 OA
ENDBRANCH   1   7
BRANCH   2  10
ATOM     10  O   UNL     1       9.985  53.132  21.870  1.00  0.00    -0.507 OA
ATOM     11  H   UNL     1       9.466  53.435  21.057  1.00  0.00     0.293 HD
ENDBRANCH   2  10
TORSDOF 2
ENDMDL
