MODEL 1
REMARK VINA RESULT:    -3.544      0.000      0.000
REMARK INTER + INTRA:          -6.205
REMARK INTER:                  -5.409
REMARK INTRA:                  -0.797
REMARK UNBOUND:                -0.797
REMARK SMILES O=C([O-])CCCCCCCCC(=O)[O-]
REMARK SMILES IDX 7 1 6 2 5 3 4 4 2 5 1 6 3 7 8 8 9 9 10 10 11 11 12 12 13 13
REMARK SMILES IDX 14 14
REMARK H PARENT
REMARK Flexibility Score: inf
ROOT
ATOM      1  C   UNL     1      12.426  22.707  16.847  1.00  0.00     0.000 C 
ENDROOT
BRANCH   1   2
ATOM      2  C   UNL     1      12.905  22.698  18.313  1.00  0.00     0.000 C 
BRANCH   2   3
ATOM      3  C   UNL     1      11.787  22.808  19.365  1.00  0.00     0.006 C 
BRANCH   3   4
ATOM      4  C   UNL     1      11.993  21.863  20.556  1.00  0.00     0.053 C 
BRANCH   4   5
ATOM      5  C   UNL     1      10.873  20.876  20.637  1.00  0.00     0.041 C 
ATOM      6  O   UNL     1      10.965  19.763  20.055  1.00  0.00    -0.550 OA
ATOM      7  O   UNL     1       9.746  21.163  21.396  1.00  0.00    -0.550 OA
ENDBRANCH   4   5
ENDBRANCH   3   4
ENDBRANCH   2   3
ENDBRANCH   1   2
BRANCH   1   8
ATOM      8  C   UNL     1      12.672  21.399  16.072  1.00  0.00     0.000 C 
BRANCH   8   9
ATOM      9  C   UNL     1      11.649  20.305  16.410  1.00  0.00     0.000 C 
BRANCH   9  10
ATOM     10  C   UNL     1      10.235  20.887  16.513  1.00  0.00     0.006 C 
BRANCH  10  11
ATOM     11  C   UNL     1       9.178  19.820  16.210  1.00  0.00     0.053 C 
BRANCH  11  12
ATOM     12  C   UNL     1       8.810  19.078  17.456  1.00  0.00     0.041 C 
ATOM     13  O   UNL     1       8.085  19.624  18.328  1.00  0.00    -0.550 OA
ATOM     14  O   UNL     1       9.311  17.801  17.678  1.00  0.00    -0.550 OA
ENDBRANCH  11  12
ENDBRANCH  10  11
ENDBRANCH   9  10
ENDBRANCH   8   9
ENDBRANCH   1   8
TORSDOF 9
ENDMDL
MODEL 2
REMARK VINA RESULT:    -3.517     17.197     18.274
REMARK INTER + INTRA:          -6.165
REMARK INTER:                  -5.963
REMARK INTRA:                  -0.201
REMARK UNBOUND:                -0.797
REMARK SMILES O=C([O-])CCCCCCCCC(=O)[O-]
REMARK SMILES IDX 7 1 6 2 5 3 4 4 2 5 1 6 3 7 8 8 9 9 10 10 11 11 12 12 13 13
REMARK SMILES IDX 14 14
REMARK H PARENT
REMARK Flexibility Score: inf
ROOT
ATOM      1  C   UNL     1      14.302   2.955  22.219  1.00  0.00     0.000 C 
ENDROOT
BRANCH   1   2
ATOM      2  C   UNL     1      15.512   2.875  23.174  1.00  0.00     0.000 C 
BRANCH   2   3
ATOM      3  C   UNL     1      16.885   3.050  22.502  1.00  0.00     0.006 C 
BRANCH   3   4
ATOM      4  C   UNL     1      16.862   4.067  21.353  1.00  0.00     0.053 C 
BRANCH   4   5
ATOM      5  C   UNL     1      18.121   3.975  20.551  1.00  0.00     0.041 C 
ATOM      6  O   UNL     1      19.204   3.651  21.105  1.00  0.00    -0.550 OA
ATOM      7  O   UNL     1      18.090   4.201  19.181  1.00  0.00    -0.550 OA
ENDBRANCH   4   5
ENDBRANCH   3   4
ENDBRANCH   2   3
ENDBRANCH   1   2
BRANCH   1   8
ATOM      8  C   UNL     1      12.925   2.918  22.906  1.00  0.00     0.000 C 
BRANCH   8   9
ATOM      9  C   UNL     1      11.759   2.984  21.910  1.00  0.00     0.000 C 
BRANCH   9  10
ATOM     10  C   UNL     1      10.619   3.851  22.455  1.00  0.00     0.006 C 
BRANCH  10  11
ATOM     11  C   UNL     1       9.258   3.330  21.983  1.00  0.00     0.053 C 
BRANCH  11  12
ATOM     12  C   UNL     1       8.171   4.286  22.363  1.00  0.00     0.041 C 
ATOM     13  O   UNL     1       7.913   4.504  23.575  1.00  0.00    -0.550 OA
ATOM     14  O   UNL     1       7.409   4.899  21.376  1.00  0.00    -0.550 OA
ENDBRANCH  11  12
ENDBRANCH  10  11
ENDBRANCH   9  10
ENDBRANCH   8   9
ENDBRANCH   1   8
TORSDOF 9
ENDMDL
MODEL 3
REMARK VINA RESULT:    -3.309      1.263      4.414
REMARK INTER + INTRA:          -5.846
REMARK INTER:                  -5.184
REMARK INTRA:                  -0.662
REMARK UNBOUND:                -0.797
REMARK SMILES O=C([O-])CCCCCCCCC(=O)[O-]
REMARK SMILES IDX 7 1 6 2 5 3 4 4 2 5 1 6 3 7 8 8 9 9 10 10 11 11 12 12 13 13
REMARK SMILES IDX 14 14
REMARK H PARENT
REMARK Flexibility Score: inf
ROOT
ATOM      1  C   UNL     1      11.841  20.422  16.160  1.00  0.00     0.000 C 
ENDROOT
BRANCH   1   2
ATOM      2  C   UNL     1      10.371  20.796  15.875  1.00  0.00     0.000 C 
BRANCH   2   3
ATOM      3  C   UNL     1       9.336  20.112  16.785  1.00  0.00     0.006 C 
BRANCH   3   4
ATOM      4  C   UNL     1       8.045  19.739  16.044  1.00  0.00     0.053 C 
BRANCH   4   5
ATOM      5  C   UNL     1       6.909  19.612  17.008  1.00  0.00     0.041 C 
ATOM      6  O   UNL     1       5.731  19.472  16.586  1.00  0.00    -0.550 OA
ATOM      7  O   UNL     1       7.155  19.600  18.375  1.00  0.00    -0.550 OA
ENDBRANCH   4   5
ENDBRANCH   3   4
ENDBRANCH   2   3
ENDBRANCH   1   2
BRANCH   1   8
ATOM      8  C   UNL     1      12.821  21.609  16.196  1.00  0.00     0.000 C 
BRANCH   8   9
ATOM      9  C   UNL     1      12.341  22.752  17.102  1.00  0.00     0.000 C 
BRANCH   9  10
ATOM     10  C   UNL     1      12.573  22.417  18.579  1.00  0.00     0.006 C 
BRANCH  10  11
ATOM     11  C   UNL     1      11.245  22.171  19.302  1.00  0.00     0.053 C 
BRANCH  11  12
ATOM     12  C   UNL     1      11.384  21.053  20.287  1.00  0.00     0.041 C 
ATOM     13  O   UNL     1      10.944  19.907  20.010  1.00  0.00    -0.550 OA
ATOM     14  O   UNL     1      11.955  21.290  21.532  1.00  0.00    -0.550 OA
ENDBRANCH  11  12
ENDBRANCH  10  11
ENDBRANCH   9  10
ENDBRANCH   8   9
ENDBRANCH   1   8
TORSDOF 9
ENDMDL
MODEL 4
REMARK VINA RESULT:    -3.299     10.048     12.576
REMARK INTER + INTRA:          -5.831
REMARK INTER:                  -5.463
REMARK INTRA:                  -0.368
REMARK UNBOUND:                -0.797
REMARK SMILES O=C([O-])CCCCCCCCC(=O)[O-]
REMARK SMILES IDX 7 1 6 2 5 3 4 4 2 5 1 6 3 7 8 8 9 9 10 10 11 11 12 12 13 13
REMARK SMILES IDX 14 14
REMARK H PARENT
REMARK Flexibility Score: inf
ROOT
ATOM      1  C   UNL     1       0.616  12.710  19.086  1.00  0.00     0.000 C 
ENDROOT
BRANCH   1   2
ATOM      2  C   UNL     1      -0.001  12.263  20.428  1.00  0.00     0.000 C 
BRANCH   2   3
ATOM      3  C   UNL     1       0.636  12.889  21.680  1.00  0.00     0.006 C 
BRANCH   3   4
ATOM      4  C   UNL     1       1.041  11.845  22.729  1.00  0.00     0.053 C 
BRANCH   4   5
ATOM      5  C   UNL     1       1.438  12.515  24.005  1.00  0.00     0.041 C 
ATOM      6  O   UNL     1       1.505  11.854  25.075  1.00  0.00    -0.550 OA
ATOM      7  O   UNL     1       1.781  13.861  24.006  1.00  0.00    -0.550 OA
ENDBRANCH   4   5
ENDBRANCH   3   4
ENDBRANCH   2   3
ENDBRANCH   1   2
BRANCH   1   8
ATOM      8  C   UNL     1       0.238  11.843  17.872  1.00  0.00     0.000 C 
BRANCH   8   9
ATOM      9  C   UNL     1       0.864  12.343  16.563  1.00  0.00     0.000 C 
BRANCH   9  10
ATOM     10  C   UNL     1       2.113  13.188  16.839  1.00  0.00     0.006 C 
BRANCH  10  11
ATOM     11  C   UNL     1       2.019  14.549  16.143  1.00  0.00     0.053 C 
BRANCH  11  12
ATOM     12  C   UNL     1       2.801  15.578  16.899  1.00  0.00     0.041 C 
ATOM     13  O   UNL     1       3.561  16.373  16.286  1.00  0.00    -0.550 OA
ATOM     14  O   UNL     1       2.728  15.626  18.285  1.00  0.00    -0.550 OA
ENDBRANCH  11  12
ENDBRANCH  10  11
ENDBRANCH   9  10
ENDBRANCH   8   9
ENDBRANCH   1   8
TORSDOF 9
ENDMDL
MODEL 5
REMARK VINA RESULT:    -3.297      1.208      1.708
REMARK INTER + INTRA:          -5.828
REMARK INTER:                  -4.957
REMARK INTRA:                  -0.871
REMARK UNBOUND:                -0.797
REMARK SMILES O=C([O-])CCCCCCCCC(=O)[O-]
REMARK SMILES IDX 7 1 6 2 5 3 4 4 2 5 1 6 3 7 8 8 9 9 10 10 11 11 12 12 13 13
REMARK SMILES IDX 14 14
REMARK H PARENT
REMARK Flexibility Score: inf
ROOT
ATOM      1  C   UNL     1      12.891  21.606  16.280  1.00  0.00     0.000 C 
ENDROOT
BRANCH   1   2
ATOM      2  C   UNL     1      12.397  22.653  17.300  1.00  0.00     0.000 C 
BRANCH   2   3
ATOM      3  C   UNL     1      12.693  22.318  18.772  1.00  0.00     0.006 C 
BRANCH   3   4
ATOM      4  C   UNL     1      11.479  22.527  19.687  1.00  0.00     0.053 C 
BRANCH   4   5
ATOM      5  C   UNL     1      11.602  21.685  20.917  1.00  0.00     0.041 C 
ATOM      6  O   UNL     1      11.088  20.536  20.953  1.00  0.00    -0.550 OA
ATOM      7  O   UNL     1      12.326  22.149  22.008  1.00  0.00    -0.550 OA
ENDBRANCH   4   5
ENDBRANCH   3   4
ENDBRANCH   2   3
ENDBRANCH   1   2
BRANCH   1   8
ATOM      8  C   UNL     1      11.862  20.524  15.904  1.00  0.00     0.000 C 
BRANCH   8   9
ATOM      9  C   UNL     1      10.411  20.994  16.079  1.00  0.00     0.000 C 
BRANCH   9  10
ATOM     10  C   UNL     1       9.506  19.833  16.508  1.00  0.00     0.006 C 
BRANCH  10  11
ATOM     11  C   UNL     1       9.479  19.692  18.033  1.00  0.00     0.053 C 
BRANCH  11  12
ATOM     12  C   UNL     1       8.192  20.220  18.585  1.00  0.00     0.041 C 
ATOM     13  O   UNL     1       8.199  21.156  19.426  1.00  0.00    -0.550 OA
ATOM     14  O   UNL     1       6.986  19.643  18.206  1.00  0.00    -0.550 OA
ENDBRANCH  11  12
ENDBRANCH  10  11
ENDBRANCH   9  10
ENDBRANCH   8   9
ENDBRANCH   1   8
TORSDOF 9
ENDMDL
MODEL 6
REMARK VINA RESULT:    -3.276      2.303      2.881
REMARK INTER + INTRA:          -5.796
REMARK INTER:                  -5.190
REMARK INTRA:                  -0.606
REMARK UNBOUND:                -0.797
REMARK SMILES O=C([O-])CCCCCCCCC(=O)[O-]
REMARK SMILES IDX 7 1 6 2 5 3 4 4 2 5 1 6 3 7 8 8 9 9 10 10 11 11 12 12 13 13
REMARK SMILES IDX 14 14
REMARK H PARENT
REMARK Flexibility Score: inf
ROOT
ATOM      1  C   UNL     1      12.009  22.939  18.871  1.00  0.00     0.000 C 
ENDROOT
BRANCH   1   2
ATOM      2  C   UNL     1      11.903  21.642  19.699  1.00  0.00     0.000 C 
BRANCH   2   3
ATOM      3  C   UNL     1      11.899  21.840  21.225  1.00  0.00     0.006 C 
BRANCH   3   4
ATOM      4  C   UNL     1      12.640  23.111  21.663  1.00  0.00     0.053 C 
BRANCH   4   5
ATOM      5  C   UNL     1      13.696  22.778  22.669  1.00  0.00     0.041 C 
ATOM      6  O   UNL     1      13.373  22.409  23.829  1.00  0.00    -0.550 OA
ATOM      7  O   UNL     1      15.037  22.829  22.312  1.00  0.00    -0.550 OA
ENDBRANCH   4   5
ENDBRANCH   3   4
ENDBRANCH   2   3
ENDBRANCH   1   2
BRANCH   1   8
ATOM      8  C   UNL     1      11.821  22.762  17.354  1.00  0.00     0.000 C 
BRANCH   8   9
ATOM      9  C   UNL     1      12.760  21.704  16.755  1.00  0.00     0.000 C 
BRANCH   9  10
ATOM     10  C   UNL     1      11.971  20.655  15.964  1.00  0.00     0.006 C 
BRANCH  10  11
ATOM     11  C   UNL     1      10.462  20.843  16.154  1.00  0.00     0.053 C 
BRANCH  11  12
ATOM     12  C   UNL     1       9.871  19.662  16.857  1.00  0.00     0.041 C 
ATOM     13  O   UNL     1      10.527  19.060  17.747  1.00  0.00    -0.550 OA
ATOM     14  O   UNL     1       8.614  19.194  16.493  1.00  0.00    -0.550 OA
ENDBRANCH  11  12
ENDBRANCH  10  11
ENDBRANCH   9  10
ENDBRANCH   8   9
ENDBRANCH   1   8
TORSDOF 9
ENDMDL
MODEL 7
REMARK VINA RESULT:    -3.222     20.724     22.578
REMARK INTER + INTRA:          -5.714
REMARK INTER:                  -5.129
REMARK INTRA:                  -0.585
REMARK UNBOUND:                -0.797
REMARK SMILES O=C([O-])CCCCCCCCC(=O)[O-]
REMARK SMILES IDX 7 1 6 2 5 3 4 4 2 5 1 6 3 7 8 8 9 9 10 10 11 11 12 12 13 13
REMARK SMILES IDX 14 14
REMARK H PARENT
REMARK Flexibility Score: inf
ROOT
ATOM      1  C   UNL     1      12.211   3.501  33.226  1.00  0.00     0.000 C 
ENDROOT
BRANCH   1   2
ATOM      2  C   UNL     1      12.684   3.010  31.842  1.00  0.00     0.000 C 
BRANCH   2   3
ATOM      3  C   UNL     1      12.036   3.722  30.641  1.00  0.00     0.006 C 
BRANCH   3   4
ATOM      4  C   UNL     1      11.094   4.859  31.059  1.00  0.00     0.053 C 
BRANCH   4   5
ATOM      5  C   UNL     1       9.671   4.476  30.804  1.00  0.00     0.041 C 
ATOM      6  O   UNL     1       9.269   4.276  29.627  1.00  0.00    -0.550 OA
ATOM      7  O   UNL     1       8.798   4.294  31.868  1.00  0.00    -0.550 OA
ENDBRANCH   4   5
ENDBRANCH   3   4
ENDBRANCH   2   3
ENDBRANCH   1   2
BRANCH   1   8
ATOM      8  C   UNL     1      12.951   2.882  34.426  1.00  0.00     0.000 C 
BRANCH   8   9
ATOM      9  C   UNL     1      12.611   3.570  35.756  1.00  0.00     0.000 C 
BRANCH   9  10
ATOM     10  C   UNL     1      11.130   3.961  35.810  1.00  0.00     0.006 C 
BRANCH  10  11
ATOM     11  C   UNL     1      10.963   5.483  35.813  1.00  0.00     0.053 C 
BRANCH  11  12
ATOM     12  C   UNL     1       9.844   5.889  34.907  1.00  0.00     0.041 C 
ATOM     13  O   UNL     1       8.696   5.394  35.055  1.00  0.00    -0.550 OA
ATOM     14  O   UNL     1      10.081   6.779  33.866  1.00  0.00    -0.550 OA
ENDBRANCH  11  12
ENDBRANCH  10  11
ENDBRANCH   9  10
ENDBRANCH   8   9
ENDBRANCH   1   8
TORSDOF 9
ENDMDL
