MODEL 1
REMARK VINA RESULT:    -2.889      0.000      0.000
REMARK INTER + INTRA:          -5.931
REMARK INTER:                  -4.916
REMARK INTRA:                  -1.014
REMARK UNBOUND:                -1.014
REMARK SMILES CCCCCCCCCCCCCC(=O)[O-]
REMARK SMILES IDX 8 1 9 2 10 3 11 4 12 5 13 6 14 7 15 8 16 9 7 10 6 11 5 12
REMARK SMILES IDX 4 13 3 14 2 15 1 16
REMARK H PARENT
REMARK Flexibility Score: inf
ROOT
ATOM      1  C   UNL     1     -11.068 -19.655  17.447  1.00  0.00     0.000 C 
ENDROOT
BRANCH   1   2
ATOM      2  C   UNL     1     -10.803 -20.705  16.357  1.00  0.00     0.000 C 
BRANCH   2   3
ATOM      3  C   UNL     1     -10.072 -20.122  15.139  1.00  0.00     0.000 C 
BRANCH   3   4
ATOM      4  C   UNL     1      -8.762 -20.880  14.870  1.00  0.00     0.000 C 
BRANCH   4   5
ATOM      5  C   UNL     1      -8.262 -21.652  16.101  1.00  0.00     0.006 C 
BRANCH   5   6
ATOM      6  C   UNL     1      -7.018 -22.499  15.803  1.00  0.00     0.053 C 
BRANCH   6   7
ATOM      7  C   UNL     1      -6.080 -22.477  16.969  1.00  0.00     0.041 C 
ATOM      8  O   UNL     1      -6.532 -22.496  18.145  1.00  0.00    -0.550 OA
ATOM      9  O   UNL     1      -4.711 -22.386  16.758  1.00  0.00    -0.550 OA
ENDBRANCH   6   7
ENDBRANCH   5   6
ENDBRANCH   4   5
ENDBRANCH   3   4
ENDBRANCH   2   3
ENDBRANCH   1   2
BRANCH   1  10
ATOM     10  C   UNL     1     -11.125 -20.264  18.857  1.00  0.00     0.000 C 
BRANCH  10  11
ATOM     11  C   UNL     1      -9.735 -20.741  19.305  1.00  0.00    -0.000 C 
BRANCH  11  12
ATOM     12  C   UNL     1      -9.669 -22.262  19.544  1.00  0.00    -0.000 C 
BRANCH  12  13
ATOM     13  C   UNL     1      -9.466 -22.684  21.011  1.00  0.00    -0.000 C 
BRANCH  13  14
ATOM     14  C   UNL     1     -10.091 -21.696  22.011  1.00  0.00    -0.000 C 
BRANCH  14  15
ATOM     15  C   UNL     1      -9.215 -21.489  23.257  1.00  0.00    -0.003 C 
ATOM     16  C   UNL     1      -8.492 -22.763  23.692  1.00  0.00     0.004 C 
ENDBRANCH  14  15
ENDBRANCH  13  14
ENDBRANCH  12  13
ENDBRANCH  11  12
ENDBRANCH  10  11
ENDBRANCH   1  10
TORSDOF 12
ENDMDL
MODEL 2
REMARK VINA RESULT:    -2.822     13.896     16.929
REMARK INTER + INTRA:          -5.817
REMARK INTER:                  -4.766
REMARK INTRA:                  -1.051
REMARK UNBOUND:                -1.014
REMARK SMILES CCCCCCCCCCCCCC(=O)[O-]
REMARK SMILES IDX 8 1 9 2 10 3 11 4 12 5 13 6 14 7 15 8 16 9 7 10 6 11 5 12
REMARK SMILES IDX 4 13 3 14 2 15 1 16
REMARK H PARENT
REMARK Flexibility Score: inf
ROOT
ATOM      1  C   UNL     1       7.252 -22.462  14.224  1.00  0.00     0.000 C 
ENDROOT
BRANCH   1   2
ATOM      2  C   UNL     1       7.151 -23.098  12.829  1.00  0.00     0.000 C 
BRANCH   2   3
ATOM      3  C   UNL     1       7.488 -22.110  11.702  1.00  0.00     0.000 C 
BRANCH   3   4
ATOM      4  C   UNL     1       8.634 -21.174  12.119  1.00  0.00     0.000 C 
BRANCH   4   5
ATOM      5  C   UNL     1       8.521 -19.781  11.481  1.00  0.00     0.006 C 
BRANCH   5   6
ATOM      6  C   UNL     1       7.092 -19.450  11.031  1.00  0.00     0.053 C 
BRANCH   6   7
ATOM      7  C   UNL     1       7.016 -19.387   9.538  1.00  0.00     0.041 C 
ATOM      8  O   UNL     1       6.125 -18.695   8.978  1.00  0.00    -0.550 OA
ATOM      9  O   UNL     1       7.896 -20.133   8.765  1.00  0.00    -0.550 OA
ENDBRANCH   6   7
ENDBRANCH   5   6
ENDBRANCH   4   5
ENDBRANCH   3   4
ENDBRANCH   2   3
ENDBRANCH   1   2
BRANCH   1  10
ATOM     10  C   UNL     1       8.323 -23.125  15.104  1.00  0.00     0.000 C 
BRANCH  10  11
ATOM     11  C   UNL     1       8.178 -22.686  16.569  1.00  0.00    -0.000 C 
BRANCH  11  12
ATOM     12  C   UNL     1       7.606 -21.263  16.717  1.00  0.00    -0.000 C 
BRANCH  12  13
ATOM     13  C   UNL     1       6.310 -21.164  17.544  1.00  0.00    -0.000 C 
BRANCH  13  14
ATOM     14  C   UNL     1       5.405 -22.397  17.391  1.00  0.00    -0.000 C 
BRANCH  14  15
ATOM     15  C   UNL     1       4.059 -22.060  16.731  1.00  0.00    -0.003 C 
ATOM     16  C   UNL     1       3.647 -23.078  15.668  1.00  0.00     0.004 C 
ENDBRANCH  14  15
ENDBRANCH  13  14
ENDBRANCH  12  13
ENDBRANCH  11  12
ENDBRANCH  10  11
ENDBRANCH   1  10
TORSDOF 12
ENDMDL
MODEL 3
REMARK VINA RESULT:    -2.765      2.496      6.430
REMARK INTER + INTRA:          -5.719
REMARK INTER:                  -4.816
REMARK INTRA:                  -0.903
REMARK UNBOUND:                -1.014
REMARK SMILES CCCCCCCCCCCCCC(=O)[O-]
REMARK SMILES IDX 8 1 9 2 10 3 11 4 12 5 13 6 14 7 15 8 16 9 7 10 6 11 5 12
REMARK SMILES IDX 4 13 3 14 2 15 1 16
REMARK H PARENT
REMARK Flexibility Score: inf
ROOT
ATOM      1  C   UNL     1      -7.453 -22.234  18.435  1.00  0.00     0.000 C 
ENDROOT
BRANCH   1   2
ATOM      2  C   UNL     1      -7.829 -23.123  19.631  1.00  0.00     0.000 C 
BRANCH   2   3
ATOM      3  C   UNL     1      -9.325 -23.054  19.972  1.00  0.00     0.000 C 
BRANCH   3   4
ATOM      4  C   UNL     1      -9.819 -21.598  19.981  1.00  0.00     0.000 C 
BRANCH   4   5
ATOM      5  C   UNL     1     -10.783 -21.308  21.141  1.00  0.00     0.006 C 
BRANCH   5   6
ATOM      6  C   UNL     1     -10.137 -20.466  22.250  1.00  0.00     0.053 C 
BRANCH   6   7
ATOM      7  C   UNL     1      -9.278 -21.324  23.124  1.00  0.00     0.041 C 
ATOM      8  O   UNL     1      -8.029 -21.160  23.143  1.00  0.00    -0.550 OA
ATOM      9  O   UNL     1      -9.851 -22.337  23.881  1.00  0.00    -0.550 OA
ENDBRANCH   6   7
ENDBRANCH   5   6
ENDBRANCH   4   5
ENDBRANCH   3   4
ENDBRANCH   2   3
ENDBRANCH   1   2
BRANCH   1  10
ATOM     10  C   UNL     1      -6.252 -22.778  17.645  1.00  0.00     0.000 C 
BRANCH  10  11
ATOM     11  C   UNL     1      -6.151 -22.104  16.268  1.00  0.00    -0.000 C 
BRANCH  11  12
ATOM     12  C   UNL     1      -7.481 -22.123  15.490  1.00  0.00    -0.000 C 
BRANCH  12  13
ATOM     13  C   UNL     1      -8.116 -20.741  15.249  1.00  0.00    -0.000 C 
BRANCH  13  14
ATOM     14  C   UNL     1      -9.301 -20.788  14.270  1.00  0.00    -0.000 C 
BRANCH  14  15
ATOM     15  C   UNL     1     -10.623 -20.360  14.927  1.00  0.00    -0.003 C 
ATOM     16  C   UNL     1     -10.526 -20.267  16.449  1.00  0.00     0.004 C 
ENDBRANCH  14  15
ENDBRANCH  13  14
ENDBRANCH  12  13
ENDBRANCH  11  12
ENDBRANCH  10  11
ENDBRANCH   1  10
TORSDOF 12
ENDMDL
MODEL 4
REMARK VINA RESULT:    -2.637     14.578     18.310
REMARK INTER + INTRA:          -5.501
REMARK INTER:                  -4.268
REMARK INTRA:                  -1.233
REMARK UNBOUND:                -1.014
REMARK SMILES CCCCCCCCCCCCCC(=O)[O-]
REMARK SMILES IDX 8 1 9 2 10 3 11 4 12 5 13 6 14 7 15 8 16 9 7 10 6 11 5 12
REMARK SMILES IDX 4 13 3 14 2 15 1 16
REMARK H PARENT
REMARK Flexibility Score: inf
ROOT
ATOM      1  C   UNL     1       8.174 -22.648  12.615  1.00  0.00     0.000 C 
ENDROOT
BRANCH   1   2
ATOM      2  C   UNL     1       8.947 -22.667  13.943  1.00  0.00     0.000 C 
BRANCH   2   3
ATOM      3  C   UNL     1       8.840 -21.340  14.709  1.00  0.00     0.000 C 
BRANCH   3   4
ATOM      4  C   UNL     1       8.755 -21.587  16.224  1.00  0.00     0.000 C 
BRANCH   4   5
ATOM      5  C   UNL     1       7.696 -22.636  16.594  1.00  0.00     0.006 C 
BRANCH   5   6
ATOM      6  C   UNL     1       6.364 -22.006  17.021  1.00  0.00     0.053 C 
BRANCH   6   7
ATOM      7  C   UNL     1       5.245 -22.522  16.170  1.00  0.00     0.041 C 
ATOM      8  O   UNL     1       4.058 -22.474  16.588  1.00  0.00    -0.550 OA
ATOM      9  O   UNL     1       5.519 -23.102  14.939  1.00  0.00    -0.550 OA
ENDBRANCH   6   7
ENDBRANCH   5   6
ENDBRANCH   4   5
ENDBRANCH   3   4
ENDBRANCH   2   3
ENDBRANCH   1   2
BRANCH   1  10
ATOM     10  C   UNL     1       9.099 -22.582  11.390  1.00  0.00     0.000 C 
BRANCH  10  11
ATOM     11  C   UNL     1       8.391 -23.125  10.139  1.00  0.00    -0.000 C 
BRANCH  11  12
ATOM     12  C   UNL     1       8.371 -22.118   8.973  1.00  0.00    -0.000 C 
BRANCH  12  13
ATOM     13  C   UNL     1       8.543 -20.643   9.382  1.00  0.00    -0.000 C 
BRANCH  13  14
ATOM     14  C   UNL     1       7.216 -19.866   9.394  1.00  0.00    -0.000 C 
BRANCH  14  15
ATOM     15  C   UNL     1       6.901 -19.264  10.773  1.00  0.00    -0.003 C 
ATOM     16  C   UNL     1       8.122 -19.211  11.691  1.00  0.00     0.004 C 
ENDBRANCH  14  15
ENDBRANCH  13  14
ENDBRANCH  12  13
ENDBRANCH  11  12
ENDBRANCH  10  11
ENDBRANCH   1  10
TORSDOF 12
ENDMDL
MODEL 5
REMARK VINA RESULT:    -2.627      2.146      3.866
REMARK INTER + INTRA:          -5.485
REMARK INTER:                  -4.749
REMARK INTRA:                  -0.736
REMARK UNBOUND:                -1.014
REMARK SMILES CCCCCCCCCCCCCC(=O)[O-]
REMARK SMILES IDX 8 1 9 2 10 3 11 4 12 5 13 6 14 7 15 8 16 9 7 10 6 11 5 12
REMARK SMILES IDX 4 13 3 14 2 15 1 16
REMARK H PARENT
REMARK Flexibility Score: inf
ROOT
ATOM      1  C   UNL     1      -6.780 -21.665  16.242  1.00  0.00     0.000 C 
ENDROOT
BRANCH   1   2
ATOM      2  C   UNL     1      -8.303 -21.551  16.078  1.00  0.00     0.000 C 
BRANCH   2   3
ATOM      3  C   UNL     1      -8.706 -20.618  14.925  1.00  0.00     0.000 C 
BRANCH   3   4
ATOM      4  C   UNL     1     -10.226 -20.646  14.703  1.00  0.00     0.000 C 
BRANCH   4   5
ATOM      5  C   UNL     1     -11.015 -20.735  16.019  1.00  0.00     0.006 C 
BRANCH   5   6
ATOM      6  C   UNL     1     -10.952 -19.437  16.834  1.00  0.00     0.053 C 
BRANCH   6   7
ATOM      7  C   UNL     1     -10.829 -19.743  18.294  1.00  0.00     0.041 C 
ATOM      8  O   UNL     1     -10.521 -20.904  18.674  1.00  0.00    -0.550 OA
ATOM      9  O   UNL     1     -11.103 -18.760  19.236  1.00  0.00    -0.550 OA
ENDBRANCH   6   7
ENDBRANCH   5   6
ENDBRANCH   4   5
ENDBRANCH   3   4
ENDBRANCH   2   3
ENDBRANCH   1   2
BRANCH   1  10
ATOM     10  C   UNL     1      -6.374 -22.394  17.533  1.00  0.00     0.000 C 
BRANCH  10  11
ATOM     11  C   UNL     1      -7.614 -22.809  18.340  1.00  0.00    -0.000 C 
BRANCH  11  12
ATOM     12  C   UNL     1      -7.324 -22.981  19.843  1.00  0.00    -0.000 C 
BRANCH  12  13
ATOM     13  C   UNL     1      -8.459 -22.534  20.782  1.00  0.00    -0.000 C 
BRANCH  13  14
ATOM     14  C   UNL     1      -8.001 -22.369  22.241  1.00  0.00    -0.000 C 
BRANCH  14  15
ATOM     15  C   UNL     1      -9.081 -21.728  23.127  1.00  0.00    -0.003 C 
ATOM     16  C   UNL     1      -9.761 -20.532  22.463  1.00  0.00     0.004 C 
ENDBRANCH  14  15
ENDBRANCH  13  14
ENDBRANCH  12  13
ENDBRANCH  11  12
ENDBRANCH  10  11
ENDBRANCH   1  10
TORSDOF 12
ENDMDL
MODEL 6
REMARK VINA RESULT:    -2.439      2.554      6.158
REMARK INTER + INTRA:          -5.164
REMARK INTER:                  -4.312
REMARK INTRA:                  -0.851
REMARK UNBOUND:                -1.014
REMARK SMILES CCCCCCCCCCCCCC(=O)[O-]
REMARK SMILES IDX 8 1 9 2 10 3 11 4 12 5 13 6 14 7 15 8 16 9 7 10 6 11 5 12
REMARK SMILES IDX 4 13 3 14 2 15 1 16
REMARK H PARENT
REMARK Flexibility Score: inf
ROOT
ATOM      1  C   UNL     1      -5.618 -22.463  17.064  1.00  0.00     0.000 C 
ENDROOT
BRANCH   1   2
ATOM      2  C   UNL     1      -5.879 -23.107  18.435  1.00  0.00     0.000 C 
BRANCH   2   3
ATOM      3  C   UNL     1      -7.339 -22.959  18.890  1.00  0.00     0.000 C 
BRANCH   3   4
ATOM      4  C   UNL     1      -7.449 -23.054  20.420  1.00  0.00     0.000 C 
BRANCH   4   5
ATOM      5  C   UNL     1      -8.864 -22.744  20.932  1.00  0.00     0.006 C 
BRANCH   5   6
ATOM      6  C   UNL     1      -8.883 -22.352  22.415  1.00  0.00     0.053 C 
BRANCH   6   7
ATOM      7  C   UNL     1      -9.367 -20.945  22.577  1.00  0.00     0.041 C 
ATOM      8  O   UNL     1      -8.554 -20.023  22.853  1.00  0.00    -0.550 OA
ATOM      9  O   UNL     1     -10.722 -20.660  22.473  1.00  0.00    -0.550 OA
ENDBRANCH   6   7
ENDBRANCH   5   6
ENDBRANCH   4   5
ENDBRANCH   3   4
ENDBRANCH   2   3
ENDBRANCH   1   2
BRANCH   1  10
ATOM     10  C   UNL     1      -6.817 -22.586  16.111  1.00  0.00     0.000 C 
BRANCH  10  11
ATOM     11  C   UNL     1      -7.426 -21.207  15.815  1.00  0.00    -0.000 C 
BRANCH  11  12
ATOM     12  C   UNL     1      -8.695 -21.283  14.946  1.00  0.00    -0.000 C 
BRANCH  12  13
ATOM     13  C   UNL     1      -9.553 -20.004  14.929  1.00  0.00    -0.000 C 
BRANCH  13  14
ATOM     14  C   UNL     1     -10.944 -20.207  15.552  1.00  0.00    -0.000 C 
BRANCH  14  15
ATOM     15  C   UNL     1     -10.908 -21.131  16.781  1.00  0.00    -0.003 C 
ATOM     16  C   UNL     1     -10.329 -20.448  18.019  1.00  0.00     0.004 C 
ENDBRANCH  14  15
ENDBRANCH  13  14
ENDBRANCH  12  13
ENDBRANCH  11  12
ENDBRANCH  10  11
ENDBRANCH   1  10
TORSDOF 12
ENDMDL
MODEL 7
REMARK VINA RESULT:    -2.434      2.269      3.518
REMARK INTER + INTRA:          -5.156
REMARK INTER:                  -4.401
REMARK INTRA:                  -0.756
REMARK UNBOUND:                -1.014
REMARK SMILES CCCCCCCCCCCCCC(=O)[O-]
REMARK SMILES IDX 8 1 9 2 10 3 11 4 12 5 13 6 14 7 15 8 16 9 7 10 6 11 5 12
REMARK SMILES IDX 4 13 3 14 2 15 1 16
REMARK H PARENT
REMARK Flexibility Score: inf
ROOT
ATOM      1  C   UNL     1      -7.605 -22.013  18.368  1.00  0.00     0.000 C 
ENDROOT
BRANCH   1   2
ATOM      2  C   UNL     1      -6.618 -22.514  17.302  1.00  0.00     0.000 C 
BRANCH   2   3
ATOM      3  C   UNL     1      -7.185 -22.415  15.878  1.00  0.00     0.000 C 
BRANCH   3   4
ATOM      4  C   UNL     1      -7.891 -21.066  15.662  1.00  0.00     0.000 C 
BRANCH   4   5
ATOM      5  C   UNL     1      -8.856 -21.088  14.466  1.00  0.00     0.006 C 
BRANCH   5   6
ATOM      6  C   UNL     1     -10.027 -20.112  14.634  1.00  0.00     0.053 C 
BRANCH   6   7
ATOM      7  C   UNL     1     -10.701 -20.326  15.953  1.00  0.00     0.041 C 
ATOM      8  O   UNL     1     -10.845 -19.364  16.754  1.00  0.00    -0.550 OA
ATOM      9  O   UNL     1     -11.124 -21.596  16.320  1.00  0.00    -0.550 OA
ENDBRANCH   6   7
ENDBRANCH   5   6
ENDBRANCH   4   5
ENDBRANCH   3   4
ENDBRANCH   2   3
ENDBRANCH   1   2
BRANCH   1  10
ATOM     10  C   UNL     1      -8.683 -23.050  18.715  1.00  0.00     0.000 C 
BRANCH  10  11
ATOM     11  C   UNL     1      -9.928 -22.371  19.306  1.00  0.00    -0.000 C 
BRANCH  11  12
ATOM     12  C   UNL     1     -10.060 -22.575  20.827  1.00  0.00    -0.000 C 
BRANCH  12  13
ATOM     13  C   UNL     1     -10.628 -21.370  21.600  1.00  0.00    -0.000 C 
BRANCH  13  14
ATOM     14  C   UNL     1     -10.056 -21.247  23.022  1.00  0.00    -0.000 C 
BRANCH  14  15
ATOM     15  C   UNL     1      -8.618 -21.780  23.125  1.00  0.00    -0.003 C 
ATOM     16  C   UNL     1      -8.518 -23.062  23.952  1.00  0.00     0.004 C 
ENDBRANCH  14  15
ENDBRANCH  13  14
ENDBRANCH  12  13
ENDBRANCH  11  12
ENDBRANCH  10  11
ENDBRANCH   1  10
TORSDOF 12
ENDMDL
MODEL 8
REMARK VINA RESULT:    -2.239     11.944     15.806
REMARK INTER + INTRA:          -4.825
REMARK INTER:                  -3.999
REMARK INTRA:                  -0.826
REMARK UNBOUND:                -1.014
REMARK SMILES CCCCCCCCCCCCCC(=O)[O-]
REMARK SMILES IDX 8 1 9 2 10 3 11 4 12 5 13 6 14 7 15 8 16 9 7 10 6 11 5 12
REMARK SMILES IDX 4 13 3 14 2 15 1 16
REMARK H PARENT
REMARK Flexibility Score: inf
ROOT
ATOM      1  C   UNL     1       6.391 -21.696  17.674  1.00  0.00     0.000 C 
ENDROOT
BRANCH   1   2
ATOM      2  C   UNL     1       5.370 -22.671  17.065  1.00  0.00     0.000 C 
BRANCH   2   3
ATOM      3  C   UNL     1       5.439 -22.717  15.531  1.00  0.00     0.000 C 
BRANCH   3   4
ATOM      4  C   UNL     1       4.079 -23.113  14.933  1.00  0.00     0.000 C 
BRANCH   4   5
ATOM      5  C   UNL     1       2.934 -23.018  15.953  1.00  0.00     0.006 C 
BRANCH   5   6
ATOM      6  C   UNL     1       1.582 -22.713  15.296  1.00  0.00     0.053 C 
BRANCH   6   7
ATOM      7  C   UNL     1       0.665 -22.046  16.273  1.00  0.00     0.041 C 
ATOM      8  O   UNL     1       1.113 -21.182  17.073  1.00  0.00    -0.550 OA
ATOM      9  O   UNL     1      -0.672 -22.414  16.335  1.00  0.00    -0.550 OA
ENDBRANCH   6   7
ENDBRANCH   5   6
ENDBRANCH   4   5
ENDBRANCH   3   4
ENDBRANCH   2   3
ENDBRANCH   1   2
BRANCH   1  10
ATOM     10  C   UNL     1       7.466 -21.257  16.668  1.00  0.00     0.000 C 
BRANCH  10  11
ATOM     11  C   UNL     1       8.539 -22.344  16.502  1.00  0.00    -0.000 C 
BRANCH  11  12
ATOM     12  C   UNL     1       9.125 -22.399  15.079  1.00  0.00    -0.000 C 
BRANCH  12  13
ATOM     13  C   UNL     1       9.016 -21.089  14.277  1.00  0.00    -0.000 C 
BRANCH  13  14
ATOM     14  C   UNL     1       8.682 -21.319  12.794  1.00  0.00    -0.000 C 
BRANCH  14  15
ATOM     15  C   UNL     1       7.294 -21.948  12.595  1.00  0.00    -0.003 C 
ATOM     16  C   UNL     1       6.957 -22.191  11.124  1.00  0.00     0.004 C 
ENDBRANCH  14  15
ENDBRANCH  13  14
ENDBRANCH  12  13
ENDBRANCH  11  12
ENDBRANCH  10  11
ENDBRANCH   1  10
TORSDOF 12
ENDMDL
MODEL 9
REMARK VINA RESULT:    -2.165     12.735     15.938
REMARK INTER + INTRA:          -4.698
REMARK INTER:                  -3.981
REMARK INTRA:                  -0.717
REMARK UNBOUND:                -1.014
REMARK SMILES CCCCCCCCCCCCCC(=O)[O-]
REMARK SMILES IDX 8 1 9 2 10 3 11 4 12 5 13 6 14 7 15 8 16 9 7 10 6 11 5 12
REMARK SMILES IDX 4 13 3 14 2 15 1 16
REMARK H PARENT
REMARK Flexibility Score: inf
ROOT
ATOM      1  C   UNL     1       7.484 -21.231  16.367  1.00  0.00     0.000 C 
ENDROOT
BRANCH   1   2
ATOM      2  C   UNL     1       8.549 -20.928  15.302  1.00  0.00     0.000 C 
BRANCH   2   3
ATOM      3  C   UNL     1       9.115 -22.200  14.653  1.00  0.00     0.000 C 
BRANCH   3   4
ATOM      4  C   UNL     1       8.920 -22.172  13.129  1.00  0.00     0.000 C 
BRANCH   4   5
ATOM      5  C   UNL     1       8.331 -20.842  12.633  1.00  0.00     0.006 C 
BRANCH   5   6
ATOM      6  C   UNL     1       7.192 -21.039  11.624  1.00  0.00     0.053 C 
BRANCH   6   7
ATOM      7  C   UNL     1       7.255 -19.994  10.555  1.00  0.00     0.041 C 
ATOM      8  O   UNL     1       6.814 -18.835  10.775  1.00  0.00    -0.550 OA
ATOM      9  O   UNL     1       7.756 -20.313   9.300  1.00  0.00    -0.550 OA
ENDBRANCH   6   7
ENDBRANCH   5   6
ENDBRANCH   4   5
ENDBRANCH   3   4
ENDBRANCH   2   3
ENDBRANCH   1   2
BRANCH   1  10
ATOM     10  C   UNL     1       7.007 -22.691  16.332  1.00  0.00     0.000 C 
BRANCH  10  11
ATOM     11  C   UNL     1       5.759 -22.839  15.448  1.00  0.00    -0.000 C 
BRANCH  11  12
ATOM     12  C   UNL     1       4.446 -22.574  16.209  1.00  0.00    -0.000 C 
BRANCH  12  13
ATOM     13  C   UNL     1       3.160 -22.831  15.403  1.00  0.00    -0.000 C 
BRANCH  13  14
ATOM     14  C   UNL     1       1.927 -22.136  16.004  1.00  0.00    -0.000 C 
BRANCH  14  15
ATOM     15  C   UNL     1       0.619 -22.874  15.676  1.00  0.00    -0.003 C 
ATOM     16  C   UNL     1      -0.600 -22.251  16.356  1.00  0.00     0.004 C 
ENDBRANCH  14  15
ENDBRANCH  13  14
ENDBRANCH  12  13
ENDBRANCH  11  12
ENDBRANCH  10  11
ENDBRANCH   1  10
TORSDOF 12
ENDMDL
