MODEL 1
REMARK VINA RESULT:    -2.855      0.000      0.000
REMARK INTER + INTRA:          -3.219
REMARK INTER:                  -3.105
REMARK INTRA:                  -0.114
REMARK UNBOUND:                -0.114
REMARK SMILES Cc1ccc(C(C)C)cc1O
REMARK SMILES IDX 1 1 2 2 10 3 9 4 5 5 4 6 3 7 11 8 6 10 7 11 8 12
REMARK H PARENT 11 9
REMARK Flexibility Score: inf
ROOT
ATOM      1  C   UNL     1     169.052 150.153 147.348  1.00  0.00     0.048 C 
ATOM      2  C   UNL     1     167.862 151.060 147.491  1.00  0.00    -0.009 A 
ATOM      3  C   UNL     1     168.000 152.380 147.974  1.00  0.00     0.118 A 
ATOM      4  C   UNL     1     166.872 153.199 148.095  1.00  0.00     0.050 A 
ATOM      5  C   UNL     1     165.594 152.727 147.741  1.00  0.00    -0.042 A 
ATOM      6  C   UNL     1     165.466 151.414 147.262  1.00  0.00     0.004 A 
ATOM      7  C   UNL     1     166.586 150.590 147.137  1.00  0.00     0.007 A 
ENDROOT
BRANCH   3   8
ATOM      8  O   UNL     1     169.241 152.906 148.341  1.00  0.00    -0.508 OA
ATOM      9  H   UNL     1     169.752 153.564 147.768  1.00  0.00     0.293 HD
ENDBRANCH   3   8
BRANCH   5  10
ATOM     10  C   UNL     1     164.368 153.611 147.870  1.00  0.00     0.013 C 
ATOM     11  C   UNL     1     163.399 153.062 148.923  1.00  0.00     0.012 C 
ATOM     12  C   UNL     1     164.762 155.059 148.185  1.00  0.00     0.012 C 
ENDBRANCH   5  10
TORSDOF 2
ENDMDL
MODEL 2
REMARK VINA RESULT:    -2.845     12.304     14.561
REMARK INTER + INTRA:          -3.208
REMARK INTER:                  -3.094
REMARK INTRA:                  -0.114
REMARK UNBOUND:                -0.114
REMARK SMILES Cc1ccc(C(C)C)cc1O
REMARK SMILES IDX 1 1 2 2 10 3 9 4 5 5 4 6 3 7 11 8 6 10 7 11 8 12
REMARK H PARENT 11 9
REMARK Flexibility Score: inf
ROOT
ATOM      1  C   UNL     1     169.886 169.126 147.272  1.00  0.00     0.048 C 
ATOM      2  C   UNL     1     169.011 167.916 147.448  1.00  0.00    -0.009 A 
ATOM      3  C   UNL     1     167.678 168.036 147.898  1.00  0.00     0.118 A 
ATOM      4  C   UNL     1     166.889 166.890 148.051  1.00  0.00     0.050 A 
ATOM      5  C   UNL     1     167.406 165.613 147.763  1.00  0.00    -0.042 A 
ATOM      6  C   UNL     1     168.732 165.503 147.317  1.00  0.00     0.004 A 
ATOM      7  C   UNL     1     169.525 166.642 147.160  1.00  0.00     0.007 A 
ENDROOT
BRANCH   3   8
ATOM      8  O   UNL     1     167.108 169.274 148.200  1.00  0.00    -0.508 OA
ATOM      9  H   UNL     1     166.196 169.373 148.627  1.00  0.00     0.293 HD
ENDBRANCH   3   8
BRANCH   5  10
ATOM     10  C   UNL     1     166.555 164.367 147.927  1.00  0.00     0.013 C 
ATOM     11  C   UNL     1     167.111 163.459 149.030  1.00  0.00     0.012 C 
ATOM     12  C   UNL     1     165.090 164.730 148.198  1.00  0.00     0.012 C 
ENDBRANCH   5  10
TORSDOF 2
ENDMDL
MODEL 3
REMARK VINA RESULT:    -2.832     13.356     15.026
REMARK INTER + INTRA:          -3.194
REMARK INTER:                  -3.071
REMARK INTRA:                  -0.123
REMARK UNBOUND:                -0.114
REMARK SMILES Cc1ccc(C(C)C)cc1O
REMARK SMILES IDX 1 1 2 2 10 3 9 4 5 5 4 6 3 7 11 8 6 10 7 11 8 12
REMARK H PARENT 11 9
REMARK Flexibility Score: inf
ROOT
ATOM      1  C   UNL     1     163.742 166.200 148.603  1.00  0.00     0.048 C 
ATOM      2  C   UNL     1     165.194 166.525 148.386  1.00  0.00    -0.009 A 
ATOM      3  C   UNL     1     166.063 165.608 147.754  1.00  0.00     0.118 A 
ATOM      4  C   UNL     1     167.409 165.941 147.566  1.00  0.00     0.050 A 
ATOM      5  C   UNL     1     167.915 167.181 147.998  1.00  0.00    -0.042 A 
ATOM      6  C   UNL     1     167.044 168.086 148.624  1.00  0.00     0.004 A 
ATOM      7  C   UNL     1     165.699 167.762 148.815  1.00  0.00     0.007 A 
ENDROOT
BRANCH   3   8
ATOM      8  O   UNL     1     165.621 164.362 147.303  1.00  0.00    -0.508 OA
ATOM      9  H   UNL     1     165.921 163.954 146.427  1.00  0.00     0.293 HD
ENDBRANCH   3   8
BRANCH   5  10
ATOM     10  C   UNL     1     169.374 167.546 147.796  1.00  0.00     0.013 C 
ATOM     11  C   UNL     1     170.073 166.539 146.876  1.00  0.00     0.012 C 
ATOM     12  C   UNL     1     169.516 168.975 147.259  1.00  0.00     0.012 C 
ENDBRANCH   5  10
TORSDOF 2
ENDMDL
MODEL 4
REMARK VINA RESULT:    -2.814      3.248      4.870
REMARK INTER + INTRA:          -3.175
REMARK INTER:                  -3.047
REMARK INTRA:                  -0.128
REMARK UNBOUND:                -0.114
REMARK SMILES Cc1ccc(C(C)C)cc1O
REMARK SMILES IDX 1 1 2 2 10 3 9 4 5 5 4 6 3 7 11 8 6 10 7 11 8 12
REMARK H PARENT 11 9
REMARK Flexibility Score: inf
ROOT
ATOM      1  C   UNL     1     169.755 157.840 147.557  1.00  0.00     0.048 C 
ATOM      2  C   UNL     1     169.147 156.532 147.982  1.00  0.00    -0.009 A 
ATOM      3  C   UNL     1     167.748 156.337 147.971  1.00  0.00     0.118 A 
ATOM      4  C   UNL     1     167.214 155.108 148.372  1.00  0.00     0.050 A 
ATOM      5  C   UNL     1     168.052 154.056 148.788  1.00  0.00    -0.042 A 
ATOM      6  C   UNL     1     169.440 154.259 148.795  1.00  0.00     0.004 A 
ATOM      7  C   UNL     1     169.982 155.482 148.396  1.00  0.00     0.007 A 
ENDROOT
BRANCH   3   8
ATOM      8  O   UNL     1     166.866 157.342 147.569  1.00  0.00    -0.508 OA
ATOM      9  H   UNL     1     166.066 157.627 148.120  1.00  0.00     0.293 HD
ENDBRANCH   3   8
BRANCH   5  10
ATOM     10  C   UNL     1     167.476 152.721 149.223  1.00  0.00     0.013 C 
ATOM     11  C   UNL     1     166.593 152.115 148.126  1.00  0.00     0.012 C 
ATOM     12  C   UNL     1     168.587 151.749 149.636  1.00  0.00     0.012 C 
ENDBRANCH   5  10
TORSDOF 2
ENDMDL
MODEL 5
REMARK VINA RESULT:    -2.802      9.428     11.664
REMARK INTER + INTRA:          -3.162
REMARK INTER:                  -3.034
REMARK INTRA:                  -0.127
REMARK UNBOUND:                -0.114
REMARK SMILES Cc1ccc(C(C)C)cc1O
REMARK SMILES IDX 1 1 2 2 10 3 9 4 5 5 4 6 3 7 11 8 6 10 7 11 8 12
REMARK H PARENT 11 9
REMARK Flexibility Score: inf
ROOT
ATOM      1  C   UNL     1     157.999 150.199 147.770  1.00  0.00     0.048 C 
ATOM      2  C   UNL     1     156.657 150.772 148.131  1.00  0.00    -0.009 A 
ATOM      3  C   UNL     1     156.398 152.156 148.020  1.00  0.00     0.118 A 
ATOM      4  C   UNL     1     155.138 152.659 148.364  1.00  0.00     0.050 A 
ATOM      5  C   UNL     1     154.119 151.803 148.820  1.00  0.00    -0.042 A 
ATOM      6  C   UNL     1     154.385 150.429 148.928  1.00  0.00     0.004 A 
ATOM      7  C   UNL     1     155.639 149.919 148.586  1.00  0.00     0.007 A 
ENDROOT
BRANCH   3   8
ATOM      8  O   UNL     1     157.369 153.056 147.573  1.00  0.00    -0.508 OA
ATOM      9  H   UNL     1     157.173 153.795 146.911  1.00  0.00     0.293 HD
ENDBRANCH   3   8
BRANCH   5  10
ATOM     10  C   UNL     1     152.750 152.343 149.194  1.00  0.00     0.013 C 
ATOM     11  C   UNL     1     151.951 152.734 147.946  1.00  0.00     0.012 C 
ATOM     12  C   UNL     1     151.976 151.338 150.054  1.00  0.00     0.012 C 
ENDBRANCH   5  10
TORSDOF 2
ENDMDL
MODEL 6
REMARK VINA RESULT:    -2.799      2.195      4.666
REMARK INTER + INTRA:          -3.159
REMARK INTER:                  -3.031
REMARK INTRA:                  -0.128
REMARK UNBOUND:                -0.114
REMARK SMILES Cc1ccc(C(C)C)cc1O
REMARK SMILES IDX 1 1 2 2 10 3 9 4 5 5 4 6 3 7 11 8 6 10 7 11 8 12
REMARK H PARENT 11 9
REMARK Flexibility Score: inf
ROOT
ATOM      1  C   UNL     1     166.613 156.790 148.401  1.00  0.00     0.048 C 
ATOM      2  C   UNL     1     166.903 155.315 148.400  1.00  0.00    -0.009 A 
ATOM      3  C   UNL     1     165.925 154.377 148.001  1.00  0.00     0.118 A 
ATOM      4  C   UNL     1     166.227 153.010 148.011  1.00  0.00     0.050 A 
ATOM      5  C   UNL     1     167.496 152.553 148.413  1.00  0.00    -0.042 A 
ATOM      6  C   UNL     1     168.461 153.492 148.807  1.00  0.00     0.004 A 
ATOM      7  C   UNL     1     168.169 154.857 148.800  1.00  0.00     0.007 A 
ENDROOT
BRANCH   3   8
ATOM      8  O   UNL     1     164.649 154.769 147.593  1.00  0.00    -0.508 OA
ATOM      9  H   UNL     1     163.842 154.161 147.644  1.00  0.00     0.293 HD
ENDBRANCH   3   8
BRANCH   5  10
ATOM     10  C   UNL     1     167.827 151.072 148.424  1.00  0.00     0.013 C 
ATOM     11  C   UNL     1     168.851 150.726 147.337  1.00  0.00     0.012 C 
ATOM     12  C   UNL     1     168.319 150.626 149.806  1.00  0.00     0.012 C 
ENDBRANCH   5  10
TORSDOF 2
ENDMDL
MODEL 7
REMARK VINA RESULT:    -2.784     14.662     16.525
REMARK INTER + INTRA:          -3.142
REMARK INTER:                  -3.015
REMARK INTRA:                  -0.127
REMARK UNBOUND:                -0.114
REMARK SMILES Cc1ccc(C(C)C)cc1O
REMARK SMILES IDX 1 1 2 2 10 3 9 4 5 5 4 6 3 7 11 8 6 10 7 11 8 12
REMARK H PARENT 11 9
REMARK Flexibility Score: inf
ROOT
ATOM      1  C   UNL     1     162.223 169.779 147.710  1.00  0.00     0.048 C 
ATOM      2  C   UNL     1     163.524 169.129 148.088  1.00  0.00    -0.009 A 
ATOM      3  C   UNL     1     163.687 167.727 148.028  1.00  0.00     0.118 A 
ATOM      4  C   UNL     1     164.912 167.153 148.386  1.00  0.00     0.050 A 
ATOM      5  C   UNL     1     165.990 167.953 148.807  1.00  0.00    -0.042 A 
ATOM      6  C   UNL     1     165.820 169.344 148.864  1.00  0.00     0.004 A 
ATOM      7  C   UNL     1     164.601 169.926 148.508  1.00  0.00     0.007 A 
ENDROOT
BRANCH   3   8
ATOM      8  O   UNL     1     162.655 166.880 147.618  1.00  0.00    -0.508 OA
ATOM      9  H   UNL     1     162.170 166.988 146.736  1.00  0.00     0.293 HD
ENDBRANCH   3   8
BRANCH   5  10
ATOM     10  C   UNL     1     167.320 167.334 149.197  1.00  0.00     0.013 C 
ATOM     11  C   UNL     1     167.973 166.630 148.002  1.00  0.00     0.012 C 
ATOM     12  C   UNL     1     168.262 168.382 149.800  1.00  0.00     0.012 C 
ENDBRANCH   5  10
TORSDOF 2
ENDMDL
MODEL 8
REMARK VINA RESULT:    -2.771     17.533     20.139
REMARK INTER + INTRA:          -3.127
REMARK INTER:                  -2.999
REMARK INTRA:                  -0.128
REMARK UNBOUND:                -0.114
REMARK SMILES Cc1ccc(C(C)C)cc1O
REMARK SMILES IDX 1 1 2 2 10 3 9 4 5 5 4 6 3 7 11 8 6 10 7 11 8 12
REMARK H PARENT 11 9
REMARK Flexibility Score: inf
ROOT
ATOM      1  C   UNL     1     153.489 163.564 148.433  1.00  0.00     0.048 C 
ATOM      2  C   UNL     1     153.074 165.006 148.330  1.00  0.00    -0.009 A 
ATOM      3  C   UNL     1     153.904 165.965 147.710  1.00  0.00     0.118 A 
ATOM      4  C   UNL     1     153.487 167.298 147.629  1.00  0.00     0.050 A 
ATOM      5  C   UNL     1     152.247 167.702 148.159  1.00  0.00    -0.042 A 
ATOM      6  C   UNL     1     151.429 166.742 148.773  1.00  0.00     0.004 A 
ATOM      7  C   UNL     1     151.836 165.409 148.857  1.00  0.00     0.007 A 
ENDROOT
BRANCH   3   8
ATOM      8  O   UNL     1     155.145 165.626 147.166  1.00  0.00    -0.508 OA
ATOM      9  H   UNL     1     155.289 164.811 146.584  1.00  0.00     0.293 HD
ENDBRANCH   3   8
BRANCH   5  10
ATOM     10  C   UNL     1     151.791 169.147 148.073  1.00  0.00     0.013 C 
ATOM     11  C   UNL     1     150.686 169.317 147.025  1.00  0.00     0.012 C 
ATOM     12  C   UNL     1     151.337 169.664 149.443  1.00  0.00     0.012 C 
ENDBRANCH   5  10
TORSDOF 2
ENDMDL
MODEL 9
REMARK VINA RESULT:    -2.719     11.002     13.403
REMARK INTER + INTRA:          -3.071
REMARK INTER:                  -2.943
REMARK INTRA:                  -0.127
REMARK UNBOUND:                -0.114
REMARK SMILES Cc1ccc(C(C)C)cc1O
REMARK SMILES IDX 1 1 2 2 10 3 9 4 5 5 4 6 3 7 11 8 6 10 7 11 8 12
REMARK H PARENT 11 9
REMARK Flexibility Score: inf
ROOT
ATOM      1  C   UNL     1     156.665 153.069 148.452  1.00  0.00     0.048 C 
ATOM      2  C   UNL     1     155.178 152.854 148.407  1.00  0.00    -0.009 A 
ATOM      3  C   UNL     1     154.301 153.879 147.988  1.00  0.00     0.118 A 
ATOM      4  C   UNL     1     152.922 153.646 147.957  1.00  0.00     0.050 A 
ATOM      5  C   UNL     1     152.390 152.400 148.338  1.00  0.00    -0.042 A 
ATOM      6  C   UNL     1     153.268 151.387 148.752  1.00  0.00     0.004 A 
ATOM      7  C   UNL     1     154.646 151.611 148.785  1.00  0.00     0.007 A 
ENDROOT
BRANCH   3   8
ATOM      8  O   UNL     1     154.768 155.137 147.599  1.00  0.00    -0.508 OA
ATOM      9  H   UNL     1     154.155 155.920 147.416  1.00  0.00     0.293 HD
ENDBRANCH   3   8
BRANCH   5  10
ATOM     10  C   UNL     1     150.895 152.143 148.305  1.00  0.00     0.013 C 
ATOM     11  C   UNL     1     150.545 151.040 147.300  1.00  0.00     0.012 C 
ATOM     12  C   UNL     1     150.362 151.804 149.702  1.00  0.00     0.012 C 
ENDBRANCH   5  10
TORSDOF 2
ENDMDL
