MODEL 1
REMARK VINA RESULT:    -4.776      0.000      0.000
REMARK INTER + INTRA:          -7.722
REMARK INTER:                  -7.010
REMARK INTRA:                  -0.712
REMARK UNBOUND:                -0.712
REMARK SMILES O=C([O-])CCCCCCCC(=O)[O-]
REMARK SMILES IDX 7 1 6 2 5 3 4 4 2 5 1 6 3 7 8 8 9 9 10 10 11 11 12 12 13 13
REMARK H PARENT
REMARK Flexibility Score: inf
ROOT
ATOM      1  C   UNL     1      54.894  17.308  -1.039  1.00  0.00     0.000 C 
ENDROOT
BRANCH   1   2
ATOM      2  C   UNL     1      55.677  17.016   0.247  1.00  0.00     0.000 C 
BRANCH   2   3
ATOM      3  C   UNL     1      55.179  17.887   1.406  1.00  0.00     0.006 C 
BRANCH   3   4
ATOM      4  C   UNL     1      54.493  17.034   2.478  1.00  0.00     0.053 C 
BRANCH   4   5
ATOM      5  C   UNL     1      53.029  16.916   2.194  1.00  0.00     0.041 C 
ATOM      6  O   UNL     1      52.551  15.832   1.768  1.00  0.00    -0.550 OA
ATOM      7  O   UNL     1      52.199  18.018   2.352  1.00  0.00    -0.550 OA
ENDBRANCH   4   5
ENDBRANCH   3   4
ENDBRANCH   2   3
ENDBRANCH   1   2
BRANCH   1   8
ATOM      8  C   UNL     1      53.988  16.130  -1.413  1.00  0.00     0.000 C 
BRANCH   8   9
ATOM      9  C   UNL     1      52.648  16.623  -1.978  1.00  0.00     0.006 C 
BRANCH   9  10
ATOM     10  C   UNL     1      52.124  17.860  -1.236  1.00  0.00     0.053 C 
BRANCH  10  11
ATOM     11  C   UNL     1      50.768  18.269  -1.724  1.00  0.00     0.041 C 
ATOM     12  O   UNL     1      50.572  18.468  -2.953  1.00  0.00    -0.550 OA
ATOM     13  O   UNL     1      49.715  18.399  -0.829  1.00  0.00    -0.550 OA
ENDBRANCH  10  11
ENDBRANCH   9  10
ENDBRANCH   8   9
ENDBRANCH   1   8
TORSDOF 8
ENDMDL
MODEL 2
REMARK VINA RESULT:    -4.745      3.187      5.617
REMARK INTER + INTRA:          -7.677
REMARK INTER:                  -6.866
REMARK INTRA:                  -0.811
REMARK UNBOUND:                -0.712
REMARK SMILES O=C([O-])CCCCCCCC(=O)[O-]
REMARK SMILES IDX 7 1 6 2 5 3 4 4 2 5 1 6 3 7 8 8 9 9 10 10 11 11 12 12 13 13
REMARK H PARENT
REMARK Flexibility Score: inf
ROOT
ATOM      1  C   UNL     1      54.846  17.637  -0.730  1.00  0.00     0.000 C 
ENDROOT
BRANCH   1   2
ATOM      2  C   UNL     1      53.491  17.010  -1.084  1.00  0.00     0.000 C 
BRANCH   2   3
ATOM      3  C   UNL     1      53.677  15.683  -1.829  1.00  0.00     0.006 C 
BRANCH   3   4
ATOM      4  C   UNL     1      53.100  14.515  -1.022  1.00  0.00     0.053 C 
BRANCH   4   5
ATOM      5  C   UNL     1      54.085  14.052   0.004  1.00  0.00     0.041 C 
ATOM      6  O   UNL     1      55.049  13.313  -0.330  1.00  0.00    -0.550 OA
ATOM      7  O   UNL     1      53.912  14.395   1.338  1.00  0.00    -0.550 OA
ENDBRANCH   4   5
ENDBRANCH   3   4
ENDBRANCH   2   3
ENDBRANCH   1   2
BRANCH   1   8
ATOM      8  C   UNL     1      55.024  17.743   0.789  1.00  0.00     0.000 C 
BRANCH   8   9
ATOM      9  C   UNL     1      56.314  17.043   1.242  1.00  0.00     0.006 C 
BRANCH   9  10
ATOM     10  C   UNL     1      57.014  16.311   0.088  1.00  0.00     0.053 C 
BRANCH  10  11
ATOM     11  C   UNL     1      58.275  15.641   0.539  1.00  0.00     0.041 C 
ATOM     12  O   UNL     1      59.302  16.326   0.788  1.00  0.00    -0.550 OA
ATOM     13  O   UNL     1      58.307  14.263   0.716  1.00  0.00    -0.550 OA
ENDBRANCH  10  11
ENDBRANCH   9  10
ENDBRANCH   8   9
ENDBRANCH   1   8
TORSDOF 8
ENDMDL
MODEL 3
REMARK VINA RESULT:    -4.734      2.028      4.066
REMARK INTER + INTRA:          -7.661
REMARK INTER:                  -6.976
REMARK INTRA:                  -0.685
REMARK UNBOUND:                -0.712
REMARK SMILES O=C([O-])CCCCCCCC(=O)[O-]
REMARK SMILES IDX 7 1 6 2 5 3 4 4 2 5 1 6 3 7 8 8 9 9 10 10 11 11 12 12 13 13
REMARK H PARENT
REMARK Flexibility Score: inf
ROOT
ATOM      1  C   UNL     1      53.528  15.097   1.640  1.00  0.00     0.000 C 
ENDROOT
BRANCH   1   2
ATOM      2  C   UNL     1      54.101  14.500   0.348  1.00  0.00     0.000 C 
BRANCH   2   3
ATOM      3  C   UNL     1      53.104  14.630  -0.809  1.00  0.00     0.006 C 
BRANCH   3   4
ATOM      4  C   UNL     1      53.616  15.614  -1.866  1.00  0.00     0.053 C 
BRANCH   4   5
ATOM      5  C   UNL     1      53.123  16.996  -1.576  1.00  0.00     0.041 C 
ATOM      6  O   UNL     1      53.919  17.878  -1.157  1.00  0.00    -0.550 OA
ATOM      7  O   UNL     1      51.776  17.299  -1.720  1.00  0.00    -0.550 OA
ENDBRANCH   4   5
ENDBRANCH   3   4
ENDBRANCH   2   3
ENDBRANCH   1   2
BRANCH   1   8
ATOM      8  C   UNL     1      54.204  16.429   1.979  1.00  0.00     0.000 C 
BRANCH   8   9
ATOM      9  C   UNL     1      53.211  17.400   2.636  1.00  0.00     0.006 C 
BRANCH   9  10
ATOM     10  C   UNL     1      51.890  17.494   1.860  1.00  0.00     0.053 C 
BRANCH  10  11
ATOM     11  C   UNL     1      51.008  18.580   2.393  1.00  0.00     0.041 C 
ATOM     12  O   UNL     1      50.478  19.408   1.606  1.00  0.00    -0.550 OA
ATOM     13  O   UNL     1      50.745  18.658   3.755  1.00  0.00    -0.550 OA
ENDBRANCH  10  11
ENDBRANCH   9  10
ENDBRANCH   8   9
ENDBRANCH   1   8
TORSDOF 8
ENDMDL
MODEL 4
REMARK VINA RESULT:    -4.681      0.249      4.350
REMARK INTER + INTRA:          -7.582
REMARK INTER:                  -6.867
REMARK INTRA:                  -0.715
REMARK UNBOUND:                -0.712
REMARK SMILES O=C([O-])CCCCCCCC(=O)[O-]
REMARK SMILES IDX 7 1 6 2 5 3 4 4 2 5 1 6 3 7 8 8 9 9 10 10 11 11 12 12 13 13
REMARK H PARENT
REMARK Flexibility Score: inf
ROOT
ATOM      1  C   UNL     1      54.705  17.574  -1.008  1.00  0.00     0.000 C 
ENDROOT
BRANCH   1   2
ATOM      2  C   UNL     1      53.889  16.337  -1.402  1.00  0.00     0.000 C 
BRANCH   2   3
ATOM      3  C   UNL     1      52.489  16.732  -1.886  1.00  0.00     0.006 C 
BRANCH   3   4
ATOM      4  C   UNL     1      51.990  17.985  -1.159  1.00  0.00     0.053 C 
BRANCH   4   5
ATOM      5  C   UNL     1      50.725  18.483  -1.784  1.00  0.00     0.041 C 
ATOM      6  O   UNL     1      50.602  18.502  -3.037  1.00  0.00    -0.550 OA
ATOM      7  O   UNL     1      49.702  18.975  -0.985  1.00  0.00    -0.550 OA
ENDBRANCH   4   5
ENDBRANCH   3   4
ENDBRANCH   2   3
ENDBRANCH   1   2
BRANCH   1   8
ATOM      8  C   UNL     1      55.654  17.261   0.154  1.00  0.00     0.000 C 
BRANCH   8   9
ATOM      9  C   UNL     1      55.202  17.968   1.440  1.00  0.00     0.006 C 
BRANCH   9  10
ATOM     10  C   UNL     1      54.553  17.000   2.439  1.00  0.00     0.053 C 
BRANCH  10  11
ATOM     11  C   UNL     1      53.074  16.892   2.229  1.00  0.00     0.041 C 
ATOM     12  O   UNL     1      52.335  17.896   2.411  1.00  0.00    -0.550 OA
ATOM     13  O   UNL     1      52.517  15.694   1.802  1.00  0.00    -0.550 OA
ENDBRANCH  10  11
ENDBRANCH   9  10
ENDBRANCH   8   9
ENDBRANCH   1   8
TORSDOF 8
ENDMDL
MODEL 5
REMARK VINA RESULT:    -4.676      3.216      4.805
REMARK INTER + INTRA:          -7.575
REMARK INTER:                  -6.786
REMARK INTRA:                  -0.789
REMARK UNBOUND:                -0.712
REMARK SMILES O=C([O-])CCCCCCCC(=O)[O-]
REMARK SMILES IDX 7 1 6 2 5 3 4 4 2 5 1 6 3 7 8 8 9 9 10 10 11 11 12 12 13 13
REMARK H PARENT
REMARK Flexibility Score: inf
ROOT
ATOM      1  C   UNL     1      54.643  17.715  -0.721  1.00  0.00     0.000 C 
ENDROOT
BRANCH   1   2
ATOM      2  C   UNL     1      54.888  17.632   0.791  1.00  0.00     0.000 C 
BRANCH   2   3
ATOM      3  C   UNL     1      56.316  17.164   1.093  1.00  0.00     0.006 C 
BRANCH   3   4
ATOM      4  C   UNL     1      56.863  16.300  -0.048  1.00  0.00     0.053 C 
BRANCH   4   5
ATOM      5  C   UNL     1      58.141  15.640   0.362  1.00  0.00     0.041 C 
ATOM      6  O   UNL     1      59.044  16.307   0.933  1.00  0.00    -0.550 OA
ATOM      7  O   UNL     1      58.358  14.300   0.068  1.00  0.00    -0.550 OA
ENDBRANCH   4   5
ENDBRANCH   3   4
ENDBRANCH   2   3
ENDBRANCH   1   2
BRANCH   1   8
ATOM      8  C   UNL     1      53.337  17.011  -1.107  1.00  0.00     0.000 C 
BRANCH   8   9
ATOM      9  C   UNL     1      53.618  15.646  -1.753  1.00  0.00     0.006 C 
BRANCH   9  10
ATOM     10  C   UNL     1      53.087  14.482  -0.906  1.00  0.00     0.053 C 
BRANCH  10  11
ATOM     11  C   UNL     1      54.114  13.988   0.066  1.00  0.00     0.041 C 
ATOM     12  O   UNL     1      54.026  14.288   1.287  1.00  0.00    -0.550 OA
ATOM     13  O   UNL     1      55.149  13.170  -0.369  1.00  0.00    -0.550 OA
ENDBRANCH  10  11
ENDBRANCH   9  10
ENDBRANCH   8   9
ENDBRANCH   1   8
TORSDOF 8
ENDMDL
MODEL 6
REMARK VINA RESULT:    -4.669      3.537      5.394
REMARK INTER + INTRA:          -7.565
REMARK INTER:                  -6.745
REMARK INTRA:                  -0.819
REMARK UNBOUND:                -0.712
REMARK SMILES O=C([O-])CCCCCCCC(=O)[O-]
REMARK SMILES IDX 7 1 6 2 5 3 4 4 2 5 1 6 3 7 8 8 9 9 10 10 11 11 12 12 13 13
REMARK H PARENT
REMARK Flexibility Score: inf
ROOT
ATOM      1  C   UNL     1      53.001  15.185   1.209  1.00  0.00     0.000 C 
ENDROOT
BRANCH   1   2
ATOM      2  C   UNL     1      53.179  15.026  -0.306  1.00  0.00     0.000 C 
BRANCH   2   3
ATOM      3  C   UNL     1      54.146  13.881  -0.630  1.00  0.00     0.006 C 
BRANCH   3   4
ATOM      4  C   UNL     1      55.100  13.622   0.540  1.00  0.00     0.053 C 
BRANCH   4   5
ATOM      5  C   UNL     1      56.291  12.841   0.080  1.00  0.00     0.041 C 
ATOM      6  O   UNL     1      57.376  13.429  -0.168  1.00  0.00    -0.550 OA
ATOM      7  O   UNL     1      56.189  11.472  -0.121  1.00  0.00    -0.550 OA
ENDBRANCH   4   5
ENDBRANCH   3   4
ENDBRANCH   2   3
ENDBRANCH   1   2
BRANCH   1   8
ATOM      8  C   UNL     1      53.148  16.652   1.630  1.00  0.00     0.000 C 
BRANCH   8   9
ATOM      9  C   UNL     1      54.512  16.901   2.291  1.00  0.00     0.006 C 
BRANCH   9  10
ATOM     10  C   UNL     1      55.387  17.862   1.475  1.00  0.00     0.053 C 
BRANCH  10  11
ATOM     11  C   UNL     1      56.257  17.130   0.500  1.00  0.00     0.041 C 
ATOM     12  O   UNL     1      55.961  17.115  -0.724  1.00  0.00    -0.550 OA
ATOM     13  O   UNL     1      57.411  16.494   0.938  1.00  0.00    -0.550 OA
ENDBRANCH  10  11
ENDBRANCH   9  10
ENDBRANCH   8   9
ENDBRANCH   1   8
TORSDOF 8
ENDMDL
MODEL 7
REMARK VINA RESULT:    -4.636      3.724      5.598
REMARK INTER + INTRA:          -7.517
REMARK INTER:                  -6.767
REMARK INTRA:                  -0.750
REMARK UNBOUND:                -0.712
REMARK SMILES O=C([O-])CCCCCCCC(=O)[O-]
REMARK SMILES IDX 7 1 6 2 5 3 4 4 2 5 1 6 3 7 8 8 9 9 10 10 11 11 12 12 13 13
REMARK H PARENT
REMARK Flexibility Score: inf
ROOT
ATOM      1  C   UNL     1      53.572  14.789   1.470  1.00  0.00     0.000 C 
ENDROOT
BRANCH   1   2
ATOM      2  C   UNL     1      53.369  16.283   1.749  1.00  0.00     0.000 C 
BRANCH   2   3
ATOM      3  C   UNL     1      54.624  16.902   2.375  1.00  0.00     0.006 C 
BRANCH   3   4
ATOM      4  C   UNL     1      55.302  17.871   1.400  1.00  0.00     0.053 C 
BRANCH   4   5
ATOM      5  C   UNL     1      56.230  17.132   0.489  1.00  0.00     0.041 C 
ATOM      6  O   UNL     1      55.930  16.967  -0.723  1.00  0.00    -0.550 OA
ATOM      7  O   UNL     1      57.404  16.583   0.987  1.00  0.00    -0.550 OA
ENDBRANCH   4   5
ENDBRANCH   3   4
ENDBRANCH   2   3
ENDBRANCH   1   2
BRANCH   1   8
ATOM      8  C   UNL     1      53.596  14.508  -0.037  1.00  0.00     0.000 C 
BRANCH   8   9
ATOM      9  C   UNL     1      54.577  13.374  -0.371  1.00  0.00     0.006 C 
BRANCH   9  10
ATOM     10  C   UNL     1      55.820  13.397   0.530  1.00  0.00     0.053 C 
BRANCH  10  11
ATOM     11  C   UNL     1      57.018  12.822  -0.161  1.00  0.00     0.041 C 
ATOM     12  O   UNL     1      56.970  11.662  -0.649  1.00  0.00    -0.550 OA
ATOM     13  O   UNL     1      58.175  13.578  -0.294  1.00  0.00    -0.550 OA
ENDBRANCH  10  11
ENDBRANCH   9  10
ENDBRANCH   8   9
ENDBRANCH   1   8
TORSDOF 8
ENDMDL
MODEL 8
REMARK VINA RESULT:    -4.595      2.012      2.859
REMARK INTER + INTRA:          -7.457
REMARK INTER:                  -6.694
REMARK INTRA:                  -0.763
REMARK UNBOUND:                -0.712
REMARK SMILES O=C([O-])CCCCCCCC(=O)[O-]
REMARK SMILES IDX 7 1 6 2 5 3 4 4 2 5 1 6 3 7 8 8 9 9 10 10 11 11 12 12 13 13
REMARK H PARENT
REMARK Flexibility Score: inf
ROOT
ATOM      1  C   UNL     1      53.438  15.170   1.636  1.00  0.00     0.000 C 
ENDROOT
BRANCH   1   2
ATOM      2  C   UNL     1      54.148  16.444   2.113  1.00  0.00     0.000 C 
BRANCH   2   3
ATOM      3  C   UNL     1      53.166  17.617   2.213  1.00  0.00     0.006 C 
BRANCH   3   4
ATOM      4  C   UNL     1      51.758  17.191   1.785  1.00  0.00     0.053 C 
BRANCH   4   5
ATOM      5  C   UNL     1      50.751  18.213   2.211  1.00  0.00     0.041 C 
ATOM      6  O   UNL     1      49.971  18.725   1.365  1.00  0.00    -0.550 OA
ATOM      7  O   UNL     1      50.706  18.637   3.532  1.00  0.00    -0.550 OA
ENDBRANCH   4   5
ENDBRANCH   3   4
ENDBRANCH   2   3
ENDBRANCH   1   2
BRANCH   1   8
ATOM      8  C   UNL     1      54.117  14.596   0.387  1.00  0.00     0.000 C 
BRANCH   8   9
ATOM      9  C   UNL     1      53.138  14.535  -0.794  1.00  0.00     0.006 C 
BRANCH   9  10
ATOM     10  C   UNL     1      53.513  15.517  -1.912  1.00  0.00     0.053 C 
BRANCH  10  11
ATOM     11  C   UNL     1      53.070  16.913  -1.599  1.00  0.00     0.041 C 
ATOM     12  O   UNL     1      53.909  17.773  -1.220  1.00  0.00    -0.550 OA
ATOM     13  O   UNL     1      51.737  17.273  -1.757  1.00  0.00    -0.550 OA
ENDBRANCH  10  11
ENDBRANCH   9  10
ENDBRANCH   8   9
ENDBRANCH   1   8
TORSDOF 8
ENDMDL
MODEL 9
REMARK VINA RESULT:    -4.542      3.302      4.971
REMARK INTER + INTRA:          -7.378
REMARK INTER:                  -6.804
REMARK INTRA:                  -0.574
REMARK UNBOUND:                -0.712
REMARK SMILES O=C([O-])CCCCCCCC(=O)[O-]
REMARK SMILES IDX 7 1 6 2 5 3 4 4 2 5 1 6 3 7 8 8 9 9 10 10 11 11 12 12 13 13
REMARK H PARENT
REMARK Flexibility Score: inf
ROOT
ATOM      1  C   UNL     1      53.571  15.295  -1.834  1.00  0.00     0.000 C 
ENDROOT
BRANCH   1   2
ATOM      2  C   UNL     1      53.244  14.417  -0.620  1.00  0.00     0.000 C 
BRANCH   2   3
ATOM      3  C   UNL     1      54.333  13.362  -0.394  1.00  0.00     0.006 C 
BRANCH   3   4
ATOM      4  C   UNL     1      55.522  13.955   0.367  1.00  0.00     0.053 C 
BRANCH   4   5
ATOM      5  C   UNL     1      56.690  13.021   0.322  1.00  0.00     0.041 C 
ATOM      6  O   UNL     1      56.506  11.781   0.212  1.00  0.00    -0.550 OA
ATOM      7  O   UNL     1      57.981  13.515   0.453  1.00  0.00    -0.550 OA
ENDBRANCH   4   5
ENDBRANCH   3   4
ENDBRANCH   2   3
ENDBRANCH   1   2
BRANCH   1   8
ATOM      8  C   UNL     1      52.870  16.655  -1.736  1.00  0.00     0.000 C 
BRANCH   8   9
ATOM      9  C   UNL     1      53.367  17.443  -0.515  1.00  0.00     0.006 C 
BRANCH   9  10
ATOM     10  C   UNL     1      54.889  17.640  -0.530  1.00  0.00     0.053 C 
BRANCH  10  11
ATOM     11  C   UNL     1      55.468  17.606   0.851  1.00  0.00     0.041 C 
ATOM     12  O   UNL     1      54.753  17.905   1.844  1.00  0.00    -0.550 OA
ATOM     13  O   UNL     1      56.786  17.214   1.045  1.00  0.00    -0.550 OA
ENDBRANCH  10  11
ENDBRANCH   9  10
ENDBRANCH   8   9
ENDBRANCH   1   8
TORSDOF 8
ENDMDL
