MODEL 1
REMARK VINA RESULT:    -3.483      0.000      0.000
REMARK INTER + INTRA:          -4.421
REMARK INTER:                  -4.298
REMARK INTRA:                  -0.123
REMARK UNBOUND:                -0.123
REMARK SMILES C=CC[C@H](C)C(=O)CC
REMARK SMILES IDX 4 1 5 2 6 3 7 4 8 5 9 6 3 7 2 8 1 9
REMARK H PARENT
REMARK Flexibility Score: inf
ROOT
ATOM      1  C   UNL     1       4.593  38.253  93.187  1.00  0.00     0.057 C 
ATOM      2  C   UNL     1       3.832  37.199  92.374  1.00  0.00     0.016 C 
ENDROOT
BRANCH   1   3
ATOM      3  C   UNL     1       5.655  38.928  92.341  1.00  0.00     0.135 C 
ATOM      4  O   UNL     1       6.595  38.275  91.908  1.00  0.00    -0.299 OA
BRANCH   3   5
ATOM      5  C   UNL     1       5.571  40.395  92.007  1.00  0.00     0.072 C 
ATOM      6  C   UNL     1       6.807  40.845  91.237  1.00  0.00     0.012 C 
ENDBRANCH   3   5
ENDBRANCH   1   3
BRANCH   1   7
ATOM      7  C   UNL     1       5.183  37.684  94.496  1.00  0.00     0.038 C 
BRANCH   7   8
ATOM      8  C   UNL     1       4.144  37.312  95.523  1.00  0.00    -0.034 C 
ATOM      9  C   UNL     1       3.870  36.040  95.824  1.00  0.00     0.004 C 
ENDBRANCH   7   8
ENDBRANCH   1   7
TORSDOF 4
ENDMDL
MODEL 2
REMARK VINA RESULT:    -3.460      1.081      4.366
REMARK INTER + INTRA:          -4.392
REMARK INTER:                  -4.208
REMARK INTRA:                  -0.184
REMARK UNBOUND:                -0.123
REMARK SMILES C=CC[C@H](C)C(=O)CC
REMARK SMILES IDX 4 1 5 2 6 3 7 4 8 5 9 6 3 7 2 8 1 9
REMARK H PARENT
REMARK Flexibility Score: inf
ROOT
ATOM      1  C   UNL     1       4.922  38.145  92.711  1.00  0.00     0.057 C 
ATOM      2  C   UNL     1       3.518  37.735  92.248  1.00  0.00     0.016 C 
ENDROOT
BRANCH   1   3
ATOM      3  C   UNL     1       5.207  37.621  94.105  1.00  0.00     0.135 C 
ATOM      4  O   UNL     1       6.313  37.171  94.372  1.00  0.00    -0.299 OA
BRANCH   3   5
ATOM      5  C   UNL     1       4.155  37.657  95.183  1.00  0.00     0.072 C 
ATOM      6  C   UNL     1       3.857  36.251  95.693  1.00  0.00     0.012 C 
ENDBRANCH   3   5
ENDBRANCH   1   3
BRANCH   1   7
ATOM      7  C   UNL     1       5.160  39.668  92.614  1.00  0.00     0.038 C 
BRANCH   7   8
ATOM      8  C   UNL     1       6.351  40.046  91.770  1.00  0.00    -0.034 C 
ATOM      9  C   UNL     1       6.466  41.254  91.210  1.00  0.00     0.004 C 
ENDBRANCH   7   8
ENDBRANCH   1   7
TORSDOF 4
ENDMDL
MODEL 3
REMARK VINA RESULT:    -2.955      1.969      2.890
REMARK INTER + INTRA:          -3.769
REMARK INTER:                  -3.368
REMARK INTRA:                  -0.401
REMARK UNBOUND:                -0.123
REMARK SMILES C=CC[C@H](C)C(=O)CC
REMARK SMILES IDX 4 1 5 2 6 3 7 4 8 5 9 6 3 7 2 8 1 9
REMARK H PARENT
REMARK Flexibility Score: inf
ROOT
ATOM      1  C   UNL     1       5.512  37.768  93.829  1.00  0.00     0.057 C 
ATOM      2  C   UNL     1       4.709  37.630  95.129  1.00  0.00     0.016 C 
ENDROOT
BRANCH   1   3
ATOM      3  C   UNL     1       4.759  38.603  92.812  1.00  0.00     0.135 C 
ATOM      4  O   UNL     1       3.809  38.119  92.211  1.00  0.00    -0.299 OA
BRANCH   3   5
ATOM      5  C   UNL     1       5.148  40.031  92.533  1.00  0.00     0.072 C 
ATOM      6  C   UNL     1       6.354  40.091  91.603  1.00  0.00     0.012 C 
ENDBRANCH   3   5
ENDBRANCH   1   3
BRANCH   1   7
ATOM      7  C   UNL     1       5.937  36.403  93.244  1.00  0.00     0.038 C 
BRANCH   7   8
ATOM      8  C   UNL     1       7.026  36.496  92.206  1.00  0.00    -0.034 C 
ATOM      9  C   UNL     1       8.316  36.601  92.541  1.00  0.00     0.004 C 
ENDBRANCH   7   8
ENDBRANCH   1   7
TORSDOF 4
ENDMDL
MODEL 4
REMARK VINA RESULT:    -2.816      1.851      2.719
REMARK INTER + INTRA:          -3.598
REMARK INTER:                  -3.167
REMARK INTRA:                  -0.431
REMARK UNBOUND:                -0.123
REMARK SMILES C=CC[C@H](C)C(=O)CC
REMARK SMILES IDX 4 1 5 2 6 3 7 4 8 5 9 6 3 7 2 8 1 9
REMARK H PARENT
REMARK Flexibility Score: inf
ROOT
ATOM      1  C   UNL     1       5.158  38.071  93.605  1.00  0.00     0.057 C 
ATOM      2  C   UNL     1       5.156  39.463  92.960  1.00  0.00     0.016 C 
ENDROOT
BRANCH   1   3
ATOM      3  C   UNL     1       4.822  37.000  92.586  1.00  0.00     0.135 C 
ATOM      4  O   UNL     1       3.711  36.974  92.074  1.00  0.00    -0.299 OA
BRANCH   3   5
ATOM      5  C   UNL     1       5.839  35.967  92.175  1.00  0.00     0.072 C 
ATOM      6  C   UNL     1       7.253  36.522  92.303  1.00  0.00     0.012 C 
ENDBRANCH   3   5
ENDBRANCH   1   3
BRANCH   1   7
ATOM      7  C   UNL     1       4.240  37.988  94.845  1.00  0.00     0.038 C 
BRANCH   7   8
ATOM      8  C   UNL     1       4.382  36.705  95.624  1.00  0.00    -0.034 C 
ATOM      9  C   UNL     1       5.501  36.402  96.290  1.00  0.00     0.004 C 
ENDBRANCH   7   8
ENDBRANCH   1   7
TORSDOF 4
ENDMDL
MODEL 5
REMARK VINA RESULT:    -2.765     14.968     16.614
REMARK INTER + INTRA:          -3.534
REMARK INTER:                  -3.139
REMARK INTRA:                  -0.395
REMARK UNBOUND:                -0.123
REMARK SMILES C=CC[C@H](C)C(=O)CC
REMARK SMILES IDX 4 1 5 2 6 3 7 4 8 5 9 6 3 7 2 8 1 9
REMARK H PARENT
REMARK Flexibility Score: inf
ROOT
ATOM      1  C   UNL     1      20.200  40.627  90.336  1.00  0.00     0.057 C 
ATOM      2  C   UNL     1      19.720  39.934  91.618  1.00  0.00     0.016 C 
ENDROOT
BRANCH   1   3
ATOM      3  C   UNL     1      20.490  39.613  89.247  1.00  0.00     0.135 C 
ATOM      4  O   UNL     1      19.736  38.663  89.084  1.00  0.00    -0.299 OA
BRANCH   3   5
ATOM      5  C   UNL     1      21.686  39.758  88.343  1.00  0.00     0.072 C 
ATOM      6  C   UNL     1      21.290  40.410  87.023  1.00  0.00     0.012 C 
ENDBRANCH   3   5
ENDBRANCH   1   3
BRANCH   1   7
ATOM      7  C   UNL     1      21.406  41.561  90.582  1.00  0.00     0.038 C 
BRANCH   7   8
ATOM      8  C   UNL     1      21.152  42.998  90.204  1.00  0.00    -0.034 C 
ATOM      9  C   UNL     1      21.448  43.474  88.991  1.00  0.00     0.004 C 
ENDBRANCH   7   8
ENDBRANCH   1   7
TORSDOF 4
ENDMDL
MODEL 6
REMARK VINA RESULT:    -2.763     14.299     16.792
REMARK INTER + INTRA:          -3.532
REMARK INTER:                  -3.237
REMARK INTRA:                  -0.295
REMARK UNBOUND:                -0.123
REMARK SMILES C=CC[C@H](C)C(=O)CC
REMARK SMILES IDX 4 1 5 2 6 3 7 4 8 5 9 6 3 7 2 8 1 9
REMARK H PARENT
REMARK Flexibility Score: inf
ROOT
ATOM      1  C   UNL     1      21.576  40.056  88.627  1.00  0.00     0.057 C 
ATOM      2  C   UNL     1      21.298  40.415  87.162  1.00  0.00     0.016 C 
ENDROOT
BRANCH   1   3
ATOM      3  C   UNL     1      20.323  39.534  89.304  1.00  0.00     0.135 C 
ATOM      4  O   UNL     1      19.752  38.550  88.853  1.00  0.00    -0.299 OA
BRANCH   3   5
ATOM      5  C   UNL     1      19.770  40.197  90.538  1.00  0.00     0.072 C 
ATOM      6  C   UNL     1      18.656  39.355  91.150  1.00  0.00     0.012 C 
ENDBRANCH   3   5
ENDBRANCH   1   3
BRANCH   1   7
ATOM      7  C   UNL     1      22.207  41.223  89.417  1.00  0.00     0.038 C 
BRANCH   7   8
ATOM      8  C   UNL     1      22.113  42.555  88.716  1.00  0.00    -0.034 C 
ATOM      9  C   UNL     1      21.287  43.518  89.137  1.00  0.00     0.004 C 
ENDBRANCH   7   8
ENDBRANCH   1   7
TORSDOF 4
ENDMDL
MODEL 7
REMARK VINA RESULT:    -2.698      1.789      2.400
REMARK INTER + INTRA:          -3.452
REMARK INTER:                  -3.262
REMARK INTRA:                  -0.190
REMARK UNBOUND:                -0.123
REMARK SMILES C=CC[C@H](C)C(=O)CC
REMARK SMILES IDX 4 1 5 2 6 3 7 4 8 5 9 6 3 7 2 8 1 9
REMARK H PARENT
REMARK Flexibility Score: inf
ROOT
ATOM      1  C   UNL     1       5.342  37.773  94.510  1.00  0.00     0.057 C 
ATOM      2  C   UNL     1       4.057  37.729  95.345  1.00  0.00     0.016 C 
ENDROOT
BRANCH   1   3
ATOM      3  C   UNL     1       5.040  38.129  93.067  1.00  0.00     0.135 C 
ATOM      4  O   UNL     1       3.924  37.924  92.610  1.00  0.00    -0.299 OA
BRANCH   3   5
ATOM      5  C   UNL     1       6.088  38.750  92.181  1.00  0.00     0.072 C 
ATOM      6  C   UNL     1       5.805  40.232  91.966  1.00  0.00     0.012 C 
ENDBRANCH   3   5
ENDBRANCH   1   3
BRANCH   1   7
ATOM      7  C   UNL     1       6.166  36.470  94.615  1.00  0.00     0.038 C 
BRANCH   7   8
ATOM      8  C   UNL     1       7.352  36.571  95.540  1.00  0.00    -0.034 C 
ATOM      9  C   UNL     1       7.210  36.654  96.866  1.00  0.00     0.004 C 
ENDBRANCH   7   8
ENDBRANCH   1   7
TORSDOF 4
ENDMDL
MODEL 8
REMARK VINA RESULT:    -2.671     15.372     17.461
REMARK INTER + INTRA:          -3.419
REMARK INTER:                  -2.961
REMARK INTRA:                  -0.457
REMARK UNBOUND:                -0.123
REMARK SMILES C=CC[C@H](C)C(=O)CC
REMARK SMILES IDX 4 1 5 2 6 3 7 4 8 5 9 6 3 7 2 8 1 9
REMARK H PARENT
REMARK Flexibility Score: inf
ROOT
ATOM      1  C   UNL     1      21.450  42.310  89.382  1.00  0.00     0.057 C 
ATOM      2  C   UNL     1      21.330  43.761  88.899  1.00  0.00     0.016 C 
ENDROOT
BRANCH   1   3
ATOM      3  C   UNL     1      21.380  42.235  90.895  1.00  0.00     0.135 C 
ATOM      4  O   UNL     1      21.866  43.131  91.572  1.00  0.00    -0.299 OA
BRANCH   3   5
ATOM      5  C   UNL     1      20.706  41.080  91.588  1.00  0.00     0.072 C 
ATOM      6  C   UNL     1      19.659  40.443  90.682  1.00  0.00     0.012 C 
ENDBRANCH   3   5
ENDBRANCH   1   3
BRANCH   1   7
ATOM      7  C   UNL     1      22.708  41.602  88.833  1.00  0.00     0.038 C 
BRANCH   7   8
ATOM      8  C   UNL     1      22.405  40.456  87.902  1.00  0.00    -0.034 C 
ATOM      9  C   UNL     1      21.309  40.436  87.138  1.00  0.00     0.004 C 
ENDBRANCH   7   8
ENDBRANCH   1   7
TORSDOF 4
ENDMDL
MODEL 9
REMARK VINA RESULT:    -2.652     15.031     17.020
REMARK INTER + INTRA:          -3.395
REMARK INTER:                  -2.990
REMARK INTRA:                  -0.405
REMARK UNBOUND:                -0.123
REMARK SMILES C=CC[C@H](C)C(=O)CC
REMARK SMILES IDX 4 1 5 2 6 3 7 4 8 5 9 6 3 7 2 8 1 9
REMARK H PARENT
REMARK Flexibility Score: inf
ROOT
ATOM      1  C   UNL     1      21.824  42.600  90.860  1.00  0.00     0.057 C 
ATOM      2  C   UNL     1      22.378  43.886  91.488  1.00  0.00     0.016 C 
ENDROOT
BRANCH   1   3
ATOM      3  C   UNL     1      21.817  42.695  89.347  1.00  0.00     0.135 C 
ATOM      4  O   UNL     1      21.233  43.619  88.797  1.00  0.00    -0.299 OA
BRANCH   3   5
ATOM      5  C   UNL     1      22.531  41.675  88.499  1.00  0.00     0.072 C 
ATOM      6  C   UNL     1      21.533  40.749  87.812  1.00  0.00     0.012 C 
ENDBRANCH   3   5
ENDBRANCH   1   3
BRANCH   1   7
ATOM      7  C   UNL     1      20.433  42.219  91.415  1.00  0.00     0.038 C 
BRANCH   7   8
ATOM      8  C   UNL     1      20.221  40.733  91.561  1.00  0.00    -0.034 C 
ATOM      9  C   UNL     1      19.348  40.065  90.802  1.00  0.00     0.004 C 
ENDBRANCH   7   8
ENDBRANCH   1   7
TORSDOF 4
ENDMDL
