MODEL 1
REMARK VINA RESULT:    -2.331      0.000      0.000
REMARK INTER + INTRA:          -3.053
REMARK INTER:                  -2.944
REMARK INTRA:                  -0.109
REMARK UNBOUND:                -0.109
REMARK SMILES CCCCCCO
REMARK SMILES IDX 4 1 3 2 2 3 1 4 5 5 6 6 7 7
REMARK H PARENT 7 8
REMARK Flexibility Score: inf
ROOT
ATOM      1  C   UNL     1     128.222 125.357 115.017  1.00  0.00     0.002 C 
ENDROOT
BRANCH   1   2
ATOM      2  C   UNL     1     127.895 126.760 115.549  1.00  0.00    -0.000 C 
BRANCH   2   3
ATOM      3  C   UNL     1     127.891 126.822 117.084  1.00  0.00    -0.003 C 
ATOM      4  C   UNL     1     126.804 127.742 117.637  1.00  0.00     0.004 C 
ENDBRANCH   2   3
ENDBRANCH   1   2
BRANCH   1   5
ATOM      5  C   UNL     1     128.652 124.425 116.157  1.00  0.00     0.028 C 
BRANCH   5   6
ATOM      6  C   UNL     1     128.501 122.952 115.774  1.00  0.00     0.156 C 
BRANCH   6   7
ATOM      7  O   UNL     1     127.198 122.701 115.326  1.00  0.00    -0.396 OA
ATOM      8  H   UNL     1     127.292 122.188 114.481  1.00  0.00     0.210 HD
ENDBRANCH   6   7
ENDBRANCH   5   6
ENDBRANCH   1   5
TORSDOF 5
ENDMDL
MODEL 2
REMARK VINA RESULT:    -2.328     11.785     13.523
REMARK INTER + INTRA:          -3.049
REMARK INTER:                  -2.979
REMARK INTRA:                  -0.070
REMARK UNBOUND:                -0.109
REMARK SMILES CCCCCCO
REMARK SMILES IDX 4 1 3 2 2 3 1 4 5 5 6 6 7 7
REMARK H PARENT 7 8
REMARK Flexibility Score: inf
ROOT
ATOM      1  C   UNL     1     127.112 110.865 117.035  1.00  0.00     0.002 C 
ENDROOT
BRANCH   1   2
ATOM      2  C   UNL     1     127.106 112.004 118.066  1.00  0.00    -0.000 C 
BRANCH   2   3
ATOM      3  C   UNL     1     128.368 112.876 117.987  1.00  0.00    -0.003 C 
ATOM      4  C   UNL     1     128.193 114.234 118.666  1.00  0.00     0.004 C 
ENDBRANCH   2   3
ENDBRANCH   1   2
BRANCH   1   5
ATOM      5  C   UNL     1     126.757 111.390 115.637  1.00  0.00     0.028 C 
BRANCH   5   6
ATOM      6  C   UNL     1     125.465 110.765 115.107  1.00  0.00     0.156 C 
BRANCH   6   7
ATOM      7  O   UNL     1     124.507 111.761 114.876  1.00  0.00    -0.396 OA
ATOM      8  H   UNL     1     123.701 111.292 114.535  1.00  0.00     0.210 HD
ENDBRANCH   6   7
ENDBRANCH   5   6
ENDBRANCH   1   5
TORSDOF 5
ENDMDL
MODEL 3
REMARK VINA RESULT:    -2.298     14.843     16.057
REMARK INTER + INTRA:          -3.011
REMARK INTER:                  -2.973
REMARK INTRA:                  -0.038
REMARK UNBOUND:                -0.109
REMARK SMILES CCCCCCO
REMARK SMILES IDX 4 1 3 2 2 3 1 4 5 5 6 6 7 7
REMARK H PARENT 7 8
REMARK Flexibility Score: inf
ROOT
ATOM      1  C   UNL     1     111.681 127.534 116.906  1.00  0.00     0.002 C 
ENDROOT
BRANCH   1   2
ATOM      2  C   UNL     1     111.706 126.716 118.206  1.00  0.00    -0.000 C 
BRANCH   2   3
ATOM      3  C   UNL     1     110.578 125.674 118.267  1.00  0.00    -0.003 C 
ATOM      4  C   UNL     1     111.061 124.306 118.749  1.00  0.00     0.004 C 
ENDBRANCH   2   3
ENDBRANCH   1   2
BRANCH   1   5
ATOM      5  C   UNL     1     113.056 128.155 116.623  1.00  0.00     0.028 C 
BRANCH   5   6
ATOM      6  C   UNL     1     113.428 128.060 115.143  1.00  0.00     0.156 C 
BRANCH   6   7
ATOM      7  O   UNL     1     114.677 127.440 114.999  1.00  0.00    -0.396 OA
ATOM      8  H   UNL     1     115.168 127.613 115.844  1.00  0.00     0.210 HD
ENDBRANCH   6   7
ENDBRANCH   5   6
ENDBRANCH   1   5
TORSDOF 5
ENDMDL
MODEL 4
REMARK VINA RESULT:    -2.295      1.543      2.620
REMARK INTER + INTRA:          -3.008
REMARK INTER:                  -2.969
REMARK INTRA:                  -0.039
REMARK UNBOUND:                -0.109
REMARK SMILES CCCCCCO
REMARK SMILES IDX 4 1 3 2 2 3 1 4 5 5 6 6 7 7
REMARK H PARENT 7 8
REMARK Flexibility Score: inf
ROOT
ATOM      1  C   UNL     1     127.468 127.351 116.884  1.00  0.00     0.002 C 
ENDROOT
BRANCH   1   2
ATOM      2  C   UNL     1     126.775 127.416 118.254  1.00  0.00    -0.000 C 
BRANCH   2   3
ATOM      3  C   UNL     1     125.745 128.552 118.340  1.00  0.00    -0.003 C 
ATOM      4  C   UNL     1     124.360 128.065 118.764  1.00  0.00     0.004 C 
ENDBRANCH   2   3
ENDBRANCH   1   2
BRANCH   1   5
ATOM      5  C   UNL     1     128.158 125.995 116.682  1.00  0.00     0.028 C 
BRANCH   5   6
ATOM      6  C   UNL     1     128.275 125.632 115.201  1.00  0.00     0.156 C 
BRANCH   6   7
ATOM      7  O   UNL     1     127.350 124.631 114.876  1.00  0.00    -0.396 OA
ATOM      8  H   UNL     1     127.814 124.023 114.243  1.00  0.00     0.210 HD
ENDBRANCH   6   7
ENDBRANCH   5   6
ENDBRANCH   1   5
TORSDOF 5
ENDMDL
MODEL 5
REMARK VINA RESULT:    -2.279     14.223     15.443
REMARK INTER + INTRA:          -2.987
REMARK INTER:                  -2.906
REMARK INTRA:                  -0.081
REMARK UNBOUND:                -0.109
REMARK SMILES CCCCCCO
REMARK SMILES IDX 4 1 3 2 2 3 1 4 5 5 6 6 7 7
REMARK H PARENT 7 8
REMARK Flexibility Score: inf
ROOT
ATOM      1  C   UNL     1     112.296 127.927 115.608  1.00  0.00     0.002 C 
ENDROOT
BRANCH   1   2
ATOM      2  C   UNL     1     112.406 128.010 117.138  1.00  0.00    -0.000 C 
BRANCH   2   3
ATOM      3  C   UNL     1     111.086 127.662 117.844  1.00  0.00    -0.003 C 
ATOM      4  C   UNL     1     110.927 126.163 118.095  1.00  0.00     0.004 C 
ENDBRANCH   2   3
ENDBRANCH   1   2
BRANCH   1   5
ATOM      5  C   UNL     1     113.499 128.601 114.935  1.00  0.00     0.028 C 
BRANCH   5   6
ATOM      6  C   UNL     1     114.751 128.535 115.812  1.00  0.00     0.156 C 
BRANCH   6   7
ATOM      7  O   UNL     1     115.613 127.533 115.347  1.00  0.00    -0.396 OA
ATOM      8  H   UNL     1     115.145 127.099 114.587  1.00  0.00     0.210 HD
ENDBRANCH   6   7
ENDBRANCH   5   6
ENDBRANCH   1   5
TORSDOF 5
ENDMDL
MODEL 6
REMARK VINA RESULT:    -2.267     11.600     12.885
REMARK INTER + INTRA:          -2.972
REMARK INTER:                  -2.867
REMARK INTRA:                  -0.105
REMARK UNBOUND:                -0.109
REMARK SMILES CCCCCCO
REMARK SMILES IDX 4 1 3 2 2 3 1 4 5 5 6 6 7 7
REMARK H PARENT 7 8
REMARK Flexibility Score: inf
ROOT
ATOM      1  C   UNL     1     128.545 111.689 118.136  1.00  0.00     0.002 C 
ENDROOT
BRANCH   1   2
ATOM      2  C   UNL     1     129.251 112.993 118.537  1.00  0.00    -0.000 C 
BRANCH   2   3
ATOM      3  C   UNL     1     128.299 114.199 118.550  1.00  0.00    -0.003 C 
ATOM      4  C   UNL     1     128.111 114.791 119.946  1.00  0.00     0.004 C 
ENDBRANCH   2   3
ENDBRANCH   1   2
BRANCH   1   5
ATOM      5  C   UNL     1     127.244 111.982 117.375  1.00  0.00     0.028 C 
BRANCH   5   6
ATOM      6  C   UNL     1     126.981 110.948 116.280  1.00  0.00     0.156 C 
BRANCH   6   7
ATOM      7  O   UNL     1     126.865 111.581 115.036  1.00  0.00    -0.396 OA
ATOM      8  H   UNL     1     125.895 111.593 114.823  1.00  0.00     0.210 HD
ENDBRANCH   6   7
ENDBRANCH   5   6
ENDBRANCH   1   5
TORSDOF 5
ENDMDL
MODEL 7
REMARK VINA RESULT:    -2.264     13.567     14.784
REMARK INTER + INTRA:          -2.969
REMARK INTER:                  -2.873
REMARK INTRA:                  -0.095
REMARK UNBOUND:                -0.109
REMARK SMILES CCCCCCO
REMARK SMILES IDX 4 1 3 2 2 3 1 4 5 5 6 6 7 7
REMARK H PARENT 7 8
REMARK Flexibility Score: inf
ROOT
ATOM      1  C   UNL     1     113.550 128.404 114.922  1.00  0.00     0.002 C 
ENDROOT
BRANCH   1   2
ATOM      2  C   UNL     1     112.198 129.102 115.134  1.00  0.00    -0.000 C 
BRANCH   2   3
ATOM      3  C   UNL     1     111.653 128.912 116.558  1.00  0.00    -0.003 C 
ATOM      4  C   UNL     1     111.819 127.482 117.070  1.00  0.00     0.004 C 
ENDBRANCH   2   3
ENDBRANCH   1   2
BRANCH   1   5
ATOM      5  C   UNL     1     114.705 129.411 115.001  1.00  0.00     0.028 C 
BRANCH   5   6
ATOM      6  C   UNL     1     115.949 128.800 115.649  1.00  0.00     0.156 C 
BRANCH   6   7
ATOM      7  O   UNL     1     116.005 127.426 115.382  1.00  0.00    -0.396 OA
ATOM      8  H   UNL     1     116.398 127.005 116.191  1.00  0.00     0.210 HD
ENDBRANCH   6   7
ENDBRANCH   5   6
ENDBRANCH   1   5
TORSDOF 5
ENDMDL
MODEL 8
REMARK VINA RESULT:    -2.229     14.326     14.963
REMARK INTER + INTRA:          -2.925
REMARK INTER:                  -2.851
REMARK INTRA:                  -0.073
REMARK UNBOUND:                -0.109
REMARK SMILES CCCCCCO
REMARK SMILES IDX 4 1 3 2 2 3 1 4 5 5 6 6 7 7
REMARK H PARENT 7 8
REMARK Flexibility Score: inf
ROOT
ATOM      1  C   UNL     1     119.296 112.912 114.921  1.00  0.00     0.002 C 
ENDROOT
BRANCH   1   2
ATOM      2  C   UNL     1     118.792 112.483 116.308  1.00  0.00    -0.000 C 
BRANCH   2   3
ATOM      3  C   UNL     1     118.783 113.643 117.315  1.00  0.00    -0.003 C 
ATOM      4  C   UNL     1     117.706 113.487 118.388  1.00  0.00     0.004 C 
ENDBRANCH   2   3
ENDBRANCH   1   2
BRANCH   1   5
ATOM      5  C   UNL     1     120.825 113.034 114.907  1.00  0.00     0.028 C 
BRANCH   5   6
ATOM      6  C   UNL     1     121.499 111.810 115.528  1.00  0.00     0.156 C 
BRANCH   6   7
ATOM      7  O   UNL     1     122.881 111.854 115.303  1.00  0.00    -0.396 OA
ATOM      8  H   UNL     1     123.064 111.196 114.583  1.00  0.00     0.210 HD
ENDBRANCH   6   7
ENDBRANCH   5   6
ENDBRANCH   1   5
TORSDOF 5
ENDMDL
