MODEL 1
REMARK VINA RESULT:    -4.384      0.000      0.000
REMARK INTER + INTRA:          -4.512
REMARK INTER:                  -4.512
REMARK INTRA:                   0.000
REMARK UNBOUND:                 0.000
REMARK SMILES Nc1ncnc2nc[nH]c12
REMARK SMILES IDX 8 1 7 2 6 3 5 4 4 5 3 6 2 7 10 8 9 9 1 11
REMARK H PARENT 9 10 1 12 1 13
REMARK Flexibility Score: inf
ROOT
ATOM      1  C   UNL     1      88.579  77.079  85.105  1.00  0.00     0.199 A 
ATOM      2  N   UNL     1      88.402  75.740  85.268  1.00  0.00    -0.217 NA
ATOM      3  C   UNL     1      87.234  75.529  84.637  1.00  0.00     0.182 A 
ATOM      4  N   UNL     1      86.591  74.345  84.502  1.00  0.00    -0.215 NA
ATOM      5  C   UNL     1      85.405  74.328  83.822  1.00  0.00     0.226 A 
ATOM      6  N   UNL     1      84.888  75.485  83.296  1.00  0.00    -0.217 NA
ATOM      7  C   UNL     1      85.535  76.682  83.431  1.00  0.00     0.152 A 
ATOM      8  C   UNL     1      86.741  76.681  84.126  1.00  0.00     0.127 A 
ATOM      9  N   UNL     1      87.581  77.683  84.411  1.00  0.00    -0.340 N 
ATOM     10  H   UNL     1      87.500  78.694  84.164  1.00  0.00     0.168 HD
ENDROOT
BRANCH   7  11
ATOM     11  N   UNL     1      84.978  77.873  82.875  1.00  0.00    -0.382 N 
ATOM     12  H   UNL     1      85.364  78.805  83.145  1.00  0.00     0.158 HD
ATOM     13  H   UNL     1      84.185  77.839  82.198  1.00  0.00     0.158 HD
ENDBRANCH   7  11
TORSDOF 1
ENDMDL
MODEL 2
REMARK VINA RESULT:    -4.363     12.420     13.640
REMARK INTER + INTRA:          -4.490
REMARK INTER:                  -4.490
REMARK INTRA:                   0.000
REMARK UNBOUND:                 0.000
REMARK SMILES Nc1ncnc2nc[nH]c12
REMARK SMILES IDX 8 1 7 2 6 3 5 4 4 5 3 6 2 7 10 8 9 9 1 11
REMARK H PARENT 9 10 1 12 1 13
REMARK Flexibility Score: inf
ROOT
ATOM      1  C   UNL     1      83.302  88.677  78.869  1.00  0.00     0.199 A 
ATOM      2  N   UNL     1      83.085  87.579  79.645  1.00  0.00    -0.217 NA
ATOM      3  C   UNL     1      82.006  87.030  79.063  1.00  0.00     0.182 A 
ATOM      4  N   UNL     1      81.369  85.899  79.449  1.00  0.00    -0.215 NA
ATOM      5  C   UNL     1      80.279  85.494  78.728  1.00  0.00     0.226 A 
ATOM      6  N   UNL     1      79.851  86.220  77.646  1.00  0.00    -0.217 NA
ATOM      7  C   UNL     1      80.493  87.362  77.255  1.00  0.00     0.152 A 
ATOM      8  C   UNL     1      81.600  87.760  77.999  1.00  0.00     0.127 A 
ATOM      9  N   UNL     1      82.411  88.815  77.855  1.00  0.00    -0.340 N 
ATOM     10  H   UNL     1      82.377  89.573  77.138  1.00  0.00     0.168 HD
ENDROOT
BRANCH   7  11
ATOM     11  N   UNL     1      80.030  88.102  76.125  1.00  0.00    -0.382 N 
ATOM     12  H   UNL     1      79.544  87.610  75.342  1.00  0.00     0.158 HD
ATOM     13  H   UNL     1      80.164  89.134  76.058  1.00  0.00     0.158 HD
ENDBRANCH   7  11
TORSDOF 1
ENDMDL
MODEL 3
REMARK VINA RESULT:    -4.329      1.040      3.032
REMARK INTER + INTRA:          -4.456
REMARK INTER:                  -4.456
REMARK INTRA:                   0.000
REMARK UNBOUND:                 0.000
REMARK SMILES Nc1ncnc2nc[nH]c12
REMARK SMILES IDX 8 1 7 2 6 3 5 4 4 5 3 6 2 7 10 8 9 9 1 11
REMARK H PARENT 9 10 1 12 1 13
REMARK Flexibility Score: inf
ROOT
ATOM      1  C   UNL     1      84.087  77.341  82.815  1.00  0.00     0.199 A 
ATOM      2  N   UNL     1      83.945  76.004  83.031  1.00  0.00    -0.217 NA
ATOM      3  C   UNL     1      85.118  75.684  83.604  1.00  0.00     0.182 A 
ATOM      4  N   UNL     1      85.502  74.455  84.024  1.00  0.00    -0.215 NA
ATOM      5  C   UNL     1      86.743  74.324  84.586  1.00  0.00     0.226 A 
ATOM      6  N   UNL     1      87.567  75.413  84.714  1.00  0.00    -0.217 NA
ATOM      7  C   UNL     1      87.182  76.653  84.290  1.00  0.00     0.152 A 
ATOM      8  C   UNL     1      85.916  76.770  83.721  1.00  0.00     0.127 A 
ATOM      9  N   UNL     1      85.281  77.838  83.225  1.00  0.00    -0.340 N 
ATOM     10  H   UNL     1      85.614  78.826  83.163  1.00  0.00     0.168 HD
ENDROOT
BRANCH   7  11
ATOM     11  N   UNL     1      88.057  77.772  84.434  1.00  0.00    -0.382 N 
ATOM     12  H   UNL     1      87.944  78.606  83.816  1.00  0.00     0.158 HD
ATOM     13  H   UNL     1      88.816  77.781  85.149  1.00  0.00     0.158 HD
ENDBRANCH   7  11
TORSDOF 1
ENDMDL
MODEL 4
REMARK VINA RESULT:    -4.254     11.243     13.259
REMARK INTER + INTRA:          -4.379
REMARK INTER:                  -4.379
REMARK INTRA:                   0.000
REMARK UNBOUND:                 0.000
REMARK SMILES Nc1ncnc2nc[nH]c12
REMARK SMILES IDX 8 1 7 2 6 3 5 4 4 5 3 6 2 7 10 8 9 9 1 11
REMARK H PARENT 9 10 1 12 1 13
REMARK Flexibility Score: inf
ROOT
ATOM      1  C   UNL     1      79.934  87.677  76.881  1.00  0.00     0.199 A 
ATOM      2  N   UNL     1      79.426  86.584  77.513  1.00  0.00    -0.217 NA
ATOM      3  C   UNL     1      80.500  86.109  78.166  1.00  0.00     0.182 A 
ATOM      4  N   UNL     1      80.543  85.013  78.960  1.00  0.00    -0.215 NA
ATOM      5  C   UNL     1      81.736  84.684  79.544  1.00  0.00     0.226 A 
ATOM      6  N   UNL     1      82.853  85.451  79.323  1.00  0.00    -0.217 NA
ATOM      7  C   UNL     1      82.811  86.557  78.522  1.00  0.00     0.152 A 
ATOM      8  C   UNL     1      81.590  86.877  77.936  1.00  0.00     0.127 A 
ATOM      9  N   UNL     1      81.254  87.884  77.120  1.00  0.00    -0.340 N 
ATOM     10  H   UNL     1      81.855  88.652  76.748  1.00  0.00     0.168 HD
ENDROOT
BRANCH   7  11
ATOM     11  N   UNL     1      83.986  87.340  78.307  1.00  0.00    -0.382 N 
ATOM     12  H   UNL     1      84.290  88.033  79.027  1.00  0.00     0.158 HD
ATOM     13  H   UNL     1      84.558  87.237  77.441  1.00  0.00     0.158 HD
ENDBRANCH   7  11
TORSDOF 1
ENDMDL
MODEL 5
REMARK VINA RESULT:    -4.240     11.443     13.419
REMARK INTER + INTRA:          -4.364
REMARK INTER:                  -4.364
REMARK INTRA:                   0.000
REMARK UNBOUND:                 0.000
REMARK SMILES Nc1ncnc2nc[nH]c12
REMARK SMILES IDX 8 1 7 2 6 3 5 4 4 5 3 6 2 7 10 8 9 9 1 11
REMARK H PARENT 9 10 1 12 1 13
REMARK Flexibility Score: inf
ROOT
ATOM      1  C   UNL     1      80.341  84.234  78.887  1.00  0.00     0.199 A 
ATOM      2  N   UNL     1      81.431  84.746  79.521  1.00  0.00    -0.217 NA
ATOM      3  C   UNL     1      81.512  85.980  78.996  1.00  0.00     0.182 A 
ATOM      4  N   UNL     1      82.437  86.924  79.290  1.00  0.00    -0.215 NA
ATOM      5  C   UNL     1      82.357  88.129  78.648  1.00  0.00     0.226 A 
ATOM      6  N   UNL     1      81.363  88.365  77.732  1.00  0.00    -0.217 NA
ATOM      7  C   UNL     1      80.429  87.413  77.433  1.00  0.00     0.152 A 
ATOM      8  C   UNL     1      80.524  86.192  78.096  1.00  0.00     0.127 A 
ATOM      9  N   UNL     1      79.764  85.094  78.009  1.00  0.00    -0.340 N 
ATOM     10  H   UNL     1      78.925  84.926  77.412  1.00  0.00     0.168 HD
ENDROOT
BRANCH   7  11
ATOM     11  N   UNL     1      79.403  87.681  76.477  1.00  0.00    -0.382 N 
ATOM     12  H   UNL     1      79.049  86.915  75.863  1.00  0.00     0.158 HD
ATOM     13  H   UNL     1      78.992  88.634  76.372  1.00  0.00     0.158 HD
ENDBRANCH   7  11
TORSDOF 1
ENDMDL
MODEL 6
REMARK VINA RESULT:    -4.233      9.710     11.450
REMARK INTER + INTRA:          -4.356
REMARK INTER:                  -4.356
REMARK INTRA:                   0.000
REMARK UNBOUND:                 0.000
REMARK SMILES Nc1ncnc2nc[nH]c12
REMARK SMILES IDX 8 1 7 2 6 3 5 4 4 5 3 6 2 7 10 8 9 9 1 11
REMARK H PARENT 9 10 1 12 1 13
REMARK Flexibility Score: inf
ROOT
ATOM      1  C   UNL     1      81.659  86.705  77.663  1.00  0.00     0.199 A 
ATOM      2  N   UNL     1      80.510  86.071  78.024  1.00  0.00    -0.217 NA
ATOM      3  C   UNL     1      80.964  84.883  78.455  1.00  0.00     0.182 A 
ATOM      4  N   UNL     1      80.219  83.858  78.934  1.00  0.00    -0.215 NA
ATOM      5  C   UNL     1      80.865  82.718  79.327  1.00  0.00     0.226 A 
ATOM      6  N   UNL     1      82.231  82.625  79.234  1.00  0.00    -0.217 NA
ATOM      7  C   UNL     1      82.985  83.658  78.751  1.00  0.00     0.152 A 
ATOM      8  C   UNL     1      82.312  84.811  78.356  1.00  0.00     0.127 A 
ATOM      9  N   UNL     1      82.778  85.961  77.854  1.00  0.00    -0.340 N 
ATOM     10  H   UNL     1      83.765  86.233  77.651  1.00  0.00     0.168 HD
ENDROOT
BRANCH   7  11
ATOM     11  N   UNL     1      84.405  83.538  78.664  1.00  0.00    -0.382 N 
ATOM     12  H   UNL     1      85.003  83.825  79.471  1.00  0.00     0.158 HD
ATOM     13  H   UNL     1      84.868  83.167  77.807  1.00  0.00     0.158 HD
ENDBRANCH   7  11
TORSDOF 1
ENDMDL
MODEL 7
REMARK VINA RESULT:    -4.203     10.985     12.991
REMARK INTER + INTRA:          -4.326
REMARK INTER:                  -4.326
REMARK INTRA:                   0.000
REMARK UNBOUND:                 0.000
REMARK SMILES Nc1ncnc2nc[nH]c12
REMARK SMILES IDX 8 1 7 2 6 3 5 4 4 5 3 6 2 7 10 8 9 9 1 11
REMARK H PARENT 9 10 1 12 1 13
REMARK Flexibility Score: inf
ROOT
ATOM      1  C   UNL     1      80.433  88.009  77.240  1.00  0.00     0.199 A 
ATOM      2  N   UNL     1      81.613  88.024  77.918  1.00  0.00    -0.217 NA
ATOM      3  C   UNL     1      81.687  86.768  78.389  1.00  0.00     0.182 A 
ATOM      4  N   UNL     1      82.682  86.245  79.143  1.00  0.00    -0.215 NA
ATOM      5  C   UNL     1      82.581  84.938  79.531  1.00  0.00     0.226 A 
ATOM      6  N   UNL     1      81.495  84.185  79.160  1.00  0.00    -0.217 NA
ATOM      7  C   UNL     1      80.489  84.710  78.399  1.00  0.00     0.152 A 
ATOM      8  C   UNL     1      80.608  86.043  78.013  1.00  0.00     0.127 A 
ATOM      9  N   UNL     1      79.795  86.812  77.280  1.00  0.00    -0.340 N 
ATOM     10  H   UNL     1      78.882  86.562  76.838  1.00  0.00     0.168 HD
ENDROOT
BRANCH   7  11
ATOM     11  N   UNL     1      79.369  83.907  78.026  1.00  0.00    -0.382 N 
ATOM     12  H   UNL     1      79.038  83.902  77.035  1.00  0.00     0.158 HD
ATOM     13  H   UNL     1      78.865  83.318  78.723  1.00  0.00     0.158 HD
ENDBRANCH   7  11
TORSDOF 1
ENDMDL
MODEL 8
REMARK VINA RESULT:    -4.116      9.868     11.802
REMARK INTER + INTRA:          -4.237
REMARK INTER:                  -4.237
REMARK INTRA:                   0.000
REMARK UNBOUND:                 0.000
REMARK SMILES Nc1ncnc2nc[nH]c12
REMARK SMILES IDX 8 1 7 2 6 3 5 4 4 5 3 6 2 7 10 8 9 9 1 11
REMARK H PARENT 9 10 1 12 1 13
REMARK Flexibility Score: inf
ROOT
ATOM      1  C   UNL     1      83.060  82.986  79.002  1.00  0.00     0.199 A 
ATOM      2  N   UNL     1      81.712  82.909  78.829  1.00  0.00    -0.217 NA
ATOM      3  C   UNL     1      81.392  84.178  78.524  1.00  0.00     0.182 A 
ATOM      4  N   UNL     1      80.154  84.656  78.253  1.00  0.00    -0.215 NA
ATOM      5  C   UNL     1      80.025  85.986  77.962  1.00  0.00     0.226 A 
ATOM      6  N   UNL     1      81.126  86.805  77.948  1.00  0.00    -0.217 NA
ATOM      7  C   UNL     1      82.376  86.325  78.221  1.00  0.00     0.152 A 
ATOM      8  C   UNL     1      82.490  84.969  78.515  1.00  0.00     0.127 A 
ATOM      9  N   UNL     1      83.565  84.232  78.817  1.00  0.00    -0.340 N 
ATOM     10  H   UNL     1      84.562  84.532  78.895  1.00  0.00     0.168 HD
ENDROOT
BRANCH   7  11
ATOM     11  N   UNL     1      83.507  87.196  78.201  1.00  0.00    -0.382 N 
ATOM     12  H   UNL     1      84.009  87.420  79.088  1.00  0.00     0.158 HD
ATOM     13  H   UNL     1      83.850  87.622  77.313  1.00  0.00     0.158 HD
ENDBRANCH   7  11
TORSDOF 1
ENDMDL
MODEL 9
REMARK VINA RESULT:    -4.050     11.763     12.317
REMARK INTER + INTRA:          -4.168
REMARK INTER:                  -4.168
REMARK INTRA:                   0.000
REMARK UNBOUND:                 0.000
REMARK SMILES Nc1ncnc2nc[nH]c12
REMARK SMILES IDX 8 1 7 2 6 3 5 4 4 5 3 6 2 7 10 8 9 9 1 11
REMARK H PARENT 9 10 1 12 1 13
REMARK Flexibility Score: inf
ROOT
ATOM      1  C   UNL     1      76.061  81.273  84.122  1.00  0.00     0.199 A 
ATOM      2  N   UNL     1      75.399  80.937  85.262  1.00  0.00    -0.217 NA
ATOM      3  C   UNL     1      74.825  79.770  84.925  1.00  0.00     0.182 A 
ATOM      4  N   UNL     1      74.039  78.999  85.714  1.00  0.00    -0.215 NA
ATOM      5  C   UNL     1      73.542  77.837  85.191  1.00  0.00     0.226 A 
ATOM      6  N   UNL     1      73.837  77.472  83.902  1.00  0.00    -0.217 NA
ATOM      7  C   UNL     1      74.629  78.249  83.104  1.00  0.00     0.152 A 
ATOM      8  C   UNL     1      75.127  79.428  83.652  1.00  0.00     0.127 A 
ATOM      9  N   UNL     1      75.914  80.370  83.119  1.00  0.00    -0.340 N 
ATOM     10  H   UNL     1      76.325  80.413  82.159  1.00  0.00     0.168 HD
ENDROOT
BRANCH   7  11
ATOM     11  N   UNL     1      74.923  77.849  81.765  1.00  0.00    -0.382 N 
ATOM     12  H   UNL     1      74.573  78.417  80.962  1.00  0.00     0.158 HD
ATOM     13  H   UNL     1      75.484  76.993  81.564  1.00  0.00     0.158 HD
ENDBRANCH   7  11
TORSDOF 1
ENDMDL
