MODEL 1
REMARK VINA RESULT:    -4.407      0.000      0.000
REMARK INTER + INTRA:          -6.593
REMARK INTER:                  -6.210
REMARK INTRA:                  -0.383
REMARK UNBOUND:                -0.383
REMARK SMILES CCCCCCCCC(=O)[O-]
REMARK SMILES IDX 6 1 7 2 8 3 9 4 10 5 11 6 5 7 4 8 3 9 2 10 1 11
REMARK H PARENT
REMARK Flexibility Score: inf
ROOT
ATOM      1  C   UNL     1     -99.195 -59.083 -66.821  1.00  0.00     0.000 C 
ENDROOT
BRANCH   1   2
ATOM      2  C   UNL     1     -97.679 -58.854 -66.871  1.00  0.00     0.006 C 
BRANCH   2   3
ATOM      3  C   UNL     1     -97.240 -57.844 -65.806  1.00  0.00     0.053 C 
BRANCH   3   4
ATOM      4  C   UNL     1     -96.576 -58.544 -64.663  1.00  0.00     0.041 C 
ATOM      5  O   UNL     1     -95.805 -57.912 -63.894  1.00  0.00    -0.550 OA
ATOM      6  O   UNL     1     -96.845 -59.884 -64.417  1.00  0.00    -0.550 OA
ENDBRANCH   3   4
ENDBRANCH   2   3
ENDBRANCH   1   2
BRANCH   1   7
ATOM      7  C   UNL     1     -99.531 -60.573 -66.957  1.00  0.00     0.000 C 
BRANCH   7   8
ATOM      8  C   UNL     1     -99.937 -61.170 -65.602  1.00  0.00    -0.000 C 
BRANCH   8   9
ATOM      9  C   UNL     1     -99.271 -62.530 -65.323  1.00  0.00    -0.000 C 
BRANCH   9  10
ATOM     10  C   UNL     1     -98.826 -62.745 -63.865  1.00  0.00    -0.003 C 
ATOM     11  C   UNL     1     -98.214 -64.124 -63.625  1.00  0.00     0.004 C 
ENDBRANCH   9  10
ENDBRANCH   8   9
ENDBRANCH   7   8
ENDBRANCH   1   7
TORSDOF 7
ENDMDL
MODEL 2
REMARK VINA RESULT:    -4.307      2.227      4.466
REMARK INTER + INTRA:          -6.452
REMARK INTER:                  -5.923
REMARK INTRA:                  -0.529
REMARK UNBOUND:                -0.383
REMARK SMILES CCCCCCCCC(=O)[O-]
REMARK SMILES IDX 6 1 7 2 8 3 9 4 10 5 11 6 5 7 4 8 3 9 2 10 1 11
REMARK H PARENT
REMARK Flexibility Score: inf
ROOT
ATOM      1  C   UNL     1    -100.388 -60.671 -66.446  1.00  0.00     0.000 C 
ENDROOT
BRANCH   1   2
ATOM      2  C   UNL     1     -99.606 -61.910 -65.991  1.00  0.00     0.006 C 
BRANCH   2   3
ATOM      3  C   UNL     1     -98.975 -61.685 -64.613  1.00  0.00     0.053 C 
BRANCH   3   4
ATOM      4  C   UNL     1     -98.842 -62.982 -63.881  1.00  0.00     0.041 C 
ATOM      5  O   UNL     1     -97.703 -63.482 -63.678  1.00  0.00    -0.550 OA
ATOM      6  O   UNL     1     -99.970 -63.617 -63.379  1.00  0.00    -0.550 OA
ENDBRANCH   3   4
ENDBRANCH   2   3
ENDBRANCH   1   2
BRANCH   1   7
ATOM      7  C   UNL     1     -99.555 -59.396 -66.263  1.00  0.00     0.000 C 
BRANCH   7   8
ATOM      8  C   UNL     1     -98.489 -59.274 -67.361  1.00  0.00    -0.000 C 
BRANCH   8   9
ATOM      9  C   UNL     1     -97.227 -58.529 -66.891  1.00  0.00    -0.000 C 
BRANCH   9  10
ATOM     10  C   UNL     1     -97.316 -57.935 -65.473  1.00  0.00    -0.003 C 
ATOM     11  C   UNL     1     -96.273 -58.511 -64.518  1.00  0.00     0.004 C 
ENDBRANCH   9  10
ENDBRANCH   8   9
ENDBRANCH   7   8
ENDBRANCH   1   7
TORSDOF 7
ENDMDL
MODEL 3
REMARK VINA RESULT:    -3.545      3.897      5.443
REMARK INTER + INTRA:          -5.379
REMARK INTER:                  -4.917
REMARK INTRA:                  -0.462
REMARK UNBOUND:                -0.383
REMARK SMILES CCCCCCCCC(=O)[O-]
REMARK SMILES IDX 6 1 7 2 8 3 9 4 10 5 11 6 5 7 4 8 3 9 2 10 1 11
REMARK H PARENT
REMARK Flexibility Score: inf
ROOT
ATOM      1  C   UNL     1     -99.857 -62.580 -68.521  1.00  0.00     0.000 C 
ENDROOT
BRANCH   1   2
ATOM      2  C   UNL     1     -98.518 -63.025 -69.122  1.00  0.00     0.006 C 
BRANCH   2   3
ATOM      3  C   UNL     1     -97.774 -61.838 -69.744  1.00  0.00     0.053 C 
BRANCH   3   4
ATOM      4  C   UNL     1     -96.680 -62.320 -70.643  1.00  0.00     0.041 C 
ATOM      5  O   UNL     1     -95.777 -63.075 -70.195  1.00  0.00    -0.550 OA
ATOM      6  O   UNL     1     -96.683 -61.974 -71.988  1.00  0.00    -0.550 OA
ENDBRANCH   3   4
ENDBRANCH   2   3
ENDBRANCH   1   2
BRANCH   1   7
ATOM      7  C   UNL     1     -99.654 -61.930 -67.146  1.00  0.00     0.000 C 
BRANCH   7   8
ATOM      8  C   UNL     1    -100.605 -60.740 -66.956  1.00  0.00    -0.000 C 
BRANCH   8   9
ATOM      9  C   UNL     1     -99.864 -59.419 -66.680  1.00  0.00    -0.000 C 
BRANCH   9  10
ATOM     10  C   UNL     1     -98.366 -59.431 -67.034  1.00  0.00    -0.003 C 
ATOM     11  C   UNL     1     -97.556 -58.409 -66.238  1.00  0.00     0.004 C 
ENDBRANCH   9  10
ENDBRANCH   8   9
ENDBRANCH   7   8
ENDBRANCH   1   7
TORSDOF 7
ENDMDL
MODEL 4
REMARK VINA RESULT:    -3.221      3.899      5.575
REMARK INTER + INTRA:          -4.922
REMARK INTER:                  -4.628
REMARK INTRA:                  -0.294
REMARK UNBOUND:                -0.383
REMARK SMILES CCCCCCCCC(=O)[O-]
REMARK SMILES IDX 6 1 7 2 8 3 9 4 10 5 11 6 5 7 4 8 3 9 2 10 1 11
REMARK H PARENT
REMARK Flexibility Score: inf
ROOT
ATOM      1  C   UNL     1     -98.898 -63.000 -68.874  1.00  0.00     0.000 C 
ENDROOT
BRANCH   1   2
ATOM      2  C   UNL     1    -100.113 -62.452 -68.115  1.00  0.00     0.006 C 
BRANCH   2   3
ATOM      3  C   UNL     1     -99.701 -61.894 -66.748  1.00  0.00     0.053 C 
BRANCH   3   4
ATOM      4  C   UNL     1    -100.098 -60.457 -66.629  1.00  0.00     0.041 C 
ATOM      5  O   UNL     1    -101.270 -60.150 -66.286  1.00  0.00    -0.550 OA
ATOM      6  O   UNL     1     -99.161 -59.456 -66.848  1.00  0.00    -0.550 OA
ENDBRANCH   3   4
ENDBRANCH   2   3
ENDBRANCH   1   2
BRANCH   1   7
ATOM      7  C   UNL     1     -97.977 -61.862 -69.333  1.00  0.00     0.000 C 
BRANCH   7   8
ATOM      8  C   UNL     1     -96.942 -62.370 -70.348  1.00  0.00    -0.000 C 
BRANCH   8   9
ATOM      9  C   UNL     1     -96.091 -61.238 -70.952  1.00  0.00    -0.000 C 
BRANCH   9  10
ATOM     10  C   UNL     1     -94.727 -61.019 -70.271  1.00  0.00    -0.003 C 
ATOM     11  C   UNL     1     -94.043 -62.324 -69.868  1.00  0.00     0.004 C 
ENDBRANCH   9  10
ENDBRANCH   8   9
ENDBRANCH   7   8
ENDBRANCH   1   7
TORSDOF 7
ENDMDL
MODEL 5
REMARK VINA RESULT:    -3.164     14.396     15.212
REMARK INTER + INTRA:          -4.842
REMARK INTER:                  -4.135
REMARK INTRA:                  -0.707
REMARK UNBOUND:                -0.383
REMARK SMILES CCCCCCCCC(=O)[O-]
REMARK SMILES IDX 6 1 7 2 8 3 9 4 10 5 11 6 5 7 4 8 3 9 2 10 1 11
REMARK H PARENT
REMARK Flexibility Score: inf
ROOT
ATOM      1  C   UNL     1     -97.694 -46.053 -68.649  1.00  0.00     0.000 C 
ENDROOT
BRANCH   1   2
ATOM      2  C   UNL     1     -98.436 -46.927 -69.668  1.00  0.00     0.006 C 
BRANCH   2   3
ATOM      3  C   UNL     1     -98.207 -46.421 -71.096  1.00  0.00     0.053 C 
BRANCH   3   4
ATOM      4  C   UNL     1     -98.169 -47.567 -72.057  1.00  0.00     0.041 C 
ATOM      5  O   UNL     1     -97.067 -47.986 -72.500  1.00  0.00    -0.550 OA
ATOM      6  O   UNL     1     -99.347 -48.203 -72.428  1.00  0.00    -0.550 OA
ENDBRANCH   3   4
ENDBRANCH   2   3
ENDBRANCH   1   2
BRANCH   1   7
ATOM      7  C   UNL     1     -97.070 -44.827 -69.328  1.00  0.00     0.000 C 
BRANCH   7   8
ATOM      8  C   UNL     1     -95.551 -44.792 -69.108  1.00  0.00    -0.000 C 
BRANCH   8   9
ATOM      9  C   UNL     1     -95.052 -45.923 -68.190  1.00  0.00    -0.000 C 
BRANCH   9  10
ATOM     10  C   UNL     1     -94.016 -46.866 -68.829  1.00  0.00    -0.003 C 
ATOM     11  C   UNL     1     -94.411 -47.327 -70.230  1.00  0.00     0.004 C 
ENDBRANCH   9  10
ENDBRANCH   8   9
ENDBRANCH   7   8
ENDBRANCH   1   7
TORSDOF 7
ENDMDL
MODEL 6
REMARK VINA RESULT:    -3.137     14.418     15.351
REMARK INTER + INTRA:          -4.803
REMARK INTER:                  -3.989
REMARK INTRA:                  -0.815
REMARK UNBOUND:                -0.383
REMARK SMILES CCCCCCCCC(=O)[O-]
REMARK SMILES IDX 6 1 7 2 8 3 9 4 10 5 11 6 5 7 4 8 3 9 2 10 1 11
REMARK H PARENT
REMARK Flexibility Score: inf
ROOT
ATOM      1  C   UNL     1     -94.011 -47.104 -68.925  1.00  0.00     0.000 C 
ENDROOT
BRANCH   1   2
ATOM      2  C   UNL     1     -93.850 -46.780 -70.416  1.00  0.00     0.006 C 
BRANCH   2   3
ATOM      3  C   UNL     1     -94.313 -47.954 -71.286  1.00  0.00     0.053 C 
BRANCH   3   4
ATOM      4  C   UNL     1     -95.407 -47.521 -72.210  1.00  0.00     0.041 C 
ATOM      5  O   UNL     1     -96.191 -48.372 -72.707  1.00  0.00    -0.550 OA
ATOM      6  O   UNL     1     -95.592 -46.172 -72.485  1.00  0.00    -0.550 OA
ENDBRANCH   3   4
ENDBRANCH   2   3
ENDBRANCH   1   2
BRANCH   1   7
ATOM      7  C   UNL     1     -94.855 -46.036 -68.218  1.00  0.00     0.000 C 
BRANCH   7   8
ATOM      8  C   UNL     1     -95.318 -44.958 -69.209  1.00  0.00    -0.000 C 
BRANCH   8   9
ATOM      9  C   UNL     1     -96.850 -44.893 -69.350  1.00  0.00    -0.000 C 
BRANCH   9  10
ATOM     10  C   UNL     1     -97.599 -46.145 -68.859  1.00  0.00    -0.003 C 
ATOM     11  C   UNL     1     -98.329 -46.883 -69.979  1.00  0.00     0.004 C 
ENDBRANCH   9  10
ENDBRANCH   8   9
ENDBRANCH   7   8
ENDBRANCH   1   7
TORSDOF 7
ENDMDL
MODEL 7
REMARK VINA RESULT:    -3.113     14.134     14.944
REMARK INTER + INTRA:          -4.771
REMARK INTER:                  -4.148
REMARK INTRA:                  -0.623
REMARK UNBOUND:                -0.383
REMARK SMILES CCCCCCCCC(=O)[O-]
REMARK SMILES IDX 6 1 7 2 8 3 9 4 10 5 11 6 5 7 4 8 3 9 2 10 1 11
REMARK H PARENT
REMARK Flexibility Score: inf
ROOT
ATOM      1  C   UNL     1     -95.214 -45.886 -68.409  1.00  0.00     0.000 C 
ENDROOT
BRANCH   1   2
ATOM      2  C   UNL     1     -94.086 -46.112 -69.423  1.00  0.00     0.006 C 
BRANCH   2   3
ATOM      3  C   UNL     1     -94.101 -47.551 -69.948  1.00  0.00     0.053 C 
BRANCH   3   4
ATOM      4  C   UNL     1     -94.397 -47.570 -71.414  1.00  0.00     0.041 C 
ATOM      5  O   UNL     1     -94.595 -48.664 -72.007  1.00  0.00    -0.550 OA
ATOM      6  O   UNL     1     -94.503 -46.378 -72.118  1.00  0.00    -0.550 OA
ENDBRANCH   3   4
ENDBRANCH   2   3
ENDBRANCH   1   2
BRANCH   1   7
ATOM      7  C   UNL     1     -96.507 -45.453 -69.111  1.00  0.00     0.000 C 
BRANCH   7   8
ATOM      8  C   UNL     1     -97.718 -46.211 -68.547  1.00  0.00    -0.000 C 
BRANCH   8   9
ATOM      9  C   UNL     1     -98.574 -46.872 -69.642  1.00  0.00    -0.000 C 
BRANCH   9  10
ATOM     10  C   UNL     1     -97.936 -46.885 -71.043  1.00  0.00    -0.003 C 
ATOM     11  C   UNL     1     -98.516 -47.966 -71.954  1.00  0.00     0.004 C 
ENDBRANCH   9  10
ENDBRANCH   8   9
ENDBRANCH   7   8
ENDBRANCH   1   7
TORSDOF 7
ENDMDL
MODEL 8
REMARK VINA RESULT:    -3.110     14.527     15.384
REMARK INTER + INTRA:          -4.765
REMARK INTER:                  -3.982
REMARK INTRA:                  -0.783
REMARK UNBOUND:                -0.383
REMARK SMILES CCCCCCCCC(=O)[O-]
REMARK SMILES IDX 6 1 7 2 8 3 9 4 10 5 11 6 5 7 4 8 3 9 2 10 1 11
REMARK H PARENT
REMARK Flexibility Score: inf
ROOT
ATOM      1  C   UNL     1     -95.379 -44.841 -69.162  1.00  0.00     0.000 C 
ENDROOT
BRANCH   1   2
ATOM      2  C   UNL     1     -96.861 -44.791 -69.552  1.00  0.00     0.006 C 
BRANCH   2   3
ATOM      3  C   UNL     1     -97.586 -46.069 -69.118  1.00  0.00     0.053 C 
BRANCH   3   4
ATOM      4  C   UNL     1     -98.764 -46.329 -70.003  1.00  0.00     0.041 C 
ATOM      5  O   UNL     1     -99.669 -45.462 -70.125  1.00  0.00    -0.550 OA
ATOM      6  O   UNL     1     -98.839 -47.509 -70.731  1.00  0.00    -0.550 OA
ENDBRANCH   3   4
ENDBRANCH   2   3
ENDBRANCH   1   2
BRANCH   1   7
ATOM      7  C   UNL     1     -95.104 -45.994 -68.190  1.00  0.00     0.000 C 
BRANCH   7   8
ATOM      8  C   UNL     1     -93.967 -46.888 -68.706  1.00  0.00    -0.000 C 
BRANCH   8   9
ATOM      9  C   UNL     1     -93.720 -46.731 -70.217  1.00  0.00    -0.000 C 
BRANCH   9  10
ATOM     10  C   UNL     1     -94.281 -47.872 -71.087  1.00  0.00    -0.003 C 
ATOM     11  C   UNL     1     -95.460 -47.437 -71.955  1.00  0.00     0.004 C 
ENDBRANCH   9  10
ENDBRANCH   8   9
ENDBRANCH   7   8
ENDBRANCH   1   7
TORSDOF 7
ENDMDL
MODEL 9
REMARK VINA RESULT:    -3.102     14.299     15.145
REMARK INTER + INTRA:          -4.754
REMARK INTER:                  -4.137
REMARK INTRA:                  -0.617
REMARK UNBOUND:                -0.383
REMARK SMILES CCCCCCCCC(=O)[O-]
REMARK SMILES IDX 6 1 7 2 8 3 9 4 10 5 11 6 5 7 4 8 3 9 2 10 1 11
REMARK H PARENT
REMARK Flexibility Score: inf
ROOT
ATOM      1  C   UNL     1     -98.251 -46.869 -69.382  1.00  0.00     0.000 C 
ENDROOT
BRANCH   1   2
ATOM      2  C   UNL     1     -98.927 -46.646 -70.740  1.00  0.00     0.006 C 
BRANCH   2   3
ATOM      3  C   UNL     1     -98.545 -47.750 -71.731  1.00  0.00     0.053 C 
BRANCH   3   4
ATOM      4  C   UNL     1     -97.262 -47.413 -72.422  1.00  0.00     0.041 C 
ATOM      5  O   UNL     1     -96.474 -48.328 -72.778  1.00  0.00    -0.550 OA
ATOM      6  O   UNL     1     -96.957 -46.090 -72.715  1.00  0.00    -0.550 OA
ENDBRANCH   3   4
ENDBRANCH   2   3
ENDBRANCH   1   2
BRANCH   1   7
ATOM      7  C   UNL     1     -97.590 -45.579 -68.878  1.00  0.00     0.000 C 
BRANCH   7   8
ATOM      8  C   UNL     1     -96.140 -45.476 -69.375  1.00  0.00    -0.000 C 
BRANCH   8   9
ATOM      9  C   UNL     1     -95.109 -45.846 -68.295  1.00  0.00    -0.000 C 
BRANCH   9  10
ATOM     10  C   UNL     1     -94.087 -46.918 -68.715  1.00  0.00    -0.003 C 
ATOM     11  C   UNL     1     -94.260 -47.374 -70.163  1.00  0.00     0.004 C 
ENDBRANCH   9  10
ENDBRANCH   8   9
ENDBRANCH   7   8
ENDBRANCH   1   7
TORSDOF 7
ENDMDL
