MODEL 1
REMARK VINA RESULT:    -3.585      0.000      0.000
REMARK INTER + INTRA:          -4.330
REMARK INTER:                  -4.214
REMARK INTRA:                  -0.116
REMARK UNBOUND:                -0.116
REMARK SMILES O=C([O-])CCC(=O)[O-]
REMARK SMILES IDX 4 1 2 2 1 3 3 4 5 5 6 6 7 7 8 8
REMARK H PARENT
REMARK Flexibility Score: inf
ROOT
ATOM      1  C   UNL     1      -5.304   4.630  31.692  1.00  0.00     0.059 C 
ENDROOT
BRANCH   1   2
ATOM      2  C   UNL     1      -5.060   6.041  31.252  1.00  0.00     0.042 C 
ATOM      3  O   UNL     1      -4.464   6.273  30.167  1.00  0.00    -0.550 OA
ATOM      4  O   UNL     1      -5.456   7.099  32.060  1.00  0.00    -0.550 OA
ENDBRANCH   1   2
BRANCH   1   5
ATOM      5  C   UNL     1      -4.159   4.105  32.563  1.00  0.00     0.059 C 
BRANCH   5   6
ATOM      6  C   UNL     1      -4.501   4.159  34.020  1.00  0.00     0.042 C 
ATOM      7  O   UNL     1      -4.442   5.252  34.644  1.00  0.00    -0.550 OA
ATOM      8  O   UNL     1      -4.925   3.013  34.679  1.00  0.00    -0.550 OA
ENDBRANCH   5   6
ENDBRANCH   1   5
TORSDOF 3
ENDMDL
MODEL 2
REMARK VINA RESULT:    -3.585      0.124      3.844
REMARK INTER + INTRA:          -4.329
REMARK INTER:                  -4.209
REMARK INTRA:                  -0.120
REMARK UNBOUND:                -0.116
REMARK SMILES O=C([O-])CCC(=O)[O-]
REMARK SMILES IDX 4 1 2 2 1 3 3 4 5 5 6 6 7 7 8 8
REMARK H PARENT
REMARK Flexibility Score: inf
ROOT
ATOM      1  C   UNL     1      -4.122   4.163  32.482  1.00  0.00     0.059 C 
ENDROOT
BRANCH   1   2
ATOM      2  C   UNL     1      -4.471   4.208  33.938  1.00  0.00     0.042 C 
ATOM      3  O   UNL     1      -4.431   5.298  34.567  1.00  0.00    -0.550 OA
ATOM      4  O   UNL     1      -4.804   3.038  34.610  1.00  0.00    -0.550 OA
ENDBRANCH   1   2
BRANCH   1   5
ATOM      5  C   UNL     1      -5.289   4.629  31.607  1.00  0.00     0.059 C 
BRANCH   5   6
ATOM      6  C   UNL     1      -5.114   6.049  31.162  1.00  0.00     0.042 C 
ATOM      7  O   UNL     1      -4.596   6.302  30.042  1.00  0.00    -0.550 OA
ATOM      8  O   UNL     1      -5.562   7.090  31.964  1.00  0.00    -0.550 OA
ENDBRANCH   5   6
ENDBRANCH   1   5
TORSDOF 3
ENDMDL
MODEL 3
REMARK VINA RESULT:    -3.559      7.246      8.978
REMARK INTER + INTRA:          -4.299
REMARK INTER:                  -4.189
REMARK INTRA:                  -0.110
REMARK UNBOUND:                -0.116
REMARK SMILES O=C([O-])CCC(=O)[O-]
REMARK SMILES IDX 4 1 2 2 1 3 3 4 5 5 6 6 7 7 8 8
REMARK H PARENT
REMARK Flexibility Score: inf
ROOT
ATOM      1  C   UNL     1      -6.077   8.329  26.061  1.00  0.00     0.059 C 
ENDROOT
BRANCH   1   2
ATOM      2  C   UNL     1      -5.491   7.063  25.515  1.00  0.00     0.042 C 
ATOM      3  O   UNL     1      -5.053   7.023  24.336  1.00  0.00    -0.550 OA
ATOM      4  O   UNL     1      -5.466   5.915  26.298  1.00  0.00    -0.550 OA
ENDBRANCH   1   2
BRANCH   1   5
ATOM      5  C   UNL     1      -6.661   9.206  24.949  1.00  0.00     0.059 C 
BRANCH   5   6
ATOM      6  C   UNL     1      -8.068   8.814  24.615  1.00  0.00     0.042 C 
ATOM      7  O   UNL     1      -8.461   8.822  23.419  1.00  0.00    -0.550 OA
ATOM      8  O   UNL     1      -8.931   8.398  25.620  1.00  0.00    -0.550 OA
ENDBRANCH   5   6
ENDBRANCH   1   5
TORSDOF 3
ENDMDL
MODEL 4
REMARK VINA RESULT:    -3.546      7.157      8.542
REMARK INTER + INTRA:          -4.284
REMARK INTER:                  -4.182
REMARK INTRA:                  -0.102
REMARK UNBOUND:                -0.116
REMARK SMILES O=C([O-])CCC(=O)[O-]
REMARK SMILES IDX 4 1 2 2 1 3 3 4 5 5 6 6 7 7 8 8
REMARK H PARENT
REMARK Flexibility Score: inf
ROOT
ATOM      1  C   UNL     1      -6.782   9.038  25.225  1.00  0.00     0.059 C 
ENDROOT
BRANCH   1   2
ATOM      2  C   UNL     1      -8.205   8.717  24.883  1.00  0.00     0.042 C 
ATOM      3  O   UNL     1      -9.002   8.334  25.778  1.00  0.00    -0.550 OA
ATOM      4  O   UNL     1      -8.638   8.802  23.565  1.00  0.00    -0.550 OA
ENDBRANCH   1   2
BRANCH   1   5
ATOM      5  C   UNL     1      -6.220   8.067  26.269  1.00  0.00     0.059 C 
BRANCH   5   6
ATOM      6  C   UNL     1      -5.517   6.911  25.628  1.00  0.00     0.042 C 
ATOM      7  O   UNL     1      -5.336   5.843  26.271  1.00  0.00    -0.550 OA
ATOM      8  O   UNL     1      -5.099   6.996  24.306  1.00  0.00    -0.550 OA
ENDBRANCH   5   6
ENDBRANCH   1   5
TORSDOF 3
ENDMDL
MODEL 5
REMARK VINA RESULT:    -3.458      3.206      5.226
REMARK INTER + INTRA:          -4.180
REMARK INTER:                  -4.058
REMARK INTRA:                  -0.122
REMARK UNBOUND:                -0.116
REMARK SMILES O=C([O-])CCC(=O)[O-]
REMARK SMILES IDX 4 1 2 2 1 3 3 4 5 5 6 6 7 7 8 8
REMARK H PARENT
REMARK Flexibility Score: inf
ROOT
ATOM      1  C   UNL     1      -4.985   6.485  29.905  1.00  0.00     0.059 C 
ENDROOT
BRANCH   1   2
ATOM      2  C   UNL     1      -5.734   7.243  30.958  1.00  0.00     0.042 C 
ATOM      3  O   UNL     1      -6.728   7.949  30.647  1.00  0.00    -0.550 OA
ATOM      4  O   UNL     1      -5.307   7.199  32.280  1.00  0.00    -0.550 OA
ENDBRANCH   1   2
BRANCH   1   5
ATOM      5  C   UNL     1      -5.220   7.077  28.511  1.00  0.00     0.059 C 
BRANCH   5   6
ATOM      6  C   UNL     1      -5.970   6.129  27.626  1.00  0.00     0.042 C 
ATOM      7  O   UNL     1      -7.095   5.687  27.980  1.00  0.00    -0.550 OA
ATOM      8  O   UNL     1      -5.447   5.767  26.392  1.00  0.00    -0.550 OA
ENDBRANCH   5   6
ENDBRANCH   1   5
TORSDOF 3
ENDMDL
MODEL 6
REMARK VINA RESULT:    -3.452      3.258      4.597
REMARK INTER + INTRA:          -4.173
REMARK INTER:                  -4.051
REMARK INTRA:                  -0.122
REMARK UNBOUND:                -0.116
REMARK SMILES O=C([O-])CCC(=O)[O-]
REMARK SMILES IDX 4 1 2 2 1 3 3 4 5 5 6 6 7 7 8 8
REMARK H PARENT
REMARK Flexibility Score: inf
ROOT
ATOM      1  C   UNL     1      -5.274   7.212  28.433  1.00  0.00     0.059 C 
ENDROOT
BRANCH   1   2
ATOM      2  C   UNL     1      -6.055   6.363  27.478  1.00  0.00     0.042 C 
ATOM      3  O   UNL     1      -7.287   6.180  27.654  1.00  0.00    -0.550 OA
ATOM      4  O   UNL     1      -5.410   5.740  26.416  1.00  0.00    -0.550 OA
ENDBRANCH   1   2
BRANCH   1   5
ATOM      5  C   UNL     1      -5.103   6.524  29.791  1.00  0.00     0.059 C 
BRANCH   5   6
ATOM      6  C   UNL     1      -5.814   7.266  30.881  1.00  0.00     0.042 C 
ATOM      7  O   UNL     1      -6.830   7.961  30.617  1.00  0.00    -0.550 OA
ATOM      8  O   UNL     1      -5.379   7.156  32.196  1.00  0.00    -0.550 OA
ENDBRANCH   5   6
ENDBRANCH   1   5
TORSDOF 3
ENDMDL
MODEL 7
REMARK VINA RESULT:    -3.426      4.213      6.590
REMARK INTER + INTRA:          -4.144
REMARK INTER:                  -4.016
REMARK INTRA:                  -0.128
REMARK UNBOUND:                -0.116
REMARK SMILES O=C([O-])CCC(=O)[O-]
REMARK SMILES IDX 4 1 2 2 1 3 3 4 5 5 6 6 7 7 8 8
REMARK H PARENT
REMARK Flexibility Score: inf
ROOT
ATOM      1  C   UNL     1      -8.160   6.951  29.343  1.00  0.00     0.059 C 
ENDROOT
BRANCH   1   2
ATOM      2  C   UNL     1      -6.781   7.094  29.912  1.00  0.00     0.042 C 
ATOM      3  O   UNL     1      -6.540   7.977  30.776  1.00  0.00    -0.550 OA
ATOM      4  O   UNL     1      -5.755   6.275  29.458  1.00  0.00    -0.550 OA
ENDBRANCH   1   2
BRANCH   1   5
ATOM      5  C   UNL     1      -8.130   6.332  27.942  1.00  0.00     0.059 C 
BRANCH   5   6
ATOM      6  C   UNL     1      -8.000   7.377  26.877  1.00  0.00     0.042 C 
ATOM      7  O   UNL     1      -6.904   7.538  26.277  1.00  0.00    -0.550 OA
ATOM      8  O   UNL     1      -9.099   8.145  26.517  1.00  0.00    -0.550 OA
ENDBRANCH   5   6
ENDBRANCH   1   5
TORSDOF 3
ENDMDL
MODEL 8
REMARK VINA RESULT:    -3.414      2.048      2.818
REMARK INTER + INTRA:          -4.129
REMARK INTER:                  -4.032
REMARK INTRA:                  -0.097
REMARK UNBOUND:                -0.116
REMARK SMILES O=C([O-])CCC(=O)[O-]
REMARK SMILES IDX 4 1 2 2 1 3 3 4 5 5 6 6 7 7 8 8
REMARK H PARENT
REMARK Flexibility Score: inf
ROOT
ATOM      1  C   UNL     1      -5.251   6.342  29.900  1.00  0.00     0.059 C 
ENDROOT
BRANCH   1   2
ATOM      2  C   UNL     1      -6.468   7.170  30.175  1.00  0.00     0.042 C 
ATOM      3  O   UNL     1      -6.388   8.194  30.903  1.00  0.00    -0.550 OA
ATOM      4  O   UNL     1      -7.700   6.787  29.658  1.00  0.00    -0.550 OA
ENDBRANCH   1   2
BRANCH   1   5
ATOM      5  C   UNL     1      -4.577   5.881  31.197  1.00  0.00     0.059 C 
BRANCH   5   6
ATOM      6  C   UNL     1      -5.046   4.520  31.611  1.00  0.00     0.042 C 
ATOM      7  O   UNL     1      -5.765   3.835  30.836  1.00  0.00    -0.550 OA
ATOM      8  O   UNL     1      -4.655   3.991  32.834  1.00  0.00    -0.550 OA
ENDBRANCH   5   6
ENDBRANCH   1   5
TORSDOF 3
ENDMDL
MODEL 9
REMARK VINA RESULT:    -3.388      2.047      4.318
REMARK INTER + INTRA:          -4.099
REMARK INTER:                  -4.012
REMARK INTRA:                  -0.086
REMARK UNBOUND:                -0.116
REMARK SMILES O=C([O-])CCC(=O)[O-]
REMARK SMILES IDX 4 1 2 2 1 3 3 4 5 5 6 6 7 7 8 8
REMARK H PARENT
REMARK Flexibility Score: inf
ROOT
ATOM      1  C   UNL     1      -4.674   5.973  31.391  1.00  0.00     0.059 C 
ENDROOT
BRANCH   1   2
ATOM      2  C   UNL     1      -4.902   4.514  31.645  1.00  0.00     0.042 C 
ATOM      3  O   UNL     1      -5.726   3.869  30.945  1.00  0.00    -0.550 OA
ATOM      4  O   UNL     1      -4.233   3.877  32.683  1.00  0.00    -0.550 OA
ENDBRANCH   1   2
BRANCH   1   5
ATOM      5  C   UNL     1      -5.178   6.389  30.006  1.00  0.00     0.059 C 
BRANCH   5   6
ATOM      6  C   UNL     1      -6.459   7.161  30.092  1.00  0.00     0.042 C 
ATOM      7  O   UNL     1      -7.474   6.777  29.453  1.00  0.00    -0.550 OA
ATOM      8  O   UNL     1      -6.544   8.280  30.910  1.00  0.00    -0.550 OA
ENDBRANCH   5   6
ENDBRANCH   1   5
TORSDOF 3
ENDMDL
