MODEL 1
REMARK VINA RESULT:    -3.571      0.000      0.000
REMARK INTER + INTRA:         -11.334
REMARK INTER:                  -7.747
REMARK INTRA:                  -3.588
REMARK UNBOUND:                -3.588
REMARK SMILES CCCCCCCCCCCCCCCCCCCCCC(=O)[O-]
REMARK SMILES IDX 12 1 11 2 10 3 9 4 8 5 7 6 6 7 5 8 4 9 3 10 2 11 1 12 13 13
REMARK SMILES IDX 14 14 15 15 16 16 17 17 18 18 19 19 20 20 21 21 22 22 23 23
REMARK SMILES IDX 24 24
REMARK H PARENT
REMARK Flexibility Score: inf
ROOT
ATOM      1  C   UNL     1      -3.755  -5.321   7.717  1.00  0.00     0.000 C 
ENDROOT
BRANCH   1   2
ATOM      2  C   UNL     1      -4.460  -5.927   8.944  1.00  0.00     0.000 C 
BRANCH   2   3
ATOM      3  C   UNL     1      -5.968  -6.148   8.696  1.00  0.00     0.000 C 
BRANCH   3   4
ATOM      4  C   UNL     1      -6.565  -7.302   9.519  1.00  0.00    -0.000 C 
BRANCH   4   5
ATOM      5  C   UNL     1      -5.660  -8.545   9.552  1.00  0.00    -0.000 C 
BRANCH   5   6
ATOM      6  C   UNL     1      -5.870  -9.464   8.338  1.00  0.00    -0.000 C 
BRANCH   6   7
ATOM      7  C   UNL     1      -7.336  -9.520   7.882  1.00  0.00    -0.000 C 
BRANCH   7   8
ATOM      8  C   UNL     1      -7.453  -9.213   6.380  1.00  0.00    -0.000 C 
BRANCH   8   9
ATOM      9  C   UNL     1      -8.527  -8.158   6.071  1.00  0.00    -0.000 C 
BRANCH   9  10
ATOM     10  C   UNL     1      -7.923  -6.801   5.670  1.00  0.00    -0.000 C 
BRANCH  10  11
ATOM     11  C   UNL     1      -8.713  -5.613   6.240  1.00  0.00    -0.003 C 
ATOM     12  C   UNL     1      -9.675  -6.020   7.356  1.00  0.00     0.004 C 
ENDBRANCH  10  11
ENDBRANCH   9  10
ENDBRANCH   8   9
ENDBRANCH   7   8
ENDBRANCH   6   7
ENDBRANCH   5   6
ENDBRANCH   4   5
ENDBRANCH   3   4
ENDBRANCH   2   3
ENDBRANCH   1   2
BRANCH   1  13
ATOM     13  C   UNL     1      -4.118  -6.041   6.409  1.00  0.00     0.000 C 
BRANCH  13  14
ATOM     14  C   UNL     1      -4.817  -5.115   5.398  1.00  0.00     0.000 C 
BRANCH  14  15
ATOM     15  C   UNL     1      -4.142  -3.737   5.285  1.00  0.00     0.000 C 
BRANCH  15  16
ATOM     16  C   UNL     1      -4.930  -2.576   5.924  1.00  0.00     0.000 C 
BRANCH  16  17
ATOM     17  C   UNL     1      -6.193  -2.991   6.702  1.00  0.00     0.000 C 
BRANCH  17  18
ATOM     18  C   UNL     1      -6.221  -2.548   8.175  1.00  0.00     0.000 C 
BRANCH  18  19
ATOM     19  C   UNL     1      -7.593  -2.763   8.837  1.00  0.00     0.000 C 
BRANCH  19  20
ATOM     20  C   UNL     1      -8.760  -2.317   7.943  1.00  0.00     0.006 C 
BRANCH  20  21
ATOM     21  C   UNL     1      -8.953  -0.794   7.939  1.00  0.00     0.053 C 
BRANCH  21  22
ATOM     22  C   UNL     1      -9.515  -0.338   6.629  1.00  0.00     0.041 C 
ATOM     23  O   UNL     1     -10.124  -1.150   5.883  1.00  0.00    -0.550 OA
ATOM     24  O   UNL     1      -9.396   0.993   6.247  1.00  0.00    -0.550 OA
ENDBRANCH  21  22
ENDBRANCH  20  21
ENDBRANCH  19  20
ENDBRANCH  18  19
ENDBRANCH  17  18
ENDBRANCH  16  17
ENDBRANCH  15  16
ENDBRANCH  14  15
ENDBRANCH  13  14
ENDBRANCH   1  13
TORSDOF 20
ENDMDL
MODEL 2
REMARK VINA RESULT:    -3.418      1.922      4.029
REMARK INTER + INTRA:         -11.002
REMARK INTER:                  -8.125
REMARK INTRA:                  -2.877
REMARK UNBOUND:                -3.588
REMARK SMILES CCCCCCCCCCCCCCCCCCCCCC(=O)[O-]
REMARK SMILES IDX 12 1 11 2 10 3 9 4 8 5 7 6 6 7 5 8 4 9 3 10 2 11 1 12 13 13
REMARK SMILES IDX 14 14 15 15 16 16 17 17 18 18 19 19 20 20 21 21 22 22 23 23
REMARK SMILES IDX 24 24
REMARK H PARENT
REMARK Flexibility Score: inf
ROOT
ATOM      1  C   UNL     1      -4.766  -3.142   5.717  1.00  0.00     0.000 C 
ENDROOT
BRANCH   1   2
ATOM      2  C   UNL     1      -4.155  -4.444   5.172  1.00  0.00     0.000 C 
BRANCH   2   3
ATOM      3  C   UNL     1      -4.237  -5.597   6.196  1.00  0.00     0.000 C 
BRANCH   3   4
ATOM      4  C   UNL     1      -5.190  -6.729   5.774  1.00  0.00    -0.000 C 
BRANCH   4   5
ATOM      5  C   UNL     1      -6.667  -6.306   5.790  1.00  0.00    -0.000 C 
BRANCH   5   6
ATOM      6  C   UNL     1      -7.622  -7.492   6.002  1.00  0.00    -0.000 C 
BRANCH   6   7
ATOM      7  C   UNL     1      -8.072  -7.639   7.463  1.00  0.00    -0.000 C 
BRANCH   7   8
ATOM      8  C   UNL     1      -7.954  -6.299   8.209  1.00  0.00    -0.000 C 
BRANCH   8   9
ATOM      9  C   UNL     1      -7.504  -6.470   9.669  1.00  0.00    -0.000 C 
BRANCH   9  10
ATOM     10  C   UNL     1      -6.415  -7.545   9.829  1.00  0.00    -0.000 C 
BRANCH  10  11
ATOM     11  C   UNL     1      -5.019  -7.033   9.441  1.00  0.00    -0.003 C 
ATOM     12  C   UNL     1      -4.708  -5.656  10.027  1.00  0.00     0.004 C 
ENDBRANCH  10  11
ENDBRANCH   9  10
ENDBRANCH   8   9
ENDBRANCH   7   8
ENDBRANCH   6   7
ENDBRANCH   5   6
ENDBRANCH   4   5
ENDBRANCH   3   4
ENDBRANCH   2   3
ENDBRANCH   1   2
BRANCH   1  13
ATOM     13  C   UNL     1      -5.139  -3.238   7.205  1.00  0.00     0.000 C 
BRANCH  13  14
ATOM     14  C   UNL     1      -6.628  -2.948   7.462  1.00  0.00     0.000 C 
BRANCH  14  15
ATOM     15  C   UNL     1      -6.964  -2.830   8.959  1.00  0.00     0.000 C 
BRANCH  15  16
ATOM     16  C   UNL     1      -6.604  -1.475   9.599  1.00  0.00     0.000 C 
BRANCH  16  17
ATOM     17  C   UNL     1      -7.775  -0.481   9.729  1.00  0.00     0.000 C 
BRANCH  17  18
ATOM     18  C   UNL     1      -9.120  -0.990   9.182  1.00  0.00     0.000 C 
BRANCH  18  19
ATOM     19  C   UNL     1      -9.639  -0.153   8.000  1.00  0.00     0.000 C 
BRANCH  19  20
ATOM     20  C   UNL     1      -9.848   1.325   8.366  1.00  0.00     0.006 C 
BRANCH  20  21
ATOM     21  C   UNL     1      -9.598   2.268   7.181  1.00  0.00     0.053 C 
BRANCH  21  22
ATOM     22  C   UNL     1      -9.076   3.587   7.658  1.00  0.00     0.041 C 
ATOM     23  O   UNL     1      -7.929   3.665   8.173  1.00  0.00    -0.550 OA
ATOM     24  O   UNL     1      -9.842   4.736   7.502  1.00  0.00    -0.550 OA
ENDBRANCH  21  22
ENDBRANCH  20  21
ENDBRANCH  19  20
ENDBRANCH  18  19
ENDBRANCH  17  18
ENDBRANCH  16  17
ENDBRANCH  15  16
ENDBRANCH  14  15
ENDBRANCH  13  14
ENDBRANCH   1  13
TORSDOF 20
ENDMDL
MODEL 3
REMARK VINA RESULT:    -3.311      1.793      3.198
REMARK INTER + INTRA:         -10.770
REMARK INTER:                  -7.902
REMARK INTRA:                  -2.868
REMARK UNBOUND:                -3.588
REMARK SMILES CCCCCCCCCCCCCCCCCCCCCC(=O)[O-]
REMARK SMILES IDX 12 1 11 2 10 3 9 4 8 5 7 6 6 7 5 8 4 9 3 10 2 11 1 12 13 13
REMARK SMILES IDX 14 14 15 15 16 16 17 17 18 18 19 19 20 20 21 21 22 22 23 23
REMARK SMILES IDX 24 24
REMARK H PARENT
REMARK Flexibility Score: inf
ROOT
ATOM      1  C   UNL     1      -4.258  -4.231   5.323  1.00  0.00     0.000 C 
ENDROOT
BRANCH   1   2
ATOM      2  C   UNL     1      -4.560  -5.533   6.087  1.00  0.00     0.000 C 
BRANCH   2   3
ATOM      3  C   UNL     1      -5.667  -6.364   5.401  1.00  0.00     0.000 C 
BRANCH   3   4
ATOM      4  C   UNL     1      -5.685  -7.840   5.832  1.00  0.00    -0.000 C 
BRANCH   4   5
ATOM      5  C   UNL     1      -6.874  -8.184   6.743  1.00  0.00    -0.000 C 
BRANCH   5   6
ATOM      6  C   UNL     1      -6.435  -8.762   8.098  1.00  0.00    -0.000 C 
BRANCH   6   7
ATOM      7  C   UNL     1      -6.935  -7.931   9.289  1.00  0.00    -0.000 C 
BRANCH   7   8
ATOM      8  C   UNL     1      -6.903  -6.430   8.961  1.00  0.00    -0.000 C 
BRANCH   8   9
ATOM      9  C   UNL     1      -8.227  -5.721   9.287  1.00  0.00    -0.000 C 
BRANCH   9  10
ATOM     10  C   UNL     1      -9.305  -5.963   8.215  1.00  0.00    -0.000 C 
BRANCH  10  11
ATOM     11  C   UNL     1      -9.135  -5.049   6.992  1.00  0.00    -0.003 C 
ATOM     12  C   UNL     1      -9.487  -5.745   5.677  1.00  0.00     0.004 C 
ENDBRANCH  10  11
ENDBRANCH   9  10
ENDBRANCH   8   9
ENDBRANCH   7   8
ENDBRANCH   6   7
ENDBRANCH   5   6
ENDBRANCH   4   5
ENDBRANCH   3   4
ENDBRANCH   2   3
ENDBRANCH   1   2
BRANCH   1  13
ATOM     13  C   UNL     1      -4.865  -2.992   5.999  1.00  0.00     0.000 C 
BRANCH  13  14
ATOM     14  C   UNL     1      -5.921  -3.354   7.058  1.00  0.00     0.000 C 
BRANCH  14  15
ATOM     15  C   UNL     1      -5.484  -2.987   8.487  1.00  0.00     0.000 C 
BRANCH  15  16
ATOM     16  C   UNL     1      -6.611  -2.452   9.393  1.00  0.00     0.000 C 
BRANCH  16  17
ATOM     17  C   UNL     1      -7.898  -2.031   8.657  1.00  0.00     0.000 C 
BRANCH  17  18
ATOM     18  C   UNL     1      -8.471  -0.669   9.083  1.00  0.00     0.000 C 
BRANCH  18  19
ATOM     19  C   UNL     1      -7.485   0.156   9.929  1.00  0.00     0.000 C 
BRANCH  19  20
ATOM     20  C   UNL     1      -7.785   1.662   9.890  1.00  0.00     0.006 C 
BRANCH  20  21
ATOM     21  C   UNL     1      -9.154   1.977   9.269  1.00  0.00     0.053 C 
BRANCH  21  22
ATOM     22  C   UNL     1      -8.989   2.663   7.950  1.00  0.00     0.041 C 
ATOM     23  O   UNL     1      -8.362   3.754   7.877  1.00  0.00    -0.550 OA
ATOM     24  O   UNL     1      -9.497   2.082   6.794  1.00  0.00    -0.550 OA
ENDBRANCH  21  22
ENDBRANCH  20  21
ENDBRANCH  19  20
ENDBRANCH  18  19
ENDBRANCH  17  18
ENDBRANCH  16  17
ENDBRANCH  15  16
ENDBRANCH  14  15
ENDBRANCH  13  14
ENDBRANCH   1  13
TORSDOF 20
ENDMDL
MODEL 4
REMARK VINA RESULT:    -3.276      2.162      6.250
REMARK INTER + INTRA:         -10.693
REMARK INTER:                  -7.671
REMARK INTRA:                  -3.022
REMARK UNBOUND:                -3.588
REMARK SMILES CCCCCCCCCCCCCCCCCCCCCC(=O)[O-]
REMARK SMILES IDX 12 1 11 2 10 3 9 4 8 5 7 6 6 7 5 8 4 9 3 10 2 11 1 12 13 13
REMARK SMILES IDX 14 14 15 15 16 16 17 17 18 18 19 19 20 20 21 21 22 22 23 23
REMARK SMILES IDX 24 24
REMARK H PARENT
REMARK Flexibility Score: inf
ROOT
ATOM      1  C   UNL     1      -4.417  -5.951   6.437  1.00  0.00     0.000 C 
ENDROOT
BRANCH   1   2
ATOM      2  C   UNL     1      -4.609  -4.862   5.367  1.00  0.00     0.000 C 
BRANCH   2   3
ATOM      3  C   UNL     1      -4.624  -3.444   5.977  1.00  0.00     0.000 C 
BRANCH   3   4
ATOM      4  C   UNL     1      -6.007  -3.009   6.493  1.00  0.00    -0.000 C 
BRANCH   4   5
ATOM      5  C   UNL     1      -6.004  -2.658   7.990  1.00  0.00    -0.000 C 
BRANCH   5   6
ATOM      6  C   UNL     1      -7.393  -2.797   8.634  1.00  0.00    -0.000 C 
BRANCH   6   7
ATOM      7  C   UNL     1      -8.374  -3.598   7.764  1.00  0.00    -0.000 C 
BRANCH   7   8
ATOM      8  C   UNL     1      -9.658  -2.792   7.505  1.00  0.00    -0.000 C 
BRANCH   8   9
ATOM      9  C   UNL     1      -9.495  -1.297   7.820  1.00  0.00    -0.000 C 
BRANCH   9  10
ATOM     10  C   UNL     1      -9.475  -0.425   6.552  1.00  0.00    -0.000 C 
BRANCH  10  11
ATOM     11  C   UNL     1      -9.671   1.067   6.859  1.00  0.00    -0.003 C 
ATOM     12  C   UNL     1      -9.156   1.461   8.244  1.00  0.00     0.004 C 
ENDBRANCH  10  11
ENDBRANCH   9  10
ENDBRANCH   8   9
ENDBRANCH   7   8
ENDBRANCH   6   7
ENDBRANCH   5   6
ENDBRANCH   4   5
ENDBRANCH   3   4
ENDBRANCH   2   3
ENDBRANCH   1   2
BRANCH   1  13
ATOM     13  C   UNL     1      -3.716  -5.425   7.699  1.00  0.00     0.000 C 
BRANCH  13  14
ATOM     14  C   UNL     1      -4.410  -5.881   8.995  1.00  0.00     0.000 C 
BRANCH  14  15
ATOM     15  C   UNL     1      -5.873  -6.302   8.773  1.00  0.00     0.000 C 
BRANCH  15  16
ATOM     16  C   UNL     1      -6.333  -7.513   9.609  1.00  0.00     0.000 C 
BRANCH  16  17
ATOM     17  C   UNL     1      -5.498  -8.794   9.420  1.00  0.00     0.000 C 
BRANCH  17  18
ATOM     18  C   UNL     1      -6.103  -9.825   8.451  1.00  0.00     0.000 C 
BRANCH  18  19
ATOM     19  C   UNL     1      -5.754  -9.538   6.980  1.00  0.00     0.000 C 
BRANCH  19  20
ATOM     20  C   UNL     1      -6.994  -9.495   6.074  1.00  0.00     0.006 C 
BRANCH  20  21
ATOM     21  C   UNL     1      -8.149  -8.691   6.688  1.00  0.00     0.053 C 
BRANCH  21  22
ATOM     22  C   UNL     1      -8.525  -7.546   5.802  1.00  0.00     0.041 C 
ATOM     23  O   UNL     1      -7.777  -6.535   5.721  1.00  0.00    -0.550 OA
ATOM     24  O   UNL     1      -9.683  -7.610   5.036  1.00  0.00    -0.550 OA
ENDBRANCH  21  22
ENDBRANCH  20  21
ENDBRANCH  19  20
ENDBRANCH  18  19
ENDBRANCH  17  18
ENDBRANCH  16  17
ENDBRANCH  15  16
ENDBRANCH  14  15
ENDBRANCH  13  14
ENDBRANCH   1  13
TORSDOF 20
ENDMDL
MODEL 5
REMARK VINA RESULT:    -3.241      2.020      3.625
REMARK INTER + INTRA:         -10.617
REMARK INTER:                  -8.185
REMARK INTRA:                  -2.432
REMARK UNBOUND:                -3.588
REMARK SMILES CCCCCCCCCCCCCCCCCCCCCC(=O)[O-]
REMARK SMILES IDX 12 1 11 2 10 3 9 4 8 5 7 6 6 7 5 8 4 9 3 10 2 11 1 12 13 13
REMARK SMILES IDX 14 14 15 15 16 16 17 17 18 18 19 19 20 20 21 21 22 22 23 23
REMARK SMILES IDX 24 24
REMARK H PARENT
REMARK Flexibility Score: inf
ROOT
ATOM      1  C   UNL     1      -4.768  -2.684   5.634  1.00  0.00     0.000 C 
ENDROOT
BRANCH   1   2
ATOM      2  C   UNL     1      -3.870  -3.763   5.004  1.00  0.00     0.000 C 
BRANCH   2   3
ATOM      3  C   UNL     1      -4.181  -5.172   5.555  1.00  0.00     0.000 C 
BRANCH   3   4
ATOM      4  C   UNL     1      -5.357  -5.866   4.845  1.00  0.00    -0.000 C 
BRANCH   4   5
ATOM      5  C   UNL     1      -6.137  -6.815   5.769  1.00  0.00    -0.000 C 
BRANCH   5   6
ATOM      6  C   UNL     1      -5.645  -6.766   7.223  1.00  0.00    -0.000 C 
BRANCH   6   7
ATOM      7  C   UNL     1      -6.447  -7.688   8.154  1.00  0.00    -0.000 C 
BRANCH   7   8
ATOM      8  C   UNL     1      -7.848  -7.114   8.418  1.00  0.00    -0.000 C 
BRANCH   8   9
ATOM      9  C   UNL     1      -8.961  -8.161   8.253  1.00  0.00    -0.000 C 
BRANCH   9  10
ATOM     10  C   UNL     1      -8.757  -9.048   7.011  1.00  0.00    -0.000 C 
BRANCH  10  11
ATOM     11  C   UNL     1      -9.854  -8.843   5.955  1.00  0.00    -0.003 C 
ATOM     12  C   UNL     1      -9.756  -7.489   5.253  1.00  0.00     0.004 C 
ENDBRANCH  10  11
ENDBRANCH   9  10
ENDBRANCH   8   9
ENDBRANCH   7   8
ENDBRANCH   6   7
ENDBRANCH   5   6
ENDBRANCH   4   5
ENDBRANCH   3   4
ENDBRANCH   2   3
ENDBRANCH   1   2
BRANCH   1  13
ATOM     13  C   UNL     1      -5.226  -3.049   7.055  1.00  0.00     0.000 C 
BRANCH  13  14
ATOM     14  C   UNL     1      -6.758  -3.081   7.193  1.00  0.00     0.000 C 
BRANCH  14  15
ATOM     15  C   UNL     1      -7.222  -3.473   8.607  1.00  0.00     0.000 C 
BRANCH  15  16
ATOM     16  C   UNL     1      -6.824  -2.480   9.717  1.00  0.00     0.000 C 
BRANCH  16  17
ATOM     17  C   UNL     1      -7.343  -1.041   9.525  1.00  0.00     0.000 C 
BRANCH  17  18
ATOM     18  C   UNL     1      -8.872  -0.887   9.611  1.00  0.00     0.000 C 
BRANCH  18  19
ATOM     19  C   UNL     1      -9.495  -0.380   8.299  1.00  0.00     0.000 C 
BRANCH  19  20
ATOM     20  C   UNL     1      -9.979   1.075   8.396  1.00  0.00     0.006 C 
BRANCH  20  21
ATOM     21  C   UNL     1      -9.651   1.893   7.139  1.00  0.00     0.053 C 
BRANCH  21  22
ATOM     22  C   UNL     1      -9.177   3.263   7.510  1.00  0.00     0.041 C 
ATOM     23  O   UNL     1      -9.857   4.276   7.195  1.00  0.00    -0.550 OA
ATOM     24  O   UNL     1      -8.002   3.420   8.235  1.00  0.00    -0.550 OA
ENDBRANCH  21  22
ENDBRANCH  20  21
ENDBRANCH  19  20
ENDBRANCH  18  19
ENDBRANCH  17  18
ENDBRANCH  16  17
ENDBRANCH  15  16
ENDBRANCH  14  15
ENDBRANCH  13  14
ENDBRANCH   1  13
TORSDOF 20
ENDMDL
MODEL 6
REMARK VINA RESULT:    -3.237      2.992      6.770
REMARK INTER + INTRA:         -10.608
REMARK INTER:                  -7.464
REMARK INTRA:                  -3.144
REMARK UNBOUND:                -3.588
REMARK SMILES CCCCCCCCCCCCCCCCCCCCCC(=O)[O-]
REMARK SMILES IDX 12 1 11 2 10 3 9 4 8 5 7 6 6 7 5 8 4 9 3 10 2 11 1 12 13 13
REMARK SMILES IDX 14 14 15 15 16 16 17 17 18 18 19 19 20 20 21 21 22 22 23 23
REMARK SMILES IDX 24 24
REMARK H PARENT
REMARK Flexibility Score: inf
ROOT
ATOM      1  C   UNL     1      -4.506  -5.766   6.448  1.00  0.00     0.000 C 
ENDROOT
BRANCH   1   2
ATOM      2  C   UNL     1      -4.721  -4.648   5.413  1.00  0.00     0.000 C 
BRANCH   2   3
ATOM      3  C   UNL     1      -4.771  -3.251   6.070  1.00  0.00     0.000 C 
BRANCH   3   4
ATOM      4  C   UNL     1      -6.084  -2.969   6.819  1.00  0.00    -0.000 C 
BRANCH   4   5
ATOM      5  C   UNL     1      -5.867  -2.636   8.304  1.00  0.00    -0.000 C 
BRANCH   5   6
ATOM      6  C   UNL     1      -7.177  -2.304   9.035  1.00  0.00    -0.000 C 
BRANCH   6   7
ATOM      7  C   UNL     1      -8.329  -1.976   8.072  1.00  0.00    -0.000 C 
BRANCH   7   8
ATOM      8  C   UNL     1      -9.060  -0.697   8.510  1.00  0.00    -0.000 C 
BRANCH   8   9
ATOM      9  C   UNL     1      -8.271   0.112   9.552  1.00  0.00    -0.000 C 
BRANCH   9  10
ATOM     10  C   UNL     1      -8.273   1.622   9.252  1.00  0.00    -0.000 C 
BRANCH  10  11
ATOM     11  C   UNL     1      -9.150   1.980   8.042  1.00  0.00    -0.003 C 
ATOM     12  C   UNL     1      -9.086   3.464   7.682  1.00  0.00     0.004 C 
ENDBRANCH  10  11
ENDBRANCH   9  10
ENDBRANCH   8   9
ENDBRANCH   7   8
ENDBRANCH   6   7
ENDBRANCH   5   6
ENDBRANCH   4   5
ENDBRANCH   3   4
ENDBRANCH   2   3
ENDBRANCH   1   2
BRANCH   1  13
ATOM     13  C   UNL     1      -3.600  -5.332   7.611  1.00  0.00     0.000 C 
BRANCH  13  14
ATOM     14  C   UNL     1      -4.154  -5.757   8.983  1.00  0.00     0.000 C 
BRANCH  14  15
ATOM     15  C   UNL     1      -5.450  -6.580   8.874  1.00  0.00     0.000 C 
BRANCH  15  16
ATOM     16  C   UNL     1      -6.593  -6.114   9.797  1.00  0.00     0.000 C 
BRANCH  16  17
ATOM     17  C   UNL     1      -7.983  -6.043   9.135  1.00  0.00     0.000 C 
BRANCH  17  18
ATOM     18  C   UNL     1      -7.969  -5.682   7.639  1.00  0.00     0.000 C 
BRANCH  18  19
ATOM     19  C   UNL     1      -9.069  -6.404   6.841  1.00  0.00     0.000 C 
BRANCH  19  20
ATOM     20  C   UNL     1      -8.502  -7.324   5.749  1.00  0.00     0.006 C 
BRANCH  20  21
ATOM     21  C   UNL     1      -8.473  -8.799   6.174  1.00  0.00     0.053 C 
BRANCH  21  22
ATOM     22  C   UNL     1      -7.157  -9.142   6.798  1.00  0.00     0.041 C 
ATOM     23  O   UNL     1      -7.105  -9.535   7.994  1.00  0.00    -0.550 OA
ATOM     24  O   UNL     1      -5.989  -9.061   6.048  1.00  0.00    -0.550 OA
ENDBRANCH  21  22
ENDBRANCH  20  21
ENDBRANCH  19  20
ENDBRANCH  18  19
ENDBRANCH  17  18
ENDBRANCH  16  17
ENDBRANCH  15  16
ENDBRANCH  14  15
ENDBRANCH  13  14
ENDBRANCH   1  13
TORSDOF 20
ENDMDL
MODEL 7
REMARK VINA RESULT:    -3.142      1.804      3.286
REMARK INTER + INTRA:         -10.404
REMARK INTER:                  -7.699
REMARK INTRA:                  -2.705
REMARK UNBOUND:                -3.588
REMARK SMILES CCCCCCCCCCCCCCCCCCCCCC(=O)[O-]
REMARK SMILES IDX 12 1 11 2 10 3 9 4 8 5 7 6 6 7 5 8 4 9 3 10 2 11 1 12 13 13
REMARK SMILES IDX 14 14 15 15 16 16 17 17 18 18 19 19 20 20 21 21 22 22 23 23
REMARK SMILES IDX 24 24
REMARK H PARENT
REMARK Flexibility Score: inf
ROOT
ATOM      1  C   UNL     1      -4.479  -4.493   9.004  1.00  0.00     0.000 C 
ENDROOT
BRANCH   1   2
ATOM      2  C   UNL     1      -4.541  -5.956   9.477  1.00  0.00     0.000 C 
BRANCH   2   3
ATOM      3  C   UNL     1      -5.941  -6.574   9.271  1.00  0.00     0.000 C 
BRANCH   3   4
ATOM      4  C   UNL     1      -6.029  -8.053   9.685  1.00  0.00    -0.000 C 
BRANCH   4   5
ATOM      5  C   UNL     1      -6.854  -8.901   8.703  1.00  0.00    -0.000 C 
BRANCH   5   6
ATOM      6  C   UNL     1      -5.976  -9.725   7.749  1.00  0.00    -0.000 C 
BRANCH   6   7
ATOM      7  C   UNL     1      -6.195  -9.356   6.273  1.00  0.00    -0.000 C 
BRANCH   7   8
ATOM      8  C   UNL     1      -5.594  -7.976   5.960  1.00  0.00    -0.000 C 
BRANCH   8   9
ATOM      9  C   UNL     1      -6.664  -6.923   5.631  1.00  0.00    -0.000 C 
BRANCH   9  10
ATOM     10  C   UNL     1      -6.120  -5.485   5.712  1.00  0.00    -0.000 C 
BRANCH  10  11
ATOM     11  C   UNL     1      -4.594  -5.422   5.547  1.00  0.00    -0.003 C 
ATOM     12  C   UNL     1      -4.090  -4.018   5.215  1.00  0.00     0.004 C 
ENDBRANCH  10  11
ENDBRANCH   9  10
ENDBRANCH   8   9
ENDBRANCH   7   8
ENDBRANCH   6   7
ENDBRANCH   5   6
ENDBRANCH   4   5
ENDBRANCH   3   4
ENDBRANCH   2   3
ENDBRANCH   1   2
BRANCH   1  13
ATOM     13  C   UNL     1      -4.918  -3.499  10.091  1.00  0.00     0.000 C 
BRANCH  13  14
ATOM     14  C   UNL     1      -5.961  -2.489   9.582  1.00  0.00     0.000 C 
BRANCH  14  15
ATOM     15  C   UNL     1      -6.257  -2.642   8.080  1.00  0.00     0.000 C 
BRANCH  15  16
ATOM     16  C   UNL     1      -7.726  -2.961   7.739  1.00  0.00     0.000 C 
BRANCH  16  17
ATOM     17  C   UNL     1      -8.722  -1.811   7.989  1.00  0.00     0.000 C 
BRANCH  17  18
ATOM     18  C   UNL     1      -9.479  -1.890   9.326  1.00  0.00     0.000 C 
BRANCH  18  19
ATOM     19  C   UNL     1      -9.771  -0.505   9.929  1.00  0.00     0.000 C 
BRANCH  19  20
ATOM     20  C   UNL     1      -8.787   0.572   9.445  1.00  0.00     0.006 C 
BRANCH  20  21
ATOM     21  C   UNL     1      -9.429   1.964   9.362  1.00  0.00     0.053 C 
BRANCH  21  22
ATOM     22  C   UNL     1      -8.756   2.793   8.314  1.00  0.00     0.041 C 
ATOM     23  O   UNL     1      -7.628   3.308   8.541  1.00  0.00    -0.550 OA
ATOM     24  O   UNL     1      -9.357   2.969   7.073  1.00  0.00    -0.550 OA
ENDBRANCH  21  22
ENDBRANCH  20  21
ENDBRANCH  19  20
ENDBRANCH  18  19
ENDBRANCH  17  18
ENDBRANCH  16  17
ENDBRANCH  15  16
ENDBRANCH  14  15
ENDBRANCH  13  14
ENDBRANCH   1  13
TORSDOF 20
ENDMDL
MODEL 8
REMARK VINA RESULT:    -3.115      1.070      2.440
REMARK INTER + INTRA:         -10.345
REMARK INTER:                  -7.177
REMARK INTRA:                  -3.168
REMARK UNBOUND:                -3.588
REMARK SMILES CCCCCCCCCCCCCCCCCCCCCC(=O)[O-]
REMARK SMILES IDX 12 1 11 2 10 3 9 4 8 5 7 6 6 7 5 8 4 9 3 10 2 11 1 12 13 13
REMARK SMILES IDX 14 14 15 15 16 16 17 17 18 18 19 19 20 20 21 21 22 22 23 23
REMARK SMILES IDX 24 24
REMARK H PARENT
REMARK Flexibility Score: inf
ROOT
ATOM      1  C   UNL     1      -3.833  -5.234   8.188  1.00  0.00     0.000 C 
ENDROOT
BRANCH   1   2
ATOM      2  C   UNL     1      -4.540  -6.453   8.806  1.00  0.00     0.000 C 
BRANCH   2   3
ATOM      3  C   UNL     1      -5.985  -6.127   9.240  1.00  0.00     0.000 C 
BRANCH   3   4
ATOM      4  C   UNL     1      -6.709  -7.308   9.910  1.00  0.00    -0.000 C 
BRANCH   4   5
ATOM      5  C   UNL     1      -8.236  -7.247   9.743  1.00  0.00    -0.000 C 
BRANCH   5   6
ATOM      6  C   UNL     1      -8.687  -6.098   8.827  1.00  0.00    -0.000 C 
BRANCH   6   7
ATOM      7  C   UNL     1      -9.309  -6.594   7.513  1.00  0.00    -0.000 C 
BRANCH   7   8
ATOM      8  C   UNL     1      -8.368  -6.328   6.327  1.00  0.00    -0.000 C 
BRANCH   8   9
ATOM      9  C   UNL     1      -7.381  -7.480   6.081  1.00  0.00    -0.000 C 
BRANCH   9  10
ATOM     10  C   UNL     1      -8.002  -8.859   6.360  1.00  0.00    -0.000 C 
BRANCH  10  11
ATOM     11  C   UNL     1      -6.970  -9.995   6.290  1.00  0.00    -0.003 C 
ATOM     12  C   UNL     1      -5.945  -9.937   7.422  1.00  0.00     0.004 C 
ENDBRANCH  10  11
ENDBRANCH   9  10
ENDBRANCH   8   9
ENDBRANCH   7   8
ENDBRANCH   6   7
ENDBRANCH   5   6
ENDBRANCH   4   5
ENDBRANCH   3   4
ENDBRANCH   2   3
ENDBRANCH   1   2
BRANCH   1  13
ATOM     13  C   UNL     1      -3.845  -5.257   6.651  1.00  0.00     0.000 C 
BRANCH  13  14
ATOM     14  C   UNL     1      -5.104  -4.600   6.060  1.00  0.00     0.000 C 
BRANCH  14  15
ATOM     15  C   UNL     1      -5.228  -3.110   6.424  1.00  0.00     0.000 C 
BRANCH  15  16
ATOM     16  C   UNL     1      -6.078  -2.818   7.676  1.00  0.00     0.000 C 
BRANCH  16  17
ATOM     17  C   UNL     1      -7.601  -2.948   7.479  1.00  0.00     0.000 C 
BRANCH  17  18
ATOM     18  C   UNL     1      -8.454  -2.330   8.600  1.00  0.00     0.000 C 
BRANCH  18  19
ATOM     19  C   UNL     1      -7.842  -1.041   9.175  1.00  0.00     0.000 C 
BRANCH  19  20
ATOM     20  C   UNL     1      -8.859   0.107   9.270  1.00  0.00     0.006 C 
BRANCH  20  21
ATOM     21  C   UNL     1      -9.997  -0.025   8.249  1.00  0.00     0.053 C 
BRANCH  21  22
ATOM     22  C   UNL     1      -9.658   0.700   6.984  1.00  0.00     0.041 C 
ATOM     23  O   UNL     1      -9.356   0.055   5.945  1.00  0.00    -0.550 OA
ATOM     24  O   UNL     1      -9.709   2.088   6.943  1.00  0.00    -0.550 OA
ENDBRANCH  21  22
ENDBRANCH  20  21
ENDBRANCH  19  20
ENDBRANCH  18  19
ENDBRANCH  17  18
ENDBRANCH  16  17
ENDBRANCH  15  16
ENDBRANCH  14  15
ENDBRANCH  13  14
ENDBRANCH   1  13
TORSDOF 20
ENDMDL
MODEL 9
REMARK VINA RESULT:    -3.115      1.917      3.437
REMARK INTER + INTRA:         -10.344
REMARK INTER:                  -7.722
REMARK INTRA:                  -2.622
REMARK UNBOUND:                -3.588
REMARK SMILES CCCCCCCCCCCCCCCCCCCCCC(=O)[O-]
REMARK SMILES IDX 12 1 11 2 10 3 9 4 8 5 7 6 6 7 5 8 4 9 3 10 2 11 1 12 13 13
REMARK SMILES IDX 14 14 15 15 16 16 17 17 18 18 19 19 20 20 21 21 22 22 23 23
REMARK SMILES IDX 24 24
REMARK H PARENT
REMARK Flexibility Score: inf
ROOT
ATOM      1  C   UNL     1      -4.180  -3.847   5.254  1.00  0.00     0.000 C 
ENDROOT
BRANCH   1   2
ATOM      2  C   UNL     1      -4.781  -5.174   5.752  1.00  0.00     0.000 C 
BRANCH   2   3
ATOM      3  C   UNL     1      -3.849  -5.896   6.748  1.00  0.00     0.000 C 
BRANCH   3   4
ATOM      4  C   UNL     1      -3.803  -5.237   8.138  1.00  0.00    -0.000 C 
BRANCH   4   5
ATOM      5  C   UNL     1      -4.177  -6.205   9.272  1.00  0.00    -0.000 C 
BRANCH   5   6
ATOM      6  C   UNL     1      -5.511  -5.844   9.944  1.00  0.00    -0.000 C 
BRANCH   6   7
ATOM      7  C   UNL     1      -6.711  -5.981   8.995  1.00  0.00    -0.000 C 
BRANCH   7   8
ATOM      8  C   UNL     1      -6.765  -7.390   8.381  1.00  0.00    -0.000 C 
BRANCH   8   9
ATOM      9  C   UNL     1      -8.190  -7.816   7.994  1.00  0.00    -0.000 C 
BRANCH   9  10
ATOM     10  C   UNL     1      -8.328  -8.117   6.491  1.00  0.00    -0.000 C 
BRANCH  10  11
ATOM     11  C   UNL     1      -8.055  -6.884   5.616  1.00  0.00    -0.003 C 
ATOM     12  C   UNL     1      -8.891  -5.671   6.023  1.00  0.00     0.004 C 
ENDBRANCH  10  11
ENDBRANCH   9  10
ENDBRANCH   8   9
ENDBRANCH   7   8
ENDBRANCH   6   7
ENDBRANCH   5   6
ENDBRANCH   4   5
ENDBRANCH   3   4
ENDBRANCH   2   3
ENDBRANCH   1   2
BRANCH   1  13
ATOM     13  C   UNL     1      -4.888  -2.617   5.844  1.00  0.00     0.000 C 
BRANCH  13  14
ATOM     14  C   UNL     1      -6.071  -2.994   6.753  1.00  0.00     0.000 C 
BRANCH  14  15
ATOM     15  C   UNL     1      -5.928  -2.438   8.180  1.00  0.00     0.000 C 
BRANCH  15  16
ATOM     16  C   UNL     1      -7.246  -2.345   8.974  1.00  0.00     0.000 C 
BRANCH  16  17
ATOM     17  C   UNL     1      -8.528  -2.345   8.118  1.00  0.00     0.000 C 
BRANCH  17  18
ATOM     18  C   UNL     1      -9.416  -1.100   8.281  1.00  0.00     0.000 C 
BRANCH  18  19
ATOM     19  C   UNL     1      -8.854  -0.095   9.302  1.00  0.00     0.000 C 
BRANCH  19  20
ATOM     20  C   UNL     1      -9.080   1.366   8.883  1.00  0.00     0.006 C 
BRANCH  20  21
ATOM     21  C   UNL     1      -8.140   2.340   9.608  1.00  0.00     0.053 C 
BRANCH  21  22
ATOM     22  C   UNL     1      -7.860   3.536   8.753  1.00  0.00     0.041 C 
ATOM     23  O   UNL     1      -8.785   4.067   8.083  1.00  0.00    -0.550 OA
ATOM     24  O   UNL     1      -6.584   4.087   8.724  1.00  0.00    -0.550 OA
ENDBRANCH  21  22
ENDBRANCH  20  21
ENDBRANCH  19  20
ENDBRANCH  18  19
ENDBRANCH  17  18
ENDBRANCH  16  17
ENDBRANCH  15  16
ENDBRANCH  14  15
ENDBRANCH  13  14
ENDBRANCH   1  13
TORSDOF 20
ENDMDL
