MODEL 1
REMARK VINA RESULT:    -1.829      0.000      0.000
REMARK INTER + INTRA:          -2.238
REMARK INTER:                  -1.989
REMARK INTRA:                  -0.248
REMARK UNBOUND:                -0.248
REMARK SMILES O=C([O-])c1ccccc1O
REMARK SMILES IDX 4 1 9 2 5 3 8 4 6 5 7 6 2 7 1 8 3 9 10 10
REMARK H PARENT 10 11
REMARK Flexibility Score: inf
ROOT
ATOM      1  C   UNL     1      11.468   2.640   6.906  1.00  0.00     0.039 A 
ATOM      2  C   UNL     1      12.686   3.274   6.563  1.00  0.00     0.124 A 
ATOM      3  C   UNL     1      11.351   1.249   6.721  1.00  0.00     0.014 A 
ATOM      4  C   UNL     1      13.750   2.514   6.051  1.00  0.00     0.047 A 
ATOM      5  C   UNL     1      12.418   0.505   6.210  1.00  0.00     0.001 A 
ATOM      6  C   UNL     1      13.616   1.137   5.876  1.00  0.00     0.004 A 
ENDROOT
BRANCH   1   7
ATOM      7  C   UNL     1      10.313   3.398   7.451  1.00  0.00     0.075 C 
ATOM      8  O   UNL     1       9.863   4.414   6.856  1.00  0.00    -0.545 OA
ATOM      9  O   UNL     1       9.708   2.996   8.636  1.00  0.00    -0.545 OA
ENDBRANCH   1   7
BRANCH   2  10
ATOM     10  O   UNL     1      12.847   4.649   6.729  1.00  0.00    -0.507 OA
ATOM     11  H   UNL     1      13.141   5.248   5.966  1.00  0.00     0.293 HD
ENDBRANCH   2  10
TORSDOF 2
ENDMDL
MODEL 2
REMARK VINA RESULT:    -1.467      2.353      3.963
REMARK INTER + INTRA:          -1.844
REMARK INTER:                  -1.599
REMARK INTRA:                  -0.245
REMARK UNBOUND:                -0.248
REMARK SMILES O=C([O-])c1ccccc1O
REMARK SMILES IDX 4 1 9 2 5 3 8 4 6 5 7 6 2 7 1 8 3 9 10 10
REMARK H PARENT 10 11
REMARK Flexibility Score: inf
ROOT
ATOM      1  C   UNL     1      12.875   2.529   6.769  1.00  0.00     0.039 A 
ATOM      2  C   UNL     1      11.610   1.970   6.468  1.00  0.00     0.124 A 
ATOM      3  C   UNL     1      13.039   3.925   6.682  1.00  0.00     0.014 A 
ATOM      4  C   UNL     1      10.548   2.807   6.091  1.00  0.00     0.047 A 
ATOM      5  C   UNL     1      11.973   4.746   6.305  1.00  0.00     0.001 A 
ATOM      6  C   UNL     1      10.729   4.188   6.010  1.00  0.00     0.004 A 
ENDROOT
BRANCH   1   7
ATOM      7  C   UNL     1      14.030   1.687   7.173  1.00  0.00     0.075 C 
ATOM      8  O   UNL     1      14.425   0.735   6.449  1.00  0.00    -0.545 OA
ATOM      9  O   UNL     1      14.697   1.939   8.366  1.00  0.00    -0.545 OA
ENDBRANCH   1   7
BRANCH   2  10
ATOM     10  O   UNL     1      11.401   0.593   6.542  1.00  0.00    -0.507 OA
ATOM     11  H   UNL     1      11.140   0.049   5.728  1.00  0.00     0.293 HD
ENDBRANCH   2  10
TORSDOF 2
ENDMDL
MODEL 3
REMARK VINA RESULT:    -1.257      0.962      2.132
REMARK INTER + INTRA:          -1.615
REMARK INTER:                  -1.374
REMARK INTRA:                  -0.241
REMARK UNBOUND:                -0.248
REMARK SMILES O=C([O-])c1ccccc1O
REMARK SMILES IDX 4 1 9 2 5 3 8 4 6 5 7 6 2 7 1 8 3 9 10 10
REMARK H PARENT 10 11
REMARK Flexibility Score: inf
ROOT
ATOM      1  C   UNL     1      11.527   2.685   6.695  1.00  0.00     0.039 A 
ATOM      2  C   UNL     1      11.511   1.293   6.952  1.00  0.00     0.124 A 
ATOM      3  C   UNL     1      12.589   3.225   5.944  1.00  0.00     0.014 A 
ATOM      4  C   UNL     1      12.544   0.480   6.459  1.00  0.00     0.047 A 
ATOM      5  C   UNL     1      13.611   2.404   5.461  1.00  0.00     0.001 A 
ATOM      6  C   UNL     1      13.588   1.033   5.718  1.00  0.00     0.004 A 
ENDROOT
BRANCH   1   7
ATOM      7  C   UNL     1      10.459   3.588   7.194  1.00  0.00     0.075 C 
ATOM      8  O   UNL     1      10.076   4.579   6.515  1.00  0.00    -0.545 OA
ATOM      9  O   UNL     1       9.861   3.353   8.426  1.00  0.00    -0.545 OA
ENDBRANCH   1   7
BRANCH   2  10
ATOM     10  O   UNL     1      10.479   0.714   7.690  1.00  0.00    -0.507 OA
ATOM     11  H   UNL     1      10.191   1.087   8.587  1.00  0.00     0.293 HD
ENDBRANCH   2  10
TORSDOF 2
ENDMDL
MODEL 4
REMARK VINA RESULT:    -0.839      2.295      3.424
REMARK INTER + INTRA:          -1.161
REMARK INTER:                  -0.911
REMARK INTRA:                  -0.250
REMARK UNBOUND:                -0.248
REMARK SMILES O=C([O-])c1ccccc1O
REMARK SMILES IDX 4 1 9 2 5 3 8 4 6 5 7 6 2 7 1 8 3 9 10 10
REMARK H PARENT 10 11
REMARK Flexibility Score: inf
ROOT
ATOM      1  C   UNL     1      12.839   2.495   6.637  1.00  0.00     0.039 A 
ATOM      2  C   UNL     1      12.877   3.885   6.903  1.00  0.00     0.124 A 
ATOM      3  C   UNL     1      11.715   1.960   5.979  1.00  0.00     0.014 A 
ATOM      4  C   UNL     1      11.805   4.701   6.510  1.00  0.00     0.047 A 
ATOM      5  C   UNL     1      10.655   2.784   5.594  1.00  0.00     0.001 A 
ATOM      6  C   UNL     1      10.700   4.153   5.858  1.00  0.00     0.004 A 
ENDROOT
BRANCH   1   7
ATOM      7  C   UNL     1      13.948   1.589   7.032  1.00  0.00     0.075 C 
ATOM      8  O   UNL     1      14.332   0.662   6.271  1.00  0.00    -0.545 OA
ATOM      9  O   UNL     1      14.582   1.752   8.259  1.00  0.00    -0.545 OA
ENDBRANCH   1   7
BRANCH   2  10
ATOM     10  O   UNL     1      13.970   4.459   7.551  1.00  0.00    -0.507 OA
ATOM     11  H   UNL     1      14.172   5.450   7.481  1.00  0.00     0.293 HD
ENDBRANCH   2  10
TORSDOF 2
ENDMDL
MODEL 5
REMARK VINA RESULT:    -0.488      1.940      2.735
REMARK INTER + INTRA:          -0.779
REMARK INTER:                  -0.574
REMARK INTRA:                  -0.205
REMARK UNBOUND:                -0.248
REMARK SMILES O=C([O-])c1ccccc1O
REMARK SMILES IDX 4 1 9 2 5 3 8 4 6 5 7 6 2 7 1 8 3 9 10 10
REMARK H PARENT 10 11
REMARK Flexibility Score: inf
ROOT
ATOM      1  C   UNL     1      10.849   2.390   7.407  1.00  0.00     0.039 A 
ATOM      2  C   UNL     1      11.899   1.654   6.808  1.00  0.00     0.124 A 
ATOM      3  C   UNL     1      10.734   3.764   7.121  1.00  0.00     0.014 A 
ATOM      4  C   UNL     1      12.800   2.297   5.945  1.00  0.00     0.047 A 
ATOM      5  C   UNL     1      11.639   4.392   6.260  1.00  0.00     0.001 A 
ATOM      6  C   UNL     1      12.670   3.659   5.673  1.00  0.00     0.004 A 
ENDROOT
BRANCH   1   7
ATOM      7  C   UNL     1       9.869   1.757   8.326  1.00  0.00     0.075 C 
ATOM      8  O   UNL     1       9.231   2.442   9.169  1.00  0.00    -0.545 OA
ATOM      9  O   UNL     1       9.640   0.387   8.270  1.00  0.00    -0.545 OA
ENDBRANCH   1   7
BRANCH   2  10
ATOM     10  O   UNL     1      12.051   0.291   7.062  1.00  0.00    -0.507 OA
ATOM     11  H   UNL     1      11.966  -0.090   7.997  1.00  0.00     0.293 HD
ENDBRANCH   2  10
TORSDOF 2
ENDMDL
MODEL 6
REMARK VINA RESULT:     0.098      1.816      3.378
REMARK INTER + INTRA:          -0.142
REMARK INTER:                   0.109
REMARK INTRA:                  -0.250
REMARK UNBOUND:                -0.248
REMARK SMILES O=C([O-])c1ccccc1O
REMARK SMILES IDX 4 1 9 2 5 3 8 4 6 5 7 6 2 7 1 8 3 9 10 10
REMARK H PARENT 10 11
REMARK Flexibility Score: inf
ROOT
ATOM      1  C   UNL     1      12.002   2.183   6.665  1.00  0.00     0.039 A 
ATOM      2  C   UNL     1      11.607   3.528   6.865  1.00  0.00     0.124 A 
ATOM      3  C   UNL     1      11.235   1.157   7.251  1.00  0.00     0.014 A 
ATOM      4  C   UNL     1      10.470   3.817   7.635  1.00  0.00     0.047 A 
ATOM      5  C   UNL     1      10.105   1.459   8.015  1.00  0.00     0.001 A 
ATOM      6  C   UNL     1       9.723   2.787   8.207  1.00  0.00     0.004 A 
ENDROOT
BRANCH   1   7
ATOM      7  C   UNL     1      13.196   1.826   5.859  1.00  0.00     0.075 C 
ATOM      8  O   UNL     1      13.409   2.361   4.738  1.00  0.00    -0.545 OA
ATOM      9  O   UNL     1      14.106   0.887   6.333  1.00  0.00    -0.545 OA
ENDBRANCH   1   7
BRANCH   2  10
ATOM     10  O   UNL     1      12.336   4.577   6.303  1.00  0.00    -0.507 OA
ATOM     11  H   UNL     1      12.246   5.529   6.639  1.00  0.00     0.293 HD
ENDBRANCH   2  10
TORSDOF 2
ENDMDL
MODEL 7
REMARK VINA RESULT:     0.248      1.934      3.495
REMARK INTER + INTRA:           0.021
REMARK INTER:                   0.264
REMARK INTRA:                  -0.243
REMARK UNBOUND:                -0.248
REMARK SMILES O=C([O-])c1ccccc1O
REMARK SMILES IDX 4 1 9 2 5 3 8 4 6 5 7 6 2 7 1 8 3 9 10 10
REMARK H PARENT 10 11
REMARK Flexibility Score: inf
ROOT
ATOM      1  C   UNL     1      11.032   2.835   7.243  1.00  0.00     0.039 A 
ATOM      2  C   UNL     1      11.081   1.430   7.075  1.00  0.00     0.124 A 
ATOM      3  C   UNL     1      10.136   3.375   8.185  1.00  0.00     0.014 A 
ATOM      4  C   UNL     1      10.245   0.605   7.842  1.00  0.00     0.047 A 
ATOM      5  C   UNL     1       9.309   2.541   8.943  1.00  0.00     0.001 A 
ATOM      6  C   UNL     1       9.364   1.157   8.771  1.00  0.00     0.004 A 
ENDROOT
BRANCH   1   7
ATOM      7  C   UNL     1      11.895   3.751   6.455  1.00  0.00     0.075 C 
ATOM      8  O   UNL     1      11.397   4.673   5.756  1.00  0.00    -0.545 OA
ATOM      9  O   UNL     1      13.277   3.604   6.478  1.00  0.00    -0.545 OA
ENDBRANCH   1   7
BRANCH   2  10
ATOM     10  O   UNL     1      11.954   0.851   6.153  1.00  0.00    -0.507 OA
ATOM     11  H   UNL     1      12.923   0.663   6.382  1.00  0.00     0.293 HD
ENDBRANCH   2  10
TORSDOF 2
ENDMDL
MODEL 8
REMARK VINA RESULT:     0.290      1.857      3.255
REMARK INTER + INTRA:           0.067
REMARK INTER:                   0.280
REMARK INTRA:                  -0.213
REMARK UNBOUND:                -0.248
REMARK SMILES O=C([O-])c1ccccc1O
REMARK SMILES IDX 4 1 9 2 5 3 8 4 6 5 7 6 2 7 1 8 3 9 10 10
REMARK H PARENT 10 11
REMARK Flexibility Score: inf
ROOT
ATOM      1  C   UNL     1      13.609   2.790   7.348  1.00  0.00     0.039 A 
ATOM      2  C   UNL     1      12.541   3.552   6.815  1.00  0.00     0.124 A 
ATOM      3  C   UNL     1      13.716   1.431   6.993  1.00  0.00     0.014 A 
ATOM      4  C   UNL     1      11.615   2.949   5.950  1.00  0.00     0.047 A 
ATOM      5  C   UNL     1      12.787   0.844   6.131  1.00  0.00     0.001 A 
ATOM      6  C   UNL     1      11.738   1.602   5.609  1.00  0.00     0.004 A 
ENDROOT
BRANCH   1   7
ATOM      7  C   UNL     1      14.614   3.381   8.267  1.00  0.00     0.075 C 
ATOM      8  O   UNL     1      15.261   2.660   9.073  1.00  0.00    -0.545 OA
ATOM      9  O   UNL     1      14.858   4.749   8.252  1.00  0.00    -0.545 OA
ENDBRANCH   1   7
BRANCH   2  10
ATOM     10  O   UNL     1      12.396   4.901   7.139  1.00  0.00    -0.507 OA
ATOM     11  H   UNL     1      13.041   5.604   6.797  1.00  0.00     0.293 HD
ENDBRANCH   2  10
TORSDOF 2
ENDMDL
MODEL 9
REMARK VINA RESULT:     0.785      2.043      2.769
REMARK INTER + INTRA:           0.606
REMARK INTER:                   0.854
REMARK INTRA:                  -0.249
REMARK UNBOUND:                -0.248
REMARK SMILES O=C([O-])c1ccccc1O
REMARK SMILES IDX 4 1 9 2 5 3 8 4 6 5 7 6 2 7 1 8 3 9 10 10
REMARK H PARENT 10 11
REMARK Flexibility Score: inf
ROOT
ATOM      1  C   UNL     1      12.368   3.009   6.634  1.00  0.00     0.039 A 
ATOM      2  C   UNL     1      12.748   1.649   6.743  1.00  0.00     0.124 A 
ATOM      3  C   UNL     1      13.175   3.990   7.240  1.00  0.00     0.014 A 
ATOM      4  C   UNL     1      13.912   1.304   7.446  1.00  0.00     0.047 A 
ATOM      5  C   UNL     1      14.332   3.632   7.937  1.00  0.00     0.001 A 
ATOM      6  C   UNL     1      14.700   2.290   8.040  1.00  0.00     0.004 A 
ENDROOT
BRANCH   1   7
ATOM      7  C   UNL     1      11.145   3.426   5.901  1.00  0.00     0.075 C 
ATOM      8  O   UNL     1      10.855   2.925   4.782  1.00  0.00    -0.545 OA
ATOM      9  O   UNL     1      10.297   4.384   6.444  1.00  0.00    -0.545 OA
ENDBRANCH   1   7
BRANCH   2  10
ATOM     10  O   UNL     1      11.979   0.643   6.158  1.00  0.00    -0.507 OA
ATOM     11  H   UNL     1      12.297  -0.318   6.122  1.00  0.00     0.293 HD
ENDBRANCH   2  10
TORSDOF 2
ENDMDL
