MODEL 1
REMARK VINA RESULT:    -4.602      0.000      0.000
REMARK INTER + INTRA:          -8.335
REMARK INTER:                  -7.831
REMARK INTRA:                  -0.504
REMARK UNBOUND:                -0.504
REMARK SMILES CCCCCCCCCCCCCC(=O)[O-]
REMARK SMILES IDX 8 1 9 2 10 3 11 4 12 5 13 6 14 7 15 8 16 9 7 10 6 11 5 12
REMARK SMILES IDX 4 13 3 14 2 15 1 16
REMARK H PARENT
REMARK Flexibility Score: inf
ROOT
ATOM      1  C   UNL     1     -36.264  -8.430  -0.072  1.00  0.00     0.000 C 
ENDROOT
BRANCH   1   2
ATOM      2  C   UNL     1     -36.279  -8.992   1.360  1.00  0.00     0.000 C 
BRANCH   2   3
ATOM      3  C   UNL     1     -35.637 -10.387   1.453  1.00  0.00     0.000 C 
BRANCH   3   4
ATOM      4  C   UNL     1     -35.491 -10.872   2.905  1.00  0.00     0.000 C 
BRANCH   4   5
ATOM      5  C   UNL     1     -34.416 -11.958   3.065  1.00  0.00     0.006 C 
BRANCH   5   6
ATOM      6  C   UNL     1     -33.146 -11.589   2.295  1.00  0.00     0.053 C 
BRANCH   6   7
ATOM      7  C   UNL     1     -32.044 -11.229   3.241  1.00  0.00     0.041 C 
ATOM      8  O   UNL     1     -30.886 -11.000   2.807  1.00  0.00    -0.550 OA
ATOM      9  O   UNL     1     -32.309 -11.100   4.599  1.00  0.00    -0.550 OA
ENDBRANCH   6   7
ENDBRANCH   5   6
ENDBRANCH   4   5
ENDBRANCH   3   4
ENDBRANCH   2   3
ENDBRANCH   1   2
BRANCH   1  10
ATOM     10  C   UNL     1     -37.566  -8.716  -0.837  1.00  0.00     0.000 C 
BRANCH  10  11
ATOM     11  C   UNL     1     -38.125  -7.434  -1.465  1.00  0.00    -0.000 C 
BRANCH  11  12
ATOM     12  C   UNL     1     -37.556  -6.188  -0.775  1.00  0.00    -0.000 C 
BRANCH  12  13
ATOM     13  C   UNL     1     -38.026  -4.905  -1.477  1.00  0.00    -0.000 C 
BRANCH  13  14
ATOM     14  C   UNL     1     -36.942  -3.806  -1.471  1.00  0.00    -0.000 C 
BRANCH  14  15
ATOM     15  C   UNL     1     -37.216  -2.677  -0.464  1.00  0.00    -0.003 C 
ATOM     16  C   UNL     1     -36.744  -1.310  -0.954  1.00  0.00     0.004 C 
ENDBRANCH  14  15
ENDBRANCH  13  14
ENDBRANCH  12  13
ENDBRANCH  11  12
ENDBRANCH  10  11
ENDBRANCH   1  10
TORSDOF 12
ENDMDL
MODEL 2
REMARK VINA RESULT:    -4.442      4.000      8.262
REMARK INTER + INTRA:          -8.062
REMARK INTER:                  -7.533
REMARK INTRA:                  -0.530
REMARK UNBOUND:                -0.504
REMARK SMILES CCCCCCCCCCCCCC(=O)[O-]
REMARK SMILES IDX 8 1 9 2 10 3 11 4 12 5 13 6 14 7 15 8 16 9 7 10 6 11 5 12
REMARK SMILES IDX 4 13 3 14 2 15 1 16
REMARK H PARENT
REMARK Flexibility Score: inf
ROOT
ATOM      1  C   UNL     1     -36.322  -8.991   1.232  1.00  0.00     0.000 C 
ENDROOT
BRANCH   1   2
ATOM      2  C   UNL     1     -37.686  -8.392   0.852  1.00  0.00     0.000 C 
BRANCH   2   3
ATOM      3  C   UNL     1     -37.810  -8.115  -0.657  1.00  0.00     0.000 C 
BRANCH   3   4
ATOM      4  C   UNL     1     -37.084  -6.828  -1.081  1.00  0.00     0.000 C 
BRANCH   4   5
ATOM      5  C   UNL     1     -37.882  -5.557  -0.750  1.00  0.00     0.006 C 
BRANCH   5   6
ATOM      6  C   UNL     1     -37.616  -4.459  -1.783  1.00  0.00     0.053 C 
BRANCH   6   7
ATOM      7  C   UNL     1     -37.220  -3.185  -1.104  1.00  0.00     0.041 C 
ATOM      8  O   UNL     1     -36.653  -2.271  -1.756  1.00  0.00    -0.550 OA
ATOM      9  O   UNL     1     -37.523  -2.990   0.237  1.00  0.00    -0.550 OA
ENDBRANCH   6   7
ENDBRANCH   5   6
ENDBRANCH   4   5
ENDBRANCH   3   4
ENDBRANCH   2   3
ENDBRANCH   1   2
BRANCH   1  10
ATOM     10  C   UNL     1     -36.222  -9.339   2.725  1.00  0.00     0.000 C 
BRANCH  10  11
ATOM     11  C   UNL     1     -35.957 -10.836   2.922  1.00  0.00    -0.000 C 
BRANCH  11  12
ATOM     12  C   UNL     1     -34.983 -11.368   1.863  1.00  0.00    -0.000 C 
BRANCH  12  13
ATOM     13  C   UNL     1     -33.667 -11.832   2.507  1.00  0.00    -0.000 C 
BRANCH  13  14
ATOM     14  C   UNL     1     -33.144 -10.826   3.555  1.00  0.00    -0.000 C 
BRANCH  14  15
ATOM     15  C   UNL     1     -31.711 -11.120   4.028  1.00  0.00    -0.003 C 
ATOM     16  C   UNL     1     -30.682 -11.048   2.903  1.00  0.00     0.004 C 
ENDBRANCH  14  15
ENDBRANCH  13  14
ENDBRANCH  12  13
ENDBRANCH  11  12
ENDBRANCH  10  11
ENDBRANCH   1  10
TORSDOF 12
ENDMDL
MODEL 3
REMARK VINA RESULT:    -4.081      3.463      7.247
REMARK INTER + INTRA:          -7.447
REMARK INTER:                  -6.438
REMARK INTRA:                  -1.009
REMARK UNBOUND:                -0.504
REMARK SMILES CCCCCCCCCCCCCC(=O)[O-]
REMARK SMILES IDX 8 1 9 2 10 3 11 4 12 5 13 6 14 7 15 8 16 9 7 10 6 11 5 12
REMARK SMILES IDX 4 13 3 14 2 15 1 16
REMARK H PARENT
REMARK Flexibility Score: inf
ROOT
ATOM      1  C   UNL     1     -35.930  -9.103   1.737  1.00  0.00     0.000 C 
ENDROOT
BRANCH   1   2
ATOM      2  C   UNL     1     -37.048  -8.840   0.715  1.00  0.00     0.000 C 
BRANCH   2   3
ATOM      3  C   UNL     1     -36.611  -7.880  -0.406  1.00  0.00     0.000 C 
BRANCH   3   4
ATOM      4  C   UNL     1     -37.524  -7.959  -1.639  1.00  0.00     0.000 C 
BRANCH   4   5
ATOM      5  C   UNL     1     -37.506  -9.343  -2.306  1.00  0.00     0.006 C 
BRANCH   5   6
ATOM      6  C   UNL     1     -36.097  -9.702  -2.784  1.00  0.00     0.053 C 
BRANCH   6   7
ATOM      7  C   UNL     1     -35.634 -10.974  -2.148  1.00  0.00     0.041 C 
ATOM      8  O   UNL     1     -36.473 -11.825  -1.751  1.00  0.00    -0.550 OA
ATOM      9  O   UNL     1     -34.276 -11.242  -2.037  1.00  0.00    -0.550 OA
ENDBRANCH   6   7
ENDBRANCH   5   6
ENDBRANCH   4   5
ENDBRANCH   3   4
ENDBRANCH   2   3
ENDBRANCH   1   2
BRANCH   1  10
ATOM     10  C   UNL     1     -36.134 -10.411   2.517  1.00  0.00     0.000 C 
BRANCH  10  11
ATOM     11  C   UNL     1     -35.639 -11.615   1.708  1.00  0.00    -0.000 C 
BRANCH  11  12
ATOM     12  C   UNL     1     -34.130 -11.526   1.452  1.00  0.00    -0.000 C 
BRANCH  12  13
ATOM     13  C   UNL     1     -33.335 -12.101   2.634  1.00  0.00    -0.000 C 
BRANCH  13  14
ATOM     14  C   UNL     1     -32.458 -11.033   3.322  1.00  0.00    -0.000 C 
BRANCH  14  15
ATOM     15  C   UNL     1     -30.979 -11.089   2.907  1.00  0.00    -0.003 C 
ATOM     16  C   UNL     1     -30.019 -10.947   4.086  1.00  0.00     0.004 C 
ENDBRANCH  14  15
ENDBRANCH  13  14
ENDBRANCH  12  13
ENDBRANCH  11  12
ENDBRANCH  10  11
ENDBRANCH   1  10
TORSDOF 12
ENDMDL
MODEL 4
REMARK VINA RESULT:    -4.002      3.587      6.803
REMARK INTER + INTRA:          -7.314
REMARK INTER:                  -6.292
REMARK INTRA:                  -1.022
REMARK UNBOUND:                -0.504
REMARK SMILES CCCCCCCCCCCCCC(=O)[O-]
REMARK SMILES IDX 8 1 9 2 10 3 11 4 12 5 13 6 14 7 15 8 16 9 7 10 6 11 5 12
REMARK SMILES IDX 4 13 3 14 2 15 1 16
REMARK H PARENT
REMARK Flexibility Score: inf
ROOT
ATOM      1  C   UNL     1     -36.130  -9.683   0.926  1.00  0.00     0.000 C 
ENDROOT
BRANCH   1   2
ATOM      2  C   UNL     1     -36.195  -8.523  -0.082  1.00  0.00     0.000 C 
BRANCH   2   3
ATOM      3  C   UNL     1     -36.952  -8.900  -1.368  1.00  0.00     0.000 C 
BRANCH   3   4
ATOM      4  C   UNL     1     -37.575 -10.303  -1.294  1.00  0.00     0.000 C 
BRANCH   4   5
ATOM      5  C   UNL     1     -36.797 -11.344  -2.115  1.00  0.00     0.006 C 
BRANCH   5   6
ATOM      6  C   UNL     1     -35.499 -10.749  -2.664  1.00  0.00     0.053 C 
BRANCH   6   7
ATOM      7  C   UNL     1     -34.315 -11.507  -2.151  1.00  0.00     0.041 C 
ATOM      8  O   UNL     1     -33.305 -11.676  -2.882  1.00  0.00    -0.550 OA
ATOM      9  O   UNL     1     -34.309 -11.984  -0.846  1.00  0.00    -0.550 OA
ENDBRANCH   6   7
ENDBRANCH   5   6
ENDBRANCH   4   5
ENDBRANCH   3   4
ENDBRANCH   2   3
ENDBRANCH   1   2
BRANCH   1  10
ATOM     10  C   UNL     1     -36.253  -9.211   2.383  1.00  0.00     0.000 C 
BRANCH  10  11
ATOM     11  C   UNL     1     -36.389 -10.405   3.335  1.00  0.00    -0.000 C 
BRANCH  11  12
ATOM     12  C   UNL     1     -35.799 -11.676   2.714  1.00  0.00    -0.000 C 
BRANCH  12  13
ATOM     13  C   UNL     1     -34.503 -12.090   3.428  1.00  0.00    -0.000 C 
BRANCH  13  14
ATOM     14  C   UNL     1     -33.244 -11.597   2.685  1.00  0.00    -0.000 C 
BRANCH  14  15
ATOM     15  C   UNL     1     -32.209 -10.928   3.605  1.00  0.00    -0.003 C 
ATOM     16  C   UNL     1     -30.772 -11.109   3.121  1.00  0.00     0.004 C 
ENDBRANCH  14  15
ENDBRANCH  13  14
ENDBRANCH  12  13
ENDBRANCH  11  12
ENDBRANCH  10  11
ENDBRANCH   1  10
TORSDOF 12
ENDMDL
MODEL 5
REMARK VINA RESULT:    -3.943     19.588     21.461
REMARK INTER + INTRA:          -7.213
REMARK INTER:                  -5.515
REMARK INTRA:                  -1.699
REMARK UNBOUND:                -0.504
REMARK SMILES CCCCCCCCCCCCCC(=O)[O-]
REMARK SMILES IDX 8 1 9 2 10 3 11 4 12 5 13 6 14 7 15 8 16 9 7 10 6 11 5 12
REMARK SMILES IDX 4 13 3 14 2 15 1 16
REMARK H PARENT
REMARK Flexibility Score: inf
ROOT
ATOM      1  C   UNL     1     -23.704   4.761  12.038  1.00  0.00     0.000 C 
ENDROOT
BRANCH   1   2
ATOM      2  C   UNL     1     -22.688   4.369  13.125  1.00  0.00     0.000 C 
BRANCH   2   3
ATOM      3  C   UNL     1     -21.607   3.406  12.603  1.00  0.00     0.000 C 
BRANCH   3   4
ATOM      4  C   UNL     1     -21.950   2.829  11.220  1.00  0.00     0.000 C 
BRANCH   4   5
ATOM      5  C   UNL     1     -20.707   2.594  10.348  1.00  0.00     0.006 C 
BRANCH   5   6
ATOM      6  C   UNL     1     -21.073   2.590   8.862  1.00  0.00     0.053 C 
BRANCH   6   7
ATOM      7  C   UNL     1     -21.682   1.279   8.475  1.00  0.00     0.041 C 
ATOM      8  O   UNL     1     -21.129   0.200   8.811  1.00  0.00    -0.550 OA
ATOM      9  O   UNL     1     -22.888   1.250   7.784  1.00  0.00    -0.550 OA
ENDBRANCH   6   7
ENDBRANCH   5   6
ENDBRANCH   4   5
ENDBRANCH   3   4
ENDBRANCH   2   3
ENDBRANCH   1   2
BRANCH   1  10
ATOM     10  C   UNL     1     -24.678   5.855  12.502  1.00  0.00     0.000 C 
BRANCH  10  11
ATOM     11  C   UNL     1     -24.207   7.239  12.039  1.00  0.00    -0.000 C 
BRANCH  11  12
ATOM     12  C   UNL     1     -23.322   7.904  13.100  1.00  0.00    -0.000 C 
BRANCH  12  13
ATOM     13  C   UNL     1     -21.872   8.030  12.608  1.00  0.00    -0.000 C 
BRANCH  13  14
ATOM     14  C   UNL     1     -21.739   7.726  11.101  1.00  0.00    -0.000 C 
BRANCH  14  15
ATOM     15  C   UNL     1     -20.738   6.601  10.785  1.00  0.00    -0.003 C 
ATOM     16  C   UNL     1     -20.668   6.262   9.298  1.00  0.00     0.004 C 
ENDBRANCH  14  15
ENDBRANCH  13  14
ENDBRANCH  12  13
ENDBRANCH  11  12
ENDBRANCH  10  11
ENDBRANCH   1  10
TORSDOF 12
ENDMDL
MODEL 6
REMARK VINA RESULT:    -3.865     18.761     21.754
REMARK INTER + INTRA:          -7.081
REMARK INTER:                  -6.200
REMARK INTRA:                  -0.880
REMARK UNBOUND:                -0.504
REMARK SMILES CCCCCCCCCCCCCC(=O)[O-]
REMARK SMILES IDX 8 1 9 2 10 3 11 4 12 5 13 6 14 7 15 8 16 9 7 10 6 11 5 12
REMARK SMILES IDX 4 13 3 14 2 15 1 16
REMARK H PARENT
REMARK Flexibility Score: inf
ROOT
ATOM      1  C   UNL     1     -19.835   6.756  -4.861  1.00  0.00     0.000 C 
ENDROOT
BRANCH   1   2
ATOM      2  C   UNL     1     -20.264   8.122  -4.299  1.00  0.00     0.000 C 
BRANCH   2   3
ATOM      3  C   UNL     1     -20.985   8.003  -2.945  1.00  0.00     0.000 C 
BRANCH   3   4
ATOM      4  C   UNL     1     -20.105   7.352  -1.865  1.00  0.00     0.000 C 
BRANCH   4   5
ATOM      5  C   UNL     1     -20.925   6.737  -0.720  1.00  0.00     0.006 C 
BRANCH   5   6
ATOM      6  C   UNL     1     -22.377   6.510  -1.147  1.00  0.00     0.053 C 
BRANCH   6   7
ATOM      7  C   UNL     1     -22.652   5.050  -1.319  1.00  0.00     0.041 C 
ATOM      8  O   UNL     1     -23.233   4.403  -0.408  1.00  0.00    -0.550 OA
ATOM      9  O   UNL     1     -22.310   4.413  -2.505  1.00  0.00    -0.550 OA
ENDBRANCH   6   7
ENDBRANCH   5   6
ENDBRANCH   4   5
ENDBRANCH   3   4
ENDBRANCH   2   3
ENDBRANCH   1   2
BRANCH   1  10
ATOM     10  C   UNL     1     -18.317   6.651  -5.073  1.00  0.00     0.000 C 
BRANCH  10  11
ATOM     11  C   UNL     1     -17.875   5.186  -5.151  1.00  0.00    -0.000 C 
BRANCH  11  12
ATOM     12  C   UNL     1     -18.754   4.296  -4.264  1.00  0.00    -0.000 C 
BRANCH  12  13
ATOM     13  C   UNL     1     -18.020   3.003  -3.879  1.00  0.00    -0.000 C 
BRANCH  13  14
ATOM     14  C   UNL     1     -18.904   1.752  -4.066  1.00  0.00    -0.000 C 
BRANCH  14  15
ATOM     15  C   UNL     1     -18.102   0.450  -4.231  1.00  0.00    -0.003 C 
ATOM     16  C   UNL     1     -18.971  -0.803  -4.148  1.00  0.00     0.004 C 
ENDBRANCH  14  15
ENDBRANCH  13  14
ENDBRANCH  12  13
ENDBRANCH  11  12
ENDBRANCH  10  11
ENDBRANCH   1  10
TORSDOF 12
ENDMDL
MODEL 7
REMARK VINA RESULT:    -3.821     20.192     22.127
REMARK INTER + INTRA:          -7.005
REMARK INTER:                  -4.748
REMARK INTRA:                  -2.257
REMARK UNBOUND:                -0.504
REMARK SMILES CCCCCCCCCCCCCC(=O)[O-]
REMARK SMILES IDX 8 1 9 2 10 3 11 4 12 5 13 6 14 7 15 8 16 9 7 10 6 11 5 12
REMARK SMILES IDX 4 13 3 14 2 15 1 16
REMARK H PARENT
REMARK Flexibility Score: inf
ROOT
ATOM      1  C   UNL     1     -21.555   2.165   9.015  1.00  0.00     0.000 C 
ENDROOT
BRANCH   1   2
ATOM      2  C   UNL     1     -22.058   1.961  10.454  1.00  0.00     0.000 C 
BRANCH   2   3
ATOM      3  C   UNL     1     -22.621   3.253  11.072  1.00  0.00     0.000 C 
BRANCH   3   4
ATOM      4  C   UNL     1     -22.362   3.345  12.584  1.00  0.00     0.000 C 
BRANCH   4   5
ATOM      5  C   UNL     1     -22.468   4.781  13.121  1.00  0.00     0.006 C 
BRANCH   5   6
ATOM      6  C   UNL     1     -22.870   5.753  12.009  1.00  0.00     0.053 C 
BRANCH   6   7
ATOM      7  C   UNL     1     -24.160   6.432  12.346  1.00  0.00     0.041 C 
ATOM      8  O   UNL     1     -24.162   7.629  12.734  1.00  0.00    -0.550 OA
ATOM      9  O   UNL     1     -25.364   5.758  12.184  1.00  0.00    -0.550 OA
ENDBRANCH   6   7
ENDBRANCH   5   6
ENDBRANCH   4   5
ENDBRANCH   3   4
ENDBRANCH   2   3
ENDBRANCH   1   2
BRANCH   1  10
ATOM     10  C   UNL     1     -20.065   1.829   8.853  1.00  0.00     0.000 C 
BRANCH  10  11
ATOM     11  C   UNL     1     -19.386   1.678  10.219  1.00  0.00    -0.000 C 
BRANCH  11  12
ATOM     12  C   UNL     1     -18.381   2.811  10.464  1.00  0.00    -0.000 C 
BRANCH  12  13
ATOM     13  C   UNL     1     -18.782   3.648  11.687  1.00  0.00    -0.000 C 
BRANCH  13  14
ATOM     14  C   UNL     1     -19.260   5.063  11.295  1.00  0.00    -0.000 C 
BRANCH  14  15
ATOM     15  C   UNL     1     -19.152   5.353   9.788  1.00  0.00    -0.003 C 
ATOM     16  C   UNL     1     -20.494   5.698   9.147  1.00  0.00     0.004 C 
ENDBRANCH  14  15
ENDBRANCH  13  14
ENDBRANCH  12  13
ENDBRANCH  11  12
ENDBRANCH  10  11
ENDBRANCH   1  10
TORSDOF 12
ENDMDL
MODEL 8
REMARK VINA RESULT:    -3.697     20.127     21.754
REMARK INTER + INTRA:          -6.795
REMARK INTER:                  -5.121
REMARK INTRA:                  -1.674
REMARK UNBOUND:                -0.504
REMARK SMILES CCCCCCCCCCCCCC(=O)[O-]
REMARK SMILES IDX 8 1 9 2 10 3 11 4 12 5 13 6 14 7 15 8 16 9 7 10 6 11 5 12
REMARK SMILES IDX 4 13 3 14 2 15 1 16
REMARK H PARENT
REMARK Flexibility Score: inf
ROOT
ATOM      1  C   UNL     1     -22.231   2.994  11.900  1.00  0.00     0.000 C 
ENDROOT
BRANCH   1   2
ATOM      2  C   UNL     1     -21.157   3.610  12.812  1.00  0.00     0.000 C 
BRANCH   2   3
ATOM      3  C   UNL     1     -19.821   3.835  12.081  1.00  0.00     0.000 C 
BRANCH   3   4
ATOM      4  C   UNL     1     -19.113   2.517  11.728  1.00  0.00     0.000 C 
BRANCH   4   5
ATOM      5  C   UNL     1     -18.824   2.381  10.225  1.00  0.00     0.006 C 
BRANCH   5   6
ATOM      6  C   UNL     1     -19.891   1.525   9.537  1.00  0.00     0.053 C 
BRANCH   6   7
ATOM      7  C   UNL     1     -20.735   2.366   8.632  1.00  0.00     0.041 C 
ATOM      8  O   UNL     1     -21.583   1.826   7.875  1.00  0.00    -0.550 OA
ATOM      9  O   UNL     1     -20.618   3.750   8.660  1.00  0.00    -0.550 OA
ENDBRANCH   6   7
ENDBRANCH   5   6
ENDBRANCH   4   5
ENDBRANCH   3   4
ENDBRANCH   2   3
ENDBRANCH   1   2
BRANCH   1  10
ATOM     10  C   UNL     1     -23.364   3.977  11.567  1.00  0.00     0.000 C 
BRANCH  10  11
ATOM     11  C   UNL     1     -23.556   4.993  12.699  1.00  0.00    -0.000 C 
BRANCH  11  12
ATOM     12  C   UNL     1     -24.519   6.111  12.278  1.00  0.00    -0.000 C 
BRANCH  12  13
ATOM     13  C   UNL     1     -23.822   7.480  12.309  1.00  0.00    -0.000 C 
BRANCH  13  14
ATOM     14  C   UNL     1     -22.322   7.363  12.651  1.00  0.00    -0.000 C 
BRANCH  14  15
ATOM     15  C   UNL     1     -21.394   7.858  11.529  1.00  0.00    -0.003 C 
ATOM     16  C   UNL     1     -21.254   6.860  10.383  1.00  0.00     0.004 C 
ENDBRANCH  14  15
ENDBRANCH  13  14
ENDBRANCH  12  13
ENDBRANCH  11  12
ENDBRANCH  10  11
ENDBRANCH   1  10
TORSDOF 12
ENDMDL
