MODEL 1
REMARK VINA RESULT:    -1.220      0.000      0.000
REMARK INTER + INTRA:          -1.760
REMARK INTER:                  -1.648
REMARK INTRA:                  -0.113
REMARK UNBOUND:                -0.113
REMARK SMILES CCCCCCCC(=O)[O-]
REMARK SMILES IDX 5 1 6 2 7 3 8 4 9 5 10 6 4 7 3 8 2 9 1 10
REMARK H PARENT
REMARK Flexibility Score: inf
ROOT
ATOM      1  C   UNL     1     -21.361   6.480  -2.935  1.00  0.00     0.000 C 
ENDROOT
BRANCH   1   2
ATOM      2  C   UNL     1     -19.839   6.253  -2.875  1.00  0.00     0.006 C 
BRANCH   2   3
ATOM      3  C   UNL     1     -19.019   7.308  -3.631  1.00  0.00     0.053 C 
BRANCH   3   4
ATOM      4  C   UNL     1     -17.554   6.992  -3.620  1.00  0.00     0.041 C 
ATOM      5  O   UNL     1     -16.724   7.834  -4.053  1.00  0.00    -0.550 OA
ATOM      6  O   UNL     1     -17.103   5.780  -3.112  1.00  0.00    -0.550 OA
ENDBRANCH   3   4
ENDBRANCH   2   3
ENDBRANCH   1   2
BRANCH   1   7
ATOM      7  C   UNL     1     -22.125   5.352  -3.664  1.00  0.00     0.000 C 
BRANCH   7   8
ATOM      8  C   UNL     1     -21.926   3.985  -2.993  1.00  0.00    -0.000 C 
BRANCH   8   9
ATOM      9  C   UNL     1     -20.989   3.098  -3.819  1.00  0.00    -0.003 C 
ATOM     10  C   UNL     1     -19.648   2.906  -3.117  1.00  0.00     0.004 C 
ENDBRANCH   8   9
ENDBRANCH   7   8
ENDBRANCH   1   7
TORSDOF 6
ENDMDL
MODEL 2
REMARK VINA RESULT:    -0.327      2.329      4.222
REMARK INTER + INTRA:          -0.555
REMARK INTER:                  -0.600
REMARK INTRA:                   0.045
REMARK UNBOUND:                -0.113
REMARK SMILES CCCCCCCC(=O)[O-]
REMARK SMILES IDX 5 1 6 2 7 3 8 4 9 5 10 6 4 7 3 8 2 9 1 10
REMARK H PARENT
REMARK Flexibility Score: inf
ROOT
ATOM      1  C   UNL     1     -21.058   6.523  -2.995  1.00  0.00     0.000 C 
ENDROOT
BRANCH   1   2
ATOM      2  C   UNL     1     -22.103   5.402  -3.151  1.00  0.00     0.006 C 
BRANCH   2   3
ATOM      3  C   UNL     1     -21.556   3.994  -2.875  1.00  0.00     0.053 C 
BRANCH   3   4
ATOM      4  C   UNL     1     -20.994   3.359  -4.110  1.00  0.00     0.041 C 
ATOM      5  O   UNL     1     -21.697   3.275  -5.152  1.00  0.00    -0.550 OA
ATOM      6  O   UNL     1     -19.690   2.882  -4.121  1.00  0.00    -0.550 OA
ENDBRANCH   3   4
ENDBRANCH   2   3
ENDBRANCH   1   2
BRANCH   1   7
ATOM      7  C   UNL     1     -19.608   6.003  -2.878  1.00  0.00     0.000 C 
BRANCH   7   8
ATOM      8  C   UNL     1     -18.573   7.134  -2.978  1.00  0.00    -0.000 C 
BRANCH   8   9
ATOM      9  C   UNL     1     -17.190   6.583  -3.338  1.00  0.00    -0.003 C 
ATOM     10  C   UNL     1     -17.251   5.086  -3.630  1.00  0.00     0.004 C 
ENDBRANCH   8   9
ENDBRANCH   7   8
ENDBRANCH   1   7
TORSDOF 6
ENDMDL
MODEL 3
REMARK VINA RESULT:    -0.265     16.475     17.602
REMARK INTER + INTRA:          -0.471
REMARK INTER:                  -0.203
REMARK INTRA:                  -0.267
REMARK UNBOUND:                -0.113
REMARK SMILES CCCCCCCC(=O)[O-]
REMARK SMILES IDX 5 1 6 2 7 3 8 4 9 5 10 6 4 7 3 8 2 9 1 10
REMARK H PARENT
REMARK Flexibility Score: inf
ROOT
ATOM      1  C   UNL     1     -12.797  18.266  -9.698  1.00  0.00     0.000 C 
ENDROOT
BRANCH   1   2
ATOM      2  C   UNL     1     -13.058  18.240 -11.216  1.00  0.00     0.006 C 
BRANCH   2   3
ATOM      3  C   UNL     1     -12.768  19.571 -11.923  1.00  0.00     0.053 C 
BRANCH   3   4
ATOM      4  C   UNL     1     -12.508  19.383 -13.387  1.00  0.00     0.041 C 
ATOM      5  O   UNL     1     -11.338  19.489 -13.840  1.00  0.00    -0.550 OA
ATOM      6  O   UNL     1     -13.552  19.067 -14.248  1.00  0.00    -0.550 OA
ENDBRANCH   3   4
ENDBRANCH   2   3
ENDBRANCH   1   2
BRANCH   1   7
ATOM      7  C   UNL     1     -13.483  19.446  -8.974  1.00  0.00     0.000 C 
BRANCH   7   8
ATOM      8  C   UNL     1     -13.101  19.520  -7.488  1.00  0.00    -0.000 C 
BRANCH   8   9
ATOM      9  C   UNL     1     -12.569  20.910  -7.126  1.00  0.00    -0.003 C 
ATOM     10  C   UNL     1     -11.750  21.503  -8.269  1.00  0.00     0.004 C 
ENDBRANCH   8   9
ENDBRANCH   7   8
ENDBRANCH   1   7
TORSDOF 6
ENDMDL
MODEL 4
REMARK VINA RESULT:     0.211     16.073     17.493
REMARK INTER + INTRA:           0.172
REMARK INTER:                   0.370
REMARK INTRA:                  -0.198
REMARK UNBOUND:                -0.113
REMARK SMILES CCCCCCCC(=O)[O-]
REMARK SMILES IDX 5 1 6 2 7 3 8 4 9 5 10 6 4 7 3 8 2 9 1 10
REMARK H PARENT
REMARK Flexibility Score: inf
ROOT
ATOM      1  C   UNL     1     -12.850  18.027  -9.872  1.00  0.00     0.000 C 
ENDROOT
BRANCH   1   2
ATOM      2  C   UNL     1     -12.808  18.627  -8.453  1.00  0.00     0.006 C 
BRANCH   2   3
ATOM      3  C   UNL     1     -13.318  20.073  -8.369  1.00  0.00     0.053 C 
BRANCH   3   4
ATOM      4  C   UNL     1     -12.369  20.958  -7.620  1.00  0.00     0.041 C 
ATOM      5  O   UNL     1     -12.537  21.163  -6.389  1.00  0.00    -0.550 OA
ATOM      6  O   UNL     1     -11.288  21.537  -8.271  1.00  0.00    -0.550 OA
ENDBRANCH   3   4
ENDBRANCH   2   3
ENDBRANCH   1   2
BRANCH   1   7
ATOM      7  C   UNL     1     -13.197  19.059 -10.967  1.00  0.00     0.000 C 
BRANCH   7   8
ATOM      8  C   UNL     1     -12.810  18.572 -12.371  1.00  0.00    -0.000 C 
BRANCH   8   9
ATOM      9  C   UNL     1     -12.523  19.753 -13.304  1.00  0.00    -0.003 C 
ATOM     10  C   UNL     1     -11.561  19.353 -14.419  1.00  0.00     0.004 C 
ENDBRANCH   8   9
ENDBRANCH   7   8
ENDBRANCH   1   7
TORSDOF 6
ENDMDL
