MODEL 1
REMARK VINA RESULT:    -3.835      0.000      0.000
REMARK INTER + INTRA:          -9.938
REMARK INTER:                  -7.423
REMARK INTRA:                  -2.515
REMARK UNBOUND:                -2.515
REMARK SMILES CCCCCCCCCCCCCCCCCC(=O)[O-]
REMARK SMILES IDX 10 1 11 2 12 3 13 4 14 5 15 6 16 7 17 8 18 9 19 10 20 11
REMARK SMILES IDX 9 12 8 13 7 14 6 15 5 16 4 17 3 18 2 19 1 20
REMARK H PARENT
REMARK Flexibility Score: inf
ROOT
ATOM      1  C   UNL     1      23.194  34.222  10.926  1.00  0.00     0.000 C 
ENDROOT
BRANCH   1   2
ATOM      2  C   UNL     1      22.829  34.783  12.307  1.00  0.00     0.000 C 
BRANCH   2   3
ATOM      3  C   UNL     1      22.786  33.668  13.358  1.00  0.00     0.000 C 
BRANCH   3   4
ATOM      4  C   UNL     1      22.103  34.150  14.645  1.00  0.00     0.000 C 
BRANCH   4   5
ATOM      5  C   UNL     1      21.791  35.656  14.632  1.00  0.00     0.000 C 
BRANCH   5   6
ATOM      6  C   UNL     1      22.049  36.351  15.986  1.00  0.00     0.000 C 
BRANCH   6   7
ATOM      7  C   UNL     1      22.776  37.698  15.817  1.00  0.00     0.006 C 
BRANCH   7   8
ATOM      8  C   UNL     1      23.785  37.673  14.662  1.00  0.00     0.053 C 
BRANCH   8   9
ATOM      9  C   UNL     1      24.193  39.053  14.249  1.00  0.00     0.041 C 
ATOM     10  O   UNL     1      23.890  39.489  13.107  1.00  0.00    -0.550 OA
ATOM     11  O   UNL     1      24.879  39.873  15.139  1.00  0.00    -0.550 OA
ENDBRANCH   8   9
ENDBRANCH   7   8
ENDBRANCH   6   7
ENDBRANCH   5   6
ENDBRANCH   4   5
ENDBRANCH   3   4
ENDBRANCH   2   3
ENDBRANCH   1   2
BRANCH   1  12
ATOM     12  C   UNL     1      24.563  33.517  10.909  1.00  0.00     0.000 C 
BRANCH  12  13
ATOM     13  C   UNL     1      24.595  32.180  10.140  1.00  0.00    -0.000 C 
BRANCH  13  14
ATOM     14  C   UNL     1      25.272  31.012  10.884  1.00  0.00    -0.000 C 
BRANCH  14  15
ATOM     15  C   UNL     1      25.017  30.962  12.402  1.00  0.00    -0.000 C 
BRANCH  15  16
ATOM     16  C   UNL     1      26.282  31.245  13.229  1.00  0.00    -0.000 C 
BRANCH  16  17
ATOM     17  C   UNL     1      26.113  32.431  14.196  1.00  0.00    -0.000 C 
BRANCH  17  18
ATOM     18  C   UNL     1      26.672  33.773  13.692  1.00  0.00    -0.000 C 
BRANCH  18  19
ATOM     19  C   UNL     1      25.965  34.988  14.308  1.00  0.00    -0.003 C 
ATOM     20  C   UNL     1      25.796  34.821  15.816  1.00  0.00     0.004 C 
ENDBRANCH  18  19
ENDBRANCH  17  18
ENDBRANCH  16  17
ENDBRANCH  15  16
ENDBRANCH  14  15
ENDBRANCH  13  14
ENDBRANCH  12  13
ENDBRANCH   1  12
TORSDOF 16
ENDMDL
MODEL 2
REMARK VINA RESULT:    -3.295      2.974      5.604
REMARK INTER + INTRA:          -8.893
REMARK INTER:                  -6.476
REMARK INTRA:                  -2.417
REMARK UNBOUND:                -2.515
REMARK SMILES CCCCCCCCCCCCCCCCCC(=O)[O-]
REMARK SMILES IDX 10 1 11 2 12 3 13 4 14 5 15 6 16 7 17 8 18 9 19 10 20 11
REMARK SMILES IDX 9 12 8 13 7 14 6 15 5 16 4 17 3 18 2 19 1 20
REMARK H PARENT
REMARK Flexibility Score: inf
ROOT
ATOM      1  C   UNL     1      23.657  33.988  11.010  1.00  0.00     0.000 C 
ENDROOT
BRANCH   1   2
ATOM      2  C   UNL     1      24.385  32.990  11.922  1.00  0.00     0.000 C 
BRANCH   2   3
ATOM      3  C   UNL     1      25.859  32.860  11.525  1.00  0.00     0.000 C 
BRANCH   3   4
ATOM      4  C   UNL     1      26.779  33.332  12.660  1.00  0.00     0.000 C 
BRANCH   4   5
ATOM      5  C   UNL     1      26.262  34.599  13.363  1.00  0.00     0.000 C 
BRANCH   5   6
ATOM      6  C   UNL     1      26.520  34.609  14.885  1.00  0.00     0.000 C 
BRANCH   6   7
ATOM      7  C   UNL     1      26.230  33.243  15.533  1.00  0.00     0.006 C 
BRANCH   7   8
ATOM      8  C   UNL     1      24.746  33.067  15.878  1.00  0.00     0.053 C 
BRANCH   8   9
ATOM      9  C   UNL     1      24.202  31.774  15.353  1.00  0.00     0.041 C 
ATOM     10  O   UNL     1      22.975  31.510  15.465  1.00  0.00    -0.550 OA
ATOM     11  O   UNL     1      25.043  30.875  14.707  1.00  0.00    -0.550 OA
ENDBRANCH   8   9
ENDBRANCH   7   8
ENDBRANCH   6   7
ENDBRANCH   5   6
ENDBRANCH   4   5
ENDBRANCH   3   4
ENDBRANCH   2   3
ENDBRANCH   1   2
BRANCH   1  12
ATOM     12  C   UNL     1      22.512  34.728  11.725  1.00  0.00     0.000 C 
BRANCH  12  13
ATOM     13  C   UNL     1      22.885  35.335  13.092  1.00  0.00    -0.000 C 
BRANCH  13  14
ATOM     14  C   UNL     1      22.010  34.875  14.275  1.00  0.00    -0.000 C 
BRANCH  14  15
ATOM     15  C   UNL     1      22.115  35.739  15.546  1.00  0.00    -0.000 C 
BRANCH  15  16
ATOM     16  C   UNL     1      23.438  36.517  15.630  1.00  0.00    -0.000 C 
BRANCH  16  17
ATOM     17  C   UNL     1      23.244  37.988  16.042  1.00  0.00    -0.000 C 
BRANCH  17  18
ATOM     18  C   UNL     1      24.475  38.892  15.849  1.00  0.00    -0.000 C 
BRANCH  18  19
ATOM     19  C   UNL     1      24.911  39.007  14.382  1.00  0.00    -0.003 C 
ATOM     20  C   UNL     1      23.754  39.465  13.498  1.00  0.00     0.004 C 
ENDBRANCH  18  19
ENDBRANCH  17  18
ENDBRANCH  16  17
ENDBRANCH  15  16
ENDBRANCH  14  15
ENDBRANCH  13  14
ENDBRANCH  12  13
ENDBRANCH   1  12
TORSDOF 16
ENDMDL
MODEL 3
REMARK VINA RESULT:    -3.148      2.051      5.339
REMARK INTER + INTRA:          -8.608
REMARK INTER:                  -6.591
REMARK INTRA:                  -2.017
REMARK UNBOUND:                -2.515
REMARK SMILES CCCCCCCCCCCCCCCCCC(=O)[O-]
REMARK SMILES IDX 10 1 11 2 12 3 13 4 14 5 15 6 16 7 17 8 18 9 19 10 20 11
REMARK SMILES IDX 9 12 8 13 7 14 6 15 5 16 4 17 3 18 2 19 1 20
REMARK H PARENT
REMARK Flexibility Score: inf
ROOT
ATOM      1  C   UNL     1      23.253  34.299  10.880  1.00  0.00     0.000 C 
ENDROOT
BRANCH   1   2
ATOM      2  C   UNL     1      24.524  33.482  11.153  1.00  0.00     0.000 C 
BRANCH   2   3
ATOM      3  C   UNL     1      24.350  32.029  10.695  1.00  0.00     0.000 C 
BRANCH   3   4
ATOM      4  C   UNL     1      25.501  31.150  11.204  1.00  0.00     0.000 C 
BRANCH   4   5
ATOM      5  C   UNL     1      25.963  31.527  12.621  1.00  0.00     0.000 C 
BRANCH   5   6
ATOM      6  C   UNL     1      25.046  30.980  13.736  1.00  0.00     0.000 C 
BRANCH   6   7
ATOM      7  C   UNL     1      25.314  31.656  15.092  1.00  0.00     0.006 C 
BRANCH   7   8
ATOM      8  C   UNL     1      26.555  32.557  15.057  1.00  0.00     0.053 C 
BRANCH   8   9
ATOM      9  C   UNL     1      26.329  33.845  15.787  1.00  0.00     0.041 C 
ATOM     10  O   UNL     1      27.302  34.593  16.070  1.00  0.00    -0.550 OA
ATOM     11  O   UNL     1      25.039  34.237  16.125  1.00  0.00    -0.550 OA
ENDBRANCH   8   9
ENDBRANCH   7   8
ENDBRANCH   6   7
ENDBRANCH   5   6
ENDBRANCH   4   5
ENDBRANCH   3   4
ENDBRANCH   2   3
ENDBRANCH   1   2
BRANCH   1  12
ATOM     12  C   UNL     1      22.494  34.674  12.166  1.00  0.00     0.000 C 
BRANCH  12  13
ATOM     13  C   UNL     1      22.956  33.927  13.433  1.00  0.00    -0.000 C 
BRANCH  13  14
ATOM     14  C   UNL     1      21.996  34.021  14.636  1.00  0.00    -0.000 C 
BRANCH  14  15
ATOM     15  C   UNL     1      21.404  35.418  14.898  1.00  0.00    -0.000 C 
BRANCH  15  16
ATOM     16  C   UNL     1      22.069  36.135  16.085  1.00  0.00    -0.000 C 
BRANCH  16  17
ATOM     17  C   UNL     1      22.680  37.495  15.698  1.00  0.00    -0.000 C 
BRANCH  17  18
ATOM     18  C   UNL     1      24.123  37.438  15.165  1.00  0.00    -0.000 C 
BRANCH  18  19
ATOM     19  C   UNL     1      24.245  37.906  13.708  1.00  0.00    -0.003 C 
ATOM     20  C   UNL     1      23.975  39.403  13.587  1.00  0.00     0.004 C 
ENDBRANCH  18  19
ENDBRANCH  17  18
ENDBRANCH  16  17
ENDBRANCH  15  16
ENDBRANCH  14  15
ENDBRANCH  13  14
ENDBRANCH  12  13
ENDBRANCH   1  12
TORSDOF 16
ENDMDL
MODEL 4
REMARK VINA RESULT:    -3.086      1.649      3.518
REMARK INTER + INTRA:          -8.488
REMARK INTER:                  -6.417
REMARK INTRA:                  -2.071
REMARK UNBOUND:                -2.515
REMARK SMILES CCCCCCCCCCCCCCCCCC(=O)[O-]
REMARK SMILES IDX 10 1 11 2 12 3 13 4 14 5 15 6 16 7 17 8 18 9 19 10 20 11
REMARK SMILES IDX 9 12 8 13 7 14 6 15 5 16 4 17 3 18 2 19 1 20
REMARK H PARENT
REMARK Flexibility Score: inf
ROOT
ATOM      1  C   UNL     1      25.769  32.693  11.623  1.00  0.00     0.000 C 
ENDROOT
BRANCH   1   2
ATOM      2  C   UNL     1      24.704  32.779  10.521  1.00  0.00     0.000 C 
BRANCH   2   3
ATOM      3  C   UNL     1      23.632  33.815  10.874  1.00  0.00     0.000 C 
BRANCH   3   4
ATOM      4  C   UNL     1      23.573  34.052  12.389  1.00  0.00     0.000 C 
BRANCH   4   5
ATOM      5  C   UNL     1      22.907  35.388  12.762  1.00  0.00     0.000 C 
BRANCH   5   6
ATOM      6  C   UNL     1      22.448  35.459  14.235  1.00  0.00     0.000 C 
BRANCH   6   7
ATOM      7  C   UNL     1      23.159  36.583  15.010  1.00  0.00     0.006 C 
BRANCH   7   8
ATOM      8  C   UNL     1      24.378  37.129  14.256  1.00  0.00     0.053 C 
BRANCH   8   9
ATOM      9  C   UNL     1      24.341  38.622  14.145  1.00  0.00     0.041 C 
ATOM     10  O   UNL     1      24.069  39.170  13.045  1.00  0.00    -0.550 OA
ATOM     11  O   UNL     1      24.573  39.409  15.268  1.00  0.00    -0.550 OA
ENDBRANCH   8   9
ENDBRANCH   7   8
ENDBRANCH   6   7
ENDBRANCH   5   6
ENDBRANCH   4   5
ENDBRANCH   3   4
ENDBRANCH   2   3
ENDBRANCH   1   2
BRANCH   1  12
ATOM     12  C   UNL     1      25.871  31.291  12.251  1.00  0.00     0.000 C 
BRANCH  12  13
ATOM     13  C   UNL     1      26.224  31.275  13.751  1.00  0.00    -0.000 C 
BRANCH  13  14
ATOM     14  C   UNL     1      26.291  32.661  14.424  1.00  0.00    -0.000 C 
BRANCH  14  15
ATOM     15  C   UNL     1      25.127  32.987  15.378  1.00  0.00    -0.000 C 
BRANCH  15  16
ATOM     16  C   UNL     1      24.264  31.757  15.706  1.00  0.00    -0.000 C 
BRANCH  16  17
ATOM     17  C   UNL     1      22.879  31.800  15.033  1.00  0.00    -0.000 C 
BRANCH  17  18
ATOM     18  C   UNL     1      21.685  31.551  15.973  1.00  0.00    -0.000 C 
BRANCH  18  19
ATOM     19  C   UNL     1      20.533  32.540  15.755  1.00  0.00    -0.003 C 
ATOM     20  C   UNL     1      19.260  31.817  15.324  1.00  0.00     0.004 C 
ENDBRANCH  18  19
ENDBRANCH  17  18
ENDBRANCH  16  17
ENDBRANCH  15  16
ENDBRANCH  14  15
ENDBRANCH  13  14
ENDBRANCH  12  13
ENDBRANCH   1  12
TORSDOF 16
ENDMDL
MODEL 5
REMARK VINA RESULT:    -3.054      1.143      3.049
REMARK INTER + INTRA:          -8.426
REMARK INTER:                  -6.121
REMARK INTRA:                  -2.305
REMARK UNBOUND:                -2.515
REMARK SMILES CCCCCCCCCCCCCCCCCC(=O)[O-]
REMARK SMILES IDX 10 1 11 2 12 3 13 4 14 5 15 6 16 7 17 8 18 9 19 10 20 11
REMARK SMILES IDX 9 12 8 13 7 14 6 15 5 16 4 17 3 18 2 19 1 20
REMARK H PARENT
REMARK Flexibility Score: inf
ROOT
ATOM      1  C   UNL     1      25.308  34.126  15.326  1.00  0.00     0.000 C 
ENDROOT
BRANCH   1   2
ATOM      2  C   UNL     1      24.108  33.596  16.125  1.00  0.00     0.000 C 
BRANCH   2   3
ATOM      3  C   UNL     1      22.969  33.177  15.189  1.00  0.00     0.000 C 
BRANCH   3   4
ATOM      4  C   UNL     1      21.616  33.685  15.706  1.00  0.00     0.000 C 
BRANCH   4   5
ATOM      5  C   UNL     1      21.639  35.177  16.079  1.00  0.00     0.000 C 
BRANCH   5   6
ATOM      6  C   UNL     1      22.026  36.101  14.905  1.00  0.00     0.000 C 
BRANCH   6   7
ATOM      7  C   UNL     1      22.853  37.314  15.369  1.00  0.00     0.006 C 
BRANCH   7   8
ATOM      8  C   UNL     1      24.053  37.585  14.452  1.00  0.00     0.053 C 
BRANCH   8   9
ATOM      9  C   UNL     1      24.234  39.049  14.192  1.00  0.00     0.041 C 
ATOM     10  O   UNL     1      23.670  39.592  13.205  1.00  0.00    -0.550 OA
ATOM     11  O   UNL     1      24.998  39.822  15.059  1.00  0.00    -0.550 OA
ENDBRANCH   8   9
ENDBRANCH   7   8
ENDBRANCH   6   7
ENDBRANCH   5   6
ENDBRANCH   4   5
ENDBRANCH   3   4
ENDBRANCH   2   3
ENDBRANCH   1   2
BRANCH   1  12
ATOM     12  C   UNL     1      26.598  33.325  15.581  1.00  0.00     0.000 C 
BRANCH  12  13
ATOM     13  C   UNL     1      26.412  31.795  15.638  1.00  0.00    -0.000 C 
BRANCH  13  14
ATOM     14  C   UNL     1      26.573  31.064  14.289  1.00  0.00    -0.000 C 
BRANCH  14  15
ATOM     15  C   UNL     1      25.351  31.130  13.355  1.00  0.00    -0.000 C 
BRANCH  15  16
ATOM     16  C   UNL     1      25.733  31.405  11.891  1.00  0.00    -0.000 C 
BRANCH  16  17
ATOM     17  C   UNL     1      26.039  32.890  11.620  1.00  0.00    -0.000 C 
BRANCH  17  18
ATOM     18  C   UNL     1      24.918  33.872  12.009  1.00  0.00    -0.000 C 
BRANCH  18  19
ATOM     19  C   UNL     1      23.663  33.726  11.137  1.00  0.00    -0.003 C 
ATOM     20  C   UNL     1      22.675  34.858  11.402  1.00  0.00     0.004 C 
ENDBRANCH  18  19
ENDBRANCH  17  18
ENDBRANCH  16  17
ENDBRANCH  15  16
ENDBRANCH  14  15
ENDBRANCH  13  14
ENDBRANCH  12  13
ENDBRANCH   1  12
TORSDOF 16
ENDMDL
MODEL 6
REMARK VINA RESULT:    -2.829      2.961      5.491
REMARK INTER + INTRA:          -7.990
REMARK INTER:                  -5.776
REMARK INTRA:                  -2.213
REMARK UNBOUND:                -2.515
REMARK SMILES CCCCCCCCCCCCCCCCCC(=O)[O-]
REMARK SMILES IDX 10 1 11 2 12 3 13 4 14 5 15 6 16 7 17 8 18 9 19 10 20 11
REMARK SMILES IDX 9 12 8 13 7 14 6 15 5 16 4 17 3 18 2 19 1 20
REMARK H PARENT
REMARK Flexibility Score: inf
ROOT
ATOM      1  C   UNL     1      26.230  33.593  12.063  1.00  0.00     0.000 C 
ENDROOT
BRANCH   1   2
ATOM      2  C   UNL     1      25.659  32.248  11.590  1.00  0.00     0.000 C 
BRANCH   2   3
ATOM      3  C   UNL     1      24.299  32.438  10.910  1.00  0.00     0.000 C 
BRANCH   3   4
ATOM      4  C   UNL     1      23.887  33.917  10.907  1.00  0.00     0.000 C 
BRANCH   4   5
ATOM      5  C   UNL     1      22.566  34.173  11.651  1.00  0.00     0.000 C 
BRANCH   5   6
ATOM      6  C   UNL     1      22.752  34.463  13.156  1.00  0.00     0.000 C 
BRANCH   6   7
ATOM      7  C   UNL     1      22.064  33.407  14.040  1.00  0.00     0.006 C 
BRANCH   7   8
ATOM      8  C   UNL     1      22.910  33.032  15.264  1.00  0.00     0.053 C 
BRANCH   8   9
ATOM      9  C   UNL     1      23.677  31.765  15.044  1.00  0.00     0.041 C 
ATOM     10  O   UNL     1      23.369  30.994  14.097  1.00  0.00    -0.550 OA
ATOM     11  O   UNL     1      24.755  31.452  15.863  1.00  0.00    -0.550 OA
ENDBRANCH   8   9
ENDBRANCH   7   8
ENDBRANCH   6   7
ENDBRANCH   5   6
ENDBRANCH   4   5
ENDBRANCH   3   4
ENDBRANCH   2   3
ENDBRANCH   1   2
BRANCH   1  12
ATOM     12  C   UNL     1      26.405  33.666  13.591  1.00  0.00     0.000 C 
BRANCH  12  13
ATOM     13  C   UNL     1      26.231  35.072  14.198  1.00  0.00    -0.000 C 
BRANCH  13  14
ATOM     14  C   UNL     1      25.882  35.100  15.700  1.00  0.00    -0.000 C 
BRANCH  14  15
ATOM     15  C   UNL     1      24.728  36.043  16.090  1.00  0.00    -0.000 C 
BRANCH  15  16
ATOM     16  C   UNL     1      23.986  36.612  14.870  1.00  0.00    -0.000 C 
BRANCH  16  17
ATOM     17  C   UNL     1      23.249  37.929  15.177  1.00  0.00    -0.000 C 
BRANCH  17  18
ATOM     18  C   UNL     1      23.716  39.148  14.361  1.00  0.00    -0.000 C 
BRANCH  18  19
ATOM     19  C   UNL     1      25.147  39.586  14.701  1.00  0.00    -0.003 C 
ATOM     20  C   UNL     1      25.234  40.130  16.123  1.00  0.00     0.004 C 
ENDBRANCH  18  19
ENDBRANCH  17  18
ENDBRANCH  16  17
ENDBRANCH  15  16
ENDBRANCH  14  15
ENDBRANCH  13  14
ENDBRANCH  12  13
ENDBRANCH   1  12
TORSDOF 16
ENDMDL
MODEL 7
REMARK VINA RESULT:    -2.746      2.854      6.253
REMARK INTER + INTRA:          -7.830
REMARK INTER:                  -5.804
REMARK INTRA:                  -2.025
REMARK UNBOUND:                -2.515
REMARK SMILES CCCCCCCCCCCCCCCCCC(=O)[O-]
REMARK SMILES IDX 10 1 11 2 12 3 13 4 14 5 15 6 16 7 17 8 18 9 19 10 20 11
REMARK SMILES IDX 9 12 8 13 7 14 6 15 5 16 4 17 3 18 2 19 1 20
REMARK H PARENT
REMARK Flexibility Score: inf
ROOT
ATOM      1  C   UNL     1      24.985  35.636  14.053  1.00  0.00     0.000 C 
ENDROOT
BRANCH   1   2
ATOM      2  C   UNL     1      25.393  35.424  15.518  1.00  0.00     0.000 C 
BRANCH   2   3
ATOM      3  C   UNL     1      24.839  34.099  16.055  1.00  0.00     0.000 C 
BRANCH   3   4
ATOM      4  C   UNL     1      25.794  32.938  15.745  1.00  0.00     0.000 C 
BRANCH   4   5
ATOM      5  C   UNL     1      25.117  31.796  14.968  1.00  0.00     0.000 C 
BRANCH   5   6
ATOM      6  C   UNL     1      24.922  32.102  13.467  1.00  0.00     0.000 C 
BRANCH   6   7
ATOM      7  C   UNL     1      26.255  32.407  12.759  1.00  0.00     0.006 C 
BRANCH   7   8
ATOM      8  C   UNL     1      26.067  33.297  11.524  1.00  0.00     0.053 C 
BRANCH   8   9
ATOM      9  C   UNL     1      24.716  33.111  10.905  1.00  0.00     0.041 C 
ATOM     10  O   UNL     1      24.490  32.121  10.160  1.00  0.00    -0.550 OA
ATOM     11  O   UNL     1      23.694  34.014  11.179  1.00  0.00    -0.550 OA
ENDBRANCH   8   9
ENDBRANCH   7   8
ENDBRANCH   6   7
ENDBRANCH   5   6
ENDBRANCH   4   5
ENDBRANCH   3   4
ENDBRANCH   2   3
ENDBRANCH   1   2
BRANCH   1  12
ATOM     12  C   UNL     1      23.856  36.671  13.890  1.00  0.00     0.000 C 
BRANCH  12  13
ATOM     13  C   UNL     1      23.452  37.401  15.186  1.00  0.00    -0.000 C 
BRANCH  13  14
ATOM     14  C   UNL     1      22.117  36.945  15.808  1.00  0.00    -0.000 C 
BRANCH  14  15
ATOM     15  C   UNL     1      21.445  35.744  15.116  1.00  0.00    -0.000 C 
BRANCH  15  16
ATOM     16  C   UNL     1      21.196  34.567  16.074  1.00  0.00    -0.000 C 
BRANCH  16  17
ATOM     17  C   UNL     1      21.412  33.196  15.407  1.00  0.00    -0.000 C 
BRANCH  17  18
ATOM     18  C   UNL     1      20.695  32.015  16.087  1.00  0.00    -0.000 C 
BRANCH  18  19
ATOM     19  C   UNL     1      19.827  31.201  15.119  1.00  0.00    -0.003 C 
ATOM     20  C   UNL     1      18.371  31.653  15.171  1.00  0.00     0.004 C 
ENDBRANCH  18  19
ENDBRANCH  17  18
ENDBRANCH  16  17
ENDBRANCH  15  16
ENDBRANCH  14  15
ENDBRANCH  13  14
ENDBRANCH  12  13
ENDBRANCH   1  12
TORSDOF 16
ENDMDL
MODEL 8
REMARK VINA RESULT:    -2.483      4.359      7.255
REMARK INTER + INTRA:          -7.321
REMARK INTER:                  -5.662
REMARK INTRA:                  -1.659
REMARK UNBOUND:                -2.515
REMARK SMILES CCCCCCCCCCCCCCCCCC(=O)[O-]
REMARK SMILES IDX 10 1 11 2 12 3 13 4 14 5 15 6 16 7 17 8 18 9 19 10 20 11
REMARK SMILES IDX 9 12 8 13 7 14 6 15 5 16 4 17 3 18 2 19 1 20
REMARK H PARENT
REMARK Flexibility Score: inf
ROOT
ATOM      1  C   UNL     1      22.750  34.767  15.517  1.00  0.00     0.000 C 
ENDROOT
BRANCH   1   2
ATOM      2  C   UNL     1      23.183  35.770  14.438  1.00  0.00     0.000 C 
BRANCH   2   3
ATOM      3  C   UNL     1      24.709  35.898  14.390  1.00  0.00     0.000 C 
BRANCH   3   4
ATOM      4  C   UNL     1      25.367  35.075  15.506  1.00  0.00     0.000 C 
BRANCH   4   5
ATOM      5  C   UNL     1      26.437  34.102  14.983  1.00  0.00     0.000 C 
BRANCH   5   6
ATOM      6  C   UNL     1      25.976  32.629  14.965  1.00  0.00     0.000 C 
BRANCH   6   7
ATOM      7  C   UNL     1      25.894  32.063  13.536  1.00  0.00     0.006 C 
BRANCH   7   8
ATOM      8  C   UNL     1      24.693  32.619  12.759  1.00  0.00     0.053 C 
BRANCH   8   9
ATOM      9  C   UNL     1      25.121  33.405  11.559  1.00  0.00     0.041 C 
ATOM     10  O   UNL     1      24.333  33.564  10.590  1.00  0.00    -0.550 OA
ATOM     11  O   UNL     1      26.380  33.994  11.525  1.00  0.00    -0.550 OA
ENDBRANCH   8   9
ENDBRANCH   7   8
ENDBRANCH   6   7
ENDBRANCH   5   6
ENDBRANCH   4   5
ENDBRANCH   3   4
ENDBRANCH   2   3
ENDBRANCH   1   2
BRANCH   1  12
ATOM     12  C   UNL     1      21.747  33.721  14.996  1.00  0.00     0.000 C 
BRANCH  12  13
ATOM     13  C   UNL     1      22.052  32.268  15.408  1.00  0.00    -0.000 C 
BRANCH  13  14
ATOM     14  C   UNL     1      20.814  31.376  15.635  1.00  0.00    -0.000 C 
BRANCH  14  15
ATOM     15  C   UNL     1      19.470  32.125  15.714  1.00  0.00    -0.000 C 
BRANCH  15  16
ATOM     16  C   UNL     1      18.318  31.354  15.049  1.00  0.00    -0.000 C 
BRANCH  16  17
ATOM     17  C   UNL     1      17.062  31.270  15.935  1.00  0.00    -0.000 C 
BRANCH  17  18
ATOM     18  C   UNL     1      15.759  30.915  15.196  1.00  0.00    -0.000 C 
BRANCH  18  19
ATOM     19  C   UNL     1      14.538  31.674  15.732  1.00  0.00    -0.003 C 
ATOM     20  C   UNL     1      13.267  31.263  14.995  1.00  0.00     0.004 C 
ENDBRANCH  18  19
ENDBRANCH  17  18
ENDBRANCH  16  17
ENDBRANCH  15  16
ENDBRANCH  14  15
ENDBRANCH  13  14
ENDBRANCH  12  13
ENDBRANCH   1  12
TORSDOF 16
ENDMDL
