MODEL 1
REMARK VINA RESULT:    -4.688      0.000      0.000
REMARK INTER + INTRA:          -4.688
REMARK INTER:                  -4.688
REMARK INTRA:                   0.000
REMARK UNBOUND:                 0.000
REMARK SMILES CC1=CC[C@@]2(C)CCCC(C)(C)[C@]23C[C@H]13
REMARK SMILES IDX 1 1 2 2 3 3 4 4 5 5 7 6 8 7 9 8 10 9 13 10 15 11 14 12 11 13
REMARK SMILES IDX 12 14 6 15
REMARK H PARENT
REMARK Flexibility Score: inf
ROOT
ATOM      1  C   UNL     1      17.178   5.233  16.298  1.00  0.00     0.039 C 
ATOM      2  C   UNL     1      15.981   5.566  17.143  1.00  0.00    -0.074 C 
ATOM      3  C   UNL     1      15.819   4.974  18.330  1.00  0.00    -0.027 C 
ATOM      4  C   UNL     1      14.705   5.387  19.234  1.00  0.00     0.034 C 
ATOM      5  C   UNL     1      13.318   5.545  18.528  1.00  0.00    -0.022 C 
ATOM      6  C   UNL     1      12.428   6.294  19.576  1.00  0.00     0.008 C 
ATOM      7  C   UNL     1      11.214   6.983  18.982  1.00  0.00     0.001 C 
ATOM      8  C   UNL     1      11.687   8.050  18.004  1.00  0.00     0.007 C 
ATOM      9  C   UNL     1      12.343   7.436  16.745  1.00  0.00    -0.029 C 
ATOM     10  C   UNL     1      13.444   6.348  17.146  1.00  0.00    -0.012 C 
ATOM     11  C   UNL     1      14.892   6.442  16.576  1.00  0.00     0.022 C 
ATOM     12  C   UNL     1      13.883   5.545  15.893  1.00  0.00     0.017 C 
ATOM     13  C   UNL     1      12.940   8.618  15.943  1.00  0.00     0.012 C 
ATOM     14  C   UNL     1      11.217   6.801  15.877  1.00  0.00     0.012 C 
ATOM     15  C   UNL     1      12.707   4.138  18.302  1.00  0.00     0.012 C 
ENDROOT
TORSDOF 0
ENDMDL
MODEL 2
REMARK VINA RESULT:    -4.623      1.621      3.536
REMARK INTER + INTRA:          -4.623
REMARK INTER:                  -4.623
REMARK INTRA:                   0.000
REMARK UNBOUND:                 0.000
REMARK SMILES CC1=CC[C@@]2(C)CCCC(C)(C)[C@]23C[C@H]13
REMARK SMILES IDX 1 1 2 2 3 3 4 4 5 5 7 6 8 7 9 8 10 9 13 10 15 11 14 12 11 13
REMARK SMILES IDX 12 14 6 15
REMARK H PARENT
REMARK Flexibility Score: inf
ROOT
ATOM      1  C   UNL     1      13.268   4.160  21.011  1.00  0.00     0.039 C 
ATOM      2  C   UNL     1      12.777   4.816  19.752  1.00  0.00    -0.074 C 
ATOM      3  C   UNL     1      12.780   4.135  18.602  1.00  0.00    -0.027 C 
ATOM      4  C   UNL     1      12.180   4.729  17.371  1.00  0.00     0.034 C 
ATOM      5  C   UNL     1      12.580   6.218  17.105  1.00  0.00    -0.022 C 
ATOM      6  C   UNL     1      11.585   6.699  15.996  1.00  0.00     0.008 C 
ATOM      7  C   UNL     1      11.442   8.206  15.900  1.00  0.00     0.001 C 
ATOM      8  C   UNL     1      10.880   8.729  17.214  1.00  0.00     0.007 C 
ATOM      9  C   UNL     1      11.890   8.587  18.377  1.00  0.00    -0.029 C 
ATOM     10  C   UNL     1      12.488   7.105  18.438  1.00  0.00    -0.012 C 
ATOM     11  C   UNL     1      12.439   6.286  19.764  1.00  0.00     0.022 C 
ATOM     12  C   UNL     1      13.694   7.054  19.412  1.00  0.00     0.017 C 
ATOM     13  C   UNL     1      11.127   8.972  19.669  1.00  0.00     0.012 C 
ATOM     14  C   UNL     1      13.018   9.639  18.167  1.00  0.00     0.012 C 
ATOM     15  C   UNL     1      14.012   6.254  16.509  1.00  0.00     0.012 C 
ENDROOT
TORSDOF 0
ENDMDL
MODEL 3
REMARK VINA RESULT:    -4.596      1.815      3.909
REMARK INTER + INTRA:          -4.596
REMARK INTER:                  -4.596
REMARK INTRA:                   0.000
REMARK UNBOUND:                 0.000
REMARK SMILES CC1=CC[C@@]2(C)CCCC(C)(C)[C@]23C[C@H]13
REMARK SMILES IDX 1 1 2 2 3 3 4 4 5 5 7 6 8 7 9 8 10 9 13 10 15 11 14 12 11 13
REMARK SMILES IDX 12 14 6 15
REMARK H PARENT
REMARK Flexibility Score: inf
ROOT
ATOM      1  C   UNL     1      13.466   2.519  21.740  1.00  0.00     0.039 C 
ATOM      2  C   UNL     1      13.890   2.997  20.381  1.00  0.00    -0.074 C 
ATOM      3  C   UNL     1      15.070   2.619  19.880  1.00  0.00    -0.027 C 
ATOM      4  C   UNL     1      15.449   2.983  18.483  1.00  0.00     0.034 C 
ATOM      5  C   UNL     1      15.164   4.472  18.097  1.00  0.00    -0.022 C 
ATOM      6  C   UNL     1      15.316   4.510  16.540  1.00  0.00     0.008 C 
ATOM      7  C   UNL     1      14.638   5.694  15.877  1.00  0.00     0.001 C 
ATOM      8  C   UNL     1      13.141   5.614  16.145  1.00  0.00     0.007 C 
ATOM      9  C   UNL     1      12.802   5.855  17.634  1.00  0.00    -0.029 C 
ATOM     10  C   UNL     1      13.710   4.943  18.583  1.00  0.00    -0.012 C 
ATOM     11  C   UNL     1      13.055   4.028  19.663  1.00  0.00     0.022 C 
ATOM     12  C   UNL     1      13.564   5.396  20.059  1.00  0.00     0.017 C 
ATOM     13  C   UNL     1      11.291   5.556  17.792  1.00  0.00     0.012 C 
ATOM     14  C   UNL     1      13.016   7.367  17.938  1.00  0.00     0.012 C 
ATOM     15  C   UNL     1      16.273   5.368  18.707  1.00  0.00     0.012 C 
ENDROOT
TORSDOF 0
ENDMDL
MODEL 4
REMARK VINA RESULT:    -4.527      1.425      3.791
REMARK INTER + INTRA:          -4.527
REMARK INTER:                  -4.527
REMARK INTRA:                   0.000
REMARK UNBOUND:                 0.000
REMARK SMILES CC1=CC[C@@]2(C)CCCC(C)(C)[C@]23C[C@H]13
REMARK SMILES IDX 1 1 2 2 3 3 4 4 5 5 7 6 8 7 9 8 10 9 13 10 15 11 14 12 11 13
REMARK SMILES IDX 12 14 6 15
REMARK H PARENT
REMARK Flexibility Score: inf
ROOT
ATOM      1  C   UNL     1      13.290   4.210  22.019  1.00  0.00     0.039 C 
ATOM      2  C   UNL     1      13.088   5.052  20.792  1.00  0.00    -0.074 C 
ATOM      3  C   UNL     1      12.008   5.833  20.692  1.00  0.00    -0.027 C 
ATOM      4  C   UNL     1      11.857   6.768  19.537  1.00  0.00     0.034 C 
ATOM      5  C   UNL     1      12.187   6.141  18.143  1.00  0.00    -0.022 C 
ATOM      6  C   UNL     1      12.289   7.366  17.175  1.00  0.00     0.008 C 
ATOM      7  C   UNL     1      13.054   7.087  15.895  1.00  0.00     0.001 C 
ATOM      8  C   UNL     1      14.488   6.722  16.253  1.00  0.00     0.007 C 
ATOM      9  C   UNL     1      14.580   5.357  16.974  1.00  0.00    -0.029 C 
ATOM     10  C   UNL     1      13.538   5.278  18.185  1.00  0.00    -0.012 C 
ATOM     11  C   UNL     1      14.018   4.887  19.616  1.00  0.00     0.022 C 
ATOM     12  C   UNL     1      13.439   3.822  18.711  1.00  0.00     0.017 C 
ATOM     13  C   UNL     1      16.048   5.207  17.443  1.00  0.00     0.012 C 
ATOM     14  C   UNL     1      14.306   4.239  15.925  1.00  0.00     0.012 C 
ATOM     15  C   UNL     1      10.985   5.272  17.687  1.00  0.00     0.012 C 
ENDROOT
TORSDOF 0
ENDMDL
MODEL 5
REMARK VINA RESULT:    -4.500      1.226      4.673
REMARK INTER + INTRA:          -4.500
REMARK INTER:                  -4.500
REMARK INTRA:                   0.000
REMARK UNBOUND:                 0.000
REMARK SMILES CC1=CC[C@@]2(C)CCCC(C)(C)[C@]23C[C@H]13
REMARK SMILES IDX 1 1 2 2 3 3 4 4 5 5 7 6 8 7 9 8 10 9 13 10 15 11 14 12 11 13
REMARK SMILES IDX 12 14 6 15
REMARK H PARENT
REMARK Flexibility Score: inf
ROOT
ATOM      1  C   UNL     1      10.875   8.960  20.767  1.00  0.00     0.039 C 
ATOM      2  C   UNL     1      11.522   8.397  19.533  1.00  0.00    -0.074 C 
ATOM      3  C   UNL     1      11.112   8.795  18.326  1.00  0.00    -0.027 C 
ATOM      4  C   UNL     1      11.828   8.340  17.097  1.00  0.00     0.034 C 
ATOM      5  C   UNL     1      12.160   6.812  17.065  1.00  0.00    -0.022 C 
ATOM      6  C   UNL     1      13.178   6.656  15.886  1.00  0.00     0.008 C 
ATOM      7  C   UNL     1      14.009   5.388  15.944  1.00  0.00     0.001 C 
ATOM      8  C   UNL     1      14.847   5.410  17.215  1.00  0.00     0.007 C 
ATOM      9  C   UNL     1      13.980   5.272  18.488  1.00  0.00    -0.029 C 
ATOM     10  C   UNL     1      12.759   6.305  18.464  1.00  0.00    -0.012 C 
ATOM     11  C   UNL     1      12.514   7.268  19.665  1.00  0.00     0.022 C 
ATOM     12  C   UNL     1      11.749   5.965  19.590  1.00  0.00     0.017 C 
ATOM     13  C   UNL     1      14.928   5.502  19.690  1.00  0.00     0.012 C 
ATOM     14  C   UNL     1      13.471   3.803  18.566  1.00  0.00     0.012 C 
ATOM     15  C   UNL     1      10.875   6.027  16.692  1.00  0.00     0.012 C 
ENDROOT
TORSDOF 0
ENDMDL
MODEL 6
REMARK VINA RESULT:    -4.460      1.361      3.126
REMARK INTER + INTRA:          -4.460
REMARK INTER:                  -4.460
REMARK INTRA:                   0.000
REMARK UNBOUND:                 0.000
REMARK SMILES CC1=CC[C@@]2(C)CCCC(C)(C)[C@]23C[C@H]13
REMARK SMILES IDX 1 1 2 2 3 3 4 4 5 5 7 6 8 7 9 8 10 9 13 10 15 11 14 12 11 13
REMARK SMILES IDX 12 14 6 15
REMARK H PARENT
REMARK Flexibility Score: inf
ROOT
ATOM      1  C   UNL     1      15.692   2.903  19.147  1.00  0.00     0.039 C 
ATOM      2  C   UNL     1      14.772   3.769  18.334  1.00  0.00    -0.074 C 
ATOM      3  C   UNL     1      14.847   3.751  17.000  1.00  0.00    -0.027 C 
ATOM      4  C   UNL     1      13.858   4.508  16.177  1.00  0.00     0.034 C 
ATOM      5  C   UNL     1      13.580   5.966  16.672  1.00  0.00    -0.022 C 
ATOM      6  C   UNL     1      12.301   6.410  15.886  1.00  0.00     0.008 C 
ATOM      7  C   UNL     1      11.556   7.572  16.514  1.00  0.00     0.001 C 
ATOM      8  C   UNL     1      11.068   7.151  17.893  1.00  0.00     0.007 C 
ATOM      9  C   UNL     1      12.234   6.954  18.889  1.00  0.00    -0.029 C 
ATOM     10  C   UNL     1      13.374   6.025  18.261  1.00  0.00    -0.012 C 
ATOM     11  C   UNL     1      13.884   4.769  19.031  1.00  0.00     0.022 C 
ATOM     12  C   UNL     1      14.648   6.070  19.144  1.00  0.00     0.017 C 
ATOM     13  C   UNL     1      11.616   6.349  20.174  1.00  0.00     0.012 C 
ATOM     14  C   UNL     1      12.796   8.360  19.256  1.00  0.00     0.012 C 
ATOM     15  C   UNL     1      14.753   6.879  16.227  1.00  0.00     0.012 C 
ENDROOT
TORSDOF 0
ENDMDL
MODEL 7
REMARK VINA RESULT:    -4.438      1.413      2.279
REMARK INTER + INTRA:          -4.438
REMARK INTER:                  -4.438
REMARK INTRA:                   0.000
REMARK UNBOUND:                 0.000
REMARK SMILES CC1=CC[C@@]2(C)CCCC(C)(C)[C@]23C[C@H]13
REMARK SMILES IDX 1 1 2 2 3 3 4 4 5 5 7 6 8 7 9 8 10 9 13 10 15 11 14 12 11 13
REMARK SMILES IDX 12 14 6 15
REMARK H PARENT
REMARK Flexibility Score: inf
ROOT
ATOM      1  C   UNL     1      16.479   9.376  17.017  1.00  0.00     0.039 C 
ATOM      2  C   UNL     1      15.603   8.206  17.362  1.00  0.00    -0.074 C 
ATOM      3  C   UNL     1      16.151   7.007  17.583  1.00  0.00    -0.027 C 
ATOM      4  C   UNL     1      15.308   5.866  18.049  1.00  0.00     0.034 C 
ATOM      5  C   UNL     1      13.958   5.696  17.277  1.00  0.00    -0.022 C 
ATOM      6  C   UNL     1      13.132   4.692  18.148  1.00  0.00     0.008 C 
ATOM      7  C   UNL     1      11.638   4.725  17.888  1.00  0.00     0.001 C 
ATOM      8  C   UNL     1      11.111   6.109  18.241  1.00  0.00     0.007 C 
ATOM      9  C   UNL     1      11.621   7.194  17.264  1.00  0.00    -0.029 C 
ATOM     10  C   UNL     1      13.206   7.099  17.080  1.00  0.00    -0.012 C 
ATOM     11  C   UNL     1      14.104   8.355  17.296  1.00  0.00     0.022 C 
ATOM     12  C   UNL     1      13.662   7.991  15.895  1.00  0.00     0.017 C 
ATOM     13  C   UNL     1      11.171   8.556  17.847  1.00  0.00     0.012 C 
ATOM     14  C   UNL     1      10.886   7.000  15.905  1.00  0.00     0.012 C 
ATOM     15  C   UNL     1      14.243   5.019  15.911  1.00  0.00     0.012 C 
ENDROOT
TORSDOF 0
ENDMDL
MODEL 8
REMARK VINA RESULT:    -4.369      1.487      3.900
REMARK INTER + INTRA:          -4.369
REMARK INTER:                  -4.369
REMARK INTRA:                   0.000
REMARK UNBOUND:                 0.000
REMARK SMILES CC1=CC[C@@]2(C)CCCC(C)(C)[C@]23C[C@H]13
REMARK SMILES IDX 1 1 2 2 3 3 4 4 5 5 7 6 8 7 9 8 10 9 13 10 15 11 14 12 11 13
REMARK SMILES IDX 12 14 6 15
REMARK H PARENT
REMARK Flexibility Score: inf
ROOT
ATOM      1  C   UNL     1      11.609   6.539  22.582  1.00  0.00     0.039 C 
ATOM      2  C   UNL     1      12.052   5.964  21.267  1.00  0.00    -0.074 C 
ATOM      3  C   UNL     1      12.790   4.851  21.242  1.00  0.00    -0.027 C 
ATOM      4  C   UNL     1      13.130   4.199  19.942  1.00  0.00     0.034 C 
ATOM      5  C   UNL     1      13.619   5.182  18.828  1.00  0.00    -0.022 C 
ATOM      6  C   UNL     1      13.578   4.336  17.512  1.00  0.00     0.008 C 
ATOM      7  C   UNL     1      13.542   5.164  16.241  1.00  0.00     0.001 C 
ATOM      8  C   UNL     1      12.269   5.998  16.236  1.00  0.00     0.007 C 
ATOM      9  C   UNL     1      12.289   7.098  17.323  1.00  0.00    -0.029 C 
ATOM     10  C   UNL     1      12.696   6.491  18.745  1.00  0.00    -0.012 C 
ATOM     11  C   UNL     1      11.797   6.735  19.995  1.00  0.00     0.022 C 
ATOM     12  C   UNL     1      12.989   7.635  19.751  1.00  0.00     0.017 C 
ATOM     13  C   UNL     1      10.876   7.732  17.330  1.00  0.00     0.012 C 
ATOM     14  C   UNL     1      13.295   8.199  16.875  1.00  0.00     0.012 C 
ATOM     15  C   UNL     1      15.098   5.560  19.107  1.00  0.00     0.012 C 
ENDROOT
TORSDOF 0
ENDMDL
