MODEL 1
REMARK VINA RESULT:    -3.259      0.000      0.000
REMARK INTER + INTRA:          -5.042
REMARK INTER:                  -4.974
REMARK INTRA:                  -0.068
REMARK UNBOUND:                -0.068
REMARK SMILES CC1=CCC[C@H](C)C(=O)C[C@@H](C(C)C)C(=O)C1
REMARK SMILES IDX 8 1 9 2 6 3 7 4 5 5 4 6 3 7 2 8 1 9 10 11 11 12 15 13 16 14
REMARK SMILES IDX 17 15 12 17 13 18 14 19
REMARK H PARENT
REMARK Flexibility Score: 70.00
ROOT
ATOM      1  C   UNL     1      19.390   2.569  21.194  1.00  0.00     0.136 C 
ATOM      2  O   UNL     1      20.141   3.534  21.151  1.00  0.00    -0.299 OA
ENDROOT
BRANCH   1   3
ATOM      3  C   UNL     1      18.936   1.915  19.903  1.00  0.00     0.053 C 
ATOM      4  C   UNL     1      19.287   2.801  18.699  1.00  0.00     0.016 C 
BRANCH   3   5
ATOM      5  C   UNL     1      19.571   0.514  19.762  1.00  0.00     0.015 C 
BRANCH   5   6
ATOM      6  C   UNL     1      18.656  -0.598  20.319  1.00  0.00     0.028 C 
BRANCH   6   7
ATOM      7  C   UNL     1      19.452  -1.650  21.047  1.00  0.00    -0.028 C 
ATOM      8  C   UNL     1      19.625  -1.705  22.389  1.00  0.00    -0.070 CG0
ATOM      9  C   UNL     1      20.505  -2.797  22.942  1.00  0.00     0.039 C 
ATOM     10  G   UNL     1      18.988  -0.719  23.355  1.00  0.00     0.000 G0
ENDBRANCH   6   7
ENDBRANCH   5   6
ENDBRANCH   3   5
ENDBRANCH   1   3
BRANCH   1  11
ATOM     11  C   UNL     1      18.931   2.053  22.538  1.00  0.00     0.087 C 
BRANCH  11  12
ATOM     12  C   UNL     1      20.115   1.684  23.468  1.00  0.00     0.066 C 
BRANCH  12  13
ATOM     13  C   UNL     1      19.992   0.247  23.962  1.00  0.00     0.140 C 
ATOM     14  O   UNL     1      20.690  -0.115  24.898  1.00  0.00    -0.299 OA
BRANCH  13  15
ATOM     15  C   UNL     1      18.985  -0.718  23.378  1.00  0.00     0.106 CG0
ATOM     16  G   UNL     1      19.621  -1.690  22.396  1.00  0.00     0.000 G0
ENDBRANCH  13  15
ENDBRANCH  12  13
BRANCH  12  17
ATOM     17  C   UNL     1      20.293   2.685  24.655  1.00  0.00    -0.006 C 
ATOM     18  C   UNL     1      21.262   3.821  24.279  1.00  0.00     0.008 C 
ATOM     19  C   UNL     1      18.959   3.305  25.105  1.00  0.00     0.008 C 
ENDBRANCH  12  17
ENDBRANCH  11  12
ENDBRANCH   1  11
TORSDOF 1
ENDMDL
MODEL 2
REMARK VINA RESULT:    -3.068      1.612      4.071
REMARK INTER + INTRA:          -4.750
REMARK INTER:                  -5.403
REMARK INTRA:                   0.652
REMARK UNBOUND:                -0.068
REMARK SMILES CC1=CCC[C@H](C)C(=O)C[C@@H](C(C)C)C(=O)C1
REMARK SMILES IDX 8 1 9 2 6 3 7 4 5 5 4 6 3 7 2 8 1 9 10 11 11 12 15 13 16 14
REMARK SMILES IDX 17 15 12 17 13 18 14 19
REMARK H PARENT
REMARK Flexibility Score: 70.00
ROOT
ATOM      1  C   UNL     1      20.216   3.243  23.056  1.00  0.00     0.136 C 
ATOM      2  O   UNL     1      19.060   3.516  23.348  1.00  0.00    -0.299 OA
ENDROOT
BRANCH   1   3
ATOM      3  C   UNL     1      21.286   3.270  24.131  1.00  0.00     0.053 C 
ATOM      4  C   UNL     1      21.284   4.622  24.858  1.00  0.00     0.016 C 
BRANCH   3   5
ATOM      5  C   UNL     1      21.075   2.106  25.125  1.00  0.00     0.015 C 
BRANCH   5   6
ATOM      6  C   UNL     1      19.818   1.275  24.790  1.00  0.00     0.028 C 
BRANCH   6   7
ATOM      7  C   UNL     1      20.186  -0.065  24.207  1.00  0.00    -0.028 C 
ATOM      8  C   UNL     1      19.663  -0.590  23.075  1.00  0.00    -0.070 CG0
ATOM      9  C   UNL     1      20.104  -1.975  22.672  1.00  0.00     0.039 C 
ATOM     10  G   UNL     1      18.651   0.138  22.204  1.00  0.00     0.000 G0
ENDBRANCH   6   7
ENDBRANCH   5   6
ENDBRANCH   3   5
ENDBRANCH   1   3
BRANCH   1  11
ATOM     11  C   UNL     1      20.549   2.885  21.627  1.00  0.00     0.087 C 
BRANCH  11  12
ATOM     12  C   UNL     1      19.330   2.312  20.859  1.00  0.00     0.066 C 
BRANCH  12  13
ATOM     13  C   UNL     1      19.262   0.796  21.002  1.00  0.00     0.140 C 
ATOM     14  O   UNL     1      19.779   0.100  20.139  1.00  0.00    -0.299 OA
BRANCH  13  15
ATOM     15  C   UNL     1      18.640   0.131  22.209  1.00  0.00     0.106 CG0
ATOM     16  G   UNL     1      19.670  -0.595  23.060  1.00  0.00     0.000 G0
ENDBRANCH  13  15
ENDBRANCH  12  13
BRANCH  12  17
ATOM     17  C   UNL     1      19.294   2.748  19.358  1.00  0.00    -0.006 C 
ATOM     18  C   UNL     1      17.844   2.876  18.855  1.00  0.00     0.008 C 
ATOM     19  C   UNL     1      20.019   4.084  19.118  1.00  0.00     0.008 C 
ENDBRANCH  12  17
ENDBRANCH  11  12
ENDBRANCH   1  11
TORSDOF 1
ENDMDL
MODEL 3
REMARK VINA RESULT:    -2.794      1.928      4.833
REMARK INTER + INTRA:          -4.332
REMARK INTER:                  -4.586
REMARK INTRA:                   0.254
REMARK UNBOUND:                -0.068
REMARK SMILES CC1=CCC[C@H](C)C(=O)C[C@@H](C(C)C)C(=O)C1
REMARK SMILES IDX 8 1 9 2 6 3 7 4 5 5 4 6 3 7 2 8 1 9 10 11 11 12 15 13 16 14
REMARK SMILES IDX 17 15 12 17 13 18 14 19
REMARK H PARENT
REMARK Flexibility Score: 70.00
ROOT
ATOM      1  C   UNL     1      19.375  -0.768  21.514  1.00  0.00     0.136 C 
ATOM      2  O   UNL     1      19.761  -1.324  20.496  1.00  0.00    -0.299 OA
ENDROOT
BRANCH   1   3
ATOM      3  C   UNL     1      19.553  -1.453  22.855  1.00  0.00     0.053 C 
ATOM      4  C   UNL     1      20.126  -2.865  22.666  1.00  0.00     0.016 C 
BRANCH   3   5
ATOM      5  C   UNL     1      20.461  -0.606  23.773  1.00  0.00     0.015 C 
BRANCH   5   6
ATOM      6  C   UNL     1      19.652   0.192  24.817  1.00  0.00     0.028 C 
BRANCH   6   7
ATOM      7  C   UNL     1      20.301   1.519  25.117  1.00  0.00    -0.028 C 
ATOM      8  C   UNL     1      20.089   2.662  24.424  1.00  0.00    -0.070 CG0
ATOM      9  C   UNL     1      20.871   3.886  24.828  1.00  0.00     0.039 C 
ATOM     10  G   UNL     1      19.116   2.768  23.261  1.00  0.00     0.000 G0
ENDBRANCH   6   7
ENDBRANCH   5   6
ENDBRANCH   3   5
ENDBRANCH   1   3
BRANCH   1  11
ATOM     11  C   UNL     1      18.730   0.594  21.410  1.00  0.00     0.087 C 
BRANCH  11  12
ATOM     12  C   UNL     1      19.715   1.681  20.906  1.00  0.00     0.066 C 
BRANCH  12  13
ATOM     13  C   UNL     1      19.847   2.808  21.924  1.00  0.00     0.140 C 
ATOM     14  O   UNL     1      20.514   3.791  21.629  1.00  0.00    -0.299 OA
BRANCH  13  15
ATOM     15  C   UNL     1      19.124   2.780  23.252  1.00  0.00     0.106 CG0
ATOM     16  G   UNL     1      20.082   2.662  24.426  1.00  0.00     0.000 G0
ENDBRANCH  13  15
ENDBRANCH  12  13
BRANCH  12  17
ATOM     17  C   UNL     1      19.347   2.229  19.489  1.00  0.00    -0.006 C 
ATOM     18  C   UNL     1      19.219   1.081  18.470  1.00  0.00     0.008 C 
ATOM     19  C   UNL     1      18.035   3.032  19.493  1.00  0.00     0.008 C 
ENDBRANCH  12  17
ENDBRANCH  11  12
ENDBRANCH   1  11
TORSDOF 1
ENDMDL
MODEL 4
REMARK VINA RESULT:    -2.729      1.688      2.155
REMARK INTER + INTRA:          -4.232
REMARK INTER:                  -4.139
REMARK INTRA:                  -0.093
REMARK UNBOUND:                -0.068
REMARK SMILES CC1=CCC[C@H](C)C(=O)C[C@@H](C(C)C)C(=O)C1
REMARK SMILES IDX 8 1 9 2 6 3 7 4 5 5 4 6 3 7 2 8 1 9 10 11 11 12 15 13 16 14
REMARK SMILES IDX 17 15 12 17 13 18 14 19
REMARK H PARENT
REMARK Flexibility Score: 70.00
ROOT
ATOM      1  C   UNL     1      19.971   3.024  21.528  1.00  0.00     0.136 C 
ATOM      2  O   UNL     1      21.018   3.247  20.936  1.00  0.00    -0.299 OA
ENDROOT
BRANCH   1   3
ATOM      3  C   UNL     1      18.918   2.145  20.882  1.00  0.00     0.053 C 
ATOM      4  C   UNL     1      18.383   2.799  19.600  1.00  0.00     0.016 C 
BRANCH   3   5
ATOM      5  C   UNL     1      19.499   0.744  20.587  1.00  0.00     0.015 C 
BRANCH   5   6
ATOM      6  C   UNL     1      19.719  -0.078  21.874  1.00  0.00     0.028 C 
BRANCH   6   7
ATOM      7  C   UNL     1      18.414  -0.380  22.563  1.00  0.00    -0.028 C 
ATOM      8  C   UNL     1      18.159  -0.165  23.875  1.00  0.00    -0.070 CG0
ATOM      9  C   UNL     1      16.812  -0.584  24.409  1.00  0.00     0.039 C 
ATOM     10  G   UNL     1      19.161   0.463  24.830  1.00  0.00     0.000 G0
ENDBRANCH   6   7
ENDBRANCH   5   6
ENDBRANCH   3   5
ENDBRANCH   1   3
BRANCH   1  11
ATOM     11  C   UNL     1      19.754   3.632  22.894  1.00  0.00     0.087 C 
BRANCH  11  12
ATOM     12  C   UNL     1      20.290   2.732  24.037  1.00  0.00     0.066 C 
BRANCH  12  13
ATOM     13  C   UNL     1      19.152   1.975  24.713  1.00  0.00     0.140 C 
ATOM     14  O   UNL     1      18.190   2.607  25.125  1.00  0.00    -0.299 OA
BRANCH  13  15
ATOM     15  C   UNL     1      19.145   0.467  24.823  1.00  0.00     0.106 CG0
ATOM     16  G   UNL     1      18.154  -0.175  23.865  1.00  0.00     0.000 G0
ENDBRANCH  13  15
ENDBRANCH  12  13
BRANCH  12  17
ATOM     17  C   UNL     1      21.155   3.516  25.077  1.00  0.00    -0.006 C 
ATOM     18  C   UNL     1      22.658   3.311  24.811  1.00  0.00     0.008 C 
ATOM     19  C   UNL     1      20.854   5.024  25.071  1.00  0.00     0.008 C 
ENDBRANCH  12  17
ENDBRANCH  11  12
ENDBRANCH   1  11
TORSDOF 1
ENDMDL
MODEL 5
REMARK VINA RESULT:    -2.088      1.852      4.844
REMARK INTER + INTRA:          -3.254
REMARK INTER:                  -3.986
REMARK INTRA:                   0.732
REMARK UNBOUND:                -0.068
REMARK SMILES CC1=CCC[C@H](C)C(=O)C[C@@H](C(C)C)C(=O)C1
REMARK SMILES IDX 8 1 9 2 6 3 7 4 5 5 4 6 3 7 2 8 1 9 10 11 11 12 15 13 16 14
REMARK SMILES IDX 17 15 12 17 13 18 14 19
REMARK H PARENT
REMARK Flexibility Score: 70.00
ROOT
ATOM      1  C   UNL     1      20.096   1.232  24.362  1.00  0.00     0.136 C 
ATOM      2  O   UNL     1      21.125   1.357  25.011  1.00  0.00    -0.299 OA
ENDROOT
BRANCH   1   3
ATOM      3  C   UNL     1      19.331   2.467  23.925  1.00  0.00     0.053 C 
ATOM      4  C   UNL     1      18.467   3.000  25.078  1.00  0.00     0.016 C 
BRANCH   3   5
ATOM      5  C   UNL     1      20.309   3.551  23.420  1.00  0.00     0.015 C 
BRANCH   5   6
ATOM      6  C   UNL     1      20.827   3.249  21.998  1.00  0.00     0.028 C 
BRANCH   6   7
ATOM      7  C   UNL     1      19.750   3.460  20.965  1.00  0.00    -0.028 C 
ATOM      8  C   UNL     1      19.183   2.482  20.222  1.00  0.00    -0.070 CG0
ATOM      9  C   UNL     1      18.159   2.884  19.190  1.00  0.00     0.039 C 
ATOM     10  G   UNL     1      19.533   1.010  20.369  1.00  0.00     0.000 G0
ENDBRANCH   6   7
ENDBRANCH   5   6
ENDBRANCH   3   5
ENDBRANCH   1   3
BRANCH   1  11
ATOM     11  C   UNL     1      19.611  -0.155  24.009  1.00  0.00     0.087 C 
BRANCH  11  12
ATOM     12  C   UNL     1      19.851  -0.506  22.518  1.00  0.00     0.066 C 
BRANCH  12  13
ATOM     13  C   UNL     1      18.988   0.363  21.610  1.00  0.00     0.140 C 
ATOM     14  O   UNL     1      17.836   0.601  21.945  1.00  0.00    -0.299 OA
BRANCH  13  15
ATOM     15  C   UNL     1      19.534   0.995  20.349  1.00  0.00     0.106 CG0
ATOM     16  G   UNL     1      19.190   2.472  20.250  1.00  0.00     0.000 G0
ENDBRANCH  13  15
ENDBRANCH  12  13
BRANCH  12  17
ATOM     17  C   UNL     1      19.657  -2.026  22.210  1.00  0.00    -0.006 C 
ATOM     18  C   UNL     1      20.113  -2.362  20.778  1.00  0.00     0.008 C 
ATOM     19  C   UNL     1      20.422  -2.927  23.195  1.00  0.00     0.008 C 
ENDBRANCH  12  17
ENDBRANCH  11  12
ENDBRANCH   1  11
TORSDOF 1
ENDMDL
MODEL 6
REMARK VINA RESULT:    -1.829      2.385      4.550
REMARK INTER + INTRA:          -2.859
REMARK INTER:                  -3.806
REMARK INTRA:                   0.946
REMARK UNBOUND:                -0.068
REMARK SMILES CC1=CCC[C@H](C)C(=O)C[C@@H](C(C)C)C(=O)C1
REMARK SMILES IDX 8 1 9 2 6 3 7 4 5 5 4 6 3 7 2 8 1 9 10 11 11 12 15 13 16 14
REMARK SMILES IDX 17 15 12 17 13 18 14 19
REMARK H PARENT
REMARK Flexibility Score: 70.00
ROOT
ATOM      1  C   UNL     1      19.285  -0.426  22.407  1.00  0.00     0.136 C 
ATOM      2  O   UNL     1      20.114   0.170  21.733  1.00  0.00    -0.299 OA
ENDROOT
BRANCH   1   3
ATOM      3  C   UNL     1      19.732  -1.543  23.329  1.00  0.00     0.053 C 
ATOM      4  C   UNL     1      20.155  -2.775  22.516  1.00  0.00     0.016 C 
BRANCH   3   5
ATOM      5  C   UNL     1      20.883  -1.058  24.238  1.00  0.00     0.015 C 
BRANCH   5   6
ATOM      6  C   UNL     1      20.462   0.132  25.125  1.00  0.00     0.028 C 
BRANCH   6   7
ATOM      7  C   UNL     1      21.281   1.360  24.821  1.00  0.00    -0.028 C 
ATOM      8  C   UNL     1      20.777   2.555  24.436  1.00  0.00    -0.070 CG0
ATOM      9  C   UNL     1      21.751   3.660  24.114  1.00  0.00     0.039 C 
ATOM     10  G   UNL     1      19.288   2.832  24.304  1.00  0.00     0.000 G0
ENDBRANCH   6   7
ENDBRANCH   5   6
ENDBRANCH   3   5
ENDBRANCH   1   3
BRANCH   1  11
ATOM     11  C   UNL     1      17.830  -0.030  22.303  1.00  0.00     0.087 C 
BRANCH  11  12
ATOM     12  C   UNL     1      17.504   1.252  23.113  1.00  0.00     0.066 C 
BRANCH  12  13
ATOM     13  C   UNL     1      18.666   2.238  23.059  1.00  0.00     0.140 C 
ATOM     14  O   UNL     1      19.077   2.603  21.966  1.00  0.00    -0.299 OA
BRANCH  13  15
ATOM     15  C   UNL     1      19.273   2.832  24.310  1.00  0.00     0.106 CG0
ATOM     16  G   UNL     1      20.762   2.548  24.418  1.00  0.00     0.000 G0
ENDBRANCH  13  15
ENDBRANCH  12  13
BRANCH  12  17
ATOM     17  C   UNL     1      17.076   0.950  24.585  1.00  0.00    -0.006 C 
ATOM     18  C   UNL     1      15.946   1.896  25.036  1.00  0.00     0.008 C 
ATOM     19  C   UNL     1      16.607  -0.502  24.774  1.00  0.00     0.008 C 
ENDBRANCH  12  17
ENDBRANCH  11  12
ENDBRANCH   1  11
TORSDOF 1
ENDMDL
MODEL 7
REMARK VINA RESULT:    -1.711      1.755      4.112
REMARK INTER + INTRA:          -2.679
REMARK INTER:                  -3.725
REMARK INTRA:                   1.046
REMARK UNBOUND:                -0.068
REMARK SMILES CC1=CCC[C@H](C)C(=O)C[C@@H](C(C)C)C(=O)C1
REMARK SMILES IDX 8 1 9 2 6 3 7 4 5 5 4 6 3 7 2 8 1 9 10 11 11 12 15 13 16 14
REMARK SMILES IDX 17 15 12 17 13 18 14 19
REMARK H PARENT
REMARK Flexibility Score: 70.00
ROOT
ATOM      1  C   UNL     1      19.233   0.934  19.404  1.00  0.00     0.136 C 
ATOM      2  O   UNL     1      18.648   0.172  18.648  1.00  0.00    -0.299 OA
ENDROOT
BRANCH   1   3
ATOM      3  C   UNL     1      19.289   2.414  19.080  1.00  0.00     0.053 C 
ATOM      4  C   UNL     1      18.265   2.766  17.991  1.00  0.00     0.016 C 
BRANCH   3   5
ATOM      5  C   UNL     1      19.047   3.251  20.356  1.00  0.00     0.015 C 
BRANCH   5   6
ATOM      6  C   UNL     1      20.168   3.058  21.399  1.00  0.00     0.028 C 
BRANCH   6   7
ATOM      7  C   UNL     1      19.669   3.324  22.796  1.00  0.00    -0.028 C 
ATOM      8  C   UNL     1      19.512   2.385  23.758  1.00  0.00    -0.070 CG0
ATOM      9  C   UNL     1      18.943   2.823  25.084  1.00  0.00     0.039 C 
ATOM     10  G   UNL     1      19.868   0.920  23.563  1.00  0.00     0.000 G0
ENDBRANCH   6   7
ENDBRANCH   5   6
ENDBRANCH   3   5
ENDBRANCH   1   3
BRANCH   1  11
ATOM     11  C   UNL     1      19.889   0.379  20.647  1.00  0.00     0.087 C 
BRANCH  11  12
ATOM     12  C   UNL     1      18.916  -0.476  21.500  1.00  0.00     0.066 C 
BRANCH  12  13
ATOM     13  C   UNL     1      18.776   0.099  22.905  1.00  0.00     0.140 C 
ATOM     14  O   UNL     1      17.759  -0.143  23.540  1.00  0.00    -0.299 OA
BRANCH  13  15
ATOM     15  C   UNL     1      19.883   0.894  23.561  1.00  0.00     0.106 CG0
ATOM     16  G   UNL     1      19.501   2.352  23.762  1.00  0.00     0.000 G0
ENDBRANCH  13  15
ENDBRANCH  12  13
BRANCH  12  17
ATOM     17  C   UNL     1      19.305  -1.989  21.536  1.00  0.00    -0.006 C 
ATOM     18  C   UNL     1      20.087  -2.388  20.270  1.00  0.00     0.008 C 
ATOM     19  C   UNL     1      20.149  -2.349  22.771  1.00  0.00     0.008 C 
ENDBRANCH  12  17
ENDBRANCH  11  12
ENDBRANCH   1  11
TORSDOF 1
ENDMDL
MODEL 8
REMARK VINA RESULT:    -1.648      2.035      5.115
REMARK INTER + INTRA:          -2.583
REMARK INTER:                  -4.053
REMARK INTRA:                   1.471
REMARK UNBOUND:                -0.068
REMARK SMILES CC1=CCC[C@H](C)C(=O)C[C@@H](C(C)C)C(=O)C1
REMARK SMILES IDX 8 1 9 2 6 3 7 4 5 5 4 6 3 7 2 8 1 9 10 11 11 12 15 13 16 14
REMARK SMILES IDX 17 15 12 17 13 18 14 19
REMARK H PARENT
REMARK Flexibility Score: 70.00
ROOT
ATOM      1  C   UNL     1      18.473   0.618  24.008  1.00  0.00     0.136 C 
ATOM      2  O   UNL     1      17.485   1.307  24.217  1.00  0.00    -0.299 OA
ENDROOT
BRANCH   1   3
ATOM      3  C   UNL     1      19.721   0.826  24.845  1.00  0.00     0.053 C 
ATOM      4  C   UNL     1      20.539  -0.472  24.923  1.00  0.00     0.016 C 
BRANCH   3   5
ATOM      5  C   UNL     1      20.569   1.979  24.264  1.00  0.00     0.015 C 
BRANCH   5   6
ATOM      6  C   UNL     1      19.694   3.132  23.728  1.00  0.00     0.028 C 
BRANCH   6   7
ATOM      7  C   UNL     1      20.162   3.592  22.372  1.00  0.00    -0.028 C 
ATOM      8  C   UNL     1      19.750   3.076  21.191  1.00  0.00    -0.070 CG0
ATOM      9  C   UNL     1      20.372   3.620  19.929  1.00  0.00     0.039 C 
ATOM     10  G   UNL     1      18.707   1.976  21.076  1.00  0.00     0.000 G0
ENDBRANCH   6   7
ENDBRANCH   5   6
ENDBRANCH   3   5
ENDBRANCH   1   3
BRANCH   1  11
ATOM     11  C   UNL     1      18.426  -0.427  22.918  1.00  0.00     0.087 C 
BRANCH  11  12
ATOM     12  C   UNL     1      19.644  -0.343  21.962  1.00  0.00     0.066 C 
BRANCH  12  13
ATOM     13  C   UNL     1      19.370   0.623  20.815  1.00  0.00     0.140 C 
ATOM     14  O   UNL     1      19.627   0.267  19.673  1.00  0.00    -0.299 OA
BRANCH  13  15
ATOM     15  C   UNL     1      18.725   1.972  21.039  1.00  0.00     0.106 CG0
ATOM     16  G   UNL     1      19.752   3.079  21.214  1.00  0.00     0.000 G0
ENDBRANCH  13  15
ENDBRANCH  12  13
BRANCH  12  17
ATOM     17  C   UNL     1      20.105  -1.741  21.437  1.00  0.00    -0.006 C 
ATOM     18  C   UNL     1      20.362  -2.712  22.604  1.00  0.00     0.008 C 
ATOM     19  C   UNL     1      19.079  -2.377  20.484  1.00  0.00     0.008 C 
ENDBRANCH  12  17
ENDBRANCH  11  12
ENDBRANCH   1  11
TORSDOF 1
ENDMDL
MODEL 9
REMARK VINA RESULT:    -1.485      2.190      4.362
REMARK INTER + INTRA:          -2.335
REMARK INTER:                  -2.894
REMARK INTRA:                   0.559
REMARK UNBOUND:                -0.068
REMARK SMILES CC1=CCC[C@H](C)C(=O)C[C@@H](C(C)C)C(=O)C1
REMARK SMILES IDX 8 1 9 2 6 3 7 4 5 5 4 6 3 7 2 8 1 9 10 11 11 12 15 13 16 14
REMARK SMILES IDX 17 15 12 17 13 18 14 19
REMARK H PARENT
REMARK Flexibility Score: 70.00
ROOT
ATOM      1  C   UNL     1      19.908  -1.029  22.201  1.00  0.00     0.136 C 
ATOM      2  O   UNL     1      19.733  -2.033  22.877  1.00  0.00    -0.299 OA
ENDROOT
BRANCH   1   3
ATOM      3  C   UNL     1      19.867  -1.128  20.688  1.00  0.00     0.053 C 
ATOM      4  C   UNL     1      19.349  -2.507  20.253  1.00  0.00     0.016 C 
BRANCH   3   5
ATOM      5  C   UNL     1      18.992   0.002  20.102  1.00  0.00     0.015 C 
BRANCH   5   6
ATOM      6  C   UNL     1      19.710   0.767  18.971  1.00  0.00     0.028 C 
BRANCH   6   7
ATOM      7  C   UNL     1      19.268   2.206  18.914  1.00  0.00    -0.028 C 
ATOM      8  C   UNL     1      19.530   3.138  19.861  1.00  0.00    -0.070 CG0
ATOM      9  C   UNL     1      18.956   4.519  19.668  1.00  0.00     0.039 C 
ATOM     10  G   UNL     1      20.359   2.857  21.104  1.00  0.00     0.000 G0
ENDBRANCH   6   7
ENDBRANCH   5   6
ENDBRANCH   3   5
ENDBRANCH   1   3
BRANCH   1  11
ATOM     11  C   UNL     1      20.161   0.290  22.893  1.00  0.00     0.087 C 
BRANCH  11  12
ATOM     12  C   UNL     1      18.986   1.286  22.720  1.00  0.00     0.066 C 
BRANCH  12  13
ATOM     13  C   UNL     1      19.499   2.670  22.337  1.00  0.00     0.140 C 
ATOM     14  O   UNL     1      19.259   3.612  23.081  1.00  0.00    -0.299 OA
BRANCH  13  15
ATOM     15  C   UNL     1      20.352   2.899  21.110  1.00  0.00     0.106 CG0
ATOM     16  G   UNL     1      19.514   3.131  19.863  1.00  0.00     0.000 G0
ENDBRANCH  13  15
ENDBRANCH  12  13
BRANCH  12  17
ATOM     17  C   UNL     1      18.048   1.347  23.969  1.00  0.00    -0.006 C 
ATOM     18  C   UNL     1      16.595   1.012  23.585  1.00  0.00     0.008 C 
ATOM     19  C   UNL     1      18.496   0.390  25.086  1.00  0.00     0.008 C 
ENDBRANCH  12  17
ENDBRANCH  11  12
ENDBRANCH   1  11
TORSDOF 1
ENDMDL
