MODEL 1
REMARK VINA RESULT:    -3.953      0.000      0.000
REMARK INTER + INTRA:          -5.351
REMARK INTER:                  -5.108
REMARK INTRA:                  -0.243
REMARK UNBOUND:                -0.243
REMARK SMILES CCCCCCC(=O)[O-]
REMARK SMILES IDX 5 1 6 2 7 3 8 4 9 5 4 6 3 7 2 8 1 9
REMARK H PARENT
REMARK Flexibility Score: inf
ROOT
ATOM      1  C   UNL     1       4.568 -12.751 -21.744  1.00  0.00     0.006 C 
ENDROOT
BRANCH   1   2
ATOM      2  C   UNL     1       5.332 -14.081 -21.781  1.00  0.00     0.053 C 
BRANCH   2   3
ATOM      3  C   UNL     1       4.404 -15.251 -21.896  1.00  0.00     0.041 C 
ATOM      4  O   UNL     1       4.832 -16.362 -22.305  1.00  0.00    -0.550 OA
ATOM      5  O   UNL     1       3.059 -15.105 -21.581  1.00  0.00    -0.550 OA
ENDBRANCH   2   3
ENDBRANCH   1   2
BRANCH   1   6
ATOM      6  C   UNL     1       4.752 -11.937 -23.034  1.00  0.00     0.000 C 
BRANCH   6   7
ATOM      7  C   UNL     1       5.282 -10.532 -22.726  1.00  0.00    -0.000 C 
BRANCH   7   8
ATOM      8  C   UNL     1       6.553 -10.236 -23.529  1.00  0.00    -0.003 C 
ATOM      9  C   UNL     1       6.983 -11.448 -24.350  1.00  0.00     0.004 C 
ENDBRANCH   7   8
ENDBRANCH   6   7
ENDBRANCH   1   6
TORSDOF 5
ENDMDL
MODEL 2
REMARK VINA RESULT:    -3.778      4.802      5.879
REMARK INTER + INTRA:          -5.125
REMARK INTER:                  -4.955
REMARK INTRA:                  -0.170
REMARK UNBOUND:                -0.243
REMARK SMILES CCCCCCC(=O)[O-]
REMARK SMILES IDX 5 1 6 2 7 3 8 4 9 5 4 6 3 7 2 8 1 9
REMARK H PARENT
REMARK Flexibility Score: inf
ROOT
ATOM      1  C   UNL     1       5.673  -8.090 -22.138  1.00  0.00     0.006 C 
ENDROOT
BRANCH   1   2
ATOM      2  C   UNL     1       4.674  -8.400 -21.015  1.00  0.00     0.053 C 
BRANCH   2   3
ATOM      3  C   UNL     1       3.998  -7.160 -20.516  1.00  0.00     0.041 C 
ATOM      4  O   UNL     1       4.406  -6.594 -19.468  1.00  0.00    -0.550 OA
ATOM      5  O   UNL     1       2.898  -6.648 -21.192  1.00  0.00    -0.550 OA
ENDBRANCH   2   3
ENDBRANCH   1   2
BRANCH   1   6
ATOM      6  C   UNL     1       6.285  -9.364 -22.739  1.00  0.00     0.000 C 
BRANCH   6   7
ATOM      7  C   UNL     1       5.235 -10.474 -22.861  1.00  0.00    -0.000 C 
BRANCH   7   8
ATOM      8  C   UNL     1       5.789 -11.673 -23.639  1.00  0.00    -0.003 C 
ATOM      9  C   UNL     1       7.057 -11.299 -24.400  1.00  0.00     0.004 C 
ENDBRANCH   7   8
ENDBRANCH   6   7
ENDBRANCH   1   6
TORSDOF 5
ENDMDL
MODEL 3
REMARK VINA RESULT:    -3.742      4.916      6.200
REMARK INTER + INTRA:          -5.079
REMARK INTER:                  -4.891
REMARK INTRA:                  -0.189
REMARK UNBOUND:                -0.243
REMARK SMILES CCCCCCC(=O)[O-]
REMARK SMILES IDX 5 1 6 2 7 3 8 4 9 5 4 6 3 7 2 8 1 9
REMARK H PARENT
REMARK Flexibility Score: inf
ROOT
ATOM      1  C   UNL     1       5.990  -7.874 -22.357  1.00  0.00     0.006 C 
ENDROOT
BRANCH   1   2
ATOM      2  C   UNL     1       4.650  -7.942 -21.612  1.00  0.00     0.053 C 
BRANCH   2   3
ATOM      3  C   UNL     1       4.368  -6.677 -20.862  1.00  0.00     0.041 C 
ATOM      4  O   UNL     1       4.114  -5.613 -21.486  1.00  0.00    -0.550 OA
ATOM      5  O   UNL     1       4.418  -6.666 -19.474  1.00  0.00    -0.550 OA
ENDBRANCH   2   3
ENDBRANCH   1   2
BRANCH   1   6
ATOM      6  C   UNL     1       6.493  -9.263 -22.778  1.00  0.00     0.000 C 
BRANCH   6   7
ATOM      7  C   UNL     1       5.357 -10.292 -22.745  1.00  0.00    -0.000 C 
BRANCH   7   8
ATOM      8  C   UNL     1       5.699 -11.517 -23.600  1.00  0.00    -0.003 C 
ATOM      9  C   UNL     1       6.966 -11.284 -24.417  1.00  0.00     0.004 C 
ENDBRANCH   7   8
ENDBRANCH   6   7
ENDBRANCH   1   6
TORSDOF 5
ENDMDL
MODEL 4
REMARK VINA RESULT:    -3.714      1.041      1.983
REMARK INTER + INTRA:          -5.042
REMARK INTER:                  -4.866
REMARK INTRA:                  -0.176
REMARK UNBOUND:                -0.243
REMARK SMILES CCCCCCC(=O)[O-]
REMARK SMILES IDX 5 1 6 2 7 3 8 4 9 5 4 6 3 7 2 8 1 9
REMARK H PARENT
REMARK Flexibility Score: inf
ROOT
ATOM      1  C   UNL     1       5.315 -12.558 -22.902  1.00  0.00     0.006 C 
ENDROOT
BRANCH   1   2
ATOM      2  C   UNL     1       4.325 -12.859 -21.768  1.00  0.00     0.053 C 
BRANCH   2   3
ATOM      3  C   UNL     1       3.864 -14.283 -21.798  1.00  0.00     0.041 C 
ATOM      4  O   UNL     1       2.640 -14.555 -21.681  1.00  0.00    -0.550 OA
ATOM      5  O   UNL     1       4.789 -15.311 -21.925  1.00  0.00    -0.550 OA
ENDBRANCH   2   3
ENDBRANCH   1   2
BRANCH   1   6
ATOM      6  C   UNL     1       5.286 -11.081 -23.322  1.00  0.00     0.000 C 
BRANCH   6   7
ATOM      7  C   UNL     1       6.663 -10.622 -23.816  1.00  0.00    -0.000 C 
BRANCH   7   8
ATOM      8  C   UNL     1       7.032  -9.256 -23.227  1.00  0.00    -0.003 C 
ATOM      9  C   UNL     1       5.957  -8.761 -22.265  1.00  0.00     0.004 C 
ENDBRANCH   7   8
ENDBRANCH   6   7
ENDBRANCH   1   6
TORSDOF 5
ENDMDL
MODEL 5
REMARK VINA RESULT:    -3.665      5.189      6.439
REMARK INTER + INTRA:          -4.980
REMARK INTER:                  -4.842
REMARK INTRA:                  -0.138
REMARK UNBOUND:                -0.243
REMARK SMILES CCCCCCC(=O)[O-]
REMARK SMILES IDX 5 1 6 2 7 3 8 4 9 5 4 6 3 7 2 8 1 9
REMARK H PARENT
REMARK Flexibility Score: inf
ROOT
ATOM      1  C   UNL     1       5.464  -7.866 -22.092  1.00  0.00     0.006 C 
ENDROOT
BRANCH   1   2
ATOM      2  C   UNL     1       4.429  -7.776 -20.962  1.00  0.00     0.053 C 
BRANCH   2   3
ATOM      3  C   UNL     1       4.339  -6.391 -20.401  1.00  0.00     0.041 C 
ATOM      4  O   UNL     1       4.517  -6.192 -19.170  1.00  0.00    -0.550 OA
ATOM      5  O   UNL     1       4.028  -5.323 -21.233  1.00  0.00    -0.550 OA
ENDBRANCH   2   3
ENDBRANCH   1   2
BRANCH   1   6
ATOM      6  C   UNL     1       5.938  -9.307 -22.334  1.00  0.00     0.000 C 
BRANCH   6   7
ATOM      7  C   UNL     1       6.965  -9.365 -23.469  1.00  0.00    -0.000 C 
BRANCH   7   8
ATOM      8  C   UNL     1       6.981 -10.749 -24.128  1.00  0.00    -0.003 C 
ATOM      9  C   UNL     1       5.726 -11.542 -23.775  1.00  0.00     0.004 C 
ENDBRANCH   7   8
ENDBRANCH   6   7
ENDBRANCH   1   6
TORSDOF 5
ENDMDL
MODEL 6
REMARK VINA RESULT:    -3.661      3.691      5.343
REMARK INTER + INTRA:          -4.974
REMARK INTER:                  -4.883
REMARK INTRA:                  -0.091
REMARK UNBOUND:                -0.243
REMARK SMILES CCCCCCC(=O)[O-]
REMARK SMILES IDX 5 1 6 2 7 3 8 4 9 5 4 6 3 7 2 8 1 9
REMARK H PARENT
REMARK Flexibility Score: inf
ROOT
ATOM      1  C   UNL     1       4.631 -10.708 -22.684  1.00  0.00     0.006 C 
ENDROOT
BRANCH   1   2
ATOM      2  C   UNL     1       5.818  -9.736 -22.698  1.00  0.00     0.053 C 
BRANCH   2   3
ATOM      3  C   UNL     1       5.510  -8.473 -21.953  1.00  0.00     0.041 C 
ATOM      4  O   UNL     1       5.966  -7.371 -22.358  1.00  0.00    -0.550 OA
ATOM      5  O   UNL     1       4.745  -8.518 -20.796  1.00  0.00    -0.550 OA
ENDBRANCH   2   3
ENDBRANCH   1   2
BRANCH   1   6
ATOM      6  C   UNL     1       5.066 -12.161 -22.932  1.00  0.00     0.000 C 
BRANCH   6   7
ATOM      7  C   UNL     1       4.717 -13.051 -21.735  1.00  0.00    -0.000 C 
BRANCH   7   8
ATOM      8  C   UNL     1       5.578 -14.319 -21.722  1.00  0.00    -0.003 C 
ATOM      9  C   UNL     1       4.749 -15.553 -22.063  1.00  0.00     0.004 C 
ENDBRANCH   7   8
ENDBRANCH   6   7
ENDBRANCH   1   6
TORSDOF 5
ENDMDL
MODEL 7
REMARK VINA RESULT:    -3.636      3.162      4.932
REMARK INTER + INTRA:          -4.942
REMARK INTER:                  -4.732
REMARK INTRA:                  -0.210
REMARK UNBOUND:                -0.243
REMARK SMILES CCCCCCC(=O)[O-]
REMARK SMILES IDX 5 1 6 2 7 3 8 4 9 5 4 6 3 7 2 8 1 9
REMARK H PARENT
REMARK Flexibility Score: inf
ROOT
ATOM      1  C   UNL     1       4.542 -11.902 -23.223  1.00  0.00     0.006 C 
ENDROOT
BRANCH   1   2
ATOM      2  C   UNL     1       5.245 -10.618 -22.762  1.00  0.00     0.053 C 
BRANCH   2   3
ATOM      3  C   UNL     1       6.502 -10.365 -23.536  1.00  0.00     0.041 C 
ATOM      4  O   UNL     1       7.120  -9.276 -23.404  1.00  0.00    -0.550 OA
ATOM      5  O   UNL     1       6.974 -11.321 -24.427  1.00  0.00    -0.550 OA
ENDBRANCH   2   3
ENDBRANCH   1   2
BRANCH   1   6
ATOM      6  C   UNL     1       4.254 -12.859 -22.056  1.00  0.00     0.000 C 
BRANCH   6   7
ATOM      7  C   UNL     1       5.421 -13.829 -21.840  1.00  0.00    -0.000 C 
BRANCH   7   8
ATOM      8  C   UNL     1       4.969 -15.283 -22.020  1.00  0.00    -0.003 C 
ATOM      9  C   UNL     1       3.448 -15.396 -21.987  1.00  0.00     0.004 C 
ENDBRANCH   7   8
ENDBRANCH   6   7
ENDBRANCH   1   6
TORSDOF 5
ENDMDL
MODEL 8
REMARK VINA RESULT:    -3.631      6.057      7.485
REMARK INTER + INTRA:          -4.935
REMARK INTER:                  -4.738
REMARK INTRA:                  -0.198
REMARK UNBOUND:                -0.243
REMARK SMILES CCCCCCC(=O)[O-]
REMARK SMILES IDX 5 1 6 2 7 3 8 4 9 5 4 6 3 7 2 8 1 9
REMARK H PARENT
REMARK Flexibility Score: inf
ROOT
ATOM      1  C   UNL     1       5.061  -5.991 -21.187  1.00  0.00     0.006 C 
ENDROOT
BRANCH   1   2
ATOM      2  C   UNL     1       4.167  -6.549 -20.071  1.00  0.00     0.053 C 
BRANCH   2   3
ATOM      3  C   UNL     1       4.105  -5.623 -18.895  1.00  0.00     0.041 C 
ATOM      4  O   UNL     1       3.172  -5.725 -18.056  1.00  0.00    -0.550 OA
ATOM      5  O   UNL     1       5.061  -4.627 -18.744  1.00  0.00    -0.550 OA
ENDBRANCH   2   3
ENDBRANCH   1   2
BRANCH   1   6
ATOM      6  C   UNL     1       5.527  -7.085 -22.160  1.00  0.00     0.000 C 
BRANCH   6   7
ATOM      7  C   UNL     1       5.083  -8.472 -21.682  1.00  0.00    -0.000 C 
BRANCH   7   8
ATOM      8  C   UNL     1       5.750  -9.578 -22.506  1.00  0.00    -0.003 C 
ATOM      9  C   UNL     1       7.042  -9.084 -23.150  1.00  0.00     0.004 C 
ENDBRANCH   7   8
ENDBRANCH   6   7
ENDBRANCH   1   6
TORSDOF 5
ENDMDL
MODEL 9
REMARK VINA RESULT:    -3.476     12.024     12.956
REMARK INTER + INTRA:          -4.735
REMARK INTER:                  -4.593
REMARK INTRA:                  -0.142
REMARK UNBOUND:                -0.243
REMARK SMILES CCCCCCC(=O)[O-]
REMARK SMILES IDX 5 1 6 2 7 3 8 4 9 5 4 6 3 7 2 8 1 9
REMARK H PARENT
REMARK Flexibility Score: inf
ROOT
ATOM      1  C   UNL     1       2.389 -10.084 -34.692  1.00  0.00     0.006 C 
ENDROOT
BRANCH   1   2
ATOM      2  C   UNL     1       1.376 -11.219 -34.892  1.00  0.00     0.053 C 
BRANCH   2   3
ATOM      3  C   UNL     1       0.788 -11.673 -33.591  1.00  0.00     0.041 C 
ATOM      4  O   UNL     1       1.323 -12.614 -32.948  1.00  0.00    -0.550 OA
ATOM      5  O   UNL     1      -0.369 -11.077 -33.106  1.00  0.00    -0.550 OA
ENDBRANCH   2   3
ENDBRANCH   1   2
BRANCH   1   6
ATOM      6  C   UNL     1       3.778 -10.440 -35.244  1.00  0.00     0.000 C 
BRANCH   6   7
ATOM      7  C   UNL     1       4.692  -9.210 -35.267  1.00  0.00    -0.000 C 
BRANCH   7   8
ATOM      8  C   UNL     1       5.065  -8.828 -36.704  1.00  0.00    -0.003 C 
ATOM      9  C   UNL     1       4.586  -7.419 -37.042  1.00  0.00     0.004 C 
ENDBRANCH   7   8
ENDBRANCH   6   7
ENDBRANCH   1   6
TORSDOF 5
ENDMDL
