MODEL 1
REMARK VINA RESULT:    -4.402      0.000      0.000
REMARK INTER + INTRA:         -10.029
REMARK INTER:                  -8.005
REMARK INTRA:                  -2.024
REMARK UNBOUND:                -2.024
REMARK SMILES CCCCCC=CCC=CCCCCCCCC(=O)[O-]
REMARK SMILES IDX 11 1 12 2 13 3 14 4 15 5 16 6 17 7 18 8 19 9 20 10 10 11
REMARK SMILES IDX 9 12 8 13 7 14 6 15 5 16 4 17 3 18 2 19 1 20
REMARK H PARENT
REMARK Flexibility Score: inf
ROOT
ATOM      1  C   UNL     1     -12.117  -5.957  10.789  1.00  0.00     0.027 C 
ENDROOT
BRANCH   1   2
ATOM      2  C   UNL     1     -13.034  -5.108  11.677  1.00  0.00     0.004 C 
BRANCH   2   3
ATOM      3  C   UNL     1     -12.487  -5.019  13.106  1.00  0.00     0.000 C 
BRANCH   3   4
ATOM      4  C   UNL     1     -13.039  -3.787  13.832  1.00  0.00     0.000 C 
BRANCH   4   5
ATOM      5  C   UNL     1     -12.109  -3.356  14.971  1.00  0.00     0.000 C 
BRANCH   5   6
ATOM      6  C   UNL     1     -10.905  -4.302  15.088  1.00  0.00     0.006 C 
BRANCH   6   7
ATOM      7  C   UNL     1     -10.584  -4.657  16.545  1.00  0.00     0.053 C 
BRANCH   7   8
ATOM      8  C   UNL     1      -9.461  -3.826  17.087  1.00  0.00     0.041 C 
ATOM      9  O   UNL     1      -8.939  -4.114  18.196  1.00  0.00    -0.550 OA
ATOM     10  O   UNL     1      -8.969  -2.755  16.352  1.00  0.00    -0.550 OA
ENDBRANCH   7   8
ENDBRANCH   6   7
ENDBRANCH   5   6
ENDBRANCH   4   5
ENDBRANCH   3   4
ENDBRANCH   2   3
ENDBRANCH   1   2
BRANCH   1  11
ATOM     11  C   UNL     1     -12.800  -7.238  10.386  1.00  0.00    -0.031 C 
ATOM     12  C   UNL     1     -12.625  -8.424  10.998  1.00  0.00    -0.027 C 
BRANCH  12  13
ATOM     13  C   UNL     1     -11.777  -8.640  12.227  1.00  0.00     0.054 C 
BRANCH  13  14
ATOM     14  C   UNL     1     -12.600  -8.539  13.488  1.00  0.00    -0.027 C 
ATOM     15  C   UNL     1     -12.092  -8.351  14.721  1.00  0.00    -0.031 C 
BRANCH  15  16
ATOM     16  C   UNL     1     -10.630  -8.141  15.023  1.00  0.00     0.027 C 
BRANCH  16  17
ATOM     17  C   UNL     1     -10.373  -8.206  16.535  1.00  0.00     0.004 C 
BRANCH  17  18
ATOM     18  C   UNL     1     -11.666  -8.370  17.348  1.00  0.00     0.000 C 
BRANCH  18  19
ATOM     19  C   UNL     1     -11.404  -8.470  18.858  1.00  0.00    -0.003 C 
ATOM     20  C   UNL     1     -10.398  -7.416  19.311  1.00  0.00     0.004 C 
ENDBRANCH  18  19
ENDBRANCH  17  18
ENDBRANCH  16  17
ENDBRANCH  15  16
ENDBRANCH  13  14
ENDBRANCH  12  13
ENDBRANCH   1  11
TORSDOF 14
ENDMDL
MODEL 2
REMARK VINA RESULT:    -4.360      1.728      5.403
REMARK INTER + INTRA:          -9.952
REMARK INTER:                  -8.089
REMARK INTRA:                  -1.863
REMARK UNBOUND:                -2.024
REMARK SMILES CCCCCC=CCC=CCCCCCCCC(=O)[O-]
REMARK SMILES IDX 11 1 12 2 13 3 14 4 15 5 16 6 17 7 18 8 19 9 20 10 10 11
REMARK SMILES IDX 9 12 8 13 7 14 6 15 5 16 4 17 3 18 2 19 1 20
REMARK H PARENT
REMARK Flexibility Score: inf
ROOT
ATOM      1  C   UNL     1     -10.845  -7.970  15.505  1.00  0.00     0.027 C 
ENDROOT
BRANCH   1   2
ATOM      2  C   UNL     1     -10.534  -8.574  16.878  1.00  0.00     0.004 C 
BRANCH   2   3
ATOM      3  C   UNL     1     -11.625  -8.219  17.895  1.00  0.00     0.000 C 
BRANCH   3   4
ATOM      4  C   UNL     1     -11.323  -8.837  19.265  1.00  0.00     0.000 C 
BRANCH   4   5
ATOM      5  C   UNL     1      -9.818  -8.826  19.556  1.00  0.00     0.000 C 
BRANCH   5   6
ATOM      6  C   UNL     1      -9.502  -7.972  20.793  1.00  0.00     0.006 C 
BRANCH   6   7
ATOM      7  C   UNL     1      -9.352  -6.485  20.450  1.00  0.00     0.053 C 
BRANCH   7   8
ATOM      8  C   UNL     1      -9.504  -5.615  21.661  1.00  0.00     0.041 C 
ATOM      9  O   UNL     1      -9.845  -6.119  22.762  1.00  0.00    -0.550 OA
ATOM     10  O   UNL     1      -9.237  -4.254  21.579  1.00  0.00    -0.550 OA
ENDBRANCH   7   8
ENDBRANCH   6   7
ENDBRANCH   5   6
ENDBRANCH   4   5
ENDBRANCH   3   4
ENDBRANCH   2   3
ENDBRANCH   1   2
BRANCH   1  11
ATOM     11  C   UNL     1     -12.223  -8.372  15.043  1.00  0.00    -0.031 C 
ATOM     12  C   UNL     1     -12.566  -8.592  13.761  1.00  0.00    -0.027 C 
BRANCH  12  13
ATOM     13  C   UNL     1     -11.611  -8.545  12.595  1.00  0.00     0.054 C 
BRANCH  13  14
ATOM     14  C   UNL     1     -12.345  -8.375  11.288  1.00  0.00    -0.027 C 
ATOM     15  C   UNL     1     -12.507  -7.202  10.647  1.00  0.00    -0.031 C 
BRANCH  15  16
ATOM     16  C   UNL     1     -11.920  -5.890  11.100  1.00  0.00     0.027 C 
BRANCH  16  17
ATOM     17  C   UNL     1     -12.999  -5.003  11.739  1.00  0.00     0.004 C 
BRANCH  17  18
ATOM     18  C   UNL     1     -12.831  -4.872  13.260  1.00  0.00     0.000 C 
BRANCH  18  19
ATOM     19  C   UNL     1     -11.360  -4.936  13.698  1.00  0.00    -0.003 C 
ATOM     20  C   UNL     1     -11.154  -4.226  15.033  1.00  0.00     0.004 C 
ENDBRANCH  18  19
ENDBRANCH  17  18
ENDBRANCH  16  17
ENDBRANCH  15  16
ENDBRANCH  13  14
ENDBRANCH  12  13
ENDBRANCH   1  11
TORSDOF 14
ENDMDL
MODEL 3
REMARK VINA RESULT:    -4.328     11.622     14.636
REMARK INTER + INTRA:          -9.893
REMARK INTER:                  -6.700
REMARK INTRA:                  -3.193
REMARK UNBOUND:                -2.024
REMARK SMILES CCCCCC=CCC=CCCCCCCCC(=O)[O-]
REMARK SMILES IDX 11 1 12 2 13 3 14 4 15 5 16 6 17 7 18 8 19 9 20 10 10 11
REMARK SMILES IDX 9 12 8 13 7 14 6 15 5 16 4 17 3 18 2 19 1 20
REMARK H PARENT
REMARK Flexibility Score: inf
ROOT
ATOM      1  C   UNL     1       0.479   4.025  16.917  1.00  0.00     0.027 C 
ENDROOT
BRANCH   1   2
ATOM      2  C   UNL     1       1.100   4.318  15.546  1.00  0.00     0.004 C 
BRANCH   2   3
ATOM      3  C   UNL     1       1.807   3.079  14.987  1.00  0.00     0.000 C 
BRANCH   3   4
ATOM      4  C   UNL     1       1.510   1.841  15.841  1.00  0.00     0.000 C 
BRANCH   4   5
ATOM      5  C   UNL     1       0.803   0.759  15.018  1.00  0.00     0.000 C 
BRANCH   5   6
ATOM      6  C   UNL     1       0.117  -0.268  15.931  1.00  0.00     0.006 C 
BRANCH   6   7
ATOM      7  C   UNL     1       0.937  -0.564  17.193  1.00  0.00     0.053 C 
BRANCH   7   8
ATOM      8  C   UNL     1       0.089  -0.538  18.428  1.00  0.00     0.041 C 
ATOM      9  O   UNL     1       0.194   0.412  19.247  1.00  0.00    -0.550 OA
ATOM     10  O   UNL     1      -0.840  -1.545  18.656  1.00  0.00    -0.550 OA
ENDBRANCH   7   8
ENDBRANCH   6   7
ENDBRANCH   5   6
ENDBRANCH   4   5
ENDBRANCH   3   4
ENDBRANCH   2   3
ENDBRANCH   1   2
BRANCH   1  11
ATOM     11  C   UNL     1      -0.926   4.566  16.994  1.00  0.00    -0.031 C 
ATOM     12  C   UNL     1      -2.036   3.808  17.050  1.00  0.00    -0.027 C 
BRANCH  12  13
ATOM     13  C   UNL     1      -2.045   2.301  17.120  1.00  0.00     0.054 C 
BRANCH  13  14
ATOM     14  C   UNL     1      -3.342   1.733  16.597  1.00  0.00    -0.027 C 
ATOM     15  C   UNL     1      -3.604   1.495  15.298  1.00  0.00    -0.031 C 
BRANCH  15  16
ATOM     16  C   UNL     1      -2.619   1.692  14.174  1.00  0.00     0.027 C 
BRANCH  16  17
ATOM     17  C   UNL     1      -2.901   3.005  13.430  1.00  0.00     0.004 C 
BRANCH  17  18
ATOM     18  C   UNL     1      -1.631   3.838  13.200  1.00  0.00     0.000 C 
BRANCH  18  19
ATOM     19  C   UNL     1      -1.844   5.331  13.495  1.00  0.00    -0.003 C 
ATOM     20  C   UNL     1      -3.283   5.605  13.922  1.00  0.00     0.004 C 
ENDBRANCH  18  19
ENDBRANCH  17  18
ENDBRANCH  16  17
ENDBRANCH  15  16
ENDBRANCH  13  14
ENDBRANCH  12  13
ENDBRANCH   1  11
TORSDOF 14
ENDMDL
MODEL 4
REMARK VINA RESULT:    -4.259     16.203     18.382
REMARK INTER + INTRA:          -9.769
REMARK INTER:                  -7.835
REMARK INTRA:                  -1.934
REMARK UNBOUND:                -2.024
REMARK SMILES CCCCCC=CCC=CCCCCCCCC(=O)[O-]
REMARK SMILES IDX 11 1 12 2 13 3 14 4 15 5 16 6 17 7 18 8 19 9 20 10 10 11
REMARK SMILES IDX 9 12 8 13 7 14 6 15 5 16 4 17 3 18 2 19 1 20
REMARK H PARENT
REMARK Flexibility Score: inf
ROOT
ATOM      1  C   UNL     1       6.750  -4.851  13.429  1.00  0.00     0.027 C 
ENDROOT
BRANCH   1   2
ATOM      2  C   UNL     1       6.562  -5.551  14.780  1.00  0.00     0.004 C 
BRANCH   2   3
ATOM      3  C   UNL     1       6.161  -7.017  14.587  1.00  0.00     0.000 C 
BRANCH   3   4
ATOM      4  C   UNL     1       6.387  -7.823  15.872  1.00  0.00     0.000 C 
BRANCH   4   5
ATOM      5  C   UNL     1       6.944  -6.935  16.990  1.00  0.00     0.000 C 
BRANCH   5   6
ATOM      6  C   UNL     1       6.256  -7.240  18.329  1.00  0.00     0.006 C 
BRANCH   6   7
ATOM      7  C   UNL     1       7.090  -6.774  19.530  1.00  0.00     0.053 C 
BRANCH   7   8
ATOM      8  C   UNL     1       6.492  -5.569  20.189  1.00  0.00     0.041 C 
ATOM      9  O   UNL     1       7.125  -4.964  21.094  1.00  0.00    -0.550 OA
ATOM     10  O   UNL     1       5.252  -5.094  19.781  1.00  0.00    -0.550 OA
ENDBRANCH   7   8
ENDBRANCH   6   7
ENDBRANCH   5   6
ENDBRANCH   4   5
ENDBRANCH   3   4
ENDBRANCH   2   3
ENDBRANCH   1   2
BRANCH   1  11
ATOM     11  C   UNL     1       6.255  -5.721  12.303  1.00  0.00    -0.031 C 
ATOM     12  C   UNL     1       6.290  -5.381  11.001  1.00  0.00    -0.027 C 
BRANCH  12  13
ATOM     13  C   UNL     1       6.898  -4.111  10.460  1.00  0.00     0.054 C 
BRANCH  13  14
ATOM     14  C   UNL     1       5.880  -3.000  10.385  1.00  0.00    -0.027 C 
ATOM     15  C   UNL     1       5.917  -1.876  11.126  1.00  0.00    -0.031 C 
BRANCH  15  16
ATOM     16  C   UNL     1       7.018  -1.522  12.092  1.00  0.00     0.027 C 
BRANCH  16  17
ATOM     17  C   UNL     1       6.447  -1.263  13.494  1.00  0.00     0.004 C 
BRANCH  17  18
ATOM     18  C   UNL     1       4.964  -0.863  13.464  1.00  0.00     0.000 C 
BRANCH  18  19
ATOM     19  C   UNL     1       4.119  -1.659  14.469  1.00  0.00    -0.003 C 
ATOM     20  C   UNL     1       3.645  -2.977  13.864  1.00  0.00     0.004 C 
ENDBRANCH  18  19
ENDBRANCH  17  18
ENDBRANCH  16  17
ENDBRANCH  15  16
ENDBRANCH  13  14
ENDBRANCH  12  13
ENDBRANCH   1  11
TORSDOF 14
ENDMDL
MODEL 5
REMARK VINA RESULT:    -4.229      1.659      4.104
REMARK INTER + INTRA:          -9.714
REMARK INTER:                  -7.071
REMARK INTRA:                  -2.644
REMARK UNBOUND:                -2.024
REMARK SMILES CCCCCC=CCC=CCCCCCCCC(=O)[O-]
REMARK SMILES IDX 11 1 12 2 13 3 14 4 15 5 16 6 17 7 18 8 19 9 20 10 10 11
REMARK SMILES IDX 9 12 8 13 7 14 6 15 5 16 4 17 3 18 2 19 1 20
REMARK H PARENT
REMARK Flexibility Score: inf
ROOT
ATOM      1  C   UNL     1     -10.844  -7.977  11.612  1.00  0.00     0.027 C 
ENDROOT
BRANCH   1   2
ATOM      2  C   UNL     1     -10.941  -8.743  12.935  1.00  0.00     0.004 C 
BRANCH   2   3
ATOM      3  C   UNL     1     -12.375  -8.725  13.477  1.00  0.00     0.000 C 
BRANCH   3   4
ATOM      4  C   UNL     1     -12.397  -8.368  14.968  1.00  0.00     0.000 C 
BRANCH   4   5
ATOM      5  C   UNL     1     -10.978  -8.147  15.503  1.00  0.00     0.000 C 
BRANCH   5   6
ATOM      6  C   UNL     1     -10.809  -8.779  16.893  1.00  0.00     0.006 C 
BRANCH   6   7
ATOM      7  C   UNL     1     -11.562  -8.001  17.980  1.00  0.00     0.053 C 
BRANCH   7   8
ATOM      8  C   UNL     1     -10.732  -7.822  19.214  1.00  0.00     0.041 C 
ATOM      9  O   UNL     1     -10.481  -6.667  19.645  1.00  0.00    -0.550 OA
ATOM     10  O   UNL     1     -10.265  -8.932  19.906  1.00  0.00    -0.550 OA
ENDBRANCH   7   8
ENDBRANCH   6   7
ENDBRANCH   5   6
ENDBRANCH   4   5
ENDBRANCH   3   4
ENDBRANCH   2   3
ENDBRANCH   1   2
BRANCH   1  11
ATOM     11  C   UNL     1     -12.198  -7.862  10.960  1.00  0.00    -0.031 C 
ATOM     12  C   UNL     1     -12.906  -6.721  10.861  1.00  0.00    -0.027 C 
BRANCH  12  13
ATOM     13  C   UNL     1     -12.423  -5.368  11.319  1.00  0.00     0.054 C 
BRANCH  13  14
ATOM     14  C   UNL     1     -13.046  -4.977  12.637  1.00  0.00    -0.027 C 
ATOM     15  C   UNL     1     -12.368  -4.822  13.789  1.00  0.00    -0.031 C 
BRANCH  15  16
ATOM     16  C   UNL     1     -10.872  -4.945  13.926  1.00  0.00     0.027 C 
BRANCH  16  17
ATOM     17  C   UNL     1     -10.342  -3.975  14.993  1.00  0.00     0.004 C 
BRANCH  17  18
ATOM     18  C   UNL     1     -10.466  -4.537  16.417  1.00  0.00     0.000 C 
BRANCH  18  19
ATOM     19  C   UNL     1      -9.115  -4.601  17.145  1.00  0.00    -0.003 C 
ATOM     20  C   UNL     1      -8.400  -5.918  16.857  1.00  0.00     0.004 C 
ENDBRANCH  18  19
ENDBRANCH  17  18
ENDBRANCH  16  17
ENDBRANCH  15  16
ENDBRANCH  13  14
ENDBRANCH  12  13
ENDBRANCH   1  11
TORSDOF 14
ENDMDL
MODEL 6
REMARK VINA RESULT:    -4.226     11.325     14.298
REMARK INTER + INTRA:          -9.709
REMARK INTER:                  -7.249
REMARK INTRA:                  -2.460
REMARK UNBOUND:                -2.024
REMARK SMILES CCCCCC=CCC=CCCCCCCCC(=O)[O-]
REMARK SMILES IDX 11 1 12 2 13 3 14 4 15 5 16 6 17 7 18 8 19 9 20 10 10 11
REMARK SMILES IDX 9 12 8 13 7 14 6 15 5 16 4 17 3 18 2 19 1 20
REMARK H PARENT
REMARK Flexibility Score: inf
ROOT
ATOM      1  C   UNL     1       0.752   4.012  16.861  1.00  0.00     0.027 C 
ENDROOT
BRANCH   1   2
ATOM      2  C   UNL     1       1.124   2.548  17.121  1.00  0.00     0.004 C 
BRANCH   2   3
ATOM      3  C   UNL     1      -0.120   1.653  17.099  1.00  0.00     0.000 C 
BRANCH   3   4
ATOM      4  C   UNL     1      -1.402   2.488  17.191  1.00  0.00     0.000 C 
BRANCH   4   5
ATOM      5  C   UNL     1      -2.560   1.661  17.761  1.00  0.00     0.000 C 
BRANCH   5   6
ATOM      6  C   UNL     1      -3.848   2.494  17.837  1.00  0.00     0.006 C 
BRANCH   6   7
ATOM      7  C   UNL     1      -4.941   1.801  18.659  1.00  0.00     0.053 C 
BRANCH   7   8
ATOM      8  C   UNL     1      -5.374   2.635  19.826  1.00  0.00     0.041 C 
ATOM      9  O   UNL     1      -6.411   3.344  19.746  1.00  0.00    -0.550 OA
ATOM     10  O   UNL     1      -4.653   2.603  21.012  1.00  0.00    -0.550 OA
ENDBRANCH   7   8
ENDBRANCH   6   7
ENDBRANCH   5   6
ENDBRANCH   4   5
ENDBRANCH   3   4
ENDBRANCH   2   3
ENDBRANCH   1   2
BRANCH   1  11
ATOM     11  C   UNL     1       1.468   4.537  15.643  1.00  0.00    -0.031 C 
ATOM     12  C   UNL     1       0.964   4.522  14.395  1.00  0.00    -0.027 C 
BRANCH  12  13
ATOM     13  C   UNL     1      -0.422   4.050  14.032  1.00  0.00     0.054 C 
BRANCH  13  14
ATOM     14  C   UNL     1      -1.304   5.200  13.612  1.00  0.00    -0.027 C 
ATOM     15  C   UNL     1      -2.624   5.285  13.864  1.00  0.00    -0.031 C 
BRANCH  15  16
ATOM     16  C   UNL     1      -3.410   4.278  14.665  1.00  0.00     0.027 C 
BRANCH  16  17
ATOM     17  C   UNL     1      -4.028   3.216  13.745  1.00  0.00     0.004 C 
BRANCH  17  18
ATOM     18  C   UNL     1      -3.608   1.788  14.124  1.00  0.00     0.000 C 
BRANCH  18  19
ATOM     19  C   UNL     1      -2.478   1.250  13.233  1.00  0.00    -0.003 C 
ATOM     20  C   UNL     1      -2.519   1.893  11.849  1.00  0.00     0.004 C 
ENDBRANCH  18  19
ENDBRANCH  17  18
ENDBRANCH  16  17
ENDBRANCH  15  16
ENDBRANCH  13  14
ENDBRANCH  12  13
ENDBRANCH   1  11
TORSDOF 14
ENDMDL
MODEL 7
REMARK VINA RESULT:    -4.218      2.030      4.649
REMARK INTER + INTRA:          -9.694
REMARK INTER:                  -7.378
REMARK INTRA:                  -2.316
REMARK UNBOUND:                -2.024
REMARK SMILES CCCCCC=CCC=CCCCCCCCC(=O)[O-]
REMARK SMILES IDX 11 1 12 2 13 3 14 4 15 5 16 6 17 7 18 8 19 9 20 10 10 11
REMARK SMILES IDX 9 12 8 13 7 14 6 15 5 16 4 17 3 18 2 19 1 20
REMARK H PARENT
REMARK Flexibility Score: inf
ROOT
ATOM      1  C   UNL     1     -11.609  -8.287  13.492  1.00  0.00     0.027 C 
ENDROOT
BRANCH   1   2
ATOM      2  C   UNL     1     -12.067  -8.375  14.952  1.00  0.00     0.004 C 
BRANCH   2   3
ATOM      3  C   UNL     1     -10.965  -7.896  15.904  1.00  0.00     0.000 C 
BRANCH   3   4
ATOM      4  C   UNL     1     -10.891  -8.782  17.152  1.00  0.00     0.000 C 
BRANCH   4   5
ATOM      5  C   UNL     1     -11.674  -8.163  18.316  1.00  0.00     0.000 C 
BRANCH   5   6
ATOM      6  C   UNL     1     -11.333  -8.860  19.642  1.00  0.00     0.006 C 
BRANCH   6   7
ATOM      7  C   UNL     1      -9.929  -8.501  20.143  1.00  0.00     0.053 C 
BRANCH   7   8
ATOM      8  C   UNL     1      -9.977  -7.676  21.393  1.00  0.00     0.041 C 
ATOM      9  O   UNL     1     -10.109  -8.233  22.514  1.00  0.00    -0.550 OA
ATOM     10  O   UNL     1      -9.843  -6.295  21.322  1.00  0.00    -0.550 OA
ENDBRANCH   7   8
ENDBRANCH   6   7
ENDBRANCH   5   6
ENDBRANCH   4   5
ENDBRANCH   3   4
ENDBRANCH   2   3
ENDBRANCH   1   2
BRANCH   1  11
ATOM     11  C   UNL     1     -12.768  -7.952  12.588  1.00  0.00    -0.031 C 
ATOM     12  C   UNL     1     -13.010  -6.732  12.075  1.00  0.00    -0.027 C 
BRANCH  12  13
ATOM     13  C   UNL     1     -12.119  -5.529  12.262  1.00  0.00     0.054 C 
BRANCH  13  14
ATOM     14  C   UNL     1     -12.458  -4.784  13.530  1.00  0.00    -0.027 C 
ATOM     15  C   UNL     1     -11.571  -4.464  14.491  1.00  0.00    -0.031 C 
BRANCH  15  16
ATOM     16  C   UNL     1     -10.091  -4.739  14.417  1.00  0.00     0.027 C 
BRANCH  16  17
ATOM     17  C   UNL     1      -9.370  -4.165  15.645  1.00  0.00     0.004 C 
BRANCH  17  18
ATOM     18  C   UNL     1      -8.441  -5.187  16.317  1.00  0.00     0.000 C 
BRANCH  18  19
ATOM     19  C   UNL     1      -8.921  -5.587  17.720  1.00  0.00    -0.003 C 
ATOM     20  C   UNL     1     -10.156  -4.787  18.124  1.00  0.00     0.004 C 
ENDBRANCH  18  19
ENDBRANCH  17  18
ENDBRANCH  16  17
ENDBRANCH  15  16
ENDBRANCH  13  14
ENDBRANCH  12  13
ENDBRANCH   1  11
TORSDOF 14
ENDMDL
MODEL 8
REMARK VINA RESULT:    -4.198      2.245      5.797
REMARK INTER + INTRA:          -9.657
REMARK INTER:                  -7.162
REMARK INTRA:                  -2.495
REMARK UNBOUND:                -2.024
REMARK SMILES CCCCCC=CCC=CCCCCCCCC(=O)[O-]
REMARK SMILES IDX 11 1 12 2 13 3 14 4 15 5 16 6 17 7 18 8 19 9 20 10 10 11
REMARK SMILES IDX 9 12 8 13 7 14 6 15 5 16 4 17 3 18 2 19 1 20
REMARK H PARENT
REMARK Flexibility Score: inf
ROOT
ATOM      1  C   UNL     1     -10.033  -8.534  16.205  1.00  0.00     0.027 C 
ENDROOT
BRANCH   1   2
ATOM      2  C   UNL     1     -10.363  -8.342  14.720  1.00  0.00     0.004 C 
BRANCH   2   3
ATOM      3  C   UNL     1     -11.804  -7.855  14.536  1.00  0.00     0.000 C 
BRANCH   3   4
ATOM      4  C   UNL     1     -12.529  -8.673  13.461  1.00  0.00     0.000 C 
BRANCH   4   5
ATOM      5  C   UNL     1     -12.832  -7.816  12.227  1.00  0.00     0.000 C 
BRANCH   5   6
ATOM      6  C   UNL     1     -12.887  -6.325  12.591  1.00  0.00     0.006 C 
BRANCH   6   7
ATOM      7  C   UNL     1     -12.191  -5.445  11.546  1.00  0.00     0.053 C 
BRANCH   7   8
ATOM      8  C   UNL     1     -10.771  -5.868  11.318  1.00  0.00     0.041 C 
ATOM      9  O   UNL     1      -9.922  -5.754  12.239  1.00  0.00    -0.550 OA
ATOM     10  O   UNL     1     -10.395  -6.418  10.099  1.00  0.00    -0.550 OA
ENDBRANCH   7   8
ENDBRANCH   6   7
ENDBRANCH   5   6
ENDBRANCH   4   5
ENDBRANCH   3   4
ENDBRANCH   2   3
ENDBRANCH   1   2
BRANCH   1  11
ATOM     11  C   UNL     1     -11.289  -8.512  17.038  1.00  0.00    -0.031 C 
ATOM     12  C   UNL     1     -11.315  -8.410  18.380  1.00  0.00    -0.027 C 
BRANCH  12  13
ATOM     13  C   UNL     1     -10.098  -8.225  19.252  1.00  0.00     0.054 C 
BRANCH  13  14
ATOM     14  C   UNL     1     -10.189  -6.954  20.061  1.00  0.00    -0.027 C 
ATOM     15  C   UNL     1      -9.796  -5.741  19.628  1.00  0.00    -0.031 C 
BRANCH  15  16
ATOM     16  C   UNL     1      -9.271  -5.453  18.245  1.00  0.00     0.027 C 
BRANCH  16  17
ATOM     17  C   UNL     1     -10.378  -4.870  17.355  1.00  0.00     0.004 C 
BRANCH  17  18
ATOM     18  C   UNL     1     -10.013  -4.899  15.863  1.00  0.00     0.000 C 
BRANCH  18  19
ATOM     19  C   UNL     1     -10.452  -3.626  15.124  1.00  0.00    -0.003 C 
ATOM     20  C   UNL     1     -11.970  -3.575  14.976  1.00  0.00     0.004 C 
ENDBRANCH  18  19
ENDBRANCH  17  18
ENDBRANCH  16  17
ENDBRANCH  15  16
ENDBRANCH  13  14
ENDBRANCH  12  13
ENDBRANCH   1  11
TORSDOF 14
ENDMDL
MODEL 9
REMARK VINA RESULT:    -4.068     11.506     14.005
REMARK INTER + INTRA:          -9.421
REMARK INTER:                  -6.739
REMARK INTRA:                  -2.682
REMARK UNBOUND:                -2.024
REMARK SMILES CCCCCC=CCC=CCCCCCCCC(=O)[O-]
REMARK SMILES IDX 11 1 12 2 13 3 14 4 15 5 16 6 17 7 18 8 19 9 20 10 10 11
REMARK SMILES IDX 9 12 8 13 7 14 6 15 5 16 4 17 3 18 2 19 1 20
REMARK H PARENT
REMARK Flexibility Score: inf
ROOT
ATOM      1  C   UNL     1       0.824   1.213  15.153  1.00  0.00     0.027 C 
ENDROOT
BRANCH   1   2
ATOM      2  C   UNL     1      -0.665   0.867  15.034  1.00  0.00     0.004 C 
BRANCH   2   3
ATOM      3  C   UNL     1      -1.200   0.283  16.345  1.00  0.00     0.000 C 
BRANCH   3   4
ATOM      4  C   UNL     1      -2.608   0.807  16.648  1.00  0.00     0.000 C 
BRANCH   4   5
ATOM      5  C   UNL     1      -2.691   1.378  18.068  1.00  0.00     0.000 C 
BRANCH   5   6
ATOM      6  C   UNL     1      -3.817   2.417  18.180  1.00  0.00     0.006 C 
BRANCH   6   7
ATOM      7  C   UNL     1      -4.468   2.422  19.569  1.00  0.00     0.053 C 
BRANCH   7   8
ATOM      8  C   UNL     1      -5.964   2.434  19.483  1.00  0.00     0.041 C 
ATOM      9  O   UNL     1      -6.596   3.515  19.612  1.00  0.00    -0.550 OA
ATOM     10  O   UNL     1      -6.657   1.258  19.228  1.00  0.00    -0.550 OA
ENDBRANCH   7   8
ENDBRANCH   6   7
ENDBRANCH   5   6
ENDBRANCH   4   5
ENDBRANCH   3   4
ENDBRANCH   2   3
ENDBRANCH   1   2
BRANCH   1  11
ATOM     11  C   UNL     1       1.181   1.554  16.577  1.00  0.00    -0.031 C 
ATOM     12  C   UNL     1       1.104   2.788  17.110  1.00  0.00    -0.027 C 
BRANCH  12  13
ATOM     13  C   UNL     1       0.578   4.004  16.390  1.00  0.00     0.054 C 
BRANCH  13  14
ATOM     14  C   UNL     1      -0.784   4.403  16.903  1.00  0.00    -0.027 C 
ATOM     15  C   UNL     1      -1.888   4.513  16.141  1.00  0.00    -0.031 C 
BRANCH  15  16
ATOM     16  C   UNL     1      -1.950   4.186  14.670  1.00  0.00     0.027 C 
BRANCH  16  17
ATOM     17  C   UNL     1      -3.345   3.675  14.286  1.00  0.00     0.004 C 
BRANCH  17  18
ATOM     18  C   UNL     1      -3.325   2.786  13.033  1.00  0.00     0.000 C 
BRANCH  18  19
ATOM     19  C   UNL     1      -1.957   2.785  12.334  1.00  0.00    -0.003 C 
ATOM     20  C   UNL     1      -2.030   2.067  10.989  1.00  0.00     0.004 C 
ENDBRANCH  18  19
ENDBRANCH  17  18
ENDBRANCH  16  17
ENDBRANCH  15  16
ENDBRANCH  13  14
ENDBRANCH  12  13
ENDBRANCH   1  11
TORSDOF 14
ENDMDL
