MODEL 1
REMARK VINA RESULT:    -5.328      0.000      0.000
REMARK INTER + INTRA:         -17.259
REMARK INTER:                 -12.180
REMARK INTRA:                  -5.079
REMARK UNBOUND:                -5.079
REMARK SMILES CCCCCCCCCCCCCCCCCCCCCCCC(=O)[O-]
REMARK SMILES IDX 13 1 14 2 15 3 16 4 17 5 18 6 19 7 20 8 21 9 22 10 23 11
REMARK SMILES IDX 24 12 25 13 26 14 12 15 11 16 10 17 9 18 8 19 7 20 6 21 5 22
REMARK SMILES IDX 4 23 3 24 2 25 1 26
REMARK H PARENT
REMARK Flexibility Score: inf
ROOT
ATOM      1  C   UNL     1      48.904  11.722  -5.712  1.00  0.00     0.000 C 
ENDROOT
BRANCH   1   2
ATOM      2  C   UNL     1      49.618  10.709  -4.805  1.00  0.00     0.000 C 
BRANCH   2   3
ATOM      3  C   UNL     1      50.155   9.493  -5.577  1.00  0.00     0.000 C 
BRANCH   3   4
ATOM      4  C   UNL     1      50.040   9.664  -7.101  1.00  0.00     0.000 C 
BRANCH   4   5
ATOM      5  C   UNL     1      49.240   8.529  -7.763  1.00  0.00     0.000 C 
BRANCH   5   6
ATOM      6  C   UNL     1      47.998   9.043  -8.513  1.00  0.00     0.000 C 
BRANCH   6   7
ATOM      7  C   UNL     1      46.714   8.311  -8.092  1.00  0.00     0.000 C 
BRANCH   7   8
ATOM      8  C   UNL     1      46.829   7.664  -6.699  1.00  0.00     0.000 C 
BRANCH   8   9
ATOM      9  C   UNL     1      46.518   8.664  -5.564  1.00  0.00     0.000 C 
BRANCH   9  10
ATOM     10  C   UNL     1      46.938   8.160  -4.170  1.00  0.00     0.006 C 
BRANCH  10  11
ATOM     11  C   UNL     1      46.206   8.846  -3.007  1.00  0.00     0.053 C 
BRANCH  11  12
ATOM     12  C   UNL     1      45.722   7.858  -1.990  1.00  0.00     0.041 C 
ATOM     13  O   UNL     1      46.539   7.110  -1.391  1.00  0.00    -0.550 OA
ATOM     14  O   UNL     1      44.367   7.770  -1.694  1.00  0.00    -0.550 OA
ENDBRANCH  11  12
ENDBRANCH  10  11
ENDBRANCH   9  10
ENDBRANCH   8   9
ENDBRANCH   7   8
ENDBRANCH   6   7
ENDBRANCH   5   6
ENDBRANCH   4   5
ENDBRANCH   3   4
ENDBRANCH   2   3
ENDBRANCH   1   2
BRANCH   1  15
ATOM     15  C   UNL     1      47.570  12.165  -5.094  1.00  0.00     0.000 C 
BRANCH  15  16
ATOM     16  C   UNL     1      46.467  12.386  -6.145  1.00  0.00     0.000 C 
BRANCH  16  17
ATOM     17  C   UNL     1      46.952  12.392  -7.610  1.00  0.00     0.000 C 
BRANCH  17  18
ATOM     18  C   UNL     1      45.865  12.708  -8.653  1.00  0.00    -0.000 C 
BRANCH  18  19
ATOM     19  C   UNL     1      45.651  11.561  -9.656  1.00  0.00    -0.000 C 
BRANCH  19  20
ATOM     20  C   UNL     1      44.258  10.916  -9.538  1.00  0.00    -0.000 C 
BRANCH  20  21
ATOM     21  C   UNL     1      43.530  11.186  -8.205  1.00  0.00    -0.000 C 
BRANCH  21  22
ATOM     22  C   UNL     1      43.615  10.044  -7.172  1.00  0.00    -0.000 C 
BRANCH  22  23
ATOM     23  C   UNL     1      43.378  10.470  -5.709  1.00  0.00    -0.000 C 
BRANCH  23  24
ATOM     24  C   UNL     1      42.950   9.333  -4.764  1.00  0.00    -0.000 C 
BRANCH  24  25
ATOM     25  C   UNL     1      42.575   8.046  -5.512  1.00  0.00    -0.003 C 
ATOM     26  C   UNL     1      43.326   6.843  -4.948  1.00  0.00     0.004 C 
ENDBRANCH  24  25
ENDBRANCH  23  24
ENDBRANCH  22  23
ENDBRANCH  21  22
ENDBRANCH  20  21
ENDBRANCH  19  20
ENDBRANCH  18  19
ENDBRANCH  17  18
ENDBRANCH  16  17
ENDBRANCH  15  16
ENDBRANCH   1  15
TORSDOF 22
ENDMDL
MODEL 2
REMARK VINA RESULT:    -5.266     12.237     16.602
REMARK INTER + INTRA:         -17.119
REMARK INTER:                 -12.169
REMARK INTRA:                  -4.949
REMARK UNBOUND:                -5.079
REMARK SMILES CCCCCCCCCCCCCCCCCCCCCCCC(=O)[O-]
REMARK SMILES IDX 13 1 14 2 15 3 16 4 17 5 18 6 19 7 20 8 21 9 22 10 23 11
REMARK SMILES IDX 24 12 25 13 26 14 12 15 11 16 10 17 9 18 8 19 7 20 6 21 5 22
REMARK SMILES IDX 4 23 3 24 2 25 1 26
REMARK H PARENT
REMARK Flexibility Score: inf
ROOT
ATOM      1  C   UNL     1      35.447  -0.124   2.817  1.00  0.00     0.000 C 
ENDROOT
BRANCH   1   2
ATOM      2  C   UNL     1      35.689  -1.146   3.938  1.00  0.00     0.000 C 
BRANCH   2   3
ATOM      3  C   UNL     1      36.965  -0.856   4.744  1.00  0.00     0.000 C 
BRANCH   3   4
ATOM      4  C   UNL     1      36.663  -0.320   6.154  1.00  0.00     0.000 C 
BRANCH   4   5
ATOM      5  C   UNL     1      37.580   0.850   6.548  1.00  0.00     0.000 C 
BRANCH   5   6
ATOM      6  C   UNL     1      37.655   1.933   5.456  1.00  0.00     0.000 C 
BRANCH   6   7
ATOM      7  C   UNL     1      39.065   2.528   5.318  1.00  0.00     0.000 C 
BRANCH   7   8
ATOM      8  C   UNL     1      39.530   2.619   3.853  1.00  0.00     0.000 C 
BRANCH   8   9
ATOM      9  C   UNL     1      38.594   1.850   2.895  1.00  0.00     0.000 C 
BRANCH   9  10
ATOM     10  C   UNL     1      38.644   2.365   1.443  1.00  0.00     0.006 C 
BRANCH  10  11
ATOM     11  C   UNL     1      39.918   3.150   1.099  1.00  0.00     0.053 C 
BRANCH  11  12
ATOM     12  C   UNL     1      40.980   2.267   0.518  1.00  0.00     0.041 C 
ATOM     13  O   UNL     1      40.725   1.535  -0.475  1.00  0.00    -0.550 OA
ATOM     14  O   UNL     1      42.257   2.259   1.066  1.00  0.00    -0.550 OA
ENDBRANCH  11  12
ENDBRANCH  10  11
ENDBRANCH   9  10
ENDBRANCH   8   9
ENDBRANCH   7   8
ENDBRANCH   6   7
ENDBRANCH   5   6
ENDBRANCH   4   5
ENDBRANCH   3   4
ENDBRANCH   2   3
ENDBRANCH   1   2
BRANCH   1  15
ATOM     15  C   UNL     1      34.274   0.804   3.166  1.00  0.00     0.000 C 
BRANCH  15  16
ATOM     16  C   UNL     1      34.714   2.257   3.420  1.00  0.00     0.000 C 
BRANCH  16  17
ATOM     17  C   UNL     1      33.968   2.975   4.564  1.00  0.00     0.000 C 
BRANCH  17  18
ATOM     18  C   UNL     1      33.923   2.203   5.895  1.00  0.00    -0.000 C 
BRANCH  18  19
ATOM     19  C   UNL     1      33.856   3.131   7.120  1.00  0.00    -0.000 C 
BRANCH  19  20
ATOM     20  C   UNL     1      35.090   3.008   8.031  1.00  0.00    -0.000 C 
BRANCH  20  21
ATOM     21  C   UNL     1      36.022   4.237   8.030  1.00  0.00    -0.000 C 
BRANCH  21  22
ATOM     22  C   UNL     1      35.739   5.271   6.922  1.00  0.00    -0.000 C 
BRANCH  22  23
ATOM     23  C   UNL     1      36.792   5.329   5.798  1.00  0.00    -0.000 C 
BRANCH  23  24
ATOM     24  C   UNL     1      36.265   5.827   4.441  1.00  0.00    -0.000 C 
BRANCH  24  25
ATOM     25  C   UNL     1      37.106   5.331   3.256  1.00  0.00    -0.003 C 
ATOM     26  C   UNL     1      36.273   5.269   1.979  1.00  0.00     0.004 C 
ENDBRANCH  24  25
ENDBRANCH  23  24
ENDBRANCH  22  23
ENDBRANCH  21  22
ENDBRANCH  20  21
ENDBRANCH  19  20
ENDBRANCH  18  19
ENDBRANCH  17  18
ENDBRANCH  16  17
ENDBRANCH  15  16
ENDBRANCH   1  15
TORSDOF 22
ENDMDL
MODEL 3
REMARK VINA RESULT:    -5.238     13.142     16.882
REMARK INTER + INTRA:         -17.055
REMARK INTER:                 -12.505
REMARK INTRA:                  -4.550
REMARK UNBOUND:                -5.079
REMARK SMILES CCCCCCCCCCCCCCCCCCCCCCCC(=O)[O-]
REMARK SMILES IDX 13 1 14 2 15 3 16 4 17 5 18 6 19 7 20 8 21 9 22 10 23 11
REMARK SMILES IDX 24 12 25 13 26 14 12 15 11 16 10 17 9 18 8 19 7 20 6 21 5 22
REMARK SMILES IDX 4 23 3 24 2 25 1 26
REMARK H PARENT
REMARK Flexibility Score: inf
ROOT
ATOM      1  C   UNL     1      34.303   2.978   3.544  1.00  0.00     0.000 C 
ENDROOT
BRANCH   1   2
ATOM      2  C   UNL     1      33.500   3.270   4.820  1.00  0.00     0.000 C 
BRANCH   2   3
ATOM      3  C   UNL     1      34.073   4.445   5.628  1.00  0.00     0.000 C 
BRANCH   3   4
ATOM      4  C   UNL     1      34.080   4.173   7.142  1.00  0.00     0.000 C 
BRANCH   4   5
ATOM      5  C   UNL     1      35.039   5.103   7.904  1.00  0.00     0.000 C 
BRANCH   5   6
ATOM      6  C   UNL     1      36.445   5.140   7.279  1.00  0.00     0.000 C 
BRANCH   6   7
ATOM      7  C   UNL     1      37.279   3.901   7.638  1.00  0.00     0.000 C 
BRANCH   7   8
ATOM      8  C   UNL     1      37.522   2.979   6.429  1.00  0.00     0.000 C 
BRANCH   8   9
ATOM      9  C   UNL     1      37.982   1.567   6.856  1.00  0.00     0.000 C 
BRANCH   9  10
ATOM     10  C   UNL     1      36.918   0.478   6.621  1.00  0.00     0.006 C 
BRANCH  10  11
ATOM     11  C   UNL     1      35.478   0.937   6.896  1.00  0.00     0.053 C 
BRANCH  11  12
ATOM     12  C   UNL     1      34.475  -0.108   6.516  1.00  0.00     0.041 C 
ATOM     13  O   UNL     1      34.782  -1.018   5.701  1.00  0.00    -0.550 OA
ATOM     14  O   UNL     1      33.201  -0.085   7.070  1.00  0.00    -0.550 OA
ENDBRANCH  11  12
ENDBRANCH  10  11
ENDBRANCH   9  10
ENDBRANCH   8   9
ENDBRANCH   7   8
ENDBRANCH   6   7
ENDBRANCH   5   6
ENDBRANCH   4   5
ENDBRANCH   3   4
ENDBRANCH   2   3
ENDBRANCH   1   2
BRANCH   1  15
ATOM     15  C   UNL     1      34.342   1.470   3.255  1.00  0.00     0.000 C 
BRANCH  15  16
ATOM     16  C   UNL     1      35.771   0.936   3.052  1.00  0.00     0.000 C 
BRANCH  16  17
ATOM     17  C   UNL     1      36.872   2.016   2.996  1.00  0.00     0.000 C 
BRANCH  17  18
ATOM     18  C   UNL     1      38.311   1.485   3.109  1.00  0.00    -0.000 C 
BRANCH  18  19
ATOM     19  C   UNL     1      39.224   1.990   1.978  1.00  0.00    -0.000 C 
BRANCH  19  20
ATOM     20  C   UNL     1      40.319   2.949   2.476  1.00  0.00    -0.000 C 
BRANCH  20  21
ATOM     21  C   UNL     1      39.896   3.867   3.641  1.00  0.00    -0.000 C 
BRANCH  21  22
ATOM     22  C   UNL     1      39.396   5.265   3.223  1.00  0.00    -0.000 C 
BRANCH  22  23
ATOM     23  C   UNL     1      38.167   5.778   3.998  1.00  0.00    -0.000 C 
BRANCH  23  24
ATOM     24  C   UNL     1      36.817   5.552   3.296  1.00  0.00    -0.000 C 
BRANCH  24  25
ATOM     25  C   UNL     1      36.826   5.998   1.827  1.00  0.00    -0.003 C 
ATOM     26  C   UNL     1      35.772   5.248   1.018  1.00  0.00     0.004 C 
ENDBRANCH  24  25
ENDBRANCH  23  24
ENDBRANCH  22  23
ENDBRANCH  21  22
ENDBRANCH  20  21
ENDBRANCH  19  20
ENDBRANCH  18  19
ENDBRANCH  17  18
ENDBRANCH  16  17
ENDBRANCH  15  16
ENDBRANCH   1  15
TORSDOF 22
ENDMDL
MODEL 4
REMARK VINA RESULT:    -5.223     13.000     17.136
REMARK INTER + INTRA:         -17.020
REMARK INTER:                 -12.529
REMARK INTRA:                  -4.491
REMARK UNBOUND:                -5.079
REMARK SMILES CCCCCCCCCCCCCCCCCCCCCCCC(=O)[O-]
REMARK SMILES IDX 13 1 14 2 15 3 16 4 17 5 18 6 19 7 20 8 21 9 22 10 23 11
REMARK SMILES IDX 24 12 25 13 26 14 12 15 11 16 10 17 9 18 8 19 7 20 6 21 5 22
REMARK SMILES IDX 4 23 3 24 2 25 1 26
REMARK H PARENT
REMARK Flexibility Score: inf
ROOT
ATOM      1  C   UNL     1      34.375   0.557   2.777  1.00  0.00     0.000 C 
ENDROOT
BRANCH   1   2
ATOM      2  C   UNL     1      34.288  -0.338   4.023  1.00  0.00     0.000 C 
BRANCH   2   3
ATOM      3  C   UNL     1      35.443  -1.347   4.113  1.00  0.00     0.000 C 
BRANCH   3   4
ATOM      4  C   UNL     1      36.385  -1.063   5.296  1.00  0.00     0.000 C 
BRANCH   4   5
ATOM      5  C   UNL     1      37.297   0.150   5.045  1.00  0.00     0.000 C 
BRANCH   5   6
ATOM      6  C   UNL     1      38.013   0.077   3.685  1.00  0.00     0.000 C 
BRANCH   6   7
ATOM      7  C   UNL     1      38.142   1.454   3.015  1.00  0.00     0.000 C 
BRANCH   7   8
ATOM      8  C   UNL     1      38.132   2.611   4.031  1.00  0.00     0.000 C 
BRANCH   8   9
ATOM      9  C   UNL     1      39.509   2.811   4.701  1.00  0.00     0.000 C 
BRANCH   9  10
ATOM     10  C   UNL     1      40.487   3.651   3.857  1.00  0.00     0.006 C 
BRANCH  10  11
ATOM     11  C   UNL     1      41.536   2.822   3.102  1.00  0.00     0.053 C 
BRANCH  11  12
ATOM     12  C   UNL     1      41.276   2.799   1.626  1.00  0.00     0.041 C 
ATOM     13  O   UNL     1      41.953   2.052   0.872  1.00  0.00    -0.550 OA
ATOM     14  O   UNL     1      40.276   3.597   1.083  1.00  0.00    -0.550 OA
ENDBRANCH  11  12
ENDBRANCH  10  11
ENDBRANCH   9  10
ENDBRANCH   8   9
ENDBRANCH   7   8
ENDBRANCH   6   7
ENDBRANCH   5   6
ENDBRANCH   4   5
ENDBRANCH   3   4
ENDBRANCH   2   3
ENDBRANCH   1   2
BRANCH   1  15
ATOM     15  C   UNL     1      34.419   2.040   3.171  1.00  0.00     0.000 C 
BRANCH  15  16
ATOM     16  C   UNL     1      34.175   2.270   4.673  1.00  0.00     0.000 C 
BRANCH  16  17
ATOM     17  C   UNL     1      33.272   3.474   5.012  1.00  0.00     0.000 C 
BRANCH  17  18
ATOM     18  C   UNL     1      33.970   4.617   5.771  1.00  0.00    -0.000 C 
BRANCH  18  19
ATOM     19  C   UNL     1      35.474   4.707   5.459  1.00  0.00    -0.000 C 
BRANCH  19  20
ATOM     20  C   UNL     1      36.293   5.278   6.630  1.00  0.00    -0.000 C 
BRANCH  20  21
ATOM     21  C   UNL     1      36.525   4.297   7.797  1.00  0.00    -0.000 C 
BRANCH  21  22
ATOM     22  C   UNL     1      36.872   2.854   7.380  1.00  0.00    -0.000 C 
BRANCH  22  23
ATOM     23  C   UNL     1      35.809   1.797   7.738  1.00  0.00    -0.000 C 
BRANCH  23  24
ATOM     24  C   UNL     1      34.608   2.331   8.538  1.00  0.00    -0.000 C 
BRANCH  24  25
ATOM     25  C   UNL     1      33.360   1.447   8.400  1.00  0.00    -0.003 C 
ATOM     26  C   UNL     1      33.685   0.145   7.674  1.00  0.00     0.004 C 
ENDBRANCH  24  25
ENDBRANCH  23  24
ENDBRANCH  22  23
ENDBRANCH  21  22
ENDBRANCH  20  21
ENDBRANCH  19  20
ENDBRANCH  18  19
ENDBRANCH  17  18
ENDBRANCH  16  17
ENDBRANCH  15  16
ENDBRANCH   1  15
TORSDOF 22
ENDMDL
MODEL 5
REMARK VINA RESULT:    -5.219     12.819     17.116
REMARK INTER + INTRA:         -17.010
REMARK INTER:                 -12.775
REMARK INTRA:                  -4.235
REMARK UNBOUND:                -5.079
REMARK SMILES CCCCCCCCCCCCCCCCCCCCCCCC(=O)[O-]
REMARK SMILES IDX 13 1 14 2 15 3 16 4 17 5 18 6 19 7 20 8 21 9 22 10 23 11
REMARK SMILES IDX 24 12 25 13 26 14 12 15 11 16 10 17 9 18 8 19 7 20 6 21 5 22
REMARK SMILES IDX 4 23 3 24 2 25 1 26
REMARK H PARENT
REMARK Flexibility Score: inf
ROOT
ATOM      1  C   UNL     1      35.997  -0.865   4.726  1.00  0.00     0.000 C 
ENDROOT
BRANCH   1   2
ATOM      2  C   UNL     1      34.769  -0.654   3.828  1.00  0.00     0.000 C 
BRANCH   2   3
ATOM      3  C   UNL     1      34.947   0.510   2.840  1.00  0.00     0.000 C 
BRANCH   3   4
ATOM      4  C   UNL     1      35.970   1.549   3.329  1.00  0.00     0.000 C 
BRANCH   4   5
ATOM      5  C   UNL     1      35.466   2.993   3.167  1.00  0.00     0.000 C 
BRANCH   5   6
ATOM      6  C   UNL     1      36.594   3.972   2.791  1.00  0.00     0.000 C 
BRANCH   6   7
ATOM      7  C   UNL     1      36.393   5.363   3.411  1.00  0.00     0.000 C 
BRANCH   7   8
ATOM      8  C   UNL     1      37.706   5.975   3.932  1.00  0.00     0.000 C 
BRANCH   8   9
ATOM      9  C   UNL     1      38.874   5.782   2.940  1.00  0.00     0.000 C 
BRANCH   9  10
ATOM     10  C   UNL     1      40.124   5.148   3.578  1.00  0.00     0.006 C 
BRANCH  10  11
ATOM     11  C   UNL     1      40.097   3.613   3.620  1.00  0.00     0.053 C 
BRANCH  11  12
ATOM     12  C   UNL     1      41.477   3.029   3.621  1.00  0.00     0.041 C 
ATOM     13  O   UNL     1      42.153   2.995   4.683  1.00  0.00    -0.550 OA
ATOM     14  O   UNL     1      42.015   2.510   2.449  1.00  0.00    -0.550 OA
ENDBRANCH  11  12
ENDBRANCH  10  11
ENDBRANCH   9  10
ENDBRANCH   8   9
ENDBRANCH   7   8
ENDBRANCH   6   7
ENDBRANCH   5   6
ENDBRANCH   4   5
ENDBRANCH   3   4
ENDBRANCH   2   3
ENDBRANCH   1   2
BRANCH   1  15
ATOM     15  C   UNL     1      35.616  -0.759   6.209  1.00  0.00     0.000 C 
BRANCH  15  16
ATOM     16  C   UNL     1      34.148  -0.348   6.423  1.00  0.00     0.000 C 
BRANCH  16  17
ATOM     17  C   UNL     1      33.841   0.291   7.793  1.00  0.00     0.000 C 
BRANCH  17  18
ATOM     18  C   UNL     1      33.936   1.827   7.830  1.00  0.00    -0.000 C 
BRANCH  18  19
ATOM     19  C   UNL     1      34.012   2.453   6.427  1.00  0.00    -0.000 C 
BRANCH  19  20
ATOM     20  C   UNL     1      33.372   3.851   6.361  1.00  0.00    -0.000 C 
BRANCH  20  21
ATOM     21  C   UNL     1      34.374   5.019   6.259  1.00  0.00    -0.000 C 
BRANCH  21  22
ATOM     22  C   UNL     1      35.143   5.335   7.557  1.00  0.00    -0.000 C 
BRANCH  22  23
ATOM     23  C   UNL     1      36.678   5.227   7.450  1.00  0.00    -0.000 C 
BRANCH  23  24
ATOM     24  C   UNL     1      37.244   3.812   7.658  1.00  0.00    -0.000 C 
BRANCH  24  25
ATOM     25  C   UNL     1      37.615   3.118   6.339  1.00  0.00    -0.003 C 
ATOM     26  C   UNL     1      38.311   1.785   6.596  1.00  0.00     0.004 C 
ENDBRANCH  24  25
ENDBRANCH  23  24
ENDBRANCH  22  23
ENDBRANCH  21  22
ENDBRANCH  20  21
ENDBRANCH  19  20
ENDBRANCH  18  19
ENDBRANCH  17  18
ENDBRANCH  16  17
ENDBRANCH  15  16
ENDBRANCH   1  15
TORSDOF 22
ENDMDL
MODEL 6
REMARK VINA RESULT:    -5.164     12.184     16.478
REMARK INTER + INTRA:         -16.885
REMARK INTER:                 -12.390
REMARK INTRA:                  -4.495
REMARK UNBOUND:                -5.079
REMARK SMILES CCCCCCCCCCCCCCCCCCCCCCCC(=O)[O-]
REMARK SMILES IDX 13 1 14 2 15 3 16 4 17 5 18 6 19 7 20 8 21 9 22 10 23 11
REMARK SMILES IDX 24 12 25 13 26 14 12 15 11 16 10 17 9 18 8 19 7 20 6 21 5 22
REMARK SMILES IDX 4 23 3 24 2 25 1 26
REMARK H PARENT
REMARK Flexibility Score: inf
ROOT
ATOM      1  C   UNL     1      33.484   3.631   4.753  1.00  0.00     0.000 C 
ENDROOT
BRANCH   1   2
ATOM      2  C   UNL     1      34.247   2.321   4.500  1.00  0.00     0.000 C 
BRANCH   2   3
ATOM      3  C   UNL     1      35.146   2.387   3.255  1.00  0.00     0.000 C 
BRANCH   3   4
ATOM      4  C   UNL     1      35.273   3.813   2.693  1.00  0.00     0.000 C 
BRANCH   4   5
ATOM      5  C   UNL     1      36.737   4.240   2.494  1.00  0.00     0.000 C 
BRANCH   5   6
ATOM      6  C   UNL     1      36.919   5.768   2.557  1.00  0.00     0.000 C 
BRANCH   6   7
ATOM      7  C   UNL     1      38.197   6.175   3.306  1.00  0.00     0.000 C 
BRANCH   7   8
ATOM      8  C   UNL     1      39.475   5.638   2.635  1.00  0.00     0.000 C 
BRANCH   8   9
ATOM      9  C   UNL     1      40.333   4.796   3.605  1.00  0.00     0.000 C 
BRANCH   9  10
ATOM     10  C   UNL     1      40.616   3.370   3.094  1.00  0.00     0.006 C 
BRANCH  10  11
ATOM     11  C   UNL     1      40.527   3.221   1.568  1.00  0.00     0.053 C 
BRANCH  11  12
ATOM     12  C   UNL     1      39.900   1.920   1.169  1.00  0.00     0.041 C 
ATOM     13  O   UNL     1      38.838   1.529   1.723  1.00  0.00    -0.550 OA
ATOM     14  O   UNL     1      40.482   1.142   0.175  1.00  0.00    -0.550 OA
ENDBRANCH  11  12
ENDBRANCH  10  11
ENDBRANCH   9  10
ENDBRANCH   8   9
ENDBRANCH   7   8
ENDBRANCH   6   7
ENDBRANCH   5   6
ENDBRANCH   4   5
ENDBRANCH   3   4
ENDBRANCH   2   3
ENDBRANCH   1   2
BRANCH   1  15
ATOM     15  C   UNL     1      33.657   4.092   6.207  1.00  0.00     0.000 C 
BRANCH  15  16
ATOM     16  C   UNL     1      33.824   2.921   7.192  1.00  0.00     0.000 C 
BRANCH  16  17
ATOM     17  C   UNL     1      34.901   3.128   8.277  1.00  0.00     0.000 C 
BRANCH  17  18
ATOM     18  C   UNL     1      35.665   4.461   8.189  1.00  0.00    -0.000 C 
BRANCH  18  19
ATOM     19  C   UNL     1      37.120   4.284   7.719  1.00  0.00    -0.000 C 
BRANCH  19  20
ATOM     20  C   UNL     1      37.234   4.044   6.204  1.00  0.00    -0.000 C 
BRANCH  20  21
ATOM     21  C   UNL     1      37.916   2.719   5.806  1.00  0.00    -0.000 C 
BRANCH  21  22
ATOM     22  C   UNL     1      38.336   1.821   6.987  1.00  0.00    -0.000 C 
BRANCH  22  23
ATOM     23  C   UNL     1      37.871   0.354   6.889  1.00  0.00    -0.000 C 
BRANCH  23  24
ATOM     24  C   UNL     1      36.386   0.168   6.531  1.00  0.00    -0.000 C 
BRANCH  24  25
ATOM     25  C   UNL     1      36.172  -0.812   5.369  1.00  0.00    -0.003 C 
ATOM     26  C   UNL     1      37.304  -0.713   4.350  1.00  0.00     0.004 C 
ENDBRANCH  24  25
ENDBRANCH  23  24
ENDBRANCH  22  23
ENDBRANCH  21  22
ENDBRANCH  20  21
ENDBRANCH  19  20
ENDBRANCH  18  19
ENDBRANCH  17  18
ENDBRANCH  16  17
ENDBRANCH  15  16
ENDBRANCH   1  15
TORSDOF 22
ENDMDL
MODEL 7
REMARK VINA RESULT:    -5.135      1.610      4.859
REMARK INTER + INTRA:         -16.819
REMARK INTER:                 -12.241
REMARK INTRA:                  -4.577
REMARK UNBOUND:                -5.079
REMARK SMILES CCCCCCCCCCCCCCCCCCCCCCCC(=O)[O-]
REMARK SMILES IDX 13 1 14 2 15 3 16 4 17 5 18 6 19 7 20 8 21 9 22 10 23 11
REMARK SMILES IDX 24 12 25 13 26 14 12 15 11 16 10 17 9 18 8 19 7 20 6 21 5 22
REMARK SMILES IDX 4 23 3 24 2 25 1 26
REMARK H PARENT
REMARK Flexibility Score: inf
ROOT
ATOM      1  C   UNL     1      45.873  12.929  -7.788  1.00  0.00     0.000 C 
ENDROOT
BRANCH   1   2
ATOM      2  C   UNL     1      46.979  12.297  -6.929  1.00  0.00     0.000 C 
BRANCH   2   3
ATOM      3  C   UNL     1      46.492  11.908  -5.524  1.00  0.00     0.000 C 
BRANCH   3   4
ATOM      4  C   UNL     1      46.012  10.448  -5.448  1.00  0.00     0.000 C 
BRANCH   4   5
ATOM      5  C   UNL     1      45.640  10.023  -4.018  1.00  0.00     0.000 C 
BRANCH   5   6
ATOM      6  C   UNL     1      46.161   8.618  -3.666  1.00  0.00     0.000 C 
BRANCH   6   7
ATOM      7  C   UNL     1      46.665   7.854  -4.901  1.00  0.00     0.000 C 
BRANCH   7   8
ATOM      8  C   UNL     1      45.886   6.551  -5.152  1.00  0.00     0.000 C 
BRANCH   8   9
ATOM      9  C   UNL     1      44.595   6.470  -4.308  1.00  0.00     0.000 C 
BRANCH   9  10
ATOM     10  C   UNL     1      43.306   6.570  -5.145  1.00  0.00     0.006 C 
BRANCH  10  11
ATOM     11  C   UNL     1      42.702   7.982  -5.202  1.00  0.00     0.053 C 
BRANCH  11  12
ATOM     12  C   UNL     1      42.002   8.343  -3.928  1.00  0.00     0.041 C 
ATOM     13  O   UNL     1      41.133   7.573  -3.439  1.00  0.00    -0.550 OA
ATOM     14  O   UNL     1      42.317   9.527  -3.272  1.00  0.00    -0.550 OA
ENDBRANCH  11  12
ENDBRANCH  10  11
ENDBRANCH   9  10
ENDBRANCH   8   9
ENDBRANCH   7   8
ENDBRANCH   6   7
ENDBRANCH   5   6
ENDBRANCH   4   5
ENDBRANCH   3   4
ENDBRANCH   2   3
ENDBRANCH   1   2
BRANCH   1  15
ATOM     15  C   UNL     1      46.118  12.659  -9.279  1.00  0.00     0.000 C 
BRANCH  15  16
ATOM     16  C   UNL     1      45.056  11.736  -9.903  1.00  0.00     0.000 C 
BRANCH  16  17
ATOM     17  C   UNL     1      44.033  11.150  -8.907  1.00  0.00     0.000 C 
BRANCH  17  18
ATOM     18  C   UNL     1      44.230   9.660  -8.575  1.00  0.00    -0.000 C 
BRANCH  18  19
ATOM     19  C   UNL     1      45.385   9.021  -9.366  1.00  0.00    -0.000 C 
BRANCH  19  20
ATOM     20  C   UNL     1      46.468   8.414  -8.457  1.00  0.00    -0.000 C 
BRANCH  20  21
ATOM     21  C   UNL     1      47.862   9.061  -8.587  1.00  0.00    -0.000 C 
BRANCH  21  22
ATOM     22  C   UNL     1      48.983   8.364  -7.790  1.00  0.00    -0.000 C 
BRANCH  22  23
ATOM     23  C   UNL     1      49.595   9.204  -6.651  1.00  0.00    -0.000 C 
BRANCH  23  24
ATOM     24  C   UNL     1      50.247  10.524  -7.097  1.00  0.00    -0.000 C 
BRANCH  24  25
ATOM     25  C   UNL     1      50.372  11.543  -5.956  1.00  0.00    -0.003 C 
ATOM     26  C   UNL     1      49.904  10.946  -4.632  1.00  0.00     0.004 C 
ENDBRANCH  24  25
ENDBRANCH  23  24
ENDBRANCH  22  23
ENDBRANCH  21  22
ENDBRANCH  20  21
ENDBRANCH  19  20
ENDBRANCH  18  19
ENDBRANCH  17  18
ENDBRANCH  16  17
ENDBRANCH  15  16
ENDBRANCH   1  15
TORSDOF 22
ENDMDL
MODEL 8
REMARK VINA RESULT:    -5.120     12.310     16.570
REMARK INTER + INTRA:         -16.784
REMARK INTER:                 -12.390
REMARK INTRA:                  -4.394
REMARK UNBOUND:                -5.079
REMARK SMILES CCCCCCCCCCCCCCCCCCCCCCCC(=O)[O-]
REMARK SMILES IDX 13 1 14 2 15 3 16 4 17 5 18 6 19 7 20 8 21 9 22 10 23 11
REMARK SMILES IDX 24 12 25 13 26 14 12 15 11 16 10 17 9 18 8 19 7 20 6 21 5 22
REMARK SMILES IDX 4 23 3 24 2 25 1 26
REMARK H PARENT
REMARK Flexibility Score: inf
ROOT
ATOM      1  C   UNL     1      33.946   2.773   5.531  1.00  0.00     0.000 C 
ENDROOT
BRANCH   1   2
ATOM      2  C   UNL     1      33.550   3.377   4.175  1.00  0.00     0.000 C 
BRANCH   2   3
ATOM      3  C   UNL     1      34.758   3.615   3.254  1.00  0.00     0.000 C 
BRANCH   3   4
ATOM      4  C   UNL     1      36.043   2.955   3.782  1.00  0.00     0.000 C 
BRANCH   4   5
ATOM      5  C   UNL     1      36.993   2.526   2.651  1.00  0.00     0.000 C 
BRANCH   5   6
ATOM      6  C   UNL     1      38.172   1.679   3.163  1.00  0.00     0.000 C 
BRANCH   6   7
ATOM      7  C   UNL     1      39.534   2.306   2.824  1.00  0.00     0.000 C 
BRANCH   7   8
ATOM      8  C   UNL     1      40.109   3.138   3.985  1.00  0.00     0.000 C 
BRANCH   8   9
ATOM      9  C   UNL     1      40.350   4.610   3.584  1.00  0.00     0.000 C 
BRANCH   9  10
ATOM     10  C   UNL     1      39.062   5.453   3.538  1.00  0.00     0.006 C 
BRANCH  10  11
ATOM     11  C   UNL     1      38.710   5.988   2.142  1.00  0.00     0.053 C 
BRANCH  11  12
ATOM     12  C   UNL     1      38.667   7.485   2.111  1.00  0.00     0.041 C 
ATOM     13  O   UNL     1      37.749   8.082   1.489  1.00  0.00    -0.550 OA
ATOM     14  O   UNL     1      39.636   8.224   2.778  1.00  0.00    -0.550 OA
ENDBRANCH  11  12
ENDBRANCH  10  11
ENDBRANCH   9  10
ENDBRANCH   8   9
ENDBRANCH   7   8
ENDBRANCH   6   7
ENDBRANCH   5   6
ENDBRANCH   4   5
ENDBRANCH   3   4
ENDBRANCH   2   3
ENDBRANCH   1   2
BRANCH   1  15
ATOM     15  C   UNL     1      33.599   3.731   6.679  1.00  0.00     0.000 C 
BRANCH  15  16
ATOM     16  C   UNL     1      34.531   4.955   6.741  1.00  0.00     0.000 C 
BRANCH  16  17
ATOM     17  C   UNL     1      35.237   5.171   8.096  1.00  0.00     0.000 C 
BRANCH  17  18
ATOM     18  C   UNL     1      36.732   4.805   8.115  1.00  0.00    -0.000 C 
BRANCH  18  19
ATOM     19  C   UNL     1      37.219   4.217   6.779  1.00  0.00    -0.000 C 
BRANCH  19  20
ATOM     20  C   UNL     1      37.898   2.846   6.942  1.00  0.00    -0.000 C 
BRANCH  20  21
ATOM     21  C   UNL     1      36.935   1.676   7.232  1.00  0.00    -0.000 C 
BRANCH  21  22
ATOM     22  C   UNL     1      37.213   0.388   6.431  1.00  0.00    -0.000 C 
BRANCH  22  23
ATOM     23  C   UNL     1      35.960  -0.424   6.047  1.00  0.00    -0.000 C 
BRANCH  23  24
ATOM     24  C   UNL     1      36.060  -1.177   4.710  1.00  0.00    -0.000 C 
BRANCH  24  25
ATOM     25  C   UNL     1      34.710  -1.293   3.987  1.00  0.00    -0.003 C 
ATOM     26  C   UNL     1      34.479  -0.102   3.061  1.00  0.00     0.004 C 
ENDBRANCH  24  25
ENDBRANCH  23  24
ENDBRANCH  22  23
ENDBRANCH  21  22
ENDBRANCH  20  21
ENDBRANCH  19  20
ENDBRANCH  18  19
ENDBRANCH  17  18
ENDBRANCH  16  17
ENDBRANCH  15  16
ENDBRANCH   1  15
TORSDOF 22
ENDMDL
MODEL 9
REMARK VINA RESULT:    -5.075     12.451     16.362
REMARK INTER + INTRA:         -16.683
REMARK INTER:                 -11.992
REMARK INTRA:                  -4.690
REMARK UNBOUND:                -5.079
REMARK SMILES CCCCCCCCCCCCCCCCCCCCCCCC(=O)[O-]
REMARK SMILES IDX 13 1 14 2 15 3 16 4 17 5 18 6 19 7 20 8 21 9 22 10 23 11
REMARK SMILES IDX 24 12 25 13 26 14 12 15 11 16 10 17 9 18 8 19 7 20 6 21 5 22
REMARK SMILES IDX 4 23 3 24 2 25 1 26
REMARK H PARENT
REMARK Flexibility Score: inf
ROOT
ATOM      1  C   UNL     1      36.404   3.697   7.641  1.00  0.00     0.000 C 
ENDROOT
BRANCH   1   2
ATOM      2  C   UNL     1      37.242   2.647   6.896  1.00  0.00     0.000 C 
BRANCH   2   3
ATOM      3  C   UNL     1      38.015   3.237   5.705  1.00  0.00     0.000 C 
BRANCH   3   4
ATOM      4  C   UNL     1      38.197   2.227   4.560  1.00  0.00     0.000 C 
BRANCH   4   5
ATOM      5  C   UNL     1      39.372   2.589   3.636  1.00  0.00     0.000 C 
BRANCH   5   6
ATOM      6  C   UNL     1      38.930   2.793   2.175  1.00  0.00     0.000 C 
BRANCH   6   7
ATOM      7  C   UNL     1      37.470   3.259   2.064  1.00  0.00     0.000 C 
BRANCH   7   8
ATOM      8  C   UNL     1      37.349   4.743   1.672  1.00  0.00     0.000 C 
BRANCH   8   9
ATOM      9  C   UNL     1      36.671   5.585   2.775  1.00  0.00     0.000 C 
BRANCH   9  10
ATOM     10  C   UNL     1      37.649   6.493   3.543  1.00  0.00     0.006 C 
BRANCH  10  11
ATOM     11  C   UNL     1      38.745   7.119   2.667  1.00  0.00     0.053 C 
BRANCH  11  12
ATOM     12  C   UNL     1      38.329   8.448   2.115  1.00  0.00     0.041 C 
ATOM     13  O   UNL     1      37.719   8.518   1.015  1.00  0.00    -0.550 OA
ATOM     14  O   UNL     1      38.606   9.613   2.821  1.00  0.00    -0.550 OA
ENDBRANCH  11  12
ENDBRANCH  10  11
ENDBRANCH   9  10
ENDBRANCH   8   9
ENDBRANCH   7   8
ENDBRANCH   6   7
ENDBRANCH   5   6
ENDBRANCH   4   5
ENDBRANCH   3   4
ENDBRANCH   2   3
ENDBRANCH   1   2
BRANCH   1  15
ATOM     15  C   UNL     1      36.407   5.035   6.887  1.00  0.00     0.000 C 
BRANCH  15  16
ATOM     16  C   UNL     1      35.063   5.338   6.199  1.00  0.00     0.000 C 
BRANCH  16  17
ATOM     17  C   UNL     1      33.937   4.323   6.489  1.00  0.00     0.000 C 
BRANCH  17  18
ATOM     18  C   UNL     1      33.414   3.564   5.257  1.00  0.00    -0.000 C 
BRANCH  18  19
ATOM     19  C   UNL     1      34.542   3.097   4.321  1.00  0.00    -0.000 C 
BRANCH  19  20
ATOM     20  C   UNL     1      34.082   2.022   3.321  1.00  0.00    -0.000 C 
BRANCH  20  21
ATOM     21  C   UNL     1      35.030   0.813   3.186  1.00  0.00    -0.000 C 
BRANCH  21  22
ATOM     22  C   UNL     1      34.658  -0.409   4.049  1.00  0.00    -0.000 C 
BRANCH  22  23
ATOM     23  C   UNL     1      35.684  -0.775   5.141  1.00  0.00    -0.000 C 
BRANCH  23  24
ATOM     24  C   UNL     1      35.289  -0.359   6.568  1.00  0.00    -0.000 C 
BRANCH  24  25
ATOM     25  C   UNL     1      33.876   0.237   6.646  1.00  0.00    -0.003 C 
ATOM     26  C   UNL     1      33.563   0.728   8.056  1.00  0.00     0.004 C 
ENDBRANCH  24  25
ENDBRANCH  23  24
ENDBRANCH  22  23
ENDBRANCH  21  22
ENDBRANCH  20  21
ENDBRANCH  19  20
ENDBRANCH  18  19
ENDBRANCH  17  18
ENDBRANCH  16  17
ENDBRANCH  15  16
ENDBRANCH   1  15
TORSDOF 22
ENDMDL
