MODEL 1
REMARK VINA RESULT:    -4.177      0.000      0.000
REMARK INTER + INTRA:          -5.573
REMARK INTER:                  -5.154
REMARK INTRA:                  -0.420
REMARK UNBOUND:                -0.420
REMARK SMILES C=CC[C@H](C)C(=O)CC
REMARK SMILES IDX 4 1 5 2 6 3 7 4 8 5 9 6 3 7 2 8 1 9
REMARK H PARENT
REMARK Flexibility Score: inf
ROOT
ATOM      1  C   UNL     1      15.567  17.639  27.228  1.00  0.00     0.057 C 
ATOM      2  C   UNL     1      16.299  18.715  28.040  1.00  0.00     0.016 C 
ENDROOT
BRANCH   1   3
ATOM      3  C   UNL     1      15.262  18.138  25.828  1.00  0.00     0.135 C 
ATOM      4  O   UNL     1      16.075  18.855  25.264  1.00  0.00    -0.299 OA
BRANCH   3   5
ATOM      5  C   UNL     1      13.973  17.799  25.118  1.00  0.00     0.072 C 
ATOM      6  C   UNL     1      14.138  16.566  24.235  1.00  0.00     0.012 C 
ENDBRANCH   3   5
ENDBRANCH   1   3
BRANCH   1   7
ATOM      7  C   UNL     1      14.297  17.163  27.963  1.00  0.00     0.038 C 
BRANCH   7   8
ATOM      8  C   UNL     1      14.211  15.661  28.040  1.00  0.00    -0.034 C 
ATOM      9  C   UNL     1      15.109  14.872  27.444  1.00  0.00     0.004 C 
ENDBRANCH   7   8
ENDBRANCH   1   7
TORSDOF 4
ENDMDL
MODEL 2
REMARK VINA RESULT:    -4.116      1.486      3.303
REMARK INTER + INTRA:          -5.498
REMARK INTER:                  -5.277
REMARK INTRA:                  -0.220
REMARK UNBOUND:                -0.420
REMARK SMILES C=CC[C@H](C)C(=O)CC
REMARK SMILES IDX 4 1 5 2 6 3 7 4 8 5 9 6 3 7 2 8 1 9
REMARK H PARENT
REMARK Flexibility Score: inf
ROOT
ATOM      1  C   UNL     1      14.788  16.452  25.316  1.00  0.00     0.057 C 
ATOM      2  C   UNL     1      14.847  15.288  26.313  1.00  0.00     0.016 C 
ENDROOT
BRANCH   1   3
ATOM      3  C   UNL     1      15.262  17.739  25.965  1.00  0.00     0.135 C 
ATOM      4  O   UNL     1      15.735  18.618  25.259  1.00  0.00    -0.299 OA
BRANCH   3   5
ATOM      5  C   UNL     1      15.193  17.960  27.457  1.00  0.00     0.072 C 
ATOM      6  C   UNL     1      16.409  18.734  27.956  1.00  0.00     0.012 C 
ENDBRANCH   3   5
ENDBRANCH   1   3
BRANCH   1   7
ATOM      7  C   UNL     1      13.373  16.593  24.717  1.00  0.00     0.038 C 
BRANCH   7   8
ATOM      8  C   UNL     1      12.390  15.641  25.344  1.00  0.00    -0.034 C 
ATOM      9  C   UNL     1      11.273  15.263  24.714  1.00  0.00     0.004 C 
ENDBRANCH   7   8
ENDBRANCH   1   7
TORSDOF 4
ENDMDL
MODEL 3
REMARK VINA RESULT:    -4.108      0.912      2.752
REMARK INTER + INTRA:          -5.488
REMARK INTER:                  -5.125
REMARK INTRA:                  -0.363
REMARK UNBOUND:                -0.420
REMARK SMILES C=CC[C@H](C)C(=O)CC
REMARK SMILES IDX 4 1 5 2 6 3 7 4 8 5 9 6 3 7 2 8 1 9
REMARK H PARENT
REMARK Flexibility Score: inf
ROOT
ATOM      1  C   UNL     1      14.007  17.383  25.767  1.00  0.00     0.057 C 
ATOM      2  C   UNL     1      14.295  16.784  24.385  1.00  0.00     0.016 C 
ENDROOT
BRANCH   1   3
ATOM      3  C   UNL     1      15.218  18.132  26.291  1.00  0.00     0.135 C 
ATOM      4  O   UNL     1      15.980  18.658  25.493  1.00  0.00    -0.299 OA
BRANCH   3   5
ATOM      5  C   UNL     1      15.528  18.225  27.766  1.00  0.00     0.072 C 
ATOM      6  C   UNL     1      16.970  18.663  27.999  1.00  0.00     0.012 C 
ENDBRANCH   3   5
ENDBRANCH   1   3
BRANCH   1   7
ATOM      7  C   UNL     1      13.528  16.294  26.750  1.00  0.00     0.038 C 
BRANCH   7   8
ATOM      8  C   UNL     1      14.175  14.961  26.485  1.00  0.00    -0.034 C 
ATOM      9  C   UNL     1      15.172  14.497  27.245  1.00  0.00     0.004 C 
ENDBRANCH   7   8
ENDBRANCH   1   7
TORSDOF 4
ENDMDL
MODEL 4
REMARK VINA RESULT:    -4.062      1.741      2.884
REMARK INTER + INTRA:          -5.432
REMARK INTER:                  -4.988
REMARK INTRA:                  -0.443
REMARK UNBOUND:                -0.420
REMARK SMILES C=CC[C@H](C)C(=O)CC
REMARK SMILES IDX 4 1 5 2 6 3 7 4 8 5 9 6 3 7 2 8 1 9
REMARK H PARENT
REMARK Flexibility Score: inf
ROOT
ATOM      1  C   UNL     1      13.726  16.006  26.857  1.00  0.00     0.057 C 
ATOM      2  C   UNL     1      14.877  15.002  26.991  1.00  0.00     0.016 C 
ENDROOT
BRANCH   1   3
ATOM      3  C   UNL     1      13.490  16.360  25.400  1.00  0.00     0.135 C 
ATOM      4  O   UNL     1      12.345  16.371  24.972  1.00  0.00    -0.299 OA
BRANCH   3   5
ATOM      5  C   UNL     1      14.625  16.675  24.456  1.00  0.00     0.072 C 
ATOM      6  C   UNL     1      14.874  18.177  24.375  1.00  0.00     0.012 C 
ENDBRANCH   3   5
ENDBRANCH   1   3
BRANCH   1   7
ATOM      7  C   UNL     1      13.982  17.257  27.723  1.00  0.00     0.038 C 
BRANCH   7   8
ATOM      8  C   UNL     1      15.440  17.434  28.053  1.00  0.00    -0.034 C 
ATOM      9  C   UNL     1      16.067  18.601  27.874  1.00  0.00     0.004 C 
ENDBRANCH   7   8
ENDBRANCH   1   7
TORSDOF 4
ENDMDL
MODEL 5
REMARK VINA RESULT:    -4.040      1.630      3.056
REMARK INTER + INTRA:          -5.405
REMARK INTER:                  -5.102
REMARK INTRA:                  -0.303
REMARK UNBOUND:                -0.420
REMARK SMILES C=CC[C@H](C)C(=O)CC
REMARK SMILES IDX 4 1 5 2 6 3 7 4 8 5 9 6 3 7 2 8 1 9
REMARK H PARENT
REMARK Flexibility Score: inf
ROOT
ATOM      1  C   UNL     1      15.346  18.296  27.158  1.00  0.00     0.057 C 
ATOM      2  C   UNL     1      16.530  18.715  28.038  1.00  0.00     0.016 C 
ENDROOT
BRANCH   1   3
ATOM      3  C   UNL     1      14.683  17.048  27.708  1.00  0.00     0.135 C 
ATOM      4  O   UNL     1      15.339  16.020  27.800  1.00  0.00    -0.299 OA
BRANCH   3   5
ATOM      5  C   UNL     1      13.231  17.025  28.121  1.00  0.00     0.072 C 
ATOM      6  C   UNL     1      12.582  15.688  27.780  1.00  0.00     0.012 C 
ENDBRANCH   3   5
ENDBRANCH   1   3
BRANCH   1   7
ATOM      7  C   UNL     1      15.787  18.118  25.690  1.00  0.00     0.038 C 
BRANCH   7   8
ATOM      8  C   UNL     1      14.622  17.858  24.771  1.00  0.00    -0.034 C 
ATOM      9  C   UNL     1      14.349  16.635  24.307  1.00  0.00     0.004 C 
ENDBRANCH   7   8
ENDBRANCH   1   7
TORSDOF 4
ENDMDL
MODEL 6
REMARK VINA RESULT:    -4.029      2.036      3.675
REMARK INTER + INTRA:          -5.391
REMARK INTER:                  -5.051
REMARK INTRA:                  -0.341
REMARK UNBOUND:                -0.420
REMARK SMILES C=CC[C@H](C)C(=O)CC
REMARK SMILES IDX 4 1 5 2 6 3 7 4 8 5 9 6 3 7 2 8 1 9
REMARK H PARENT
REMARK Flexibility Score: inf
ROOT
ATOM      1  C   UNL     1      14.606  16.392  25.830  1.00  0.00     0.057 C 
ATOM      2  C   UNL     1      14.393  16.813  24.370  1.00  0.00     0.016 C 
ENDROOT
BRANCH   1   3
ATOM      3  C   UNL     1      13.725  15.208  26.181  1.00  0.00     0.135 C 
ATOM      4  O   UNL     1      12.693  15.030  25.550  1.00  0.00    -0.299 OA
BRANCH   3   5
ATOM      5  C   UNL     1      14.067  14.257  27.303  1.00  0.00     0.072 C 
ATOM      6  C   UNL     1      15.555  13.922  27.306  1.00  0.00     0.012 C 
ENDBRANCH   3   5
ENDBRANCH   1   3
BRANCH   1   7
ATOM      7  C   UNL     1      14.382  17.583  26.785  1.00  0.00     0.038 C 
BRANCH   7   8
ATOM      8  C   UNL     1      15.452  17.679  27.840  1.00  0.00    -0.034 C 
ATOM      9  C   UNL     1      16.330  18.686  27.865  1.00  0.00     0.004 C 
ENDBRANCH   7   8
ENDBRANCH   1   7
TORSDOF 4
ENDMDL
MODEL 7
REMARK VINA RESULT:    -3.923      1.754      2.912
REMARK INTER + INTRA:          -5.260
REMARK INTER:                  -4.984
REMARK INTRA:                  -0.276
REMARK UNBOUND:                -0.420
REMARK SMILES C=CC[C@H](C)C(=O)CC
REMARK SMILES IDX 4 1 5 2 6 3 7 4 8 5 9 6 3 7 2 8 1 9
REMARK H PARENT
REMARK Flexibility Score: inf
ROOT
ATOM      1  C   UNL     1      13.890  15.816  26.951  1.00  0.00     0.057 C 
ATOM      2  C   UNL     1      15.004  14.817  27.289  1.00  0.00     0.016 C 
ENDROOT
BRANCH   1   3
ATOM      3  C   UNL     1      13.764  15.993  25.450  1.00  0.00     0.135 C 
ATOM      4  O   UNL     1      14.780  16.047  24.772  1.00  0.00    -0.299 OA
BRANCH   3   5
ATOM      5  C   UNL     1      12.424  16.130  24.767  1.00  0.00     0.072 C 
ATOM      6  C   UNL     1      11.486  14.993  25.159  1.00  0.00     0.012 C 
ENDBRANCH   3   5
ENDBRANCH   1   3
BRANCH   1   7
ATOM      7  C   UNL     1      14.118  17.160  27.675  1.00  0.00     0.038 C 
BRANCH   7   8
ATOM      8  C   UNL     1      15.573  17.408  27.975  1.00  0.00    -0.034 C 
ATOM      9  C   UNL     1      16.126  18.616  27.834  1.00  0.00     0.004 C 
ENDBRANCH   7   8
ENDBRANCH   1   7
TORSDOF 4
ENDMDL
MODEL 8
REMARK VINA RESULT:    -3.895      1.807      3.232
REMARK INTER + INTRA:          -5.225
REMARK INTER:                  -4.881
REMARK INTRA:                  -0.344
REMARK UNBOUND:                -0.420
REMARK SMILES C=CC[C@H](C)C(=O)CC
REMARK SMILES IDX 4 1 5 2 6 3 7 4 8 5 9 6 3 7 2 8 1 9
REMARK H PARENT
REMARK Flexibility Score: inf
ROOT
ATOM      1  C   UNL     1      14.253  17.886  25.628  1.00  0.00     0.057 C 
ATOM      2  C   UNL     1      15.627  18.471  25.279  1.00  0.00     0.016 C 
ENDROOT
BRANCH   1   3
ATOM      3  C   UNL     1      14.190  17.501  27.095  1.00  0.00     0.135 C 
ATOM      4  O   UNL     1      13.220  17.844  27.756  1.00  0.00    -0.299 OA
BRANCH   3   5
ATOM      5  C   UNL     1      15.299  16.732  27.772  1.00  0.00     0.072 C 
ATOM      6  C   UNL     1      15.093  15.227  27.627  1.00  0.00     0.012 C 
ENDBRANCH   3   5
ENDBRANCH   1   3
BRANCH   1   7
ATOM      7  C   UNL     1      13.908  16.701  24.704  1.00  0.00     0.038 C 
BRANCH   7   8
ATOM      8  C   UNL     1      12.461  16.295  24.811  1.00  0.00    -0.034 C 
ATOM      9  C   UNL     1      12.099  15.083  25.244  1.00  0.00     0.004 C 
ENDBRANCH   7   8
ENDBRANCH   1   7
TORSDOF 4
ENDMDL
MODEL 9
REMARK VINA RESULT:    -3.861      1.536      2.850
REMARK INTER + INTRA:          -5.184
REMARK INTER:                  -4.980
REMARK INTRA:                  -0.203
REMARK UNBOUND:                -0.420
REMARK SMILES C=CC[C@H](C)C(=O)CC
REMARK SMILES IDX 4 1 5 2 6 3 7 4 8 5 9 6 3 7 2 8 1 9
REMARK H PARENT
REMARK Flexibility Score: inf
ROOT
ATOM      1  C   UNL     1      14.676  15.930  27.388  1.00  0.00     0.057 C 
ATOM      2  C   UNL     1      13.352  16.347  28.039  1.00  0.00     0.016 C 
ENDROOT
BRANCH   1   3
ATOM      3  C   UNL     1      14.999  16.824  26.205  1.00  0.00     0.135 C 
ATOM      4  O   UNL     1      14.978  16.347  25.079  1.00  0.00    -0.299 OA
BRANCH   3   5
ATOM      5  C   UNL     1      15.371  18.277  26.374  1.00  0.00     0.072 C 
ATOM      6  C   UNL     1      16.249  18.481  27.605  1.00  0.00     0.012 C 
ENDBRANCH   3   5
ENDBRANCH   1   3
BRANCH   1   7
ATOM      7  C   UNL     1      14.650  14.438  26.995  1.00  0.00     0.038 C 
BRANCH   7   8
ATOM      8  C   UNL     1      15.931  13.731  27.354  1.00  0.00    -0.034 C 
ATOM      9  C   UNL     1      15.951  12.438  27.691  1.00  0.00     0.004 C 
ENDBRANCH   7   8
ENDBRANCH   1   7
TORSDOF 4
ENDMDL
