MODEL 1
REMARK VINA RESULT:    -3.306      0.000      0.000
REMARK INTER + INTRA:          -4.190
REMARK INTER:                  -3.983
REMARK INTRA:                  -0.207
REMARK UNBOUND:                -0.207
REMARK SMILES OCC(O)CO
REMARK SMILES IDX 3 1 5 2 6 3 2 5 1 6 4 8
REMARK H PARENT 6 4 1 7 4 9
REMARK Flexibility Score: inf
ROOT
ATOM      1  C   UNL     1     -45.983  16.319 -23.433  1.00  0.00     0.165 C 
ENDROOT
BRANCH   1   2
ATOM      2  C   UNL     1     -47.410  15.909 -23.832  1.00  0.00     0.190 C 
BRANCH   2   3
ATOM      3  O   UNL     1     -48.364  16.741 -23.227  1.00  0.00    -0.394 OA
ATOM      4  H   UNL     1     -48.716  16.246 -22.441  1.00  0.00     0.210 HD
ENDBRANCH   2   3
ENDBRANCH   1   2
BRANCH   1   5
ATOM      5  C   UNL     1     -45.485  17.521 -24.252  1.00  0.00     0.190 C 
BRANCH   5   6
ATOM      6  O   UNL     1     -46.532  18.421 -24.484  1.00  0.00    -0.394 OA
ATOM      7  H   UNL     1     -46.671  18.910 -23.631  1.00  0.00     0.210 HD
ENDBRANCH   5   6
ENDBRANCH   1   5
BRANCH   1   8
ATOM      8  O   UNL     1     -45.130  15.225 -23.645  1.00  0.00    -0.388 OA
ATOM      9  H   UNL     1     -44.350  15.344 -23.041  1.00  0.00     0.211 HD
ENDBRANCH   1   8
TORSDOF 5
ENDMDL
MODEL 2
REMARK VINA RESULT:    -3.179      9.720     10.332
REMARK INTER + INTRA:          -4.036
REMARK INTER:                  -3.813
REMARK INTRA:                  -0.223
REMARK UNBOUND:                -0.207
REMARK SMILES OCC(O)CO
REMARK SMILES IDX 3 1 5 2 6 3 2 5 1 6 4 8
REMARK H PARENT 6 4 1 7 4 9
REMARK Flexibility Score: inf
ROOT
ATOM      1  C   UNL     1     -47.543   8.261 -30.124  1.00  0.00     0.165 C 
ENDROOT
BRANCH   1   2
ATOM      2  C   UNL     1     -47.979   8.570 -31.566  1.00  0.00     0.190 C 
BRANCH   2   3
ATOM      3  O   UNL     1     -48.833   9.682 -31.611  1.00  0.00    -0.394 OA
ATOM      4  H   UNL     1     -48.269  10.464 -31.851  1.00  0.00     0.210 HD
ENDBRANCH   2   3
ENDBRANCH   1   2
BRANCH   1   5
ATOM      5  C   UNL     1     -46.632   9.361 -29.556  1.00  0.00     0.190 C 
BRANCH   5   6
ATOM      6  O   UNL     1     -47.383  10.500 -29.237  1.00  0.00    -0.394 OA
ATOM      7  H   UNL     1     -47.537  10.465 -28.258  1.00  0.00     0.210 HD
ENDBRANCH   5   6
ENDBRANCH   1   5
BRANCH   1   8
ATOM      8  O   UNL     1     -46.856   7.037 -30.119  1.00  0.00    -0.388 OA
ATOM      9  H   UNL     1     -47.412   6.396 -29.603  1.00  0.00     0.211 HD
ENDBRANCH   1   8
TORSDOF 5
ENDMDL
MODEL 3
REMARK VINA RESULT:    -3.144      9.620     10.300
REMARK INTER + INTRA:          -3.994
REMARK INTER:                  -3.771
REMARK INTRA:                  -0.224
REMARK UNBOUND:                -0.207
REMARK SMILES OCC(O)CO
REMARK SMILES IDX 3 1 5 2 6 3 2 5 1 6 4 8
REMARK H PARENT 6 4 1 7 4 9
REMARK Flexibility Score: inf
ROOT
ATOM      1  C   UNL     1     -47.351   8.648 -30.660  1.00  0.00     0.165 C 
ENDROOT
BRANCH   1   2
ATOM      2  C   UNL     1     -46.946   9.380 -29.371  1.00  0.00     0.190 C 
BRANCH   2   3
ATOM      3  O   UNL     1     -47.371  10.717 -29.391  1.00  0.00    -0.394 OA
ATOM      4  H   UNL     1     -46.654  11.237 -29.839  1.00  0.00     0.210 HD
ENDBRANCH   2   3
ENDBRANCH   1   2
BRANCH   1   5
ATOM      5  C   UNL     1     -48.852   8.798 -30.953  1.00  0.00     0.190 C 
BRANCH   5   6
ATOM      6  O   UNL     1     -49.101   9.999 -31.630  1.00  0.00    -0.394 OA
ATOM      7  H   UNL     1     -49.970   9.880 -32.093  1.00  0.00     0.210 HD
ENDBRANCH   5   6
ENDBRANCH   1   5
BRANCH   1   8
ATOM      8  O   UNL     1     -47.037   7.288 -30.517  1.00  0.00    -0.388 OA
ATOM      9  H   UNL     1     -47.741   6.887 -29.943  1.00  0.00     0.211 HD
ENDBRANCH   1   8
TORSDOF 5
ENDMDL
MODEL 4
REMARK VINA RESULT:    -3.115      8.778      9.578
REMARK INTER + INTRA:          -3.960
REMARK INTER:                  -3.736
REMARK INTRA:                  -0.223
REMARK UNBOUND:                -0.207
REMARK SMILES OCC(O)CO
REMARK SMILES IDX 3 1 5 2 6 3 2 5 1 6 4 8
REMARK H PARENT 6 4 1 7 4 9
REMARK Flexibility Score: inf
ROOT
ATOM      1  C   UNL     1     -48.052  10.095 -29.139  1.00  0.00     0.165 C 
ENDROOT
BRANCH   1   2
ATOM      2  C   UNL     1     -46.818   9.249 -29.495  1.00  0.00     0.190 C 
BRANCH   2   3
ATOM      3  O   UNL     1     -46.716   9.058 -30.882  1.00  0.00    -0.394 OA
ATOM      4  H   UNL     1     -47.418   8.401 -31.130  1.00  0.00     0.210 HD
ENDBRANCH   2   3
ENDBRANCH   1   2
BRANCH   1   5
ATOM      5  C   UNL     1     -49.268   9.721 -30.002  1.00  0.00     0.190 C 
BRANCH   5   6
ATOM      6  O   UNL     1     -49.259  10.447 -31.199  1.00  0.00    -0.394 OA
ATOM      7  H   UNL     1     -48.339  10.805 -31.300  1.00  0.00     0.210 HD
ENDBRANCH   5   6
ENDBRANCH   1   5
BRANCH   1   8
ATOM      8  O   UNL     1     -47.737  11.448 -29.337  1.00  0.00    -0.388 OA
ATOM      9  H   UNL     1     -46.858  11.476 -29.799  1.00  0.00     0.211 HD
ENDBRANCH   1   8
TORSDOF 5
ENDMDL
MODEL 5
REMARK VINA RESULT:    -3.071      9.305     10.282
REMARK INTER + INTRA:          -3.906
REMARK INTER:                  -3.688
REMARK INTRA:                  -0.218
REMARK UNBOUND:                -0.207
REMARK SMILES OCC(O)CO
REMARK SMILES IDX 3 1 5 2 6 3 2 5 1 6 4 8
REMARK H PARENT 6 4 1 7 4 9
REMARK Flexibility Score: inf
ROOT
ATOM      1  C   UNL     1     -48.051   8.569 -30.182  1.00  0.00     0.165 C 
ENDROOT
BRANCH   1   2
ATOM      2  C   UNL     1     -47.904   9.800 -29.273  1.00  0.00     0.190 C 
BRANCH   2   3
ATOM      3  O   UNL     1     -46.711  10.489 -29.540  1.00  0.00    -0.394 OA
ATOM      4  H   UNL     1     -46.918  11.457 -29.463  1.00  0.00     0.210 HD
ENDBRANCH   2   3
ENDBRANCH   1   2
BRANCH   1   5
ATOM      5  C   UNL     1     -47.295   7.354 -29.624  1.00  0.00     0.190 C 
BRANCH   5   6
ATOM      6  O   UNL     1     -46.164   7.768 -28.909  1.00  0.00    -0.394 OA
ATOM      7  H   UNL     1     -46.284   8.738 -28.739  1.00  0.00     0.210 HD
ENDBRANCH   5   6
ENDBRANCH   1   5
BRANCH   1   8
ATOM      8  O   UNL     1     -47.547   8.891 -31.452  1.00  0.00    -0.388 OA
ATOM      9  H   UNL     1     -46.701   9.391 -31.309  1.00  0.00     0.211 HD
ENDBRANCH   1   8
TORSDOF 5
ENDMDL
MODEL 6
REMARK VINA RESULT:    -2.974      8.359      9.536
REMARK INTER + INTRA:          -3.789
REMARK INTER:                  -3.777
REMARK INTRA:                  -0.012
REMARK UNBOUND:                -0.207
REMARK SMILES OCC(O)CO
REMARK SMILES IDX 3 1 5 2 6 3 2 5 1 6 4 8
REMARK H PARENT 6 4 1 7 4 9
REMARK Flexibility Score: inf
ROOT
ATOM      1  C   UNL     1     -39.765  21.406 -29.249  1.00  0.00     0.165 C 
ENDROOT
BRANCH   1   2
ATOM      2  C   UNL     1     -39.830  19.991 -28.652  1.00  0.00     0.190 C 
BRANCH   2   3
ATOM      3  O   UNL     1     -41.060  19.765 -28.014  1.00  0.00    -0.394 OA
ATOM      4  H   UNL     1     -40.854  19.557 -27.065  1.00  0.00     0.210 HD
ENDBRANCH   2   3
ENDBRANCH   1   2
BRANCH   1   5
ATOM      5  C   UNL     1     -38.791  22.308 -28.474  1.00  0.00     0.190 C 
BRANCH   5   6
ATOM      6  O   UNL     1     -39.479  23.376 -27.883  1.00  0.00    -0.394 OA
ATOM      7  H   UNL     1     -39.227  23.370 -26.923  1.00  0.00     0.210 HD
ENDBRANCH   5   6
ENDBRANCH   1   5
BRANCH   1   8
ATOM      8  O   UNL     1     -41.050  21.966 -29.211  1.00  0.00    -0.388 OA
ATOM      9  H   UNL     1     -40.962  22.914 -29.494  1.00  0.00     0.211 HD
ENDBRANCH   1   8
TORSDOF 5
ENDMDL
MODEL 7
REMARK VINA RESULT:    -2.973      9.862     10.835
REMARK INTER + INTRA:          -3.788
REMARK INTER:                  -3.564
REMARK INTRA:                  -0.224
REMARK UNBOUND:                -0.207
REMARK SMILES OCC(O)CO
REMARK SMILES IDX 3 1 5 2 6 3 2 5 1 6 4 8
REMARK H PARENT 6 4 1 7 4 9
REMARK Flexibility Score: inf
ROOT
ATOM      1  C   UNL     1     -48.161   9.038 -30.188  1.00  0.00     0.165 C 
ENDROOT
BRANCH   1   2
ATOM      2  C   UNL     1     -46.760   9.299 -29.612  1.00  0.00     0.190 C 
BRANCH   2   3
ATOM      3  O   UNL     1     -46.193   8.121 -29.101  1.00  0.00    -0.394 OA
ATOM      4  H   UNL     1     -46.888   7.695 -28.532  1.00  0.00     0.210 HD
ENDBRANCH   2   3
ENDBRANCH   1   2
BRANCH   1   5
ATOM      5  C   UNL     1     -48.101   8.213 -31.483  1.00  0.00     0.190 C 
BRANCH   5   6
ATOM      6  O   UNL     1     -47.833   6.868 -31.193  1.00  0.00    -0.394 OA
ATOM      7  H   UNL     1     -47.382   6.860 -30.309  1.00  0.00     0.210 HD
ENDBRANCH   5   6
ENDBRANCH   1   5
BRANCH   1   8
ATOM      8  O   UNL     1     -48.772  10.274 -30.450  1.00  0.00    -0.388 OA
ATOM      9  H   UNL     1     -48.576  10.864 -29.675  1.00  0.00     0.211 HD
ENDBRANCH   1   8
TORSDOF 5
ENDMDL
MODEL 8
REMARK VINA RESULT:    -2.948     10.177     11.055
REMARK INTER + INTRA:          -3.758
REMARK INTER:                  -3.534
REMARK INTRA:                  -0.224
REMARK UNBOUND:                -0.207
REMARK SMILES OCC(O)CO
REMARK SMILES IDX 3 1 5 2 6 3 2 5 1 6 4 8
REMARK H PARENT 6 4 1 7 4 9
REMARK Flexibility Score: inf
ROOT
ATOM      1  C   UNL     1     -47.582   8.553 -30.865  1.00  0.00     0.165 C 
ENDROOT
BRANCH   1   2
ATOM      2  C   UNL     1     -48.427   7.336 -30.456  1.00  0.00     0.190 C 
BRANCH   2   3
ATOM      3  O   UNL     1     -47.668   6.157 -30.487  1.00  0.00    -0.394 OA
ATOM      4  H   UNL     1     -46.864   6.321 -29.927  1.00  0.00     0.210 HD
ENDBRANCH   2   3
ENDBRANCH   1   2
BRANCH   1   5
ATOM      5  C   UNL     1     -46.803   9.133 -29.674  1.00  0.00     0.190 C 
BRANCH   5   6
ATOM      6  O   UNL     1     -46.086   8.122 -29.020  1.00  0.00    -0.394 OA
ATOM      7  H   UNL     1     -46.721   7.370 -28.894  1.00  0.00     0.210 HD
ENDBRANCH   5   6
ENDBRANCH   1   5
BRANCH   1   8
ATOM      8  O   UNL     1     -48.437   9.536 -31.386  1.00  0.00    -0.388 OA
ATOM      9  H   UNL     1     -48.345  10.337 -30.806  1.00  0.00     0.211 HD
ENDBRANCH   1   8
TORSDOF 5
ENDMDL
MODEL 9
REMARK VINA RESULT:    -2.937      9.045      9.862
REMARK INTER + INTRA:          -3.745
REMARK INTER:                  -3.742
REMARK INTRA:                  -0.003
REMARK UNBOUND:                -0.207
REMARK SMILES OCC(O)CO
REMARK SMILES IDX 3 1 5 2 6 3 2 5 1 6 4 8
REMARK H PARENT 6 4 1 7 4 9
REMARK Flexibility Score: inf
ROOT
ATOM      1  C   UNL     1     -47.814   9.360 -29.591  1.00  0.00     0.165 C 
ENDROOT
BRANCH   1   2
ATOM      2  C   UNL     1     -47.417   8.484 -30.790  1.00  0.00     0.190 C 
BRANCH   2   3
ATOM      3  O   UNL     1     -46.938   7.234 -30.369  1.00  0.00    -0.394 OA
ATOM      4  H   UNL     1     -46.071   7.091 -30.831  1.00  0.00     0.210 HD
ENDBRANCH   2   3
ENDBRANCH   1   2
BRANCH   1   5
ATOM      5  C   UNL     1     -49.236   9.922 -29.742  1.00  0.00     0.190 C 
BRANCH   5   6
ATOM      6  O   UNL     1     -49.520  10.819 -28.704  1.00  0.00    -0.394 OA
ATOM      7  H   UNL     1     -50.473  11.075 -28.811  1.00  0.00     0.210 HD
ENDBRANCH   5   6
ENDBRANCH   1   5
BRANCH   1   8
ATOM      8  O   UNL     1     -46.901  10.421 -29.492  1.00  0.00    -0.388 OA
ATOM      9  H   UNL     1     -47.282  11.180 -30.008  1.00  0.00     0.211 HD
ENDBRANCH   1   8
TORSDOF 5
ENDMDL
