MODEL 1
REMARK VINA RESULT:    -5.111      0.000      0.000
REMARK INTER + INTRA:          -7.465
REMARK INTER:                  -6.455
REMARK INTRA:                  -1.010
REMARK UNBOUND:                -1.010
REMARK SMILES CC(C)=CCC[C@H](C)[C@@H]1C=C[C@@](C)(O)CC1
REMARK SMILES IDX 8 1 7 2 6 3 5 4 4 5 2 6 1 7 3 8 9 9 16 10 10 11 15 12 11 13
REMARK SMILES IDX 12 14 13 15 14 16
REMARK H PARENT 14 17
REMARK Flexibility Score: inf
ROOT
ATOM      1  C   UNL     1      38.633 -39.029  -3.172  1.00  0.00     0.008 C 
ATOM      2  C   UNL     1      39.041 -40.495  -2.937  1.00  0.00    -0.007 C 
ENDROOT
BRANCH   2   3
ATOM      3  C   UNL     1      39.173 -41.267  -4.284  1.00  0.00     0.008 C 
BRANCH   3   4
ATOM      4  C   UNL     1      40.085 -40.565  -5.304  1.00  0.00     0.027 C 
BRANCH   4   5
ATOM      5  C   UNL     1      41.296 -41.403  -5.641  1.00  0.00    -0.028 C 
ATOM      6  C   UNL     1      42.568 -41.094  -5.300  1.00  0.00    -0.080 C 
ATOM      7  C   UNL     1      42.915 -39.841  -4.536  1.00  0.00     0.039 C 
ATOM      8  C   UNL     1      43.692 -42.024  -5.679  1.00  0.00     0.039 C 
ENDBRANCH   4   5
ENDBRANCH   3   4
ENDBRANCH   2   3
BRANCH   2   9
ATOM      9  C   UNL     1      40.335 -40.573  -2.073  1.00  0.00     0.014 C 
ATOM     10  C   UNL     1      40.881 -39.155  -1.723  1.00  0.00     0.011 C 
ATOM     11  C   UNL     1      40.175 -41.450  -0.845  1.00  0.00    -0.025 C 
ATOM     12  C   UNL     1      41.683 -39.079  -0.401  1.00  0.00     0.040 C 
ATOM     13  C   UNL     1      41.097 -41.423   0.126  1.00  0.00     0.003 C 
ATOM     14  C   UNL     1      42.250 -40.450   0.045  1.00  0.00     0.080 C 
ATOM     15  C   UNL     1      42.927 -40.329   1.421  1.00  0.00     0.047 C 
BRANCH  14  16
ATOM     16  O   UNL     1      43.178 -40.931  -0.898  1.00  0.00    -0.386 OA
ATOM     17  H   UNL     1      44.034 -41.099  -0.424  1.00  0.00     0.211 HD
ENDBRANCH  14  16
ENDBRANCH   2   9
TORSDOF 5
ENDMDL
MODEL 2
REMARK VINA RESULT:    -4.990      4.416      6.860
REMARK INTER + INTRA:          -7.313
REMARK INTER:                  -6.761
REMARK INTRA:                  -0.552
REMARK UNBOUND:                -1.010
REMARK SMILES CC(C)=CCC[C@H](C)[C@@H]1C=C[C@@](C)(O)CC1
REMARK SMILES IDX 8 1 7 2 6 3 5 4 4 5 2 6 1 7 3 8 9 9 16 10 10 11 15 12 11 13
REMARK SMILES IDX 12 14 13 15 14 16
REMARK H PARENT 14 17
REMARK Flexibility Score: inf
ROOT
ATOM      1  C   UNL     1      37.412 -40.892  -4.915  1.00  0.00     0.008 C 
ATOM      2  C   UNL     1      38.083 -39.543  -5.234  1.00  0.00    -0.007 C 
ENDROOT
BRANCH   2   3
ATOM      3  C   UNL     1      39.630 -39.691  -5.334  1.00  0.00     0.008 C 
BRANCH   3   4
ATOM      4  C   UNL     1      40.140 -41.080  -4.915  1.00  0.00     0.027 C 
BRANCH   4   5
ATOM      5  C   UNL     1      41.404 -41.458  -5.652  1.00  0.00    -0.028 C 
ATOM      6  C   UNL     1      42.659 -41.236  -5.198  1.00  0.00    -0.080 C 
ATOM      7  C   UNL     1      42.930 -40.562  -3.878  1.00  0.00     0.039 C 
ATOM      8  C   UNL     1      43.841 -41.679  -6.021  1.00  0.00     0.039 C 
ENDBRANCH   4   5
ENDBRANCH   3   4
ENDBRANCH   2   3
BRANCH   2   9
ATOM      9  C   UNL     1      37.459 -38.909  -6.513  1.00  0.00     0.014 C 
ATOM     10  C   UNL     1      36.491 -37.738  -6.164  1.00  0.00     0.011 C 
ATOM     11  C   UNL     1      38.499 -38.512  -7.545  1.00  0.00    -0.025 C 
ATOM     12  C   UNL     1      36.361 -36.655  -7.264  1.00  0.00     0.040 C 
ATOM     13  C   UNL     1      38.158 -37.732  -8.579  1.00  0.00     0.003 C 
ATOM     14  C   UNL     1      36.759 -37.170  -8.670  1.00  0.00     0.080 C 
ATOM     15  C   UNL     1      36.726 -36.019  -9.692  1.00  0.00     0.047 C 
BRANCH  14  16
ATOM     16  O   UNL     1      35.889 -38.195  -9.086  1.00  0.00    -0.386 OA
ATOM     17  H   UNL     1      35.998 -38.959  -8.460  1.00  0.00     0.211 HD
ENDBRANCH  14  16
ENDBRANCH   2   9
TORSDOF 5
ENDMDL
MODEL 3
REMARK VINA RESULT:    -4.930      1.345      1.921
REMARK INTER + INTRA:          -7.237
REMARK INTER:                  -5.801
REMARK INTRA:                  -1.436
REMARK UNBOUND:                -1.010
REMARK SMILES CC(C)=CCC[C@H](C)[C@@H]1C=C[C@@](C)(O)CC1
REMARK SMILES IDX 8 1 7 2 6 3 5 4 4 5 2 6 1 7 3 8 9 9 16 10 10 11 15 12 11 13
REMARK SMILES IDX 12 14 13 15 14 16
REMARK H PARENT 14 17
REMARK Flexibility Score: inf
ROOT
ATOM      1  C   UNL     1      38.034 -38.839  -4.437  1.00  0.00     0.008 C 
ATOM      2  C   UNL     1      38.336 -40.122  -3.641  1.00  0.00    -0.007 C 
ENDROOT
BRANCH   2   3
ATOM      3  C   UNL     1      39.059 -41.179  -4.529  1.00  0.00     0.008 C 
BRANCH   3   4
ATOM      4  C   UNL     1      40.028 -40.561  -5.550  1.00  0.00     0.027 C 
BRANCH   4   5
ATOM      5  C   UNL     1      41.320 -41.339  -5.637  1.00  0.00    -0.028 C 
ATOM      6  C   UNL     1      42.506 -40.927  -5.135  1.00  0.00    -0.080 C 
ATOM      7  C   UNL     1      42.664 -39.606  -4.426  1.00  0.00     0.039 C 
ATOM      8  C   UNL     1      43.723 -41.805  -5.270  1.00  0.00     0.039 C 
ENDBRANCH   4   5
ENDBRANCH   3   4
ENDBRANCH   2   3
BRANCH   2   9
ATOM      9  C   UNL     1      39.129 -39.789  -2.343  1.00  0.00     0.014 C 
ATOM     10  C   UNL     1      40.060 -40.964  -1.917  1.00  0.00     0.011 C 
ATOM     11  C   UNL     1      39.869 -38.466  -2.425  1.00  0.00    -0.025 C 
ATOM     12  C   UNL     1      41.319 -40.538  -1.121  1.00  0.00     0.040 C 
ATOM     13  C   UNL     1      40.792 -38.153  -1.506  1.00  0.00     0.003 C 
ATOM     14  C   UNL     1      41.165 -39.156  -0.440  1.00  0.00     0.080 C 
ATOM     15  C   UNL     1      42.486 -38.737   0.229  1.00  0.00     0.047 C 
BRANCH  14  16
ATOM     16  O   UNL     1      40.138 -39.191   0.523  1.00  0.00    -0.386 OA
ATOM     17  H   UNL     1      40.559 -39.118   1.420  1.00  0.00     0.211 HD
ENDBRANCH  14  16
ENDBRANCH   2   9
TORSDOF 5
ENDMDL
MODEL 4
REMARK VINA RESULT:    -4.864      3.449      6.002
REMARK INTER + INTRA:          -7.154
REMARK INTER:                  -6.110
REMARK INTRA:                  -1.043
REMARK UNBOUND:                -1.010
REMARK SMILES CC(C)=CCC[C@H](C)[C@@H]1C=C[C@@](C)(O)CC1
REMARK SMILES IDX 8 1 7 2 6 3 5 4 4 5 2 6 1 7 3 8 9 9 16 10 10 11 15 12 11 13
REMARK SMILES IDX 12 14 13 15 14 16
REMARK H PARENT 14 17
REMARK Flexibility Score: inf
ROOT
ATOM      1  C   UNL     1      39.002 -41.491  -3.983  1.00  0.00     0.008 C 
ATOM      2  C   UNL     1      39.871 -40.492  -4.770  1.00  0.00    -0.007 C 
ENDROOT
BRANCH   2   3
ATOM      3  C   UNL     1      40.923 -41.231  -5.650  1.00  0.00     0.008 C 
BRANCH   3   4
ATOM      4  C   UNL     1      42.365 -41.070  -5.143  1.00  0.00     0.027 C 
BRANCH   4   5
ATOM      5  C   UNL     1      42.652 -39.651  -4.713  1.00  0.00    -0.028 C 
ATOM      6  C   UNL     1      42.842 -39.255  -3.433  1.00  0.00    -0.080 C 
ATOM      7  C   UNL     1      42.773 -40.217  -2.274  1.00  0.00     0.039 C 
ATOM      8  C   UNL     1      43.140 -37.809  -3.133  1.00  0.00     0.039 C 
ENDBRANCH   4   5
ENDBRANCH   3   4
ENDBRANCH   2   3
BRANCH   2   9
ATOM      9  C   UNL     1      38.977 -39.520  -5.597  1.00  0.00     0.014 C 
ATOM     10  C   UNL     1      39.337 -38.029  -5.320  1.00  0.00     0.011 C 
ATOM     11  C   UNL     1      38.963 -39.846  -7.079  1.00  0.00    -0.025 C 
ATOM     12  C   UNL     1      39.040 -37.062  -6.493  1.00  0.00     0.040 C 
ATOM     13  C   UNL     1      38.455 -38.969  -7.956  1.00  0.00     0.003 C 
ATOM     14  C   UNL     1      37.983 -37.615  -7.481  1.00  0.00     0.080 C 
ATOM     15  C   UNL     1      37.825 -36.668  -8.684  1.00  0.00     0.047 C 
BRANCH  14  16
ATOM     16  O   UNL     1      36.741 -37.773  -6.837  1.00  0.00    -0.386 OA
ATOM     17  H   UNL     1      36.865 -37.550  -5.877  1.00  0.00     0.211 HD
ENDBRANCH  14  16
ENDBRANCH   2   9
TORSDOF 5
ENDMDL
MODEL 5
REMARK VINA RESULT:    -4.853      2.446      5.502
REMARK INTER + INTRA:          -7.140
REMARK INTER:                  -5.645
REMARK INTRA:                  -1.496
REMARK UNBOUND:                -1.010
REMARK SMILES CC(C)=CCC[C@H](C)[C@@H]1C=C[C@@](C)(O)CC1
REMARK SMILES IDX 8 1 7 2 6 3 5 4 4 5 2 6 1 7 3 8 9 9 16 10 10 11 15 12 11 13
REMARK SMILES IDX 12 14 13 15 14 16
REMARK H PARENT 14 17
REMARK Flexibility Score: inf
ROOT
ATOM      1  C   UNL     1      42.741 -41.592  -5.628  1.00  0.00     0.008 C 
ATOM      2  C   UNL     1      41.980 -40.784  -4.560  1.00  0.00    -0.007 C 
ENDROOT
BRANCH   2   3
ATOM      3  C   UNL     1      42.832 -39.585  -4.046  1.00  0.00     0.008 C 
BRANCH   3   4
ATOM      4  C   UNL     1      42.918 -39.509  -2.513  1.00  0.00     0.027 C 
BRANCH   4   5
ATOM      5  C   UNL     1      41.978 -40.489  -1.850  1.00  0.00    -0.028 C 
ATOM      6  C   UNL     1      40.795 -40.161  -1.281  1.00  0.00    -0.080 C 
ATOM      7  C   UNL     1      40.287 -38.742  -1.241  1.00  0.00     0.039 C 
ATOM      8  C   UNL     1      39.936 -41.236  -0.667  1.00  0.00     0.039 C 
ENDBRANCH   4   5
ENDBRANCH   3   4
ENDBRANCH   2   3
BRANCH   2   9
ATOM      9  C   UNL     1      40.586 -40.341  -5.097  1.00  0.00     0.014 C 
ATOM     10  C   UNL     1      39.439 -41.229  -4.528  1.00  0.00     0.011 C 
ATOM     11  C   UNL     1      40.322 -38.859  -4.903  1.00  0.00    -0.025 C 
ATOM     12  C   UNL     1      38.064 -40.523  -4.426  1.00  0.00     0.040 C 
ATOM     13  C   UNL     1      39.087 -38.367  -5.074  1.00  0.00     0.003 C 
ATOM     14  C   UNL     1      37.938 -39.302  -5.370  1.00  0.00     0.080 C 
ATOM     15  C   UNL     1      36.602 -38.575  -5.133  1.00  0.00     0.047 C 
BRANCH  14  16
ATOM     16  O   UNL     1      38.023 -39.707  -6.715  1.00  0.00    -0.386 OA
ATOM     17  H   UNL     1      37.295 -40.361  -6.884  1.00  0.00     0.211 HD
ENDBRANCH  14  16
ENDBRANCH   2   9
TORSDOF 5
ENDMDL
MODEL 6
REMARK VINA RESULT:    -4.782      3.697      6.318
REMARK INTER + INTRA:          -7.050
REMARK INTER:                  -6.260
REMARK INTRA:                  -0.790
REMARK UNBOUND:                -1.010
REMARK SMILES CC(C)=CCC[C@H](C)[C@@H]1C=C[C@@](C)(O)CC1
REMARK SMILES IDX 8 1 7 2 6 3 5 4 4 5 2 6 1 7 3 8 9 9 16 10 10 11 15 12 11 13
REMARK SMILES IDX 12 14 13 15 14 16
REMARK H PARENT 14 17
REMARK Flexibility Score: inf
ROOT
ATOM      1  C   UNL     1      39.062 -38.809  -3.493  1.00  0.00     0.008 C 
ATOM      2  C   UNL     1      39.882 -37.958  -4.480  1.00  0.00    -0.007 C 
ENDROOT
BRANCH   2   3
ATOM      3  C   UNL     1      41.376 -38.399  -4.501  1.00  0.00     0.008 C 
BRANCH   3   4
ATOM      4  C   UNL     1      41.637 -39.710  -3.741  1.00  0.00     0.027 C 
BRANCH   4   5
ATOM      5  C   UNL     1      42.814 -40.464  -4.314  1.00  0.00    -0.028 C 
ATOM      6  C   UNL     1      42.739 -41.366  -5.319  1.00  0.00    -0.080 C 
ATOM      7  C   UNL     1      41.434 -41.727  -5.981  1.00  0.00     0.039 C 
ATOM      8  C   UNL     1      43.992 -42.039  -5.816  1.00  0.00     0.039 C 
ENDBRANCH   4   5
ENDBRANCH   3   4
ENDBRANCH   2   3
BRANCH   2   9
ATOM      9  C   UNL     1      39.232 -37.982  -5.896  1.00  0.00     0.014 C 
ATOM     10  C   UNL     1      38.822 -39.425  -6.319  1.00  0.00     0.011 C 
ATOM     11  C   UNL     1      38.091 -36.991  -6.040  1.00  0.00    -0.025 C 
ATOM     12  C   UNL     1      37.631 -39.497  -7.308  1.00  0.00     0.040 C 
ATOM     13  C   UNL     1      37.270 -37.059  -7.096  1.00  0.00     0.003 C 
ATOM     14  C   UNL     1      37.419 -38.181  -8.097  1.00  0.00     0.080 C 
ATOM     15  C   UNL     1      36.153 -38.275  -8.966  1.00  0.00     0.047 C 
BRANCH  14  16
ATOM     16  O   UNL     1      38.534 -37.909  -8.912  1.00  0.00    -0.386 OA
ATOM     17  H   UNL     1      39.182 -38.654  -8.802  1.00  0.00     0.211 HD
ENDBRANCH  14  16
ENDBRANCH   2   9
TORSDOF 5
ENDMDL
MODEL 7
REMARK VINA RESULT:    -4.774      3.623      6.030
REMARK INTER + INTRA:          -7.040
REMARK INTER:                  -5.648
REMARK INTRA:                  -1.392
REMARK UNBOUND:                -1.010
REMARK SMILES CC(C)=CCC[C@H](C)[C@@H]1C=C[C@@](C)(O)CC1
REMARK SMILES IDX 8 1 7 2 6 3 5 4 4 5 2 6 1 7 3 8 9 9 16 10 10 11 15 12 11 13
REMARK SMILES IDX 12 14 13 15 14 16
REMARK H PARENT 14 17
REMARK Flexibility Score: inf
ROOT
ATOM      1  C   UNL     1      37.243 -41.283  -4.791  1.00  0.00     0.008 C 
ATOM      2  C   UNL     1      37.304 -39.828  -4.291  1.00  0.00    -0.007 C 
ENDROOT
BRANCH   2   3
ATOM      3  C   UNL     1      38.435 -39.640  -3.236  1.00  0.00     0.008 C 
BRANCH   3   4
ATOM      4  C   UNL     1      39.378 -40.850  -3.128  1.00  0.00     0.027 C 
BRANCH   4   5
ATOM      5  C   UNL     1      40.818 -40.460  -3.368  1.00  0.00    -0.028 C 
ATOM      6  C   UNL     1      41.478 -40.625  -4.537  1.00  0.00    -0.080 C 
ATOM      7  C   UNL     1      40.828 -41.240  -5.749  1.00  0.00     0.039 C 
ATOM      8  C   UNL     1      42.912 -40.176  -4.655  1.00  0.00     0.039 C 
ENDBRANCH   4   5
ENDBRANCH   3   4
ENDBRANCH   2   3
BRANCH   2   9
ATOM      9  C   UNL     1      37.435 -38.842  -5.490  1.00  0.00     0.014 C 
ATOM     10  C   UNL     1      38.476 -37.717  -5.201  1.00  0.00     0.011 C 
ATOM     11  C   UNL     1      37.696 -39.545  -6.809  1.00  0.00    -0.025 C 
ATOM     12  C   UNL     1      39.165 -37.133  -6.460  1.00  0.00     0.040 C 
ATOM     13  C   UNL     1      38.082 -38.842  -7.882  1.00  0.00     0.003 C 
ATOM     14  C   UNL     1      38.350 -37.361  -7.757  1.00  0.00     0.080 C 
ATOM     15  C   UNL     1      39.142 -36.870  -8.982  1.00  0.00     0.047 C 
BRANCH  14  16
ATOM     16  O   UNL     1      37.116 -36.686  -7.690  1.00  0.00    -0.386 OA
ATOM     17  H   UNL     1      36.495 -37.240  -7.148  1.00  0.00     0.211 HD
ENDBRANCH  14  16
ENDBRANCH   2   9
TORSDOF 5
ENDMDL
MODEL 8
REMARK VINA RESULT:    -4.618      2.111      3.556
REMARK INTER + INTRA:          -6.843
REMARK INTER:                  -5.960
REMARK INTRA:                  -0.883
REMARK UNBOUND:                -1.010
REMARK SMILES CC(C)=CCC[C@H](C)[C@@H]1C=C[C@@](C)(O)CC1
REMARK SMILES IDX 8 1 7 2 6 3 5 4 4 5 2 6 1 7 3 8 9 9 16 10 10 11 15 12 11 13
REMARK SMILES IDX 12 14 13 15 14 16
REMARK H PARENT 14 17
REMARK Flexibility Score: inf
ROOT
ATOM      1  C   UNL     1      41.196 -41.240  -5.621  1.00  0.00     0.008 C 
ATOM      2  C   UNL     1      40.231 -40.406  -4.758  1.00  0.00    -0.007 C 
ENDROOT
BRANCH   2   3
ATOM      3  C   UNL     1      38.870 -41.137  -4.565  1.00  0.00     0.008 C 
BRANCH   3   4
ATOM      4  C   UNL     1      37.680 -40.391  -5.190  1.00  0.00     0.027 C 
BRANCH   4   5
ATOM      5  C   UNL     1      38.075 -39.016  -5.676  1.00  0.00    -0.028 C 
ATOM      6  C   UNL     1      38.180 -38.657  -6.976  1.00  0.00    -0.080 C 
ATOM      7  C   UNL     1      37.915 -39.623  -8.103  1.00  0.00     0.039 C 
ATOM      8  C   UNL     1      38.566 -37.244  -7.334  1.00  0.00     0.039 C 
ENDBRANCH   4   5
ENDBRANCH   3   4
ENDBRANCH   2   3
BRANCH   2   9
ATOM      9  C   UNL     1      40.900 -40.021  -3.404  1.00  0.00     0.014 C 
ATOM     10  C   UNL     1      40.105 -40.583  -2.187  1.00  0.00     0.011 C 
ATOM     11  C   UNL     1      42.373 -40.382  -3.349  1.00  0.00    -0.025 C 
ATOM     12  C   UNL     1      40.960 -40.857  -0.925  1.00  0.00     0.040 C 
ATOM     13  C   UNL     1      43.030 -40.353  -2.181  1.00  0.00     0.003 C 
ATOM     14  C   UNL     1      42.282 -40.052  -0.903  1.00  0.00     0.080 C 
ATOM     15  C   UNL     1      43.139 -40.460   0.308  1.00  0.00     0.047 C 
BRANCH  14  16
ATOM     16  O   UNL     1      42.019 -38.670  -0.852  1.00  0.00    -0.386 OA
ATOM     17  H   UNL     1      41.777 -38.440   0.083  1.00  0.00     0.211 HD
ENDBRANCH  14  16
ENDBRANCH   2   9
TORSDOF 5
ENDMDL
MODEL 9
REMARK VINA RESULT:    -4.594      2.384      4.098
REMARK INTER + INTRA:          -6.812
REMARK INTER:                  -5.705
REMARK INTRA:                  -1.107
REMARK UNBOUND:                -1.010
REMARK SMILES CC(C)=CCC[C@H](C)[C@@H]1C=C[C@@](C)(O)CC1
REMARK SMILES IDX 8 1 7 2 6 3 5 4 4 5 2 6 1 7 3 8 9 9 16 10 10 11 15 12 11 13
REMARK SMILES IDX 12 14 13 15 14 16
REMARK H PARENT 14 17
REMARK Flexibility Score: inf
ROOT
ATOM      1  C   UNL     1      41.194 -41.627  -5.993  1.00  0.00     0.008 C 
ATOM      2  C   UNL     1      40.377 -40.568  -5.230  1.00  0.00    -0.007 C 
ENDROOT
BRANCH   2   3
ATOM      3  C   UNL     1      39.283 -41.231  -4.341  1.00  0.00     0.008 C 
BRANCH   3   4
ATOM      4  C   UNL     1      37.849 -40.901  -4.788  1.00  0.00     0.027 C 
BRANCH   4   5
ATOM      5  C   UNL     1      37.833 -39.922  -5.938  1.00  0.00    -0.028 C 
ATOM      6  C   UNL     1      37.289 -38.684  -5.891  1.00  0.00    -0.080 C 
ATOM      7  C   UNL     1      36.616 -38.147  -4.654  1.00  0.00     0.039 C 
ATOM      8  C   UNL     1      37.353 -37.792  -7.104  1.00  0.00     0.039 C 
ENDBRANCH   4   5
ENDBRANCH   3   4
ENDBRANCH   2   3
BRANCH   2   9
ATOM      9  C   UNL     1      41.319 -39.629  -4.418  1.00  0.00     0.014 C 
ATOM     10  C   UNL     1      40.567 -38.366  -3.898  1.00  0.00     0.011 C 
ATOM     11  C   UNL     1      42.067 -40.352  -3.314  1.00  0.00    -0.025 C 
ATOM     12  C   UNL     1      41.147 -37.756  -2.598  1.00  0.00     0.040 C 
ATOM     13  C   UNL     1      42.716 -39.655  -2.371  1.00  0.00     0.003 C 
ATOM     14  C   UNL     1      42.626 -38.147  -2.353  1.00  0.00     0.080 C 
ATOM     15  C   UNL     1      43.103 -37.614  -0.991  1.00  0.00     0.047 C 
BRANCH  14  16
ATOM     16  O   UNL     1      43.448 -37.636  -3.376  1.00  0.00    -0.386 OA
ATOM     17  H   UNL     1      42.871 -37.440  -4.161  1.00  0.00     0.211 HD
ENDBRANCH  14  16
ENDBRANCH   2   9
TORSDOF 5
ENDMDL
