MODEL 1
REMARK VINA RESULT:    -2.701      0.000      0.000
REMARK INTER + INTRA:          -2.938
REMARK INTER:                  -2.938
REMARK INTRA:                   0.000
REMARK UNBOUND:                 0.000
REMARK SMILES [NH3+]CC(=O)[O-]
REMARK SMILES IDX 2 1 1 2 3 6 4 7 5 8
REMARK H PARENT 1 3 1 4 1 5
REMARK Flexibility Score: inf
ROOT
ATOM      1  C   UNL     1      73.814  -8.835 -23.333  1.00  0.00     0.312 C 
ENDROOT
BRANCH   1   2
ATOM      2  N   UNL     1      72.678  -8.220 -22.649  1.00  0.00    -0.353 N 
ATOM      3  H   UNL     1      72.203  -7.536 -23.282  1.00  0.00     0.344 HD
ATOM      4  H   UNL     1      73.002  -7.733 -21.781  1.00  0.00     0.344 HD
ATOM      5  H   UNL     1      71.994  -8.967 -22.382  1.00  0.00     0.344 HD
ENDBRANCH   1   2
BRANCH   1   6
ATOM      6  C   UNL     1      73.923  -8.327 -24.737  1.00  0.00     0.096 C 
ATOM      7  O   UNL     1      72.926  -7.803 -25.299  1.00  0.00    -0.544 OA
ATOM      8  O   UNL     1      75.110  -8.478 -25.442  1.00  0.00    -0.544 OA
ENDBRANCH   1   6
TORSDOF 2
ENDMDL
MODEL 2
REMARK VINA RESULT:    -2.601      2.391      2.574
REMARK INTER + INTRA:          -2.829
REMARK INTER:                  -2.829
REMARK INTRA:                   0.000
REMARK UNBOUND:                 0.000
REMARK SMILES [NH3+]CC(=O)[O-]
REMARK SMILES IDX 2 1 1 2 3 6 4 7 5 8
REMARK H PARENT 1 3 1 4 1 5
REMARK Flexibility Score: inf
ROOT
ATOM      1  C   UNL     1      74.768  -8.533 -25.639  1.00  0.00     0.312 C 
ENDROOT
BRANCH   1   2
ATOM      2  N   UNL     1      74.234  -9.327 -26.745  1.00  0.00    -0.353 N 
ATOM      3  H   UNL     1      74.483  -8.884 -27.659  1.00  0.00     0.344 HD
ATOM      4  H   UNL     1      73.194  -9.406 -26.661  1.00  0.00     0.344 HD
ATOM      5  H   UNL     1      74.650 -10.287 -26.708  1.00  0.00     0.344 HD
ENDBRANCH   1   2
BRANCH   1   6
ATOM      6  C   UNL     1      73.730  -8.345 -24.576  1.00  0.00     0.096 C 
ATOM      7  O   UNL     1      72.625  -7.812 -24.857  1.00  0.00    -0.544 OA
ATOM      8  O   UNL     1      74.004  -8.711 -23.265  1.00  0.00    -0.544 OA
ENDBRANCH   1   6
TORSDOF 2
ENDMDL
MODEL 3
REMARK VINA RESULT:    -2.514      2.473      2.659
REMARK INTER + INTRA:          -2.735
REMARK INTER:                  -2.735
REMARK INTRA:                   0.000
REMARK UNBOUND:                 0.000
REMARK SMILES [NH3+]CC(=O)[O-]
REMARK SMILES IDX 2 1 1 2 3 6 4 7 5 8
REMARK H PARENT 1 3 1 4 1 5
REMARK Flexibility Score: inf
ROOT
ATOM      1  C   UNL     1      74.276  -8.516 -25.481  1.00  0.00     0.312 C 
ENDROOT
BRANCH   1   2
ATOM      2  N   UNL     1      72.816  -8.561 -25.539  1.00  0.00    -0.353 N 
ATOM      3  H   UNL     1      72.451  -9.276 -24.870  1.00  0.00     0.344 HD
ATOM      4  H   UNL     1      72.503  -8.793 -26.511  1.00  0.00     0.344 HD
ATOM      5  H   UNL     1      72.434  -7.623 -25.276  1.00  0.00     0.344 HD
ENDBRANCH   1   2
BRANCH   1   6
ATOM      6  C   UNL     1      74.868  -8.807 -26.825  1.00  0.00     0.096 C 
ATOM      7  O   UNL     1      74.648  -9.912 -27.387  1.00  0.00    -0.544 OA
ATOM      8  O   UNL     1      75.703  -7.879 -27.433  1.00  0.00    -0.544 OA
ENDBRANCH   1   6
TORSDOF 2
ENDMDL
MODEL 4
REMARK VINA RESULT:    -2.500      2.260      2.790
REMARK INTER + INTRA:          -2.719
REMARK INTER:                  -2.719
REMARK INTRA:                   0.000
REMARK UNBOUND:                 0.000
REMARK SMILES [NH3+]CC(=O)[O-]
REMARK SMILES IDX 2 1 1 2 3 6 4 7 5 8
REMARK H PARENT 1 3 1 4 1 5
REMARK Flexibility Score: inf
ROOT
ATOM      1  C   UNL     1      73.972  -8.414 -24.749  1.00  0.00     0.312 C 
ENDROOT
BRANCH   1   2
ATOM      2  N   UNL     1      73.038  -7.659 -25.583  1.00  0.00    -0.353 N 
ATOM      3  H   UNL     1      72.718  -8.247 -26.387  1.00  0.00     0.344 HD
ATOM      4  H   UNL     1      73.499  -6.790 -25.942  1.00  0.00     0.344 HD
ATOM      5  H   UNL     1      72.207  -7.389 -25.008  1.00  0.00     0.344 HD
ENDBRANCH   1   2
BRANCH   1   6
ATOM      6  C   UNL     1      73.416  -8.600 -23.371  1.00  0.00     0.096 C 
ATOM      7  O   UNL     1      73.942  -9.429 -22.583  1.00  0.00    -0.544 OA
ATOM      8  O   UNL     1      72.286  -7.896 -22.976  1.00  0.00    -0.544 OA
ENDBRANCH   1   6
TORSDOF 2
ENDMDL
MODEL 5
REMARK VINA RESULT:    -2.310     10.069     10.393
REMARK INTER + INTRA:          -2.513
REMARK INTER:                  -2.513
REMARK INTRA:                   0.000
REMARK UNBOUND:                 0.000
REMARK SMILES [NH3+]CC(=O)[O-]
REMARK SMILES IDX 2 1 1 2 3 6 4 7 5 8
REMARK H PARENT 1 3 1 4 1 5
REMARK Flexibility Score: inf
ROOT
ATOM      1  C   UNL     1      77.076 -17.047 -25.298  1.00  0.00     0.312 C 
ENDROOT
BRANCH   1   2
ATOM      2  N   UNL     1      75.979 -16.313 -24.668  1.00  0.00    -0.353 N 
ATOM      3  H   UNL     1      76.347 -15.465 -24.179  1.00  0.00     0.344 HD
ATOM      4  H   UNL     1      75.483 -16.929 -23.982  1.00  0.00     0.344 HD
ATOM      5  H   UNL     1      75.300 -16.013 -25.405  1.00  0.00     0.344 HD
ENDBRANCH   1   2
BRANCH   1   6
ATOM      6  C   UNL     1      77.069 -18.480 -24.865  1.00  0.00     0.096 C 
ATOM      7  O   UNL     1      76.815 -18.779 -23.669  1.00  0.00    -0.544 OA
ATOM      8  O   UNL     1      77.394 -19.482 -25.772  1.00  0.00    -0.544 OA
ENDBRANCH   1   6
TORSDOF 2
ENDMDL
MODEL 6
REMARK VINA RESULT:    -2.201     13.143     13.519
REMARK INTER + INTRA:          -2.394
REMARK INTER:                  -2.394
REMARK INTRA:                   0.000
REMARK UNBOUND:                 0.000
REMARK SMILES [NH3+]CC(=O)[O-]
REMARK SMILES IDX 2 1 1 2 3 6 4 7 5 8
REMARK H PARENT 1 3 1 4 1 5
REMARK Flexibility Score: inf
ROOT
ATOM      1  C   UNL     1      77.442 -21.682 -20.319  1.00  0.00     0.312 C 
ENDROOT
BRANCH   1   2
ATOM      2  N   UNL     1      76.238 -22.446 -19.999  1.00  0.00    -0.353 N 
ATOM      3  H   UNL     1      76.211 -23.328 -20.562  1.00  0.00     0.344 HD
ATOM      4  H   UNL     1      75.385 -21.873 -20.199  1.00  0.00     0.344 HD
ATOM      5  H   UNL     1      76.248 -22.693 -18.982  1.00  0.00     0.344 HD
ENDBRANCH   1   2
BRANCH   1   6
ATOM      6  C   UNL     1      77.131 -20.220 -20.410  1.00  0.00     0.096 C 
ATOM      7  O   UNL     1      77.501 -19.436 -19.498  1.00  0.00    -0.544 OA
ATOM      8  O   UNL     1      76.388 -19.733 -21.478  1.00  0.00    -0.544 OA
ENDBRANCH   1   6
TORSDOF 2
ENDMDL
MODEL 7
REMARK VINA RESULT:    -2.167     10.135     10.408
REMARK INTER + INTRA:          -2.357
REMARK INTER:                  -2.357
REMARK INTRA:                   0.000
REMARK UNBOUND:                 0.000
REMARK SMILES [NH3+]CC(=O)[O-]
REMARK SMILES IDX 2 1 1 2 3 6 4 7 5 8
REMARK H PARENT 1 3 1 4 1 5
REMARK Flexibility Score: inf
ROOT
ATOM      1  C   UNL     1      77.304 -19.003 -24.269  1.00  0.00     0.312 C 
ENDROOT
BRANCH   1   2
ATOM      2  N   UNL     1      76.177 -19.005 -23.337  1.00  0.00    -0.353 N 
ATOM      3  H   UNL     1      75.462 -19.705 -23.639  1.00  0.00     0.344 HD
ATOM      4  H   UNL     1      75.745 -18.052 -23.295  1.00  0.00     0.344 HD
ATOM      5  H   UNL     1      76.523 -19.261 -22.383  1.00  0.00     0.344 HD
ENDBRANCH   1   2
BRANCH   1   6
ATOM      6  C   UNL     1      77.168 -17.887 -25.258  1.00  0.00     0.096 C 
ATOM      7  O   UNL     1      76.552 -16.835 -24.945  1.00  0.00    -0.544 OA
ATOM      8  O   UNL     1      77.680 -18.030 -26.542  1.00  0.00    -0.544 OA
ENDBRANCH   1   6
TORSDOF 2
ENDMDL
MODEL 8
REMARK VINA RESULT:    -2.157     12.178     12.364
REMARK INTER + INTRA:          -2.346
REMARK INTER:                  -2.346
REMARK INTRA:                   0.000
REMARK UNBOUND:                 0.000
REMARK SMILES [NH3+]CC(=O)[O-]
REMARK SMILES IDX 2 1 1 2 3 6 4 7 5 8
REMARK H PARENT 1 3 1 4 1 5
REMARK Flexibility Score: inf
ROOT
ATOM      1  C   UNL     1      78.116 -19.918 -20.626  1.00  0.00     0.312 C 
ENDROOT
BRANCH   1   2
ATOM      2  N   UNL     1      77.246 -19.590 -19.497  1.00  0.00    -0.353 N 
ATOM      3  H   UNL     1      76.531 -20.342 -19.364  1.00  0.00     0.344 HD
ATOM      4  H   UNL     1      76.769 -18.674 -19.667  1.00  0.00     0.344 HD
ATOM      5  H   UNL     1      77.826 -19.514 -18.629  1.00  0.00     0.344 HD
ENDBRANCH   1   2
BRANCH   1   6
ATOM      6  C   UNL     1      77.380 -19.769 -21.921  1.00  0.00     0.096 C 
ATOM      7  O   UNL     1      76.138 -19.563 -21.923  1.00  0.00    -0.544 OA
ATOM      8  O   UNL     1      78.056 -19.909 -23.126  1.00  0.00    -0.544 OA
ENDBRANCH   1   6
TORSDOF 2
ENDMDL
MODEL 9
REMARK VINA RESULT:    -2.109     11.346     11.652
REMARK INTER + INTRA:          -2.294
REMARK INTER:                  -2.294
REMARK INTRA:                   0.000
REMARK UNBOUND:                 0.000
REMARK SMILES [NH3+]CC(=O)[O-]
REMARK SMILES IDX 2 1 1 2 3 6 4 7 5 8
REMARK H PARENT 1 3 1 4 1 5
REMARK Flexibility Score: inf
ROOT
ATOM      1  C   UNL     1      77.051 -19.214 -24.202  1.00  0.00     0.312 C 
ENDROOT
BRANCH   1   2
ATOM      2  N   UNL     1      76.617 -17.853 -24.512  1.00  0.00    -0.353 N 
ATOM      3  H   UNL     1      75.850 -17.872 -25.223  1.00  0.00     0.344 HD
ATOM      4  H   UNL     1      77.424 -17.293 -24.876  1.00  0.00     0.344 HD
ATOM      5  H   UNL     1      76.259 -17.400 -23.639  1.00  0.00     0.344 HD
ENDBRANCH   1   2
BRANCH   1   6
ATOM      6  C   UNL     1      77.056 -19.442 -22.723  1.00  0.00     0.096 C 
ATOM      7  O   UNL     1      78.125 -19.746 -22.132  1.00  0.00    -0.544 OA
ATOM      8  O   UNL     1      75.869 -19.370 -22.004  1.00  0.00    -0.544 OA
ENDBRANCH   1   6
TORSDOF 2
ENDMDL
