MODEL 1
REMARK VINA RESULT:    -3.785      0.000      0.000
REMARK INTER + INTRA:          -6.100
REMARK INTER:                  -5.555
REMARK INTRA:                  -0.545
REMARK UNBOUND:                -0.545
REMARK SMILES O=C([O-])CCCCCCCC(=O)[O-]
REMARK SMILES IDX 7 1 6 2 5 3 4 4 2 5 1 6 3 7 8 8 9 9 10 10 11 11 12 12 13 13
REMARK H PARENT
REMARK Flexibility Score: inf
ROOT
ATOM      1  C   UNL     1      28.604  -2.583   7.606  1.00  0.00     0.000 C 
ENDROOT
BRANCH   1   2
ATOM      2  C   UNL     1      29.125  -1.448   8.500  1.00  0.00     0.000 C 
BRANCH   2   3
ATOM      3  C   UNL     1      29.108  -1.814   9.993  1.00  0.00     0.006 C 
BRANCH   3   4
ATOM      4  C   UNL     1      28.491  -0.712  10.864  1.00  0.00     0.053 C 
BRANCH   4   5
ATOM      5  C   UNL     1      27.060  -0.493  10.492  1.00  0.00     0.041 C 
ATOM      6  O   UNL     1      26.695   0.602   9.989  1.00  0.00    -0.550 OA
ATOM      7  O   UNL     1      26.134  -1.517  10.657  1.00  0.00    -0.550 OA
ENDBRANCH   4   5
ENDBRANCH   3   4
ENDBRANCH   2   3
ENDBRANCH   1   2
BRANCH   1   8
ATOM      8  C   UNL     1      27.704  -2.035   6.492  1.00  0.00     0.000 C 
BRANCH   8   9
ATOM      9  C   UNL     1      27.452  -0.532   6.677  1.00  0.00     0.006 C 
BRANCH   9  10
ATOM     10  C   UNL     1      27.810   0.277   5.423  1.00  0.00     0.053 C 
BRANCH  10  11
ATOM     11  C   UNL     1      27.693   1.751   5.661  1.00  0.00     0.041 C 
ATOM     12  O   UNL     1      28.370   2.304   6.566  1.00  0.00    -0.550 OA
ATOM     13  O   UNL     1      26.809   2.509   4.902  1.00  0.00    -0.550 OA
ENDBRANCH  10  11
ENDBRANCH   9  10
ENDBRANCH   8   9
ENDBRANCH   1   8
TORSDOF 8
ENDMDL
MODEL 2
REMARK VINA RESULT:    -3.710     11.241     12.353
REMARK INTER + INTRA:          -5.990
REMARK INTER:                  -5.346
REMARK INTRA:                  -0.644
REMARK UNBOUND:                -0.545
REMARK SMILES O=C([O-])CCCCCCCC(=O)[O-]
REMARK SMILES IDX 7 1 6 2 5 3 4 4 2 5 1 6 3 7 8 8 9 9 10 10 11 11 12 12 13 13
REMARK H PARENT
REMARK Flexibility Score: inf
ROOT
ATOM      1  C   UNL     1      24.847  -3.359  17.214  1.00  0.00     0.000 C 
ENDROOT
BRANCH   1   2
ATOM      2  C   UNL     1      25.859  -4.491  17.445  1.00  0.00     0.000 C 
BRANCH   2   3
ATOM      3  C   UNL     1      25.257  -5.676  18.216  1.00  0.00     0.006 C 
BRANCH   3   4
ATOM      4  C   UNL     1      23.782  -5.917  17.873  1.00  0.00     0.053 C 
BRANCH   4   5
ATOM      5  C   UNL     1      23.619  -7.218  17.154  1.00  0.00     0.041 C 
ATOM      6  O   UNL     1      24.624  -7.811  16.682  1.00  0.00    -0.550 OA
ATOM      7  O   UNL     1      22.363  -7.802  17.047  1.00  0.00    -0.550 OA
ENDBRANCH   4   5
ENDBRANCH   3   4
ENDBRANCH   2   3
ENDBRANCH   1   2
BRANCH   1   8
ATOM      8  C   UNL     1      25.070  -2.213  18.208  1.00  0.00     0.000 C 
BRANCH   8   9
ATOM      9  C   UNL     1      23.734  -1.586  18.634  1.00  0.00     0.006 C 
BRANCH   9  10
ATOM     10  C   UNL     1      22.528  -2.352  18.074  1.00  0.00     0.053 C 
BRANCH  10  11
ATOM     11  C   UNL     1      21.589  -2.779  19.159  1.00  0.00     0.041 C 
ATOM     12  O   UNL     1      21.821  -3.822  19.825  1.00  0.00    -0.550 OA
ATOM     13  O   UNL     1      20.439  -2.042  19.414  1.00  0.00    -0.550 OA
ENDBRANCH  10  11
ENDBRANCH   9  10
ENDBRANCH   8   9
ENDBRANCH   1   8
TORSDOF 8
ENDMDL
MODEL 3
REMARK VINA RESULT:    -3.707      2.104      4.411
REMARK INTER + INTRA:          -5.986
REMARK INTER:                  -5.169
REMARK INTRA:                  -0.817
REMARK UNBOUND:                -0.545
REMARK SMILES O=C([O-])CCCCCCCC(=O)[O-]
REMARK SMILES IDX 7 1 6 2 5 3 4 4 2 5 1 6 3 7 8 8 9 9 10 10 11 11 12 12 13 13
REMARK H PARENT
REMARK Flexibility Score: inf
ROOT
ATOM      1  C   UNL     1      27.673   0.467   5.537  1.00  0.00     0.000 C 
ENDROOT
BRANCH   1   2
ATOM      2  C   UNL     1      27.972   1.765   6.302  1.00  0.00     0.000 C 
BRANCH   2   3
ATOM      3  C   UNL     1      26.721   2.635   6.506  1.00  0.00     0.006 C 
BRANCH   3   4
ATOM      4  C   UNL     1      26.336   2.779   7.984  1.00  0.00     0.053 C 
BRANCH   4   5
ATOM      5  C   UNL     1      25.027   2.106   8.250  1.00  0.00     0.041 C 
ATOM      6  O   UNL     1      24.832   0.923   7.866  1.00  0.00    -0.550 OA
ATOM      7  O   UNL     1      24.036   2.770   8.963  1.00  0.00    -0.550 OA
ENDBRANCH   4   5
ENDBRANCH   3   4
ENDBRANCH   2   3
ENDBRANCH   1   2
BRANCH   1   8
ATOM      8  C   UNL     1      27.608  -0.730   6.494  1.00  0.00     0.000 C 
BRANCH   8   9
ATOM      9  C   UNL     1      28.283  -0.402   7.833  1.00  0.00     0.006 C 
BRANCH   9  10
ATOM     10  C   UNL     1      27.672  -1.188   9.001  1.00  0.00     0.053 C 
BRANCH  10  11
ATOM     11  C   UNL     1      27.652  -0.382  10.263  1.00  0.00     0.041 C 
ATOM     12  O   UNL     1      28.717  -0.177  10.902  1.00  0.00    -0.550 OA
ATOM     13  O   UNL     1      26.451   0.115  10.752  1.00  0.00    -0.550 OA
ENDBRANCH  10  11
ENDBRANCH   9  10
ENDBRANCH   8   9
ENDBRANCH   1   8
TORSDOF 8
ENDMDL
MODEL 4
REMARK VINA RESULT:    -3.681     11.356     12.431
REMARK INTER + INTRA:          -5.947
REMARK INTER:                  -5.265
REMARK INTRA:                  -0.682
REMARK UNBOUND:                -0.545
REMARK SMILES O=C([O-])CCCCCCCC(=O)[O-]
REMARK SMILES IDX 7 1 6 2 5 3 4 4 2 5 1 6 3 7 8 8 9 9 10 10 11 11 12 12 13 13
REMARK H PARENT
REMARK Flexibility Score: inf
ROOT
ATOM      1  C   UNL     1      24.942  -3.373  17.171  1.00  0.00     0.000 C 
ENDROOT
BRANCH   1   2
ATOM      2  C   UNL     1      24.982  -2.196  18.157  1.00  0.00     0.000 C 
BRANCH   2   3
ATOM      3  C   UNL     1      23.581  -1.754  18.610  1.00  0.00     0.006 C 
BRANCH   3   4
ATOM      4  C   UNL     1      22.476  -2.699  18.118  1.00  0.00     0.053 C 
BRANCH   4   5
ATOM      5  C   UNL     1      21.825  -3.386  19.275  1.00  0.00     0.041 C 
ATOM      6  O   UNL     1      22.358  -4.404  19.790  1.00  0.00    -0.550 OA
ATOM      7  O   UNL     1      20.653  -2.875  19.818  1.00  0.00    -0.550 OA
ENDBRANCH   4   5
ENDBRANCH   3   4
ENDBRANCH   2   3
ENDBRANCH   1   2
BRANCH   1   8
ATOM      8  C   UNL     1      25.919  -4.476  17.594  1.00  0.00     0.000 C 
BRANCH   8   9
ATOM      9  C   UNL     1      25.167  -5.752  17.999  1.00  0.00     0.006 C 
BRANCH   9  10
ATOM     10  C   UNL     1      24.003  -6.067  17.049  1.00  0.00     0.053 C 
BRANCH  10  11
ATOM     11  C   UNL     1      23.705  -7.534  17.004  1.00  0.00     0.041 C 
ATOM     12  O   UNL     1      24.623  -8.362  16.767  1.00  0.00    -0.550 OA
ATOM     13  O   UNL     1      22.405  -7.985  17.193  1.00  0.00    -0.550 OA
ENDBRANCH  10  11
ENDBRANCH   9  10
ENDBRANCH   8   9
ENDBRANCH   1   8
TORSDOF 8
ENDMDL
MODEL 5
REMARK VINA RESULT:    -3.672     10.679     12.405
REMARK INTER + INTRA:          -5.934
REMARK INTER:                  -5.228
REMARK INTRA:                  -0.706
REMARK UNBOUND:                -0.545
REMARK SMILES O=C([O-])CCCCCCCC(=O)[O-]
REMARK SMILES IDX 7 1 6 2 5 3 4 4 2 5 1 6 3 7 8 8 9 9 10 10 11 11 12 12 13 13
REMARK H PARENT
REMARK Flexibility Score: inf
ROOT
ATOM      1  C   UNL     1      23.503  -1.782  18.763  1.00  0.00     0.000 C 
ENDROOT
BRANCH   1   2
ATOM      2  C   UNL     1      22.323  -2.632  18.267  1.00  0.00     0.000 C 
BRANCH   2   3
ATOM      3  C   UNL     1      21.712  -3.502  19.377  1.00  0.00     0.006 C 
BRANCH   3   4
ATOM      4  C   UNL     1      22.320  -4.910  19.426  1.00  0.00     0.053 C 
BRANCH   4   5
ATOM      5  C   UNL     1      21.564  -5.836  18.528  1.00  0.00     0.041 C 
ATOM      6  O   UNL     1      20.320  -5.705  18.384  1.00  0.00    -0.550 OA
ATOM      7  O   UNL     1      22.240  -6.816  17.811  1.00  0.00    -0.550 OA
ENDBRANCH   4   5
ENDBRANCH   3   4
ENDBRANCH   2   3
ENDBRANCH   1   2
BRANCH   1   8
ATOM      8  C   UNL     1      24.719  -1.944  17.843  1.00  0.00     0.000 C 
BRANCH   8   9
ATOM      9  C   UNL     1      24.723  -3.326  17.173  1.00  0.00     0.006 C 
BRANCH   9  10
ATOM     10  C   UNL     1      25.740  -4.279  17.815  1.00  0.00     0.053 C 
BRANCH  10  11
ATOM     11  C   UNL     1      25.509  -5.699  17.399  1.00  0.00     0.041 C 
ATOM     12  O   UNL     1      25.778  -6.644  18.186  1.00  0.00    -0.550 OA
ATOM     13  O   UNL     1      25.025  -5.981  16.127  1.00  0.00    -0.550 OA
ENDBRANCH  10  11
ENDBRANCH   9  10
ENDBRANCH   8   9
ENDBRANCH   1   8
TORSDOF 8
ENDMDL
MODEL 6
REMARK VINA RESULT:    -3.663      9.415     10.834
REMARK INTER + INTRA:          -5.920
REMARK INTER:                  -5.493
REMARK INTRA:                  -0.427
REMARK UNBOUND:                -0.545
REMARK SMILES O=C([O-])CCCCCCCC(=O)[O-]
REMARK SMILES IDX 7 1 6 2 5 3 4 4 2 5 1 6 3 7 8 8 9 9 10 10 11 11 12 12 13 13
REMARK H PARENT
REMARK Flexibility Score: inf
ROOT
ATOM      1  C   UNL     1      25.071  -2.244  18.209  1.00  0.00     0.000 C 
ENDROOT
BRANCH   1   2
ATOM      2  C   UNL     1      24.946  -3.288  17.090  1.00  0.00     0.000 C 
BRANCH   2   3
ATOM      3  C   UNL     1      25.591  -4.634  17.460  1.00  0.00     0.006 C 
BRANCH   3   4
ATOM      4  C   UNL     1      25.066  -5.195  18.788  1.00  0.00     0.053 C 
BRANCH   4   5
ATOM      5  C   UNL     1      23.623  -5.564  18.664  1.00  0.00     0.041 C 
ATOM      6  O   UNL     1      22.752  -4.953  19.338  1.00  0.00    -0.550 OA
ATOM      7  O   UNL     1      23.232  -6.551  17.768  1.00  0.00    -0.550 OA
ENDBRANCH   4   5
ENDBRANCH   3   4
ENDBRANCH   2   3
ENDBRANCH   1   2
BRANCH   1   8
ATOM      8  C   UNL     1      23.767  -1.455  18.372  1.00  0.00     0.000 C 
BRANCH   8   9
ATOM      9  C   UNL     1      23.419  -0.695  17.084  1.00  0.00     0.006 C 
BRANCH   9  10
ATOM     10  C   UNL     1      23.130   0.790  17.344  1.00  0.00     0.053 C 
BRANCH  10  11
ATOM     11  C   UNL     1      23.700   1.663  16.269  1.00  0.00     0.041 C 
ATOM     12  O   UNL     1      23.632   1.310  15.062  1.00  0.00    -0.550 OA
ATOM     13  O   UNL     1      24.336   2.852  16.602  1.00  0.00    -0.550 OA
ENDBRANCH  10  11
ENDBRANCH   9  10
ENDBRANCH   8   9
ENDBRANCH   1   8
TORSDOF 8
ENDMDL
MODEL 7
REMARK VINA RESULT:    -3.638      3.199      4.659
REMARK INTER + INTRA:          -5.884
REMARK INTER:                  -5.294
REMARK INTRA:                  -0.591
REMARK UNBOUND:                -0.545
REMARK SMILES O=C([O-])CCCCCCCC(=O)[O-]
REMARK SMILES IDX 7 1 6 2 5 3 4 4 2 5 1 6 3 7 8 8 9 9 10 10 11 11 12 12 13 13
REMARK H PARENT
REMARK Flexibility Score: inf
ROOT
ATOM      1  C   UNL     1      28.438  -2.330   8.437  1.00  0.00     0.000 C 
ENDROOT
BRANCH   1   2
ATOM      2  C   UNL     1      28.775  -3.254   7.256  1.00  0.00     0.000 C 
BRANCH   2   3
ATOM      3  C   UNL     1      27.526  -3.708   6.484  1.00  0.00     0.006 C 
BRANCH   3   4
ATOM      4  C   UNL     1      27.597  -3.363   4.991  1.00  0.00     0.053 C 
BRANCH   4   5
ATOM      5  C   UNL     1      27.604  -4.611   4.167  1.00  0.00     0.041 C 
ATOM      6  O   UNL     1      27.748  -5.734   4.718  1.00  0.00    -0.550 OA
ATOM      7  O   UNL     1      27.403  -4.539   2.794  1.00  0.00    -0.550 OA
ENDBRANCH   4   5
ENDBRANCH   3   4
ENDBRANCH   2   3
ENDBRANCH   1   2
BRANCH   1   8
ATOM      8  C   UNL     1      28.739  -0.867   8.092  1.00  0.00     0.000 C 
BRANCH   8   9
ATOM      9  C   UNL     1      27.482  -0.154   7.573  1.00  0.00     0.006 C 
BRANCH   9  10
ATOM     10  C   UNL     1      27.605   0.239   6.095  1.00  0.00     0.053 C 
BRANCH  10  11
ATOM     11  C   UNL     1      27.451   1.715   5.898  1.00  0.00     0.041 C 
ATOM     12  O   UNL     1      26.838   2.162   4.893  1.00  0.00    -0.550 OA
ATOM     13  O   UNL     1      28.013   2.601   6.810  1.00  0.00    -0.550 OA
ENDBRANCH  10  11
ENDBRANCH   9  10
ENDBRANCH   8   9
ENDBRANCH   1   8
TORSDOF 8
ENDMDL
MODEL 8
REMARK VINA RESULT:    -2.783      2.284      5.072
REMARK INTER + INTRA:          -4.630
REMARK INTER:                  -4.032
REMARK INTRA:                  -0.598
REMARK UNBOUND:                -0.545
REMARK SMILES O=C([O-])CCCCCCCC(=O)[O-]
REMARK SMILES IDX 7 1 6 2 5 3 4 4 2 5 1 6 3 7 8 8 9 9 10 10 11 11 12 12 13 13
REMARK H PARENT
REMARK Flexibility Score: inf
ROOT
ATOM      1  C   UNL     1      26.230  -0.229   9.186  1.00  0.00     0.000 C 
ENDROOT
BRANCH   1   2
ATOM      2  C   UNL     1      26.039   0.282   7.750  1.00  0.00     0.000 C 
BRANCH   2   3
ATOM      3  C   UNL     1      25.948   1.814   7.673  1.00  0.00     0.006 C 
BRANCH   3   4
ATOM      4  C   UNL     1      27.014   2.424   6.753  1.00  0.00     0.053 C 
BRANCH   4   5
ATOM      5  C   UNL     1      27.059   1.690   5.451  1.00  0.00     0.041 C 
ATOM      6  O   UNL     1      28.007   0.901   5.201  1.00  0.00    -0.550 OA
ATOM      7  O   UNL     1      26.028   1.841   4.531  1.00  0.00    -0.550 OA
ENDBRANCH   4   5
ENDBRANCH   3   4
ENDBRANCH   2   3
ENDBRANCH   1   2
BRANCH   1   8
ATOM      8  C   UNL     1      27.672  -0.010   9.659  1.00  0.00     0.000 C 
BRANCH   8   9
ATOM      9  C   UNL     1      28.677  -0.524   8.618  1.00  0.00     0.006 C 
BRANCH   9  10
ATOM     10  C   UNL     1      29.099  -1.975   8.886  1.00  0.00     0.053 C 
BRANCH  10  11
ATOM     11  C   UNL     1      28.720  -2.881   7.756  1.00  0.00     0.041 C 
ATOM     12  O   UNL     1      28.009  -2.453   6.809  1.00  0.00    -0.550 OA
ATOM     13  O   UNL     1      29.125  -4.210   7.764  1.00  0.00    -0.550 OA
ENDBRANCH  10  11
ENDBRANCH   9  10
ENDBRANCH   8   9
ENDBRANCH   1   8
TORSDOF 8
ENDMDL
