MODEL 1
REMARK VINA RESULT:    -3.485      0.000      0.000
REMARK INTER + INTRA:          -8.767
REMARK INTER:                  -7.968
REMARK INTRA:                  -0.798
REMARK UNBOUND:                -0.798
REMARK SMILES CCCCCCCCCCCCCCCCCCCCCCCC(=O)[O-]
REMARK SMILES IDX 13 1 14 2 15 3 16 4 17 5 18 6 19 7 20 8 21 9 22 10 23 11
REMARK SMILES IDX 24 12 25 13 26 14 12 15 11 16 10 17 9 18 8 19 7 20 6 21 5 22
REMARK SMILES IDX 4 23 3 24 2 25 1 26
REMARK H PARENT
REMARK Flexibility Score: inf
ROOT
ATOM      1  C   UNL     1       1.189   1.272  10.124  1.00  0.00     0.000 C 
ENDROOT
BRANCH   1   2
ATOM      2  C   UNL     1       0.114   0.557   9.280  1.00  0.00     0.000 C 
BRANCH   2   3
ATOM      3  C   UNL     1      -0.957  -0.201  10.085  1.00  0.00     0.000 C 
BRANCH   3   4
ATOM      4  C   UNL     1      -1.118  -1.664   9.638  1.00  0.00     0.000 C 
BRANCH   4   5
ATOM      5  C   UNL     1      -2.591  -2.099   9.542  1.00  0.00     0.000 C 
BRANCH   5   6
ATOM      6  C   UNL     1      -2.908  -3.491  10.124  1.00  0.00     0.000 C 
BRANCH   6   7
ATOM      7  C   UNL     1      -3.759  -4.405   9.224  1.00  0.00     0.000 C 
BRANCH   7   8
ATOM      8  C   UNL     1      -4.648  -5.372  10.024  1.00  0.00     0.000 C 
BRANCH   8   9
ATOM      9  C   UNL     1      -4.360  -6.853   9.710  1.00  0.00     0.000 C 
BRANCH   9  10
ATOM     10  C   UNL     1      -5.471  -7.837  10.116  1.00  0.00     0.006 C 
BRANCH  10  11
ATOM     11  C   UNL     1      -6.410  -8.192   8.955  1.00  0.00     0.053 C 
BRANCH  11  12
ATOM     12  C   UNL     1      -7.574  -7.253   8.919  1.00  0.00     0.041 C 
ATOM     13  O   UNL     1      -8.221  -7.085   7.852  1.00  0.00    -0.550 OA
ATOM     14  O   UNL     1      -7.976  -6.598  10.076  1.00  0.00    -0.550 OA
ENDBRANCH  11  12
ENDBRANCH  10  11
ENDBRANCH   9  10
ENDBRANCH   8   9
ENDBRANCH   7   8
ENDBRANCH   6   7
ENDBRANCH   5   6
ENDBRANCH   4   5
ENDBRANCH   3   4
ENDBRANCH   2   3
ENDBRANCH   1   2
BRANCH   1  15
ATOM     15  C   UNL     1       2.380   1.832   9.328  1.00  0.00     0.000 C 
BRANCH  15  16
ATOM     16  C   UNL     1       3.737   1.479   9.956  1.00  0.00     0.000 C 
BRANCH  16  17
ATOM     17  C   UNL     1       4.619   2.729  10.092  1.00  0.00     0.000 C 
BRANCH  17  18
ATOM     18  C   UNL     1       3.896   4.020   9.673  1.00  0.00    -0.000 C 
BRANCH  18  19
ATOM     19  C   UNL     1       4.798   5.266   9.566  1.00  0.00    -0.000 C 
BRANCH  19  20
ATOM     20  C   UNL     1       6.304   4.998   9.749  1.00  0.00    -0.000 C 
BRANCH  20  21
ATOM     21  C   UNL     1       7.089   4.764   8.441  1.00  0.00    -0.000 C 
BRANCH  21  22
ATOM     22  C   UNL     1       7.765   6.016   7.855  1.00  0.00    -0.000 C 
BRANCH  22  23
ATOM     23  C   UNL     1       7.293   7.317   8.521  1.00  0.00    -0.000 C 
BRANCH  23  24
ATOM     24  C   UNL     1       8.476   8.267   8.768  1.00  0.00    -0.000 C 
BRANCH  24  25
ATOM     25  C   UNL     1       8.137   9.384   9.766  1.00  0.00    -0.003 C 
ATOM     26  C   UNL     1       6.848  10.125   9.409  1.00  0.00     0.004 C 
ENDBRANCH  24  25
ENDBRANCH  23  24
ENDBRANCH  22  23
ENDBRANCH  21  22
ENDBRANCH  20  21
ENDBRANCH  19  20
ENDBRANCH  18  19
ENDBRANCH  17  18
ENDBRANCH  16  17
ENDBRANCH  15  16
ENDBRANCH   1  15
TORSDOF 22
ENDMDL
MODEL 2
REMARK VINA RESULT:    -3.376      1.216      2.014
REMARK INTER + INTRA:          -8.517
REMARK INTER:                  -7.663
REMARK INTRA:                  -0.853
REMARK UNBOUND:                -0.798
REMARK SMILES CCCCCCCCCCCCCCCCCCCCCCCC(=O)[O-]
REMARK SMILES IDX 13 1 14 2 15 3 16 4 17 5 18 6 19 7 20 8 21 9 22 10 23 11
REMARK SMILES IDX 24 12 25 13 26 14 12 15 11 16 10 17 9 18 8 19 7 20 6 21 5 22
REMARK SMILES IDX 4 23 3 24 2 25 1 26
REMARK H PARENT
REMARK Flexibility Score: inf
ROOT
ATOM      1  C   UNL     1       1.459   1.866  10.097  1.00  0.00     0.000 C 
ENDROOT
BRANCH   1   2
ATOM      2  C   UNL     1       0.903   0.636   9.350  1.00  0.00     0.000 C 
BRANCH   2   3
ATOM      3  C   UNL     1      -0.570   0.299   9.644  1.00  0.00     0.000 C 
BRANCH   3   4
ATOM      4  C   UNL     1      -0.831  -1.214   9.735  1.00  0.00     0.000 C 
BRANCH   4   5
ATOM      5  C   UNL     1      -2.303  -1.548  10.035  1.00  0.00     0.000 C 
BRANCH   5   6
ATOM      6  C   UNL     1      -2.635  -3.051  10.125  1.00  0.00     0.000 C 
BRANCH   6   7
ATOM      7  C   UNL     1      -4.122  -3.410   9.961  1.00  0.00     0.000 C 
BRANCH   7   8
ATOM      8  C   UNL     1      -4.336  -4.814   9.370  1.00  0.00     0.000 C 
BRANCH   8   9
ATOM      9  C   UNL     1      -5.550  -5.543   9.977  1.00  0.00     0.000 C 
BRANCH   9  10
ATOM     10  C   UNL     1      -6.093  -6.718   9.144  1.00  0.00     0.006 C 
BRANCH  10  11
ATOM     11  C   UNL     1      -7.273  -7.433   9.815  1.00  0.00     0.053 C 
BRANCH  11  12
ATOM     12  C   UNL     1      -8.394  -7.617   8.842  1.00  0.00     0.041 C 
ATOM     13  O   UNL     1      -8.155  -7.707   7.609  1.00  0.00    -0.550 OA
ATOM     14  O   UNL     1      -9.700  -7.740   9.300  1.00  0.00    -0.550 OA
ENDBRANCH  11  12
ENDBRANCH  10  11
ENDBRANCH   9  10
ENDBRANCH   8   9
ENDBRANCH   7   8
ENDBRANCH   6   7
ENDBRANCH   5   6
ENDBRANCH   4   5
ENDBRANCH   3   4
ENDBRANCH   2   3
ENDBRANCH   1   2
BRANCH   1  15
ATOM     15  C   UNL     1       2.358   2.791   9.257  1.00  0.00     0.000 C 
BRANCH  15  16
ATOM     16  C   UNL     1       3.783   2.909   9.818  1.00  0.00     0.000 C 
BRANCH  16  17
ATOM     17  C   UNL     1       4.142   4.376  10.094  1.00  0.00     0.000 C 
BRANCH  17  18
ATOM     18  C   UNL     1       5.463   4.803   9.431  1.00  0.00    -0.000 C 
BRANCH  18  19
ATOM     19  C   UNL     1       5.425   6.176   8.730  1.00  0.00    -0.000 C 
BRANCH  19  20
ATOM     20  C   UNL     1       4.396   7.171   9.300  1.00  0.00    -0.000 C 
BRANCH  20  21
ATOM     21  C   UNL     1       4.998   8.350  10.092  1.00  0.00    -0.000 C 
BRANCH  21  22
ATOM     22  C   UNL     1       5.862   9.317   9.264  1.00  0.00    -0.000 C 
BRANCH  22  23
ATOM     23  C   UNL     1       6.869  10.101  10.118  1.00  0.00    -0.000 C 
BRANCH  23  24
ATOM     24  C   UNL     1       8.309   9.825   9.659  1.00  0.00    -0.000 C 
BRANCH  24  25
ATOM     25  C   UNL     1       8.577   8.333   9.420  1.00  0.00    -0.003 C 
ATOM     26  C   UNL     1      10.062   7.977   9.500  1.00  0.00     0.004 C 
ENDBRANCH  24  25
ENDBRANCH  23  24
ENDBRANCH  22  23
ENDBRANCH  21  22
ENDBRANCH  20  21
ENDBRANCH  19  20
ENDBRANCH  18  19
ENDBRANCH  17  18
ENDBRANCH  16  17
ENDBRANCH  15  16
ENDBRANCH   1  15
TORSDOF 22
ENDMDL
MODEL 3
REMARK VINA RESULT:    -3.038      6.443     15.470
REMARK INTER + INTRA:          -7.744
REMARK INTER:                  -7.062
REMARK INTRA:                  -0.682
REMARK UNBOUND:                -0.798
REMARK SMILES CCCCCCCCCCCCCCCCCCCCCCCC(=O)[O-]
REMARK SMILES IDX 13 1 14 2 15 3 16 4 17 5 18 6 19 7 20 8 21 9 22 10 23 11
REMARK SMILES IDX 24 12 25 13 26 14 12 15 11 16 10 17 9 18 8 19 7 20 6 21 5 22
REMARK SMILES IDX 4 23 3 24 2 25 1 26
REMARK H PARENT
REMARK Flexibility Score: inf
ROOT
ATOM      1  C   UNL     1       0.508  -0.621   9.820  1.00  0.00     0.000 C 
ENDROOT
BRANCH   1   2
ATOM      2  C   UNL     1       0.327   0.911   9.844  1.00  0.00     0.000 C 
BRANCH   2   3
ATOM      3  C   UNL     1       1.613   1.721  10.088  1.00  0.00     0.000 C 
BRANCH   3   4
ATOM      4  C   UNL     1       2.878   1.000   9.590  1.00  0.00     0.000 C 
BRANCH   4   5
ATOM      5  C   UNL     1       4.175   1.644  10.112  1.00  0.00     0.000 C 
BRANCH   5   6
ATOM      6  C   UNL     1       4.267   3.174   9.941  1.00  0.00     0.000 C 
BRANCH   6   7
ATOM      7  C   UNL     1       5.672   3.775  10.123  1.00  0.00     0.000 C 
BRANCH   7   8
ATOM      8  C   UNL     1       5.884   5.058   9.301  1.00  0.00     0.000 C 
BRANCH   8   9
ATOM      9  C   UNL     1       7.212   5.059   8.520  1.00  0.00     0.000 C 
BRANCH   9  10
ATOM     10  C   UNL     1       7.943   6.413   8.470  1.00  0.00     0.006 C 
BRANCH  10  11
ATOM     11  C   UNL     1       7.308   7.470   9.383  1.00  0.00     0.053 C 
BRANCH  11  12
ATOM     12  C   UNL     1       8.186   8.678   9.471  1.00  0.00     0.041 C 
ATOM     13  O   UNL     1       7.759   9.734  10.008  1.00  0.00    -0.550 OA
ATOM     14  O   UNL     1       9.493   8.624   9.004  1.00  0.00    -0.550 OA
ENDBRANCH  11  12
ENDBRANCH  10  11
ENDBRANCH   9  10
ENDBRANCH   8   9
ENDBRANCH   7   8
ENDBRANCH   6   7
ENDBRANCH   5   6
ENDBRANCH   4   5
ENDBRANCH   3   4
ENDBRANCH   2   3
ENDBRANCH   1   2
BRANCH   1  15
ATOM     15  C   UNL     1      -0.782  -1.428   9.592  1.00  0.00     0.000 C 
BRANCH  15  16
ATOM     16  C   UNL     1      -2.036  -0.709  10.113  1.00  0.00     0.000 C 
BRANCH  16  17
ATOM     17  C   UNL     1      -3.302  -1.264   9.445  1.00  0.00     0.000 C 
BRANCH  17  18
ATOM     18  C   UNL     1      -3.125  -2.703   8.930  1.00  0.00    -0.000 C 
BRANCH  18  19
ATOM     19  C   UNL     1      -2.796  -3.748  10.015  1.00  0.00    -0.000 C 
BRANCH  19  20
ATOM     20  C   UNL     1      -3.799  -4.912  10.124  1.00  0.00    -0.000 C 
BRANCH  20  21
ATOM     21  C   UNL     1      -3.999  -5.725   8.829  1.00  0.00    -0.000 C 
BRANCH  21  22
ATOM     22  C   UNL     1      -4.551  -7.148   9.031  1.00  0.00    -0.000 C 
BRANCH  22  23
ATOM     23  C   UNL     1      -6.073  -7.175   9.234  1.00  0.00    -0.000 C 
BRANCH  23  24
ATOM     24  C   UNL     1      -6.754  -6.058   8.428  1.00  0.00    -0.000 C 
BRANCH  24  25
ATOM     25  C   UNL     1      -7.988  -5.485   9.140  1.00  0.00    -0.003 C 
ATOM     26  C   UNL     1      -9.122  -6.502   9.270  1.00  0.00     0.004 C 
ENDBRANCH  24  25
ENDBRANCH  23  24
ENDBRANCH  22  23
ENDBRANCH  21  22
ENDBRANCH  20  21
ENDBRANCH  19  20
ENDBRANCH  18  19
ENDBRANCH  17  18
ENDBRANCH  16  17
ENDBRANCH  15  16
ENDBRANCH   1  15
TORSDOF 22
ENDMDL
MODEL 4
REMARK VINA RESULT:    -2.198      6.033     15.500
REMARK INTER + INTRA:          -5.823
REMARK INTER:                  -5.247
REMARK INTRA:                  -0.575
REMARK UNBOUND:                -0.798
REMARK SMILES CCCCCCCCCCCCCCCCCCCCCCCC(=O)[O-]
REMARK SMILES IDX 13 1 14 2 15 3 16 4 17 5 18 6 19 7 20 8 21 9 22 10 23 11
REMARK SMILES IDX 24 12 25 13 26 14 12 15 11 16 10 17 9 18 8 19 7 20 6 21 5 22
REMARK SMILES IDX 4 23 3 24 2 25 1 26
REMARK H PARENT
REMARK Flexibility Score: inf
ROOT
ATOM      1  C   UNL     1       0.749   1.063   9.097  1.00  0.00     0.000 C 
ENDROOT
BRANCH   1   2
ATOM      2  C   UNL     1       1.894   1.398  10.074  1.00  0.00     0.000 C 
BRANCH   2   3
ATOM      3  C   UNL     1       3.312   1.099   9.554  1.00  0.00     0.000 C 
BRANCH   3   4
ATOM      4  C   UNL     1       4.363   2.093  10.075  1.00  0.00     0.000 C 
BRANCH   4   5
ATOM      5  C   UNL     1       4.376   3.414   9.285  1.00  0.00     0.000 C 
BRANCH   5   6
ATOM      6  C   UNL     1       4.152   4.688  10.125  1.00  0.00     0.000 C 
BRANCH   6   7
ATOM      7  C   UNL     1       4.067   6.000   9.325  1.00  0.00     0.000 C 
BRANCH   7   8
ATOM      8  C   UNL     1       4.807   7.164  10.005  1.00  0.00     0.000 C 
BRANCH   8   9
ATOM      9  C   UNL     1       5.202   8.282   9.022  1.00  0.00     0.000 C 
BRANCH   9  10
ATOM     10  C   UNL     1       6.226   9.297   9.560  1.00  0.00     0.006 C 
BRANCH  10  11
ATOM     11  C   UNL     1       7.537   9.307   8.763  1.00  0.00     0.053 C 
BRANCH  11  12
ATOM     12  C   UNL     1       7.957   7.910   8.433  1.00  0.00     0.041 C 
ATOM     13  O   UNL     1       7.936   7.015   9.319  1.00  0.00    -0.550 OA
ATOM     14  O   UNL     1       8.325   7.582   7.134  1.00  0.00    -0.550 OA
ENDBRANCH  11  12
ENDBRANCH  10  11
ENDBRANCH   9  10
ENDBRANCH   8   9
ENDBRANCH   7   8
ENDBRANCH   6   7
ENDBRANCH   5   6
ENDBRANCH   4   5
ENDBRANCH   3   4
ENDBRANCH   2   3
ENDBRANCH   1   2
BRANCH   1  15
ATOM     15  C   UNL     1      -0.670   1.267   9.657  1.00  0.00     0.000 C 
BRANCH  15  16
ATOM     16  C   UNL     1      -1.581   0.052   9.430  1.00  0.00     0.000 C 
BRANCH  16  17
ATOM     17  C   UNL     1      -0.798  -1.259   9.594  1.00  0.00     0.000 C 
BRANCH  17  18
ATOM     18  C   UNL     1      -1.667  -2.413  10.124  1.00  0.00    -0.000 C 
BRANCH  18  19
ATOM     19  C   UNL     1      -3.181  -2.255   9.876  1.00  0.00    -0.000 C 
BRANCH  19  20
ATOM     20  C   UNL     1      -3.875  -3.490   9.272  1.00  0.00    -0.000 C 
BRANCH  20  21
ATOM     21  C   UNL     1      -5.116  -3.984  10.043  1.00  0.00    -0.000 C 
BRANCH  21  22
ATOM     22  C   UNL     1      -6.011  -4.972   9.273  1.00  0.00    -0.000 C 
BRANCH  22  23
ATOM     23  C   UNL     1      -5.348  -6.341   9.064  1.00  0.00    -0.000 C 
BRANCH  23  24
ATOM     24  C   UNL     1      -6.406  -7.438   8.866  1.00  0.00    -0.000 C 
BRANCH  24  25
ATOM     25  C   UNL     1      -7.771  -6.872   8.447  1.00  0.00    -0.003 C 
ATOM     26  C   UNL     1      -8.872  -7.933   8.432  1.00  0.00     0.004 C 
ENDBRANCH  24  25
ENDBRANCH  23  24
ENDBRANCH  22  23
ENDBRANCH  21  22
ENDBRANCH  20  21
ENDBRANCH  19  20
ENDBRANCH  18  19
ENDBRANCH  17  18
ENDBRANCH  16  17
ENDBRANCH  15  16
ENDBRANCH   1  15
TORSDOF 22
ENDMDL
MODEL 5
REMARK VINA RESULT:    -1.980     20.235     21.577
REMARK INTER + INTRA:          -5.324
REMARK INTER:                  -4.458
REMARK INTRA:                  -0.866
REMARK UNBOUND:                -0.798
REMARK SMILES CCCCCCCCCCCCCCCCCCCCCCCC(=O)[O-]
REMARK SMILES IDX 13 1 14 2 15 3 16 4 17 5 18 6 19 7 20 8 21 9 22 10 23 11
REMARK SMILES IDX 24 12 25 13 26 14 12 15 11 16 10 17 9 18 8 19 7 20 6 21 5 22
REMARK SMILES IDX 4 23 3 24 2 25 1 26
REMARK H PARENT
REMARK Flexibility Score: inf
ROOT
ATOM      1  C   UNL     1      -3.030   3.175 -10.107  1.00  0.00     0.000 C 
ENDROOT
BRANCH   1   2
ATOM      2  C   UNL     1      -2.343   1.847  -9.729  1.00  0.00     0.000 C 
BRANCH   2   3
ATOM      3  C   UNL     1      -0.859   1.740 -10.123  1.00  0.00     0.000 C 
BRANCH   3   4
ATOM      4  C   UNL     1      -0.135   0.580  -9.417  1.00  0.00     0.000 C 
BRANCH   4   5
ATOM      5  C   UNL     1       1.390   0.775  -9.362  1.00  0.00     0.000 C 
BRANCH   5   6
ATOM      6  C   UNL     1       2.222  -0.315 -10.069  1.00  0.00     0.000 C 
BRANCH   6   7
ATOM      7  C   UNL     1       1.607  -1.725 -10.060  1.00  0.00     0.000 C 
BRANCH   7   8
ATOM      8  C   UNL     1       2.417  -2.725  -9.217  1.00  0.00     0.000 C 
BRANCH   8   9
ATOM      9  C   UNL     1       3.187  -3.748 -10.073  1.00  0.00     0.000 C 
BRANCH   9  10
ATOM     10  C   UNL     1       3.952  -4.823  -9.281  1.00  0.00     0.006 C 
BRANCH  10  11
ATOM     11  C   UNL     1       5.008  -5.550 -10.123  1.00  0.00     0.053 C 
BRANCH  11  12
ATOM     12  C   UNL     1       5.834  -6.451  -9.261  1.00  0.00     0.041 C 
ATOM     13  O   UNL     1       6.393  -7.465  -9.755  1.00  0.00    -0.550 OA
ATOM     14  O   UNL     1       6.028  -6.145  -7.919  1.00  0.00    -0.550 OA
ENDBRANCH  11  12
ENDBRANCH  10  11
ENDBRANCH   9  10
ENDBRANCH   8   9
ENDBRANCH   7   8
ENDBRANCH   6   7
ENDBRANCH   5   6
ENDBRANCH   4   5
ENDBRANCH   3   4
ENDBRANCH   2   3
ENDBRANCH   1   2
BRANCH   1  15
ATOM     15  C   UNL     1      -3.543   4.008  -8.918  1.00  0.00     0.000 C 
BRANCH  15  16
ATOM     16  C   UNL     1      -3.738   5.491  -9.268  1.00  0.00     0.000 C 
BRANCH  16  17
ATOM     17  C   UNL     1      -5.116   5.728  -9.901  1.00  0.00     0.000 C 
BRANCH  17  18
ATOM     18  C   UNL     1      -6.222   4.865  -9.268  1.00  0.00    -0.000 C 
BRANCH  18  19
ATOM     19  C   UNL     1      -7.561   5.593  -9.032  1.00  0.00    -0.000 C 
BRANCH  19  20
ATOM     20  C   UNL     1      -7.667   6.344  -7.691  1.00  0.00    -0.000 C 
BRANCH  20  21
ATOM     21  C   UNL     1      -8.513   7.633  -7.730  1.00  0.00    -0.000 C 
BRANCH  21  22
ATOM     22  C   UNL     1      -7.769   8.885  -8.229  1.00  0.00    -0.000 C 
BRANCH  22  23
ATOM     23  C   UNL     1      -6.958   8.628  -9.508  1.00  0.00    -0.000 C 
BRANCH  23  24
ATOM     24  C   UNL     1      -5.847   9.677  -9.673  1.00  0.00    -0.000 C 
BRANCH  24  25
ATOM     25  C   UNL     1      -4.441   9.069  -9.565  1.00  0.00    -0.003 C 
ATOM     26  C   UNL     1      -3.336  10.125  -9.591  1.00  0.00     0.004 C 
ENDBRANCH  24  25
ENDBRANCH  23  24
ENDBRANCH  22  23
ENDBRANCH  21  22
ENDBRANCH  20  21
ENDBRANCH  19  20
ENDBRANCH  18  19
ENDBRANCH  17  18
ENDBRANCH  16  17
ENDBRANCH  15  16
ENDBRANCH   1  15
TORSDOF 22
ENDMDL
MODEL 6
REMARK VINA RESULT:    -1.657      1.908      4.787
REMARK INTER + INTRA:          -4.586
REMARK INTER:                  -5.351
REMARK INTRA:                   0.765
REMARK UNBOUND:                -0.798
REMARK SMILES CCCCCCCCCCCCCCCCCCCCCCCC(=O)[O-]
REMARK SMILES IDX 13 1 14 2 15 3 16 4 17 5 18 6 19 7 20 8 21 9 22 10 23 11
REMARK SMILES IDX 24 12 25 13 26 14 12 15 11 16 10 17 9 18 8 19 7 20 6 21 5 22
REMARK SMILES IDX 4 23 3 24 2 25 1 26
REMARK H PARENT
REMARK Flexibility Score: inf
ROOT
ATOM      1  C   UNL     1      -2.941  -2.899  10.081  1.00  0.00     0.000 C 
ENDROOT
BRANCH   1   2
ATOM      2  C   UNL     1      -4.409  -2.525   9.788  1.00  0.00     0.000 C 
BRANCH   2   3
ATOM      3  C   UNL     1      -5.239  -3.618   9.092  1.00  0.00     0.000 C 
BRANCH   3   4
ATOM      4  C   UNL     1      -4.548  -4.992   9.103  1.00  0.00     0.000 C 
BRANCH   4   5
ATOM      5  C   UNL     1      -5.203  -5.981  10.084  1.00  0.00     0.000 C 
BRANCH   5   6
ATOM      6  C   UNL     1      -6.744  -6.037  10.035  1.00  0.00     0.000 C 
BRANCH   6   7
ATOM      7  C   UNL     1      -7.444  -4.704   9.717  1.00  0.00     0.000 C 
BRANCH   7   8
ATOM      8  C   UNL     1      -8.867  -4.893   9.164  1.00  0.00     0.000 C 
BRANCH   8   9
ATOM      9  C   UNL     1      -9.715  -5.863  10.008  1.00  0.00     0.000 C 
BRANCH   9  10
ATOM     10  C   UNL     1      -9.901  -7.267   9.404  1.00  0.00     0.006 C 
BRANCH  10  11
ATOM     11  C   UNL     1      -8.639  -7.790   8.705  1.00  0.00     0.053 C 
BRANCH  11  12
ATOM     12  C   UNL     1      -8.536  -9.275   8.857  1.00  0.00     0.041 C 
ATOM     13  O   UNL     1      -9.577  -9.979   8.927  1.00  0.00    -0.550 OA
ATOM     14  O   UNL     1      -7.289  -9.887   8.874  1.00  0.00    -0.550 OA
ENDBRANCH  11  12
ENDBRANCH  10  11
ENDBRANCH   9  10
ENDBRANCH   8   9
ENDBRANCH   7   8
ENDBRANCH   6   7
ENDBRANCH   5   6
ENDBRANCH   4   5
ENDBRANCH   3   4
ENDBRANCH   2   3
ENDBRANCH   1   2
BRANCH   1  15
ATOM     15  C   UNL     1      -1.898  -2.205   9.187  1.00  0.00     0.000 C 
BRANCH  15  16
ATOM     16  C   UNL     1      -0.831  -1.449   9.992  1.00  0.00     0.000 C 
BRANCH  16  17
ATOM     17  C   UNL     1      -0.247  -0.289   9.173  1.00  0.00     0.000 C 
BRANCH  17  18
ATOM     18  C   UNL     1      -0.147   1.019   9.976  1.00  0.00    -0.000 C 
BRANCH  18  19
ATOM     19  C   UNL     1       1.206   1.750   9.864  1.00  0.00    -0.000 C 
BRANCH  19  20
ATOM     20  C   UNL     1       2.445   0.871  10.125  1.00  0.00    -0.000 C 
BRANCH  20  21
ATOM     21  C   UNL     1       3.801   1.582   9.936  1.00  0.00    -0.000 C 
BRANCH  21  22
ATOM     22  C   UNL     1       3.708   3.054   9.497  1.00  0.00    -0.000 C 
BRANCH  22  23
ATOM     23  C   UNL     1       4.826   3.926  10.087  1.00  0.00    -0.000 C 
BRANCH  23  24
ATOM     24  C   UNL     1       4.743   5.363   9.551  1.00  0.00    -0.000 C 
BRANCH  24  25
ATOM     25  C   UNL     1       6.126   5.996   9.342  1.00  0.00    -0.003 C 
ATOM     26  C   UNL     1       7.086   5.084   8.578  1.00  0.00     0.004 C 
ENDBRANCH  24  25
ENDBRANCH  23  24
ENDBRANCH  22  23
ENDBRANCH  21  22
ENDBRANCH  20  21
ENDBRANCH  19  20
ENDBRANCH  18  19
ENDBRANCH  17  18
ENDBRANCH  16  17
ENDBRANCH  15  16
ENDBRANCH   1  15
TORSDOF 22
ENDMDL
