MODEL 1
REMARK VINA RESULT:    -5.066      0.000      0.000
REMARK INTER + INTRA:         -10.120
REMARK INTER:                  -9.212
REMARK INTRA:                  -0.909
REMARK UNBOUND:                -0.909
REMARK SMILES CCCCCCCCCCCCCCCC(=O)[O-]
REMARK SMILES IDX 9 1 10 2 11 3 12 4 13 5 14 6 15 7 16 8 17 9 18 10 8 11 7 12
REMARK SMILES IDX 6 13 5 14 4 15 3 16 2 17 1 18
REMARK H PARENT
REMARK Flexibility Score: inf
ROOT
ATOM      1  C   UNL     1       7.639 -15.391   6.462  1.00  0.00     0.000 C 
ENDROOT
BRANCH   1   2
ATOM      2  C   UNL     1       8.259 -14.106   7.043  1.00  0.00     0.000 C 
BRANCH   2   3
ATOM      3  C   UNL     1       8.122 -12.855   6.155  1.00  0.00     0.000 C 
BRANCH   3   4
ATOM      4  C   UNL     1       9.410 -12.026   5.988  1.00  0.00     0.000 C 
BRANCH   4   5
ATOM      5  C   UNL     1      10.007 -12.082   4.565  1.00  0.00     0.000 C 
BRANCH   5   6
ATOM      6  C   UNL     1      10.863 -10.850   4.236  1.00  0.00     0.006 C 
BRANCH   6   7
ATOM      7  C   UNL     1      12.023 -10.708   5.227  1.00  0.00     0.053 C 
BRANCH   7   8
ATOM      8  C   UNL     1      13.010  -9.696   4.737  1.00  0.00     0.041 C 
ATOM      9  O   UNL     1      12.637  -8.522   4.476  1.00  0.00    -0.550 OA
ATOM     10  O   UNL     1      14.351 -10.036   4.616  1.00  0.00    -0.550 OA
ENDBRANCH   7   8
ENDBRANCH   6   7
ENDBRANCH   5   6
ENDBRANCH   4   5
ENDBRANCH   3   4
ENDBRANCH   2   3
ENDBRANCH   1   2
BRANCH   1  11
ATOM     11  C   UNL     1       7.955 -15.586   4.970  1.00  0.00     0.000 C 
BRANCH  11  12
ATOM     12  C   UNL     1       6.936 -16.495   4.264  1.00  0.00    -0.000 C 
BRANCH  12  13
ATOM     13  C   UNL     1       5.653 -15.753   3.860  1.00  0.00    -0.000 C 
BRANCH  13  14
ATOM     14  C   UNL     1       4.423 -16.384   4.531  1.00  0.00    -0.000 C 
BRANCH  14  15
ATOM     15  C   UNL     1       3.477 -17.063   3.526  1.00  0.00    -0.000 C 
BRANCH  15  16
ATOM     16  C   UNL     1       3.740 -18.566   3.304  1.00  0.00    -0.000 C 
BRANCH  16  17
ATOM     17  C   UNL     1       4.089 -18.928   1.846  1.00  0.00    -0.003 C 
ATOM     18  C   UNL     1       3.755 -17.802   0.867  1.00  0.00     0.004 C 
ENDBRANCH  16  17
ENDBRANCH  15  16
ENDBRANCH  14  15
ENDBRANCH  13  14
ENDBRANCH  12  13
ENDBRANCH  11  12
ENDBRANCH   1  11
TORSDOF 14
ENDMDL
MODEL 2
REMARK VINA RESULT:    -4.996      3.274      6.024
REMARK INTER + INTRA:          -9.993
REMARK INTER:                  -8.989
REMARK INTRA:                  -1.004
REMARK UNBOUND:                -0.909
REMARK SMILES CCCCCCCCCCCCCCCC(=O)[O-]
REMARK SMILES IDX 9 1 10 2 11 3 12 4 13 5 14 6 15 7 16 8 17 9 18 10 8 11 7 12
REMARK SMILES IDX 6 13 5 14 4 15 3 16 2 17 1 18
REMARK H PARENT
REMARK Flexibility Score: inf
ROOT
ATOM      1  C   UNL     1       4.055 -18.706   3.387  1.00  0.00     0.000 C 
ENDROOT
BRANCH   1   2
ATOM      2  C   UNL     1       5.547 -19.053   3.551  1.00  0.00     0.000 C 
BRANCH   2   3
ATOM      3  C   UNL     1       6.485 -17.843   3.725  1.00  0.00     0.000 C 
BRANCH   3   4
ATOM      4  C   UNL     1       5.781 -16.478   3.841  1.00  0.00     0.000 C 
BRANCH   4   5
ATOM      5  C   UNL     1       6.210 -15.658   5.077  1.00  0.00     0.000 C 
BRANCH   5   6
ATOM      6  C   UNL     1       7.655 -15.951   5.506  1.00  0.00     0.006 C 
BRANCH   6   7
ATOM      7  C   UNL     1       7.955 -15.336   6.876  1.00  0.00     0.053 C 
BRANCH   7   8
ATOM      8  C   UNL     1       8.560 -13.977   6.721  1.00  0.00     0.041 C 
ATOM      9  O   UNL     1       9.697 -13.845   6.196  1.00  0.00    -0.550 OA
ATOM     10  O   UNL     1       7.847 -12.851   7.111  1.00  0.00    -0.550 OA
ENDBRANCH   7   8
ENDBRANCH   6   7
ENDBRANCH   5   6
ENDBRANCH   4   5
ENDBRANCH   3   4
ENDBRANCH   2   3
ENDBRANCH   1   2
BRANCH   1  11
ATOM     11  C   UNL     1       3.517 -19.033   1.984  1.00  0.00     0.000 C 
BRANCH  11  12
ATOM     12  C   UNL     1       3.785 -17.907   0.972  1.00  0.00    -0.000 C 
BRANCH  12  13
ATOM     13  C   UNL     1       5.037 -18.156   0.119  1.00  0.00    -0.000 C 
BRANCH  13  14
ATOM     14  C   UNL     1       4.652 -18.577  -1.308  1.00  0.00    -0.000 C 
BRANCH  14  15
ATOM     15  C   UNL     1       3.544 -17.698  -1.912  1.00  0.00    -0.000 C 
BRANCH  15  16
ATOM     16  C   UNL     1       2.550 -18.444  -2.824  1.00  0.00    -0.000 C 
BRANCH  16  17
ATOM     17  C   UNL     1       3.165 -18.920  -4.157  1.00  0.00    -0.003 C 
ATOM     18  C   UNL     1       4.069 -17.865  -4.795  1.00  0.00     0.004 C 
ENDBRANCH  16  17
ENDBRANCH  15  16
ENDBRANCH  14  15
ENDBRANCH  13  14
ENDBRANCH  12  13
ENDBRANCH  11  12
ENDBRANCH   1  11
TORSDOF 14
ENDMDL
MODEL 3
REMARK VINA RESULT:    -4.989      4.714      9.727
REMARK INTER + INTRA:          -9.981
REMARK INTER:                  -9.097
REMARK INTRA:                  -0.885
REMARK UNBOUND:                -0.909
REMARK SMILES CCCCCCCCCCCCCCCC(=O)[O-]
REMARK SMILES IDX 9 1 10 2 11 3 12 4 13 5 14 6 15 7 16 8 17 9 18 10 8 11 7 12
REMARK SMILES IDX 6 13 5 14 4 15 3 16 2 17 1 18
REMARK H PARENT
REMARK Flexibility Score: inf
ROOT
ATOM      1  C   UNL     1      13.141  -9.275   4.338  1.00  0.00     0.000 C 
ENDROOT
BRANCH   1   2
ATOM      2  C   UNL     1      12.641 -10.515   5.101  1.00  0.00     0.000 C 
BRANCH   2   3
ATOM      3  C   UNL     1      11.724 -11.454   4.294  1.00  0.00     0.000 C 
BRANCH   3   4
ATOM      4  C   UNL     1      10.804 -12.357   5.138  1.00  0.00     0.000 C 
BRANCH   4   5
ATOM      5  C   UNL     1       9.318 -11.939   5.103  1.00  0.00     0.000 C 
BRANCH   5   6
ATOM      6  C   UNL     1       8.570 -12.313   6.392  1.00  0.00     0.006 C 
BRANCH   6   7
ATOM      7  C   UNL     1       7.554 -13.428   6.131  1.00  0.00     0.053 C 
BRANCH   7   8
ATOM      8  C   UNL     1       8.047 -14.727   6.686  1.00  0.00     0.041 C 
ATOM      9  O   UNL     1       7.414 -15.793   6.464  1.00  0.00    -0.550 OA
ATOM     10  O   UNL     1       9.232 -14.768   7.408  1.00  0.00    -0.550 OA
ENDBRANCH   7   8
ENDBRANCH   6   7
ENDBRANCH   5   6
ENDBRANCH   4   5
ENDBRANCH   3   4
ENDBRANCH   2   3
ENDBRANCH   1   2
BRANCH   1  11
ATOM     11  C   UNL     1      12.042  -8.610   3.492  1.00  0.00     0.000 C 
BRANCH  11  12
ATOM     12  C   UNL     1      12.489  -8.347   2.045  1.00  0.00    -0.000 C 
BRANCH  12  13
ATOM     13  C   UNL     1      13.075  -9.593   1.365  1.00  0.00    -0.000 C 
BRANCH  13  14
ATOM     14  C   UNL     1      13.369  -9.319  -0.118  1.00  0.00    -0.000 C 
BRANCH  14  15
ATOM     15  C   UNL     1      14.163  -8.021  -0.341  1.00  0.00    -0.000 C 
BRANCH  15  16
ATOM     16  C   UNL     1      14.609  -7.776  -1.795  1.00  0.00    -0.000 C 
BRANCH  16  17
ATOM     17  C   UNL     1      13.465  -7.885  -2.824  1.00  0.00    -0.003 C 
ATOM     18  C   UNL     1      12.544  -6.664  -2.808  1.00  0.00     0.004 C 
ENDBRANCH  16  17
ENDBRANCH  15  16
ENDBRANCH  14  15
ENDBRANCH  13  14
ENDBRANCH  12  13
ENDBRANCH  11  12
ENDBRANCH   1  11
TORSDOF 14
ENDMDL
MODEL 4
REMARK VINA RESULT:    -4.982      4.515      7.899
REMARK INTER + INTRA:          -9.969
REMARK INTER:                  -9.153
REMARK INTRA:                  -0.815
REMARK UNBOUND:                -0.909
REMARK SMILES CCCCCCCCCCCCCCCC(=O)[O-]
REMARK SMILES IDX 9 1 10 2 11 3 12 4 13 5 14 6 15 7 16 8 17 9 18 10 8 11 7 12
REMARK SMILES IDX 6 13 5 14 4 15 3 16 2 17 1 18
REMARK H PARENT
REMARK Flexibility Score: inf
ROOT
ATOM      1  C   UNL     1      12.303  -8.446   4.319  1.00  0.00     0.000 C 
ENDROOT
BRANCH   1   2
ATOM      2  C   UNL     1      11.989  -8.148   2.841  1.00  0.00     0.000 C 
BRANCH   2   3
ATOM      3  C   UNL     1      12.730  -9.037   1.823  1.00  0.00     0.000 C 
BRANCH   3   4
ATOM      4  C   UNL     1      12.707  -8.527   0.370  1.00  0.00     0.000 C 
BRANCH   4   5
ATOM      5  C   UNL     1      13.942  -8.947  -0.458  1.00  0.00     0.000 C 
BRANCH   5   6
ATOM      6  C   UNL     1      14.569  -7.770  -1.219  1.00  0.00     0.006 C 
BRANCH   6   7
ATOM      7  C   UNL     1      14.407  -7.947  -2.732  1.00  0.00     0.053 C 
BRANCH   7   8
ATOM      8  C   UNL     1      13.032  -7.542  -3.163  1.00  0.00     0.041 C 
ATOM      9  O   UNL     1      12.428  -8.198  -4.052  1.00  0.00    -0.550 OA
ATOM     10  O   UNL     1      12.400  -6.470  -2.548  1.00  0.00    -0.550 OA
ENDBRANCH   7   8
ENDBRANCH   6   7
ENDBRANCH   5   6
ENDBRANCH   4   5
ENDBRANCH   3   4
ENDBRANCH   2   3
ENDBRANCH   1   2
BRANCH   1  11
ATOM     11  C   UNL     1      13.162  -9.708   4.505  1.00  0.00     0.000 C 
BRANCH  11  12
ATOM     12  C   UNL     1      12.506 -10.736   5.441  1.00  0.00    -0.000 C 
BRANCH  12  13
ATOM     13  C   UNL     1      11.027 -10.985   5.111  1.00  0.00    -0.000 C 
BRANCH  13  14
ATOM     14  C   UNL     1      10.792 -12.454   4.727  1.00  0.00    -0.000 C 
BRANCH  14  15
ATOM     15  C   UNL     1       9.313 -12.867   4.817  1.00  0.00    -0.000 C 
BRANCH  15  16
ATOM     16  C   UNL     1       8.663 -12.646   6.197  1.00  0.00    -0.000 C 
BRANCH  16  17
ATOM     17  C   UNL     1       8.578 -13.924   7.057  1.00  0.00    -0.003 C 
ATOM     18  C   UNL     1       7.829 -15.056   6.352  1.00  0.00     0.004 C 
ENDBRANCH  16  17
ENDBRANCH  15  16
ENDBRANCH  14  15
ENDBRANCH  13  14
ENDBRANCH  12  13
ENDBRANCH  11  12
ENDBRANCH   1  11
TORSDOF 14
ENDMDL
MODEL 5
REMARK VINA RESULT:    -4.923      4.122      8.967
REMARK INTER + INTRA:          -9.862
REMARK INTER:                  -8.714
REMARK INTRA:                  -1.147
REMARK UNBOUND:                -0.909
REMARK SMILES CCCCCCCCCCCCCCCC(=O)[O-]
REMARK SMILES IDX 9 1 10 2 11 3 12 4 13 5 14 6 15 7 16 8 17 9 18 10 8 11 7 12
REMARK SMILES IDX 6 13 5 14 4 15 3 16 2 17 1 18
REMARK H PARENT
REMARK Flexibility Score: inf
ROOT
ATOM      1  C   UNL     1       9.543 -12.915   4.818  1.00  0.00     0.000 C 
ENDROOT
BRANCH   1   2
ATOM      2  C   UNL     1       8.677 -12.164   5.846  1.00  0.00     0.000 C 
BRANCH   2   3
ATOM      3  C   UNL     1       8.200 -13.009   7.043  1.00  0.00     0.000 C 
BRANCH   3   4
ATOM      4  C   UNL     1       8.721 -14.459   7.071  1.00  0.00     0.000 C 
BRANCH   4   5
ATOM      5  C   UNL     1       7.633 -15.518   6.791  1.00  0.00     0.000 C 
BRANCH   5   6
ATOM      6  C   UNL     1       7.604 -15.957   5.319  1.00  0.00     0.006 C 
BRANCH   6   7
ATOM      7  C   UNL     1       6.185 -15.870   4.750  1.00  0.00     0.053 C 
BRANCH   7   8
ATOM      8  C   UNL     1       5.901 -17.044   3.867  1.00  0.00     0.041 C 
ATOM      9  O   UNL     1       6.671 -18.041   3.871  1.00  0.00    -0.550 OA
ATOM     10  O   UNL     1       4.760 -17.058   3.076  1.00  0.00    -0.550 OA
ENDBRANCH   7   8
ENDBRANCH   6   7
ENDBRANCH   5   6
ENDBRANCH   4   5
ENDBRANCH   3   4
ENDBRANCH   2   3
ENDBRANCH   1   2
BRANCH   1  11
ATOM     11  C   UNL     1      11.005 -12.437   4.806  1.00  0.00     0.000 C 
BRANCH  11  12
ATOM     12  C   UNL     1      11.132 -10.921   5.025  1.00  0.00    -0.000 C 
BRANCH  12  13
ATOM     13  C   UNL     1      12.525 -10.503   5.518  1.00  0.00    -0.000 C 
BRANCH  13  14
ATOM     14  C   UNL     1      13.204  -9.566   4.507  1.00  0.00    -0.000 C 
BRANCH  14  15
ATOM     15  C   UNL     1      12.294  -8.411   4.058  1.00  0.00    -0.000 C 
BRANCH  15  16
ATOM     16  C   UNL     1      12.204  -8.213   2.532  1.00  0.00    -0.000 C 
BRANCH  16  17
ATOM     17  C   UNL     1      12.391  -9.514   1.724  1.00  0.00    -0.003 C 
ATOM     18  C   UNL     1      13.439  -9.372   0.619  1.00  0.00     0.004 C 
ENDBRANCH  16  17
ENDBRANCH  15  16
ENDBRANCH  14  15
ENDBRANCH  13  14
ENDBRANCH  12  13
ENDBRANCH  11  12
ENDBRANCH   1  11
TORSDOF 14
ENDMDL
MODEL 6
REMARK VINA RESULT:    -4.906     10.540     12.050
REMARK INTER + INTRA:          -9.830
REMARK INTER:                  -7.525
REMARK INTRA:                  -2.305
REMARK UNBOUND:                -0.909
REMARK SMILES CCCCCCCCCCCCCCCC(=O)[O-]
REMARK SMILES IDX 9 1 10 2 11 3 12 4 13 5 14 6 15 7 16 8 17 9 18 10 8 11 7 12
REMARK SMILES IDX 6 13 5 14 4 15 3 16 2 17 1 18
REMARK H PARENT
REMARK Flexibility Score: inf
ROOT
ATOM      1  C   UNL     1       7.517 -11.956  -6.109  1.00  0.00     0.000 C 
ENDROOT
BRANCH   1   2
ATOM      2  C   UNL     1       8.255 -10.752  -5.495  1.00  0.00     0.000 C 
BRANCH   2   3
ATOM      3  C   UNL     1       8.627  -9.636  -6.490  1.00  0.00     0.000 C 
BRANCH   3   4
ATOM      4  C   UNL     1       9.120 -10.122  -7.867  1.00  0.00     0.000 C 
BRANCH   4   5
ATOM      5  C   UNL     1      10.464  -9.500  -8.303  1.00  0.00     0.000 C 
BRANCH   5   6
ATOM      6  C   UNL     1      11.671 -10.357  -7.892  1.00  0.00     0.006 C 
BRANCH   6   7
ATOM      7  C   UNL     1      11.278 -11.832  -7.768  1.00  0.00     0.053 C 
BRANCH   7   8
ATOM      8  C   UNL     1      11.665 -12.367  -6.425  1.00  0.00     0.041 C 
ATOM      9  O   UNL     1      12.041 -13.563  -6.304  1.00  0.00    -0.550 OA
ATOM     10  O   UNL     1      11.657 -11.531  -5.317  1.00  0.00    -0.550 OA
ENDBRANCH   7   8
ENDBRANCH   6   7
ENDBRANCH   5   6
ENDBRANCH   4   5
ENDBRANCH   3   4
ENDBRANCH   2   3
ENDBRANCH   1   2
BRANCH   1  11
ATOM     11  C   UNL     1       8.150 -13.304  -5.724  1.00  0.00     0.000 C 
BRANCH  11  12
ATOM     12  C   UNL     1       8.453 -14.184  -6.947  1.00  0.00    -0.000 C 
BRANCH  12  13
ATOM     13  C   UNL     1       8.045 -13.525  -8.273  1.00  0.00    -0.000 C 
BRANCH  13  14
ATOM     14  C   UNL     1       7.254 -14.507  -9.152  1.00  0.00    -0.000 C 
BRANCH  14  15
ATOM     15  C   UNL     1       6.335 -15.432  -8.336  1.00  0.00    -0.000 C 
BRANCH  15  16
ATOM     16  C   UNL     1       5.029 -14.778  -7.844  1.00  0.00    -0.000 C 
BRANCH  16  17
ATOM     17  C   UNL     1       4.641 -15.169  -6.403  1.00  0.00    -0.003 C 
ATOM     18  C   UNL     1       5.556 -16.247  -5.822  1.00  0.00     0.004 C 
ENDBRANCH  16  17
ENDBRANCH  15  16
ENDBRANCH  14  15
ENDBRANCH  13  14
ENDBRANCH  12  13
ENDBRANCH  11  12
ENDBRANCH   1  11
TORSDOF 14
ENDMDL
MODEL 7
REMARK VINA RESULT:    -4.902      7.931     11.848
REMARK INTER + INTRA:          -9.823
REMARK INTER:                  -8.660
REMARK INTRA:                  -1.163
REMARK UNBOUND:                -0.909
REMARK SMILES CCCCCCCCCCCCCCCC(=O)[O-]
REMARK SMILES IDX 9 1 10 2 11 3 12 4 13 5 14 6 15 7 16 8 17 9 18 10 8 11 7 12
REMARK SMILES IDX 6 13 5 14 4 15 3 16 2 17 1 18
REMARK H PARENT
REMARK Flexibility Score: inf
ROOT
ATOM      1  C   UNL     1       4.930 -17.645  -4.271  1.00  0.00     0.000 C 
ENDROOT
BRANCH   1   2
ATOM      2  C   UNL     1       3.614 -18.348  -4.651  1.00  0.00     0.000 C 
BRANCH   2   3
ATOM      3  C   UNL     1       2.680 -18.671  -3.468  1.00  0.00     0.000 C 
BRANCH   3   4
ATOM      4  C   UNL     1       2.464 -17.518  -2.469  1.00  0.00     0.000 C 
BRANCH   4   5
ATOM      5  C   UNL     1       2.790 -17.892  -1.007  1.00  0.00     0.000 C 
BRANCH   5   6
ATOM      6  C   UNL     1       4.145 -17.337  -0.544  1.00  0.00     0.006 C 
BRANCH   6   7
ATOM      7  C   UNL     1       4.748 -18.212   0.559  1.00  0.00     0.053 C 
BRANCH   7   8
ATOM      8  C   UNL     1       3.949 -18.093   1.819  1.00  0.00     0.041 C 
ATOM      9  O   UNL     1       3.655 -16.958   2.277  1.00  0.00    -0.550 OA
ATOM     10  O   UNL     1       3.489 -19.235   2.459  1.00  0.00    -0.550 OA
ENDBRANCH   7   8
ENDBRANCH   6   7
ENDBRANCH   5   6
ENDBRANCH   4   5
ENDBRANCH   3   4
ENDBRANCH   2   3
ENDBRANCH   1   2
BRANCH   1  11
ATOM     11  C   UNL     1       5.476 -16.750  -5.397  1.00  0.00     0.000 C 
BRANCH  11  12
ATOM     12  C   UNL     1       4.754 -15.396  -5.477  1.00  0.00    -0.000 C 
BRANCH  12  13
ATOM     13  C   UNL     1       4.322 -15.031  -6.905  1.00  0.00    -0.000 C 
BRANCH  13  14
ATOM     14  C   UNL     1       4.933 -13.689  -7.335  1.00  0.00    -0.000 C 
BRANCH  14  15
ATOM     15  C   UNL     1       6.436 -13.589  -7.024  1.00  0.00    -0.000 C 
BRANCH  15  16
ATOM     16  C   UNL     1       7.362 -13.742  -8.247  1.00  0.00    -0.000 C 
BRANCH  16  17
ATOM     17  C   UNL     1       6.978 -14.913  -9.175  1.00  0.00    -0.003 C 
ATOM     18  C   UNL     1       7.294 -16.277  -8.559  1.00  0.00     0.004 C 
ENDBRANCH  16  17
ENDBRANCH  15  16
ENDBRANCH  14  15
ENDBRANCH  13  14
ENDBRANCH  12  13
ENDBRANCH  11  12
ENDBRANCH   1  11
TORSDOF 14
ENDMDL
MODEL 8
REMARK VINA RESULT:    -4.885      6.998     10.996
REMARK INTER + INTRA:          -9.792
REMARK INTER:                  -9.015
REMARK INTRA:                  -0.777
REMARK UNBOUND:                -0.909
REMARK SMILES CCCCCCCCCCCCCCCC(=O)[O-]
REMARK SMILES IDX 9 1 10 2 11 3 12 4 13 5 14 6 15 7 16 8 17 9 18 10 8 11 7 12
REMARK SMILES IDX 6 13 5 14 4 15 3 16 2 17 1 18
REMARK H PARENT
REMARK Flexibility Score: inf
ROOT
ATOM      1  C   UNL     1       3.544 -18.855  -3.447  1.00  0.00     0.000 C 
ENDROOT
BRANCH   1   2
ATOM      2  C   UNL     1       2.351 -18.265  -2.673  1.00  0.00     0.000 C 
BRANCH   2   3
ATOM      3  C   UNL     1       2.720 -17.494  -1.391  1.00  0.00     0.000 C 
BRANCH   3   4
ATOM      4  C   UNL     1       3.947 -18.033  -0.632  1.00  0.00     0.000 C 
BRANCH   4   5
ATOM      5  C   UNL     1       3.914 -17.753   0.887  1.00  0.00     0.000 C 
BRANCH   5   6
ATOM      6  C   UNL     1       3.663 -19.021   1.715  1.00  0.00     0.006 C 
BRANCH   6   7
ATOM      7  C   UNL     1       3.990 -18.785   3.192  1.00  0.00     0.053 C 
BRANCH   7   8
ATOM      8  C   UNL     1       5.395 -18.293   3.346  1.00  0.00     0.041 C 
ATOM      9  O   UNL     1       5.621 -17.182   3.894  1.00  0.00    -0.550 OA
ATOM     10  O   UNL     1       6.457 -19.084   2.928  1.00  0.00    -0.550 OA
ENDBRANCH   7   8
ENDBRANCH   6   7
ENDBRANCH   5   6
ENDBRANCH   4   5
ENDBRANCH   3   4
ENDBRANCH   2   3
ENDBRANCH   1   2
BRANCH   1  11
ATOM     11  C   UNL     1       3.667 -18.295  -4.874  1.00  0.00     0.000 C 
BRANCH  11  12
ATOM     12  C   UNL     1       4.248 -16.872  -4.901  1.00  0.00    -0.000 C 
BRANCH  12  13
ATOM     13  C   UNL     1       5.781 -16.854  -4.980  1.00  0.00    -0.000 C 
BRANCH  13  14
ATOM     14  C   UNL     1       6.254 -16.247  -6.310  1.00  0.00    -0.000 C 
BRANCH  14  15
ATOM     15  C   UNL     1       5.308 -15.155  -6.838  1.00  0.00    -0.000 C 
BRANCH  15  16
ATOM     16  C   UNL     1       5.420 -14.877  -8.350  1.00  0.00    -0.000 C 
BRANCH  16  17
ATOM     17  C   UNL     1       6.852 -15.023  -8.905  1.00  0.00    -0.003 C 
ATOM     18  C   UNL     1       7.765 -13.872  -8.480  1.00  0.00     0.004 C 
ENDBRANCH  16  17
ENDBRANCH  15  16
ENDBRANCH  14  15
ENDBRANCH  13  14
ENDBRANCH  12  13
ENDBRANCH  11  12
ENDBRANCH   1  11
TORSDOF 14
ENDMDL
MODEL 9
REMARK VINA RESULT:    -4.847      7.628     11.437
REMARK INTER + INTRA:          -9.723
REMARK INTER:                  -8.409
REMARK INTRA:                  -1.314
REMARK UNBOUND:                -0.909
REMARK SMILES CCCCCCCCCCCCCCCC(=O)[O-]
REMARK SMILES IDX 9 1 10 2 11 3 12 4 13 5 14 6 15 7 16 8 17 9 18 10 8 11 7 12
REMARK SMILES IDX 6 13 5 14 4 15 3 16 2 17 1 18
REMARK H PARENT
REMARK Flexibility Score: inf
ROOT
ATOM      1  C   UNL     1       3.884 -17.863  -4.905  1.00  0.00     0.000 C 
ENDROOT
BRANCH   1   2
ATOM      2  C   UNL     1       3.129 -18.655  -3.820  1.00  0.00     0.000 C 
BRANCH   2   3
ATOM      3  C   UNL     1       2.249 -17.805  -2.883  1.00  0.00     0.000 C 
BRANCH   3   4
ATOM      4  C   UNL     1       2.647 -17.846  -1.395  1.00  0.00     0.000 C 
BRANCH   4   5
ATOM      5  C   UNL     1       4.131 -18.198  -1.156  1.00  0.00     0.000 C 
BRANCH   5   6
ATOM      6  C   UNL     1       4.637 -17.718   0.213  1.00  0.00     0.006 C 
BRANCH   6   7
ATOM      7  C   UNL     1       4.082 -18.594   1.340  1.00  0.00     0.053 C 
BRANCH   7   8
ATOM      8  C   UNL     1       3.749 -17.760   2.537  1.00  0.00     0.041 C 
ATOM      9  O   UNL     1       3.551 -18.306   3.654  1.00  0.00    -0.550 OA
ATOM     10  O   UNL     1       3.704 -16.377   2.428  1.00  0.00    -0.550 OA
ENDBRANCH   7   8
ENDBRANCH   6   7
ENDBRANCH   5   6
ENDBRANCH   4   5
ENDBRANCH   3   4
ENDBRANCH   2   3
ENDBRANCH   1   2
BRANCH   1  11
ATOM     11  C   UNL     1       4.236 -16.432  -4.463  1.00  0.00     0.000 C 
BRANCH  11  12
ATOM     12  C   UNL     1       5.745 -16.149  -4.527  1.00  0.00    -0.000 C 
BRANCH  12  13
ATOM     13  C   UNL     1       6.446 -16.897  -5.672  1.00  0.00    -0.000 C 
BRANCH  13  14
ATOM     14  C   UNL     1       7.386 -15.958  -6.444  1.00  0.00    -0.000 C 
BRANCH  14  15
ATOM     15  C   UNL     1       7.389 -16.229  -7.958  1.00  0.00    -0.000 C 
BRANCH  15  16
ATOM     16  C   UNL     1       6.490 -15.290  -8.786  1.00  0.00    -0.000 C 
BRANCH  16  17
ATOM     17  C   UNL     1       5.871 -14.139  -7.966  1.00  0.00    -0.003 C 
ATOM     18  C   UNL     1       4.377 -14.338  -7.711  1.00  0.00     0.004 C 
ENDBRANCH  16  17
ENDBRANCH  15  16
ENDBRANCH  14  15
ENDBRANCH  13  14
ENDBRANCH  12  13
ENDBRANCH  11  12
ENDBRANCH   1  11
TORSDOF 14
ENDMDL
