MODEL 1
REMARK VINA RESULT:    -6.095      0.000      0.000
REMARK INTER + INTRA:          -6.864
REMARK INTER:                  -6.807
REMARK INTRA:                  -0.057
REMARK UNBOUND:                -0.057
REMARK SMILES COc1cc2ccc(=O)oc2c(O)c1O
REMARK SMILES IDX 3 1 14 2 12 3 11 4 5 5 4 6 6 7 7 8 8 9 9 10 10 11 2 12 1 13
REMARK SMILES IDX 15 14 13 16
REMARK H PARENT 15 15 13 17
REMARK Flexibility Score: inf
ROOT
ATOM      1  C   UNL     1      80.203 -25.599  85.382  1.00  0.00     0.165 A 
ATOM      2  C   UNL     1      78.996 -25.834  86.069  1.00  0.00     0.204 A 
ATOM      3  C   UNL     1      77.982 -26.609  85.475  1.00  0.00     0.205 A 
ATOM      4  C   UNL     1      78.172 -27.151  84.199  1.00  0.00     0.184 A 
ATOM      5  C   UNL     1      79.379 -26.919  83.508  1.00  0.00     0.025 A 
ATOM      6  C   UNL     1      80.387 -26.149  84.098  1.00  0.00     0.062 A 
ATOM      7  C   UNL     1      79.537 -27.476  82.234  1.00  0.00     0.020 A 
ATOM      8  C   UNL     1      78.505 -28.236  81.687  1.00  0.00     0.094 A 
ATOM      9  C   UNL     1      77.335 -28.425  82.429  1.00  0.00     0.336 A 
ATOM     10  O   UNL     1      76.391 -29.109  81.953  1.00  0.00    -0.246 OA
ATOM     11  O   UNL     1      77.212 -27.885  83.638  1.00  0.00    -0.419 OA
ENDROOT
BRANCH   1  12
ATOM     12  O   UNL     1      81.194 -24.821  86.004  1.00  0.00    -0.493 OA
ATOM     13  C   UNL     1      81.883 -23.742  85.383  1.00  0.00     0.278 C 
ENDBRANCH   1  12
BRANCH   2  14
ATOM     14  O   UNL     1      78.790 -25.301  87.342  1.00  0.00    -0.502 OA
ATOM     15  H   UNL     1      79.553 -24.990  87.931  1.00  0.00     0.293 HD
ENDBRANCH   2  14
BRANCH   3  16
ATOM     16  O   UNL     1      76.781 -26.849  86.144  1.00  0.00    -0.502 OA
ATOM     17  H   UNL     1      75.951 -27.179  85.664  1.00  0.00     0.293 HD
ENDBRANCH   3  16
TORSDOF 3
ENDMDL
MODEL 2
REMARK VINA RESULT:    -6.018      2.464      4.825
REMARK INTER + INTRA:          -6.778
REMARK INTER:                  -6.714
REMARK INTRA:                  -0.064
REMARK UNBOUND:                -0.057
REMARK SMILES COc1cc2ccc(=O)oc2c(O)c1O
REMARK SMILES IDX 3 1 14 2 12 3 11 4 5 5 4 6 6 7 7 8 8 9 9 10 10 11 2 12 1 13
REMARK SMILES IDX 15 14 13 16
REMARK H PARENT 15 15 13 17
REMARK Flexibility Score: inf
ROOT
ATOM      1  C   UNL     1      76.253 -24.576  84.975  1.00  0.00     0.165 A 
ATOM      2  C   UNL     1      76.339 -25.862  84.405  1.00  0.00     0.204 A 
ATOM      3  C   UNL     1      77.407 -26.715  84.738  1.00  0.00     0.205 A 
ATOM      4  C   UNL     1      78.388 -26.289  85.640  1.00  0.00     0.184 A 
ATOM      5  C   UNL     1      78.306 -25.004  86.214  1.00  0.00     0.025 A 
ATOM      6  C   UNL     1      77.245 -24.154  85.883  1.00  0.00     0.062 A 
ATOM      7  C   UNL     1      79.304 -24.609  87.112  1.00  0.00     0.020 A 
ATOM      8  C   UNL     1      80.343 -25.488  87.412  1.00  0.00     0.094 A 
ATOM      9  C   UNL     1      80.360 -26.748  86.805  1.00  0.00     0.336 A 
ATOM     10  O   UNL     1      81.289 -27.558  87.063  1.00  0.00    -0.246 OA
ATOM     11  O   UNL     1      79.398 -27.098  85.956  1.00  0.00    -0.419 OA
ENDROOT
BRANCH   1  12
ATOM     12  O   UNL     1      75.174 -23.750  84.620  1.00  0.00    -0.493 OA
ATOM     13  C   UNL     1      75.297 -22.510  83.931  1.00  0.00     0.278 C 
ENDBRANCH   1  12
BRANCH   2  14
ATOM     14  O   UNL     1      75.369 -26.302  83.503  1.00  0.00    -0.502 OA
ATOM     15  H   UNL     1      75.528 -27.077  82.870  1.00  0.00     0.293 HD
ENDBRANCH   2  14
BRANCH   3  16
ATOM     16  O   UNL     1      77.504 -27.991  84.181  1.00  0.00    -0.502 OA
ATOM     17  H   UNL     1      77.039 -28.241  83.316  1.00  0.00     0.293 HD
ENDBRANCH   3  16
TORSDOF 3
ENDMDL
MODEL 3
REMARK VINA RESULT:    -6.002      2.207      3.589
REMARK INTER + INTRA:          -6.761
REMARK INTER:                  -6.711
REMARK INTRA:                  -0.050
REMARK UNBOUND:                -0.057
REMARK SMILES COc1cc2ccc(=O)oc2c(O)c1O
REMARK SMILES IDX 3 1 14 2 12 3 11 4 5 5 4 6 6 7 7 8 8 9 9 10 10 11 2 12 1 13
REMARK SMILES IDX 15 14 13 16
REMARK H PARENT 15 15 13 17
REMARK Flexibility Score: inf
ROOT
ATOM      1  C   UNL     1      79.926 -26.621  85.942  1.00  0.00     0.165 A 
ATOM      2  C   UNL     1      79.885 -26.744  84.539  1.00  0.00     0.204 A 
ATOM      3  C   UNL     1      78.664 -26.616  83.851  1.00  0.00     0.205 A 
ATOM      4  C   UNL     1      77.484 -26.364  84.560  1.00  0.00     0.184 A 
ATOM      5  C   UNL     1      77.520 -26.239  85.965  1.00  0.00     0.025 A 
ATOM      6  C   UNL     1      78.734 -26.367  86.649  1.00  0.00     0.062 A 
ATOM      7  C   UNL     1      76.323 -25.987  86.643  1.00  0.00     0.020 A 
ATOM      8  C   UNL     1      75.137 -25.868  85.920  1.00  0.00     0.094 A 
ATOM      9  C   UNL     1      75.177 -26.003  84.529  1.00  0.00     0.336 A 
ATOM     10  O   UNL     1      74.117 -25.899  83.856  1.00  0.00    -0.246 OA
ATOM     11  O   UNL     1      76.329 -26.242  83.909  1.00  0.00    -0.419 OA
ENDROOT
BRANCH   1  12
ATOM     12  O   UNL     1      81.161 -26.754  86.597  1.00  0.00    -0.493 OA
ATOM     13  C   UNL     1      81.317 -27.122  87.963  1.00  0.00     0.278 C 
ENDBRANCH   1  12
BRANCH   2  14
ATOM     14  O   UNL     1      81.052 -26.996  83.816  1.00  0.00    -0.502 OA
ATOM     15  H   UNL     1      81.165 -27.819  83.236  1.00  0.00     0.293 HD
ENDBRANCH   2  14
BRANCH   3  16
ATOM     16  O   UNL     1      78.609 -26.736  82.462  1.00  0.00    -0.502 OA
ATOM     17  H   UNL     1      78.390 -25.952  81.859  1.00  0.00     0.293 HD
ENDBRANCH   3  16
TORSDOF 3
ENDMDL
MODEL 4
REMARK VINA RESULT:    -5.860      2.240      5.297
REMARK INTER + INTRA:          -6.602
REMARK INTER:                  -6.547
REMARK INTRA:                  -0.055
REMARK UNBOUND:                -0.057
REMARK SMILES COc1cc2ccc(=O)oc2c(O)c1O
REMARK SMILES IDX 3 1 14 2 12 3 11 4 5 5 4 6 6 7 7 8 8 9 9 10 10 11 2 12 1 13
REMARK SMILES IDX 15 14 13 16
REMARK H PARENT 15 15 13 17
REMARK Flexibility Score: inf
ROOT
ATOM      1  C   UNL     1      79.582 -28.134  83.522  1.00  0.00     0.165 A 
ATOM      2  C   UNL     1      79.169 -26.833  83.872  1.00  0.00     0.204 A 
ATOM      3  C   UNL     1      80.010 -26.005  84.638  1.00  0.00     0.205 A 
ATOM      4  C   UNL     1      81.262 -26.471  85.053  1.00  0.00     0.184 A 
ATOM      5  C   UNL     1      81.680 -27.772  84.704  1.00  0.00     0.025 A 
ATOM      6  C   UNL     1      80.844 -28.596  83.943  1.00  0.00     0.062 A 
ATOM      7  C   UNL     1      82.938 -28.207  85.135  1.00  0.00     0.020 A 
ATOM      8  C   UNL     1      83.737 -27.351  85.891  1.00  0.00     0.094 A 
ATOM      9  C   UNL     1      83.258 -26.074  86.200  1.00  0.00     0.336 A 
ATOM     10  O   UNL     1      83.964 -25.285  86.882  1.00  0.00    -0.246 OA
ATOM     11  O   UNL     1      82.058 -25.686  85.777  1.00  0.00    -0.419 OA
ENDROOT
BRANCH   1  12
ATOM     12  O   UNL     1      78.717 -28.934  82.757  1.00  0.00    -0.493 OA
ATOM     13  C   UNL     1      78.434 -30.303  83.025  1.00  0.00     0.278 C 
ENDBRANCH   1  12
BRANCH   2  14
ATOM     14  O   UNL     1      77.923 -26.352  83.467  1.00  0.00    -0.502 OA
ATOM     15  H   UNL     1      77.798 -25.818  82.615  1.00  0.00     0.293 HD
ENDBRANCH   2  14
BRANCH   3  16
ATOM     16  O   UNL     1      79.614 -24.714  84.992  1.00  0.00    -0.502 OA
ATOM     17  H   UNL     1      78.685 -24.510  85.341  1.00  0.00     0.293 HD
ENDBRANCH   3  16
TORSDOF 3
ENDMDL
MODEL 5
REMARK VINA RESULT:    -5.856      1.478      5.122
REMARK INTER + INTRA:          -6.598
REMARK INTER:                  -6.549
REMARK INTRA:                  -0.049
REMARK UNBOUND:                -0.057
REMARK SMILES COc1cc2ccc(=O)oc2c(O)c1O
REMARK SMILES IDX 3 1 14 2 12 3 11 4 5 5 4 6 6 7 7 8 8 9 9 10 10 11 2 12 1 13
REMARK SMILES IDX 15 14 13 16
REMARK H PARENT 15 15 13 17
REMARK Flexibility Score: inf
ROOT
ATOM      1  C   UNL     1      79.379 -26.636  84.132  1.00  0.00     0.165 A 
ATOM      2  C   UNL     1      78.555 -26.557  85.273  1.00  0.00     0.204 A 
ATOM      3  C   UNL     1      79.025 -25.935  86.445  1.00  0.00     0.205 A 
ATOM      4  C   UNL     1      80.313 -25.388  86.479  1.00  0.00     0.184 A 
ATOM      5  C   UNL     1      81.140 -25.464  85.339  1.00  0.00     0.025 A 
ATOM      6  C   UNL     1      80.674 -26.083  84.174  1.00  0.00     0.062 A 
ATOM      7  C   UNL     1      82.423 -24.908  85.407  1.00  0.00     0.020 A 
ATOM      8  C   UNL     1      82.845 -24.302  86.588  1.00  0.00     0.094 A 
ATOM      9  C   UNL     1      81.971 -24.263  87.679  1.00  0.00     0.336 A 
ATOM     10  O   UNL     1      82.333 -23.720  88.756  1.00  0.00    -0.246 OA
ATOM     11  O   UNL     1      80.757 -24.799  87.588  1.00  0.00    -0.419 OA
ENDROOT
BRANCH   1  12
ATOM     12  O   UNL     1      78.878 -27.264  82.980  1.00  0.00    -0.493 OA
ATOM     13  C   UNL     1      79.459 -27.160  81.685  1.00  0.00     0.278 C 
ENDBRANCH   1  12
BRANCH   2  14
ATOM     14  O   UNL     1      77.268 -27.097  85.256  1.00  0.00    -0.502 OA
ATOM     15  H   UNL     1      76.923 -27.702  85.992  1.00  0.00     0.293 HD
ENDBRANCH   2  14
BRANCH   3  16
ATOM     16  O   UNL     1      78.221 -25.850  87.582  1.00  0.00    -0.502 OA
ATOM     17  H   UNL     1      78.336 -26.472  88.374  1.00  0.00     0.293 HD
ENDBRANCH   3  16
TORSDOF 3
ENDMDL
MODEL 6
REMARK VINA RESULT:    -5.822      1.739      2.240
REMARK INTER + INTRA:          -6.560
REMARK INTER:                  -6.497
REMARK INTRA:                  -0.062
REMARK UNBOUND:                -0.057
REMARK SMILES COc1cc2ccc(=O)oc2c(O)c1O
REMARK SMILES IDX 3 1 14 2 12 3 11 4 5 5 4 6 6 7 7 8 8 9 9 10 10 11 2 12 1 13
REMARK SMILES IDX 15 14 13 16
REMARK H PARENT 15 15 13 17
REMARK Flexibility Score: inf
ROOT
ATOM      1  C   UNL     1      77.922 -25.481  85.954  1.00  0.00     0.165 A 
ATOM      2  C   UNL     1      76.674 -25.430  85.302  1.00  0.00     0.204 A 
ATOM      3  C   UNL     1      76.417 -26.261  84.196  1.00  0.00     0.205 A 
ATOM      4  C   UNL     1      77.401 -27.145  83.741  1.00  0.00     0.184 A 
ATOM      5  C   UNL     1      78.652 -27.201  84.391  1.00  0.00     0.025 A 
ATOM      6  C   UNL     1      78.909 -26.374  85.490  1.00  0.00     0.062 A 
ATOM      7  C   UNL     1      79.615 -28.096  83.910  1.00  0.00     0.020 A 
ATOM      8  C   UNL     1      79.315 -28.900  82.812  1.00  0.00     0.094 A 
ATOM      9  C   UNL     1      78.054 -28.791  82.218  1.00  0.00     0.336 A 
ATOM     10  O   UNL     1      77.762 -29.509  81.225  1.00  0.00    -0.246 OA
ATOM     11  O   UNL     1      77.157 -27.933  82.695  1.00  0.00    -0.419 OA
ENDROOT
BRANCH   1  12
ATOM     12  O   UNL     1      78.146 -24.637  87.054  1.00  0.00    -0.493 OA
ATOM     13  C   UNL     1      79.178 -23.659  87.127  1.00  0.00     0.278 C 
ENDBRANCH   1  12
BRANCH   2  14
ATOM     14  O   UNL     1      75.681 -24.554  85.743  1.00  0.00    -0.502 OA
ATOM     15  H   UNL     1      74.727 -24.853  85.907  1.00  0.00     0.293 HD
ENDBRANCH   2  14
BRANCH   3  16
ATOM     16  O   UNL     1      75.185 -26.221  83.542  1.00  0.00    -0.502 OA
ATOM     17  H   UNL     1      74.339 -25.903  84.000  1.00  0.00     0.293 HD
ENDBRANCH   3  16
TORSDOF 3
ENDMDL
MODEL 7
REMARK VINA RESULT:    -5.819      2.650      5.174
REMARK INTER + INTRA:          -6.556
REMARK INTER:                  -6.487
REMARK INTRA:                  -0.069
REMARK UNBOUND:                -0.057
REMARK SMILES COc1cc2ccc(=O)oc2c(O)c1O
REMARK SMILES IDX 3 1 14 2 12 3 11 4 5 5 4 6 6 7 7 8 8 9 9 10 10 11 2 12 1 13
REMARK SMILES IDX 15 14 13 16
REMARK H PARENT 15 15 13 17
REMARK Flexibility Score: inf
ROOT
ATOM      1  C   UNL     1      78.060 -24.793  86.180  1.00  0.00     0.165 A 
ATOM      2  C   UNL     1      78.350 -26.151  85.936  1.00  0.00     0.204 A 
ATOM      3  C   UNL     1      79.685 -26.594  85.894  1.00  0.00     0.205 A 
ATOM      4  C   UNL     1      80.731 -25.686  86.096  1.00  0.00     0.184 A 
ATOM      5  C   UNL     1      80.445 -24.327  86.341  1.00  0.00     0.025 A 
ATOM      6  C   UNL     1      79.118 -23.885  86.383  1.00  0.00     0.062 A 
ATOM      7  C   UNL     1      81.514 -23.446  86.539  1.00  0.00     0.020 A 
ATOM      8  C   UNL     1      82.820 -23.930  86.488  1.00  0.00     0.094 A 
ATOM      9  C   UNL     1      83.028 -25.291  86.240  1.00  0.00     0.336 A 
ATOM     10  O   UNL     1      84.200 -25.749  86.190  1.00  0.00    -0.246 OA
ATOM     11  O   UNL     1      81.994 -26.107  86.056  1.00  0.00    -0.419 OA
ENDROOT
BRANCH   1  12
ATOM     12  O   UNL     1      76.717 -24.385  86.215  1.00  0.00    -0.493 OA
ATOM     13  C   UNL     1      76.028 -23.773  85.130  1.00  0.00     0.278 C 
ENDBRANCH   1  12
BRANCH   2  14
ATOM     14  O   UNL     1      77.319 -27.069  85.733  1.00  0.00    -0.502 OA
ATOM     15  H   UNL     1      76.341 -26.813  85.803  1.00  0.00     0.293 HD
ENDBRANCH   2  14
BRANCH   3  16
ATOM     16  O   UNL     1      79.986 -27.935  85.653  1.00  0.00    -0.502 OA
ATOM     17  H   UNL     1      80.871 -28.348  85.925  1.00  0.00     0.293 HD
ENDBRANCH   3  16
TORSDOF 3
ENDMDL
MODEL 8
REMARK VINA RESULT:    -5.765      1.552      4.688
REMARK INTER + INTRA:          -6.495
REMARK INTER:                  -6.468
REMARK INTRA:                  -0.028
REMARK UNBOUND:                -0.057
REMARK SMILES COc1cc2ccc(=O)oc2c(O)c1O
REMARK SMILES IDX 3 1 14 2 12 3 11 4 5 5 4 6 6 7 7 8 8 9 9 10 10 11 2 12 1 13
REMARK SMILES IDX 15 14 13 16
REMARK H PARENT 15 15 13 17
REMARK Flexibility Score: inf
ROOT
ATOM      1  C   UNL     1      78.729 -27.421  82.671  1.00  0.00     0.165 A 
ATOM      2  C   UNL     1      77.704 -27.284  83.628  1.00  0.00     0.204 A 
ATOM      3  C   UNL     1      78.021 -27.014  84.972  1.00  0.00     0.205 A 
ATOM      4  C   UNL     1      79.357 -26.878  85.363  1.00  0.00     0.184 A 
ATOM      5  C   UNL     1      80.387 -27.014  84.408  1.00  0.00     0.025 A 
ATOM      6  C   UNL     1      80.072 -27.283  83.071  1.00  0.00     0.062 A 
ATOM      7  C   UNL     1      81.713 -26.873  84.832  1.00  0.00     0.020 A 
ATOM      8  C   UNL     1      81.979 -26.606  86.173  1.00  0.00     0.094 A 
ATOM      9  C   UNL     1      80.908 -26.484  87.065  1.00  0.00     0.336 A 
ATOM     10  O   UNL     1      81.126 -26.243  88.281  1.00  0.00    -0.246 OA
ATOM     11  O   UNL     1      79.656 -26.622  86.635  1.00  0.00    -0.419 OA
ENDROOT
BRANCH   1  12
ATOM     12  O   UNL     1      78.377 -27.690  81.338  1.00  0.00    -0.493 OA
ATOM     13  C   UNL     1      78.118 -28.989  80.816  1.00  0.00     0.278 C 
ENDBRANCH   1  12
BRANCH   2  14
ATOM     14  O   UNL     1      76.365 -27.416  83.256  1.00  0.00    -0.502 OA
ATOM     15  H   UNL     1      75.943 -28.315  83.056  1.00  0.00     0.293 HD
ENDBRANCH   2  14
BRANCH   3  16
ATOM     16  O   UNL     1      77.016 -26.876  85.931  1.00  0.00    -0.502 OA
ATOM     17  H   UNL     1      76.948 -26.063  86.532  1.00  0.00     0.293 HD
ENDBRANCH   3  16
TORSDOF 3
ENDMDL
MODEL 9
REMARK VINA RESULT:    -5.710      2.341      4.760
REMARK INTER + INTRA:          -6.434
REMARK INTER:                  -6.382
REMARK INTRA:                  -0.053
REMARK UNBOUND:                -0.057
REMARK SMILES COc1cc2ccc(=O)oc2c(O)c1O
REMARK SMILES IDX 3 1 14 2 12 3 11 4 5 5 4 6 6 7 7 8 8 9 9 10 10 11 2 12 1 13
REMARK SMILES IDX 15 14 13 16
REMARK H PARENT 15 15 13 17
REMARK Flexibility Score: inf
ROOT
ATOM      1  C   UNL     1      77.585 -26.730  84.473  1.00  0.00     0.165 A 
ATOM      2  C   UNL     1      77.997 -27.584  83.430  1.00  0.00     0.204 A 
ATOM      3  C   UNL     1      79.298 -28.122  83.428  1.00  0.00     0.205 A 
ATOM      4  C   UNL     1      80.186 -27.812  84.464  1.00  0.00     0.184 A 
ATOM      5  C   UNL     1      79.777 -26.958  85.509  1.00  0.00     0.025 A 
ATOM      6  C   UNL     1      78.484 -26.422  85.512  1.00  0.00     0.062 A 
ATOM      7  C   UNL     1      80.690 -26.667  86.530  1.00  0.00     0.020 A 
ATOM      8  C   UNL     1      81.967 -27.223  86.485  1.00  0.00     0.094 A 
ATOM      9  C   UNL     1      82.303 -28.062  85.417  1.00  0.00     0.336 A 
ATOM     10  O   UNL     1      83.452 -28.575  85.358  1.00  0.00    -0.246 OA
ATOM     11  O   UNL     1      81.416 -28.322  84.461  1.00  0.00    -0.419 OA
ENDROOT
BRANCH   1  12
ATOM     12  O   UNL     1      76.280 -26.210  84.444  1.00  0.00    -0.493 OA
ATOM     13  C   UNL     1      75.924 -24.895  84.857  1.00  0.00     0.278 C 
ENDBRANCH   1  12
BRANCH   2  14
ATOM     14  O   UNL     1      77.124 -27.904  82.390  1.00  0.00    -0.502 OA
ATOM     15  H   UNL     1      76.123 -27.978  82.524  1.00  0.00     0.293 HD
ENDBRANCH   2  14
BRANCH   3  16
ATOM     16  O   UNL     1      79.719 -28.969  82.402  1.00  0.00    -0.502 OA
ATOM     17  H   UNL     1      80.677 -28.982  82.070  1.00  0.00     0.293 HD
ENDBRANCH   3  16
TORSDOF 3
ENDMDL
