MODEL 1
REMARK VINA RESULT:    -4.383      0.000      0.000
REMARK INTER + INTRA:         -10.275
REMARK INTER:                  -8.482
REMARK INTRA:                  -1.794
REMARK UNBOUND:                -1.794
REMARK SMILES CCCCCCCCCCCCCCCCCC(=O)[O-]
REMARK SMILES IDX 10 1 11 2 12 3 13 4 14 5 15 6 16 7 17 8 18 9 19 10 20 11
REMARK SMILES IDX 9 12 8 13 7 14 6 15 5 16 4 17 3 18 2 19 1 20
REMARK H PARENT
REMARK Flexibility Score: inf
ROOT
ATOM      1  C   UNL     1       2.869 -62.601 187.392  1.00  0.00     0.000 C 
ENDROOT
BRANCH   1   2
ATOM      2  C   UNL     1       2.166 -61.299 186.978  1.00  0.00     0.000 C 
BRANCH   2   3
ATOM      3  C   UNL     1       2.160 -60.248 188.101  1.00  0.00     0.000 C 
BRANCH   3   4
ATOM      4  C   UNL     1       2.406 -60.859 189.491  1.00  0.00     0.000 C 
BRANCH   4   5
ATOM      5  C   UNL     1       3.599 -60.231 190.242  1.00  0.00     0.000 C 
BRANCH   5   6
ATOM      6  C   UNL     1       4.067 -58.917 189.591  1.00  0.00     0.000 C 
BRANCH   6   7
ATOM      7  C   UNL     1       5.288 -58.302 190.298  1.00  0.00     0.006 C 
BRANCH   7   8
ATOM      8  C   UNL     1       5.178 -56.789 190.543  1.00  0.00     0.053 C 
BRANCH   8   9
ATOM      9  C   UNL     1       6.324 -56.267 191.354  1.00  0.00     0.041 C 
ATOM     10  O   UNL     1       7.026 -55.317 190.918  1.00  0.00    -0.550 OA
ATOM     11  O   UNL     1       6.594 -56.805 192.606  1.00  0.00    -0.550 OA
ENDBRANCH   8   9
ENDBRANCH   7   8
ENDBRANCH   6   7
ENDBRANCH   5   6
ENDBRANCH   4   5
ENDBRANCH   3   4
ENDBRANCH   2   3
ENDBRANCH   1   2
BRANCH   1  12
ATOM     12  C   UNL     1       3.322 -63.440 186.184  1.00  0.00     0.000 C 
BRANCH  12  13
ATOM     13  C   UNL     1       3.801 -64.845 186.584  1.00  0.00    -0.000 C 
BRANCH  13  14
ATOM     14  C   UNL     1       4.793 -64.817 187.759  1.00  0.00    -0.000 C 
BRANCH  14  15
ATOM     15  C   UNL     1       6.258 -64.834 187.297  1.00  0.00    -0.000 C 
BRANCH  15  16
ATOM     16  C   UNL     1       7.118 -63.773 188.002  1.00  0.00    -0.000 C 
BRANCH  16  17
ATOM     17  C   UNL     1       6.250 -62.611 188.505  1.00  0.00    -0.000 C 
BRANCH  17  18
ATOM     18  C   UNL     1       7.075 -61.498 189.171  1.00  0.00    -0.000 C 
BRANCH  18  19
ATOM     19  C   UNL     1       7.285 -61.737 190.673  1.00  0.00    -0.003 C 
ATOM     20  C   UNL     1       8.639 -62.388 190.941  1.00  0.00     0.004 C 
ENDBRANCH  18  19
ENDBRANCH  17  18
ENDBRANCH  16  17
ENDBRANCH  15  16
ENDBRANCH  14  15
ENDBRANCH  13  14
ENDBRANCH  12  13
ENDBRANCH   1  12
TORSDOF 16
ENDMDL
MODEL 2
REMARK VINA RESULT:    -4.156      1.665      4.350
REMARK INTER + INTRA:          -9.836
REMARK INTER:                  -8.126
REMARK INTRA:                  -1.710
REMARK UNBOUND:                -1.794
REMARK SMILES CCCCCCCCCCCCCCCCCC(=O)[O-]
REMARK SMILES IDX 10 1 11 2 12 3 13 4 14 5 15 6 16 7 17 8 18 9 19 10 20 11
REMARK SMILES IDX 9 12 8 13 7 14 6 15 5 16 4 17 3 18 2 19 1 20
REMARK H PARENT
REMARK Flexibility Score: inf
ROOT
ATOM      1  C   UNL     1       6.553 -60.482 191.441  1.00  0.00     0.000 C 
ENDROOT
BRANCH   1   2
ATOM      2  C   UNL     1       5.132 -60.085 191.010  1.00  0.00     0.000 C 
BRANCH   2   3
ATOM      3  C   UNL     1       5.111 -59.335 189.668  1.00  0.00     0.000 C 
BRANCH   3   4
ATOM      4  C   UNL     1       4.952 -57.814 189.836  1.00  0.00     0.000 C 
BRANCH   4   5
ATOM      5  C   UNL     1       4.095 -57.412 191.055  1.00  0.00     0.000 C 
BRANCH   5   6
ATOM      6  C   UNL     1       4.762 -56.307 191.894  1.00  0.00     0.000 C 
BRANCH   6   7
ATOM      7  C   UNL     1       6.297 -56.424 191.921  1.00  0.00     0.006 C 
BRANCH   7   8
ATOM      8  C   UNL     1       6.842 -57.313 193.050  1.00  0.00     0.053 C 
BRANCH   8   9
ATOM      9  C   UNL     1       7.632 -56.528 194.051  1.00  0.00     0.041 C 
ATOM     10  O   UNL     1       7.666 -56.892 195.256  1.00  0.00    -0.550 OA
ATOM     11  O   UNL     1       8.361 -55.416 193.647  1.00  0.00    -0.550 OA
ENDBRANCH   8   9
ENDBRANCH   7   8
ENDBRANCH   6   7
ENDBRANCH   5   6
ENDBRANCH   4   5
ENDBRANCH   3   4
ENDBRANCH   2   3
ENDBRANCH   1   2
BRANCH   1  12
ATOM     12  C   UNL     1       6.834 -61.983 191.253  1.00  0.00     0.000 C 
BRANCH  12  13
ATOM     13  C   UNL     1       8.140 -62.251 190.490  1.00  0.00    -0.000 C 
BRANCH  13  14
ATOM     14  C   UNL     1       7.909 -63.011 189.174  1.00  0.00    -0.000 C 
BRANCH  14  15
ATOM     15  C   UNL     1       7.111 -62.190 188.148  1.00  0.00    -0.000 C 
BRANCH  15  16
ATOM     16  C   UNL     1       5.638 -62.618 188.059  1.00  0.00    -0.000 C 
BRANCH  16  17
ATOM     17  C   UNL     1       5.519 -64.136 187.860  1.00  0.00    -0.000 C 
BRANCH  17  18
ATOM     18  C   UNL     1       4.061 -64.607 187.740  1.00  0.00    -0.000 C 
BRANCH  18  19
ATOM     19  C   UNL     1       3.108 -63.478 187.321  1.00  0.00    -0.003 C 
ATOM     20  C   UNL     1       2.023 -63.259 188.372  1.00  0.00     0.004 C 
ENDBRANCH  18  19
ENDBRANCH  17  18
ENDBRANCH  16  17
ENDBRANCH  15  16
ENDBRANCH  14  15
ENDBRANCH  13  14
ENDBRANCH  12  13
ENDBRANCH   1  12
TORSDOF 16
ENDMDL
MODEL 3
REMARK VINA RESULT:    -3.978      1.316      4.107
REMARK INTER + INTRA:          -9.492
REMARK INTER:                  -7.693
REMARK INTRA:                  -1.799
REMARK UNBOUND:                -1.794
REMARK SMILES CCCCCCCCCCCCCCCCCC(=O)[O-]
REMARK SMILES IDX 10 1 11 2 12 3 13 4 14 5 15 6 16 7 17 8 18 9 19 10 20 11
REMARK SMILES IDX 9 12 8 13 7 14 6 15 5 16 4 17 3 18 2 19 1 20
REMARK H PARENT
REMARK Flexibility Score: inf
ROOT
ATOM      1  C   UNL     1       7.292 -61.503 189.720  1.00  0.00     0.000 C 
ENDROOT
BRANCH   1   2
ATOM      2  C   UNL     1       6.551 -61.470 191.066  1.00  0.00     0.000 C 
BRANCH   2   3
ATOM      3  C   UNL     1       5.495 -60.354 191.132  1.00  0.00     0.000 C 
BRANCH   3   4
ATOM      4  C   UNL     1       5.337 -59.602 189.799  1.00  0.00     0.000 C 
BRANCH   4   5
ATOM      5  C   UNL     1       3.933 -58.996 189.592  1.00  0.00     0.000 C 
BRANCH   5   6
ATOM      6  C   UNL     1       3.309 -58.516 190.915  1.00  0.00     0.000 C 
BRANCH   6   7
ATOM      7  C   UNL     1       3.597 -57.032 191.207  1.00  0.00     0.006 C 
BRANCH   7   8
ATOM      8  C   UNL     1       5.091 -56.678 191.254  1.00  0.00     0.053 C 
BRANCH   8   9
ATOM      9  C   UNL     1       5.637 -56.728 192.647  1.00  0.00     0.041 C 
ATOM     10  O   UNL     1       5.116 -56.030 193.557  1.00  0.00    -0.550 OA
ATOM     11  O   UNL     1       6.698 -57.572 192.950  1.00  0.00    -0.550 OA
ENDBRANCH   8   9
ENDBRANCH   7   8
ENDBRANCH   6   7
ENDBRANCH   5   6
ENDBRANCH   4   5
ENDBRANCH   3   4
ENDBRANCH   2   3
ENDBRANCH   1   2
BRANCH   1  12
ATOM     12  C   UNL     1       8.007 -62.842 189.468  1.00  0.00     0.000 C 
BRANCH  12  13
ATOM     13  C   UNL     1       7.432 -63.603 188.264  1.00  0.00    -0.000 C 
BRANCH  13  14
ATOM     14  C   UNL     1       6.030 -63.111 187.869  1.00  0.00    -0.000 C 
BRANCH  14  15
ATOM     15  C   UNL     1       5.007 -64.254 187.770  1.00  0.00    -0.000 C 
BRANCH  15  16
ATOM     16  C   UNL     1       3.579 -63.755 187.499  1.00  0.00    -0.000 C 
BRANCH  16  17
ATOM     17  C   UNL     1       3.192 -62.641 188.483  1.00  0.00    -0.000 C 
BRANCH  17  18
ATOM     18  C   UNL     1       1.982 -61.822 188.006  1.00  0.00    -0.000 C 
BRANCH  18  19
ATOM     19  C   UNL     1       2.225 -61.144 186.651  1.00  0.00    -0.003 C 
ATOM     20  C   UNL     1       1.875 -59.660 186.710  1.00  0.00     0.004 C 
ENDBRANCH  18  19
ENDBRANCH  17  18
ENDBRANCH  16  17
ENDBRANCH  15  16
ENDBRANCH  14  15
ENDBRANCH  13  14
ENDBRANCH  12  13
ENDBRANCH   1  12
TORSDOF 16
ENDMDL
MODEL 4
REMARK VINA RESULT:    -3.932      2.584      5.029
REMARK INTER + INTRA:          -9.403
REMARK INTER:                  -8.162
REMARK INTRA:                  -1.241
REMARK UNBOUND:                -1.794
REMARK SMILES CCCCCCCCCCCCCCCCCC(=O)[O-]
REMARK SMILES IDX 10 1 11 2 12 3 13 4 14 5 15 6 16 7 17 8 18 9 19 10 20 11
REMARK SMILES IDX 9 12 8 13 7 14 6 15 5 16 4 17 3 18 2 19 1 20
REMARK H PARENT
REMARK Flexibility Score: inf
ROOT
ATOM      1  C   UNL     1       5.181 -59.869 189.758  1.00  0.00     0.000 C 
ENDROOT
BRANCH   1   2
ATOM      2  C   UNL     1       4.865 -58.367 189.657  1.00  0.00     0.000 C 
BRANCH   2   3
ATOM      3  C   UNL     1       4.683 -57.709 191.034  1.00  0.00     0.000 C 
BRANCH   3   4
ATOM      4  C   UNL     1       5.713 -56.599 191.306  1.00  0.00     0.000 C 
BRANCH   4   5
ATOM      5  C   UNL     1       6.488 -56.784 192.628  1.00  0.00     0.000 C 
BRANCH   5   6
ATOM      6  C   UNL     1       6.730 -55.445 193.349  1.00  0.00     0.000 C 
BRANCH   6   7
ATOM      7  C   UNL     1       8.218 -55.189 193.648  1.00  0.00     0.006 C 
BRANCH   7   8
ATOM      8  C   UNL     1       8.875 -56.257 194.538  1.00  0.00     0.053 C 
BRANCH   8   9
ATOM      9  C   UNL     1      10.254 -55.861 194.965  1.00  0.00     0.041 C 
ATOM     10  O   UNL     1      11.000 -55.218 194.181  1.00  0.00    -0.550 OA
ATOM     11  O   UNL     1      10.703 -56.172 196.242  1.00  0.00    -0.550 OA
ENDBRANCH   8   9
ENDBRANCH   7   8
ENDBRANCH   6   7
ENDBRANCH   5   6
ENDBRANCH   4   5
ENDBRANCH   3   4
ENDBRANCH   2   3
ENDBRANCH   1   2
BRANCH   1  12
ATOM     12  C   UNL     1       5.682 -60.277 191.154  1.00  0.00     0.000 C 
BRANCH  12  13
ATOM     13  C   UNL     1       6.731 -61.398 191.103  1.00  0.00    -0.000 C 
BRANCH  13  14
ATOM     14  C   UNL     1       7.354 -61.559 189.707  1.00  0.00    -0.000 C 
BRANCH  14  15
ATOM     15  C   UNL     1       7.800 -63.002 189.420  1.00  0.00    -0.000 C 
BRANCH  15  16
ATOM     16  C   UNL     1       7.073 -63.622 188.216  1.00  0.00    -0.000 C 
BRANCH  16  17
ATOM     17  C   UNL     1       5.877 -62.757 187.793  1.00  0.00    -0.000 C 
BRANCH  17  18
ATOM     18  C   UNL     1       4.526 -63.396 188.151  1.00  0.00    -0.000 C 
BRANCH  18  19
ATOM     19  C   UNL     1       4.348 -64.788 187.527  1.00  0.00    -0.003 C 
ATOM     20  C   UNL     1       3.399 -64.736 186.334  1.00  0.00     0.004 C 
ENDBRANCH  18  19
ENDBRANCH  17  18
ENDBRANCH  16  17
ENDBRANCH  15  16
ENDBRANCH  14  15
ENDBRANCH  13  14
ENDBRANCH  12  13
ENDBRANCH   1  12
TORSDOF 16
ENDMDL
MODEL 5
REMARK VINA RESULT:    -3.877      9.674     12.274
REMARK INTER + INTRA:          -9.298
REMARK INTER:                  -7.234
REMARK INTRA:                  -2.064
REMARK UNBOUND:                -1.794
REMARK SMILES CCCCCCCCCCCCCCCCCC(=O)[O-]
REMARK SMILES IDX 10 1 11 2 12 3 13 4 14 5 15 6 16 7 17 8 18 9 19 10 20 11
REMARK SMILES IDX 9 12 8 13 7 14 6 15 5 16 4 17 3 18 2 19 1 20
REMARK H PARENT
REMARK Flexibility Score: inf
ROOT
ATOM      1  C   UNL     1       4.772 -57.860 197.824  1.00  0.00     0.000 C 
ENDROOT
BRANCH   1   2
ATOM      2  C   UNL     1       3.570 -58.089 198.755  1.00  0.00     0.000 C 
BRANCH   2   3
ATOM      3  C   UNL     1       3.925 -57.887 200.237  1.00  0.00     0.000 C 
BRANCH   3   4
ATOM      4  C   UNL     1       3.557 -59.099 201.109  1.00  0.00     0.000 C 
BRANCH   4   5
ATOM      5  C   UNL     1       4.135 -60.433 200.592  1.00  0.00     0.000 C 
BRANCH   5   6
ATOM      6  C   UNL     1       5.450 -60.807 201.299  1.00  0.00     0.000 C 
BRANCH   6   7
ATOM      7  C   UNL     1       5.957 -62.209 200.912  1.00  0.00     0.006 C 
BRANCH   7   8
ATOM      8  C   UNL     1       5.068 -62.943 199.897  1.00  0.00     0.053 C 
BRANCH   8   9
ATOM      9  C   UNL     1       5.520 -64.352 199.669  1.00  0.00     0.041 C 
ATOM     10  O   UNL     1       6.679 -64.582 199.234  1.00  0.00    -0.550 OA
ATOM     11  O   UNL     1       4.675 -65.413 199.972  1.00  0.00    -0.550 OA
ENDBRANCH   8   9
ENDBRANCH   7   8
ENDBRANCH   6   7
ENDBRANCH   5   6
ENDBRANCH   4   5
ENDBRANCH   3   4
ENDBRANCH   2   3
ENDBRANCH   1   2
BRANCH   1  12
ATOM     12  C   UNL     1       5.382 -59.176 197.309  1.00  0.00     0.000 C 
BRANCH  12  13
ATOM     13  C   UNL     1       6.711 -59.522 197.998  1.00  0.00    -0.000 C 
BRANCH  13  14
ATOM     14  C   UNL     1       7.477 -58.272 198.465  1.00  0.00    -0.000 C 
BRANCH  14  15
ATOM     15  C   UNL     1       7.633 -58.211 199.992  1.00  0.00    -0.000 C 
BRANCH  15  16
ATOM     16  C   UNL     1       8.338 -56.930 200.468  1.00  0.00    -0.000 C 
BRANCH  16  17
ATOM     17  C   UNL     1       9.219 -57.212 201.694  1.00  0.00    -0.000 C 
BRANCH  17  18
ATOM     18  C   UNL     1      10.116 -58.446 201.509  1.00  0.00    -0.000 C 
BRANCH  18  19
ATOM     19  C   UNL     1      11.130 -58.274 200.370  1.00  0.00    -0.003 C 
ATOM     20  C   UNL     1      12.253 -59.301 200.475  1.00  0.00     0.004 C 
ENDBRANCH  18  19
ENDBRANCH  17  18
ENDBRANCH  16  17
ENDBRANCH  15  16
ENDBRANCH  14  15
ENDBRANCH  13  14
ENDBRANCH  12  13
ENDBRANCH   1  12
TORSDOF 16
ENDMDL
MODEL 6
REMARK VINA RESULT:    -3.865      1.553      3.449
REMARK INTER + INTRA:          -9.274
REMARK INTER:                  -7.743
REMARK INTRA:                  -1.531
REMARK UNBOUND:                -1.794
REMARK SMILES CCCCCCCCCCCCCCCCCC(=O)[O-]
REMARK SMILES IDX 10 1 11 2 12 3 13 4 14 5 15 6 16 7 17 8 18 9 19 10 20 11
REMARK SMILES IDX 9 12 8 13 7 14 6 15 5 16 4 17 3 18 2 19 1 20
REMARK H PARENT
REMARK Flexibility Score: inf
ROOT
ATOM      1  C   UNL     1       3.606 -60.905 189.630  1.00  0.00     0.000 C 
ENDROOT
BRANCH   1   2
ATOM      2  C   UNL     1       4.420 -59.919 190.484  1.00  0.00     0.000 C 
BRANCH   2   3
ATOM      3  C   UNL     1       5.219 -58.919 189.631  1.00  0.00     0.000 C 
BRANCH   3   4
ATOM      4  C   UNL     1       4.895 -57.454 189.969  1.00  0.00     0.000 C 
BRANCH   4   5
ATOM      5  C   UNL     1       4.076 -57.284 191.266  1.00  0.00     0.000 C 
BRANCH   5   6
ATOM      6  C   UNL     1       4.821 -56.437 192.314  1.00  0.00     0.000 C 
BRANCH   6   7
ATOM      7  C   UNL     1       6.348 -56.623 192.255  1.00  0.00     0.006 C 
BRANCH   7   8
ATOM      8  C   UNL     1       6.893 -57.680 193.228  1.00  0.00     0.053 C 
BRANCH   8   9
ATOM      9  C   UNL     1       7.565 -57.060 194.413  1.00  0.00     0.041 C 
ATOM     10  O   UNL     1       6.889 -56.719 195.419  1.00  0.00    -0.550 OA
ATOM     11  O   UNL     1       8.944 -56.890 194.422  1.00  0.00    -0.550 OA
ENDBRANCH   8   9
ENDBRANCH   7   8
ENDBRANCH   6   7
ENDBRANCH   5   6
ENDBRANCH   4   5
ENDBRANCH   3   4
ENDBRANCH   2   3
ENDBRANCH   1   2
BRANCH   1  12
ATOM     12  C   UNL     1       2.629 -60.197 188.675  1.00  0.00     0.000 C 
BRANCH  12  13
ATOM     13  C   UNL     1       2.111 -61.123 187.564  1.00  0.00    -0.000 C 
BRANCH  13  14
ATOM     14  C   UNL     1       2.428 -62.604 187.835  1.00  0.00    -0.000 C 
BRANCH  14  15
ATOM     15  C   UNL     1       3.345 -63.218 186.765  1.00  0.00    -0.000 C 
BRANCH  15  16
ATOM     16  C   UNL     1       3.774 -64.655 187.102  1.00  0.00    -0.000 C 
BRANCH  16  17
ATOM     17  C   UNL     1       5.241 -64.698 187.551  1.00  0.00    -0.000 C 
BRANCH  17  18
ATOM     18  C   UNL     1       5.743 -63.341 188.070  1.00  0.00    -0.000 C 
BRANCH  18  19
ATOM     19  C   UNL     1       7.247 -63.346 188.379  1.00  0.00    -0.003 C 
ATOM     20  C   UNL     1       7.591 -62.311 189.445  1.00  0.00     0.004 C 
ENDBRANCH  18  19
ENDBRANCH  17  18
ENDBRANCH  16  17
ENDBRANCH  15  16
ENDBRANCH  14  15
ENDBRANCH  13  14
ENDBRANCH  12  13
ENDBRANCH   1  12
TORSDOF 16
ENDMDL
MODEL 7
REMARK VINA RESULT:    -3.843      9.117     11.602
REMARK INTER + INTRA:          -9.231
REMARK INTER:                  -6.606
REMARK INTRA:                  -2.625
REMARK UNBOUND:                -1.794
REMARK SMILES CCCCCCCCCCCCCCCCCC(=O)[O-]
REMARK SMILES IDX 10 1 11 2 12 3 13 4 14 5 15 6 16 7 17 8 18 9 19 10 20 11
REMARK SMILES IDX 9 12 8 13 7 14 6 15 5 16 4 17 3 18 2 19 1 20
REMARK H PARENT
REMARK Flexibility Score: inf
ROOT
ATOM      1  C   UNL     1       4.666 -60.011 201.454  1.00  0.00     0.000 C 
ENDROOT
BRANCH   1   2
ATOM      2  C   UNL     1       4.703 -58.493 201.215  1.00  0.00     0.000 C 
BRANCH   2   3
ATOM      3  C   UNL     1       6.042 -58.021 200.625  1.00  0.00     0.000 C 
BRANCH   3   4
ATOM      4  C   UNL     1       6.635 -56.817 201.376  1.00  0.00     0.000 C 
BRANCH   4   5
ATOM      5  C   UNL     1       8.007 -57.104 202.022  1.00  0.00     0.000 C 
BRANCH   5   6
ATOM      6  C   UNL     1       8.676 -58.356 201.427  1.00  0.00     0.000 C 
BRANCH   6   7
ATOM      7  C   UNL     1      10.070 -58.066 200.842  1.00  0.00     0.006 C 
BRANCH   7   8
ATOM      8  C   UNL     1      10.166 -56.742 200.069  1.00  0.00     0.053 C 
BRANCH   8   9
ATOM      9  C   UNL     1       9.851 -56.915 198.616  1.00  0.00     0.041 C 
ATOM     10  O   UNL     1       8.656 -57.036 198.237  1.00  0.00    -0.550 OA
ATOM     11  O   UNL     1      10.873 -56.907 197.675  1.00  0.00    -0.550 OA
ENDBRANCH   8   9
ENDBRANCH   7   8
ENDBRANCH   6   7
ENDBRANCH   5   6
ENDBRANCH   4   5
ENDBRANCH   3   4
ENDBRANCH   2   3
ENDBRANCH   1   2
BRANCH   1  12
ATOM     12  C   UNL     1       5.883 -60.736 200.854  1.00  0.00     0.000 C 
BRANCH  12  13
ATOM     13  C   UNL     1       5.809 -62.261 201.027  1.00  0.00    -0.000 C 
BRANCH  13  14
ATOM     14  C   UNL     1       5.709 -63.003 199.683  1.00  0.00    -0.000 C 
BRANCH  14  15
ATOM     15  C   UNL     1       4.259 -63.338 199.299  1.00  0.00    -0.000 C 
BRANCH  15  16
ATOM     16  C   UNL     1       3.766 -62.541 198.080  1.00  0.00    -0.000 C 
BRANCH  16  17
ATOM     17  C   UNL     1       2.995 -61.288 198.520  1.00  0.00    -0.000 C 
BRANCH  17  18
ATOM     18  C   UNL     1       3.553 -59.998 197.900  1.00  0.00    -0.000 C 
BRANCH  18  19
ATOM     19  C   UNL     1       4.707 -60.265 196.922  1.00  0.00    -0.003 C 
ATOM     20  C   UNL     1       5.978 -59.548 197.366  1.00  0.00     0.004 C 
ENDBRANCH  18  19
ENDBRANCH  17  18
ENDBRANCH  16  17
ENDBRANCH  15  16
ENDBRANCH  14  15
ENDBRANCH  13  14
ENDBRANCH  12  13
ENDBRANCH   1  12
TORSDOF 16
ENDMDL
MODEL 8
REMARK VINA RESULT:    -3.838      2.403      4.784
REMARK INTER + INTRA:          -9.222
REMARK INTER:                  -7.587
REMARK INTRA:                  -1.635
REMARK UNBOUND:                -1.794
REMARK SMILES CCCCCCCCCCCCCCCCCC(=O)[O-]
REMARK SMILES IDX 10 1 11 2 12 3 13 4 14 5 15 6 16 7 17 8 18 9 19 10 20 11
REMARK SMILES IDX 9 12 8 13 7 14 6 15 5 16 4 17 3 18 2 19 1 20
REMARK H PARENT
REMARK Flexibility Score: inf
ROOT
ATOM      1  C   UNL     1       5.341 -59.683 189.620  1.00  0.00     0.000 C 
ENDROOT
BRANCH   1   2
ATOM      2  C   UNL     1       4.823 -58.241 189.741  1.00  0.00     0.000 C 
BRANCH   2   3
ATOM      3  C   UNL     1       4.317 -57.913 191.156  1.00  0.00     0.000 C 
BRANCH   3   4
ATOM      4  C   UNL     1       4.391 -56.412 191.484  1.00  0.00     0.000 C 
BRANCH   4   5
ATOM      5  C   UNL     1       5.185 -56.097 192.769  1.00  0.00     0.000 C 
BRANCH   5   6
ATOM      6  C   UNL     1       6.646 -56.575 192.679  1.00  0.00     0.000 C 
BRANCH   6   7
ATOM      7  C   UNL     1       6.931 -57.791 193.579  1.00  0.00     0.006 C 
BRANCH   7   8
ATOM      8  C   UNL     1       7.131 -57.445 195.062  1.00  0.00     0.053 C 
BRANCH   8   9
ATOM      9  C   UNL     1       6.004 -57.944 195.913  1.00  0.00     0.041 C 
ATOM     10  O   UNL     1       5.509 -57.205 196.804  1.00  0.00    -0.550 OA
ATOM     11  O   UNL     1       5.477 -59.211 195.697  1.00  0.00    -0.550 OA
ENDBRANCH   8   9
ENDBRANCH   7   8
ENDBRANCH   6   7
ENDBRANCH   5   6
ENDBRANCH   4   5
ENDBRANCH   3   4
ENDBRANCH   2   3
ENDBRANCH   1   2
BRANCH   1  12
ATOM     12  C   UNL     1       5.408 -60.406 190.977  1.00  0.00     0.000 C 
BRANCH  12  13
ATOM     13  C   UNL     1       6.720 -61.183 191.170  1.00  0.00    -0.000 C 
BRANCH  13  14
ATOM     14  C   UNL     1       7.451 -61.444 189.843  1.00  0.00    -0.000 C 
BRANCH  14  15
ATOM     15  C   UNL     1       7.881 -62.912 189.683  1.00  0.00    -0.000 C 
BRANCH  15  16
ATOM     16  C   UNL     1       7.401 -63.533 188.362  1.00  0.00    -0.000 C 
BRANCH  16  17
ATOM     17  C   UNL     1       6.257 -62.710 187.753  1.00  0.00    -0.000 C 
BRANCH  17  18
ATOM     18  C   UNL     1       4.869 -63.258 188.124  1.00  0.00    -0.000 C 
BRANCH  18  19
ATOM     19  C   UNL     1       4.639 -64.683 187.602  1.00  0.00    -0.003 C 
ATOM     20  C   UNL     1       3.537 -64.709 186.547  1.00  0.00     0.004 C 
ENDBRANCH  18  19
ENDBRANCH  17  18
ENDBRANCH  16  17
ENDBRANCH  15  16
ENDBRANCH  14  15
ENDBRANCH  13  14
ENDBRANCH  12  13
ENDBRANCH   1  12
TORSDOF 16
ENDMDL
MODEL 9
REMARK VINA RESULT:    -3.733      9.370     12.395
REMARK INTER + INTRA:          -9.019
REMARK INTER:                  -6.735
REMARK INTRA:                  -2.284
REMARK UNBOUND:                -1.794
REMARK SMILES CCCCCCCCCCCCCCCCCC(=O)[O-]
REMARK SMILES IDX 10 1 11 2 12 3 13 4 14 5 15 6 16 7 17 8 18 9 19 10 20 11
REMARK SMILES IDX 9 12 8 13 7 14 6 15 5 16 4 17 3 18 2 19 1 20
REMARK H PARENT
REMARK Flexibility Score: inf
ROOT
ATOM      1  C   UNL     1       4.386 -58.792 201.024  1.00  0.00     0.000 C 
ENDROOT
BRANCH   1   2
ATOM      2  C   UNL     1       4.523 -60.298 201.300  1.00  0.00     0.000 C 
BRANCH   2   3
ATOM      3  C   UNL     1       5.874 -60.864 200.831  1.00  0.00     0.000 C 
BRANCH   3   4
ATOM      4  C   UNL     1       6.002 -62.378 201.070  1.00  0.00     0.000 C 
BRANCH   4   5
ATOM      5  C   UNL     1       5.983 -63.213 199.772  1.00  0.00     0.000 C 
BRANCH   5   6
ATOM      6  C   UNL     1       4.564 -63.689 199.411  1.00  0.00     0.000 C 
BRANCH   6   7
ATOM      7  C   UNL     1       4.030 -63.046 198.118  1.00  0.00     0.006 C 
BRANCH   7   8
ATOM      8  C   UNL     1       3.104 -61.842 198.349  1.00  0.00     0.053 C 
BRANCH   8   9
ATOM      9  C   UNL     1       3.483 -60.670 197.498  1.00  0.00     0.041 C 
ATOM     10  O   UNL     1       2.659 -60.193 196.673  1.00  0.00    -0.550 OA
ATOM     11  O   UNL     1       4.733 -60.081 197.639  1.00  0.00    -0.550 OA
ENDBRANCH   8   9
ENDBRANCH   7   8
ENDBRANCH   6   7
ENDBRANCH   5   6
ENDBRANCH   4   5
ENDBRANCH   3   4
ENDBRANCH   2   3
ENDBRANCH   1   2
BRANCH   1  12
ATOM     12  C   UNL     1       5.743 -58.106 200.790  1.00  0.00     0.000 C 
BRANCH  12  13
ATOM     13  C   UNL     1       5.734 -57.177 199.566  1.00  0.00    -0.000 C 
BRANCH  13  14
ATOM     14  C   UNL     1       7.117 -57.062 198.903  1.00  0.00    -0.000 C 
BRANCH  14  15
ATOM     15  C   UNL     1       8.100 -58.136 199.395  1.00  0.00    -0.000 C 
BRANCH  15  16
ATOM     16  C   UNL     1       9.561 -57.657 199.384  1.00  0.00    -0.000 C 
BRANCH  16  17
ATOM     17  C   UNL     1      10.245 -57.954 200.726  1.00  0.00    -0.000 C 
BRANCH  17  18
ATOM     18  C   UNL     1       9.242 -58.274 201.846  1.00  0.00    -0.000 C 
BRANCH  18  19
ATOM     19  C   UNL     1       9.238 -57.214 202.956  1.00  0.00    -0.003 C 
ATOM     20  C   UNL     1       8.161 -56.162 202.706  1.00  0.00     0.004 C 
ENDBRANCH  18  19
ENDBRANCH  17  18
ENDBRANCH  16  17
ENDBRANCH  15  16
ENDBRANCH  14  15
ENDBRANCH  13  14
ENDBRANCH  12  13
ENDBRANCH   1  12
TORSDOF 16
ENDMDL
