MODEL 1
REMARK VINA RESULT:    -3.801      0.000      0.000
REMARK INTER + INTRA:          -4.456
REMARK INTER:                  -4.246
REMARK INTRA:                  -0.210
REMARK UNBOUND:                -0.210
REMARK SMILES CC(C)c1ccc(C(=O)[O-])cc1
REMARK SMILES IDX 7 1 6 2 11 3 5 4 12 5 4 6 8 7 9 8 10 9 2 10 1 11 3 12
REMARK H PARENT
REMARK Flexibility Score: inf
ROOT
ATOM      1  C   UNL     1     -19.062  58.996  34.257  1.00  0.00    -0.003 A 
ATOM      2  C   UNL     1     -18.780  59.106  35.630  1.00  0.00     0.010 A 
ATOM      3  C   UNL     1     -18.412  58.002  33.507  1.00  0.00     0.010 A 
ATOM      4  C   UNL     1     -17.868  58.239  36.238  1.00  0.00     0.004 A 
ATOM      5  C   UNL     1     -17.500  57.136  34.115  1.00  0.00     0.004 A 
ATOM      6  C   UNL     1     -17.217  57.244  35.487  1.00  0.00    -0.045 A 
ENDROOT
BRANCH   1   7
ATOM      7  C   UNL     1     -20.026  59.911  33.608  1.00  0.00     0.071 C 
ATOM      8  O   UNL     1     -21.126  59.477  33.171  1.00  0.00    -0.545 OA
ATOM      9  O   UNL     1     -19.732  61.263  33.469  1.00  0.00    -0.545 OA
ENDBRANCH   1   7
BRANCH   6  10
ATOM     10  C   UNL     1     -16.224  56.297  36.135  1.00  0.00     0.013 C 
ATOM     11  C   UNL     1     -16.103  56.568  37.640  1.00  0.00     0.012 C 
ATOM     12  C   UNL     1     -16.599  54.834  35.866  1.00  0.00     0.012 C 
ENDBRANCH   6  10
TORSDOF 2
ENDMDL
MODEL 2
REMARK VINA RESULT:    -3.702      3.083      5.037
REMARK INTER + INTRA:          -4.346
REMARK INTER:                  -4.134
REMARK INTRA:                  -0.211
REMARK UNBOUND:                -0.210
REMARK SMILES CC(C)c1ccc(C(=O)[O-])cc1
REMARK SMILES IDX 7 1 6 2 11 3 5 4 12 5 4 6 8 7 9 8 10 9 2 10 1 11 3 12
REMARK H PARENT
REMARK Flexibility Score: inf
ROOT
ATOM      1  C   UNL     1     -17.329  56.850  35.497  1.00  0.00    -0.003 A 
ATOM      2  C   UNL     1     -17.781  57.910  36.302  1.00  0.00     0.010 A 
ATOM      3  C   UNL     1     -17.629  56.862  34.125  1.00  0.00     0.010 A 
ATOM      4  C   UNL     1     -18.517  58.960  35.745  1.00  0.00     0.004 A 
ATOM      5  C   UNL     1     -18.364  57.912  33.568  1.00  0.00     0.004 A 
ATOM      6  C   UNL     1     -18.816  58.973  34.370  1.00  0.00    -0.045 A 
ENDROOT
BRANCH   1   7
ATOM      7  C   UNL     1     -16.551  55.736  36.081  1.00  0.00     0.071 C 
ATOM      8  O   UNL     1     -16.491  54.621  35.497  1.00  0.00    -0.545 OA
ATOM      9  O   UNL     1     -15.876  55.903  37.285  1.00  0.00    -0.545 OA
ENDBRANCH   1   7
BRANCH   6  10
ATOM     10  C   UNL     1     -19.614  60.106  33.752  1.00  0.00     0.013 C 
ATOM     11  C   UNL     1     -21.055  59.672  33.456  1.00  0.00     0.012 C 
ATOM     12  C   UNL     1     -19.587  61.352  34.646  1.00  0.00     0.012 C 
ENDBRANCH   6  10
TORSDOF 2
ENDMDL
MODEL 3
REMARK VINA RESULT:    -3.662      3.057      5.216
REMARK INTER + INTRA:          -4.300
REMARK INTER:                  -4.088
REMARK INTRA:                  -0.212
REMARK UNBOUND:                -0.210
REMARK SMILES CC(C)c1ccc(C(=O)[O-])cc1
REMARK SMILES IDX 7 1 6 2 11 3 5 4 12 5 4 6 8 7 9 8 10 9 2 10 1 11 3 12
REMARK H PARENT
REMARK Flexibility Score: inf
ROOT
ATOM      1  C   UNL     1     -17.385  56.886  35.471  1.00  0.00    -0.003 A 
ATOM      2  C   UNL     1     -17.721  56.923  34.106  1.00  0.00     0.010 A 
ATOM      3  C   UNL     1     -17.816  57.929  36.306  1.00  0.00     0.010 A 
ATOM      4  C   UNL     1     -18.471  57.982  33.588  1.00  0.00     0.004 A 
ATOM      5  C   UNL     1     -18.567  58.989  35.788  1.00  0.00     0.004 A 
ATOM      6  C   UNL     1     -18.903  59.028  34.425  1.00  0.00    -0.045 A 
ENDROOT
BRANCH   1   7
ATOM      7  C   UNL     1     -16.590  55.768  36.023  1.00  0.00     0.071 C 
ATOM      8  O   UNL     1     -16.551  54.656  35.431  1.00  0.00    -0.545 OA
ATOM      9  O   UNL     1     -15.875  55.927  37.205  1.00  0.00    -0.545 OA
ENDBRANCH   1   7
BRANCH   6  10
ATOM     10  C   UNL     1     -19.719  60.184  33.876  1.00  0.00     0.013 C 
ATOM     11  C   UNL     1     -21.182  59.776  33.661  1.00  0.00     0.012 C 
ATOM     12  C   UNL     1     -19.618  61.414  34.787  1.00  0.00     0.012 C 
ENDBRANCH   6  10
TORSDOF 2
ENDMDL
MODEL 4
REMARK VINA RESULT:    -3.297      1.140      2.121
REMARK INTER + INTRA:          -3.892
REMARK INTER:                  -3.682
REMARK INTRA:                  -0.210
REMARK UNBOUND:                -0.210
REMARK SMILES CC(C)c1ccc(C(=O)[O-])cc1
REMARK SMILES IDX 7 1 6 2 11 3 5 4 12 5 4 6 8 7 9 8 10 9 2 10 1 11 3 12
REMARK H PARENT
REMARK Flexibility Score: inf
ROOT
ATOM      1  C   UNL     1     -19.429  59.944  34.434  1.00  0.00    -0.003 A 
ATOM      2  C   UNL     1     -18.875  58.773  33.889  1.00  0.00     0.010 A 
ATOM      3  C   UNL     1     -19.262  60.201  35.805  1.00  0.00     0.010 A 
ATOM      4  C   UNL     1     -18.170  57.878  34.698  1.00  0.00     0.004 A 
ATOM      5  C   UNL     1     -18.557  59.306  36.614  1.00  0.00     0.004 A 
ATOM      6  C   UNL     1     -18.002  58.135  36.071  1.00  0.00    -0.045 A 
ENDROOT
BRANCH   1   7
ATOM      7  C   UNL     1     -20.177  60.894  33.582  1.00  0.00     0.071 C 
ATOM      8  O   UNL     1     -21.385  60.681  33.293  1.00  0.00    -0.545 OA
ATOM      9  O   UNL     1     -19.557  62.035  33.085  1.00  0.00    -0.545 OA
ENDBRANCH   1   7
BRANCH   6  10
ATOM     10  C   UNL     1     -17.239  57.173  36.962  1.00  0.00     0.013 C 
ATOM     11  C   UNL     1     -15.876  56.819  36.353  1.00  0.00     0.012 C 
ATOM     12  C   UNL     1     -17.081  57.737  38.379  1.00  0.00     0.012 C 
ENDBRANCH   6  10
TORSDOF 2
ENDMDL
MODEL 5
REMARK VINA RESULT:    -3.183     20.273     21.215
REMARK INTER + INTRA:          -3.766
REMARK INTER:                  -3.558
REMARK INTRA:                  -0.208
REMARK UNBOUND:                -0.210
REMARK SMILES CC(C)c1ccc(C(=O)[O-])cc1
REMARK SMILES IDX 7 1 6 2 11 3 5 4 12 5 4 6 8 7 9 8 10 9 2 10 1 11 3 12
REMARK H PARENT
REMARK Flexibility Score: inf
ROOT
ATOM      1  C   UNL     1     -34.280  44.315  39.294  1.00  0.00    -0.003 A 
ATOM      2  C   UNL     1     -33.242  43.370  39.373  1.00  0.00     0.010 A 
ATOM      3  C   UNL     1     -34.517  44.965  38.072  1.00  0.00     0.010 A 
ATOM      4  C   UNL     1     -32.458  43.082  38.252  1.00  0.00     0.004 A 
ATOM      5  C   UNL     1     -33.733  44.677  36.951  1.00  0.00     0.004 A 
ATOM      6  C   UNL     1     -32.695  43.733  37.028  1.00  0.00    -0.045 A 
ENDROOT
BRANCH   1   7
ATOM      7  C   UNL     1     -35.112  44.623  40.478  1.00  0.00     0.071 C 
ATOM      8  O   UNL     1     -35.761  43.713  41.059  1.00  0.00    -0.545 OA
ATOM      9  O   UNL     1     -35.190  45.923  40.965  1.00  0.00    -0.545 OA
ENDBRANCH   1   7
BRANCH   6  10
ATOM     10  C   UNL     1     -31.851  43.431  35.803  1.00  0.00     0.013 C 
ATOM     11  C   UNL     1     -30.995  44.640  35.409  1.00  0.00     0.012 C 
ATOM     12  C   UNL     1     -30.982  42.187  36.025  1.00  0.00     0.012 C 
ENDBRANCH   6  10
TORSDOF 2
ENDMDL
MODEL 6
REMARK VINA RESULT:    -3.120     16.991     18.201
REMARK INTER + INTRA:          -3.695
REMARK INTER:                  -3.486
REMARK INTRA:                  -0.209
REMARK UNBOUND:                -0.210
REMARK SMILES CC(C)c1ccc(C(=O)[O-])cc1
REMARK SMILES IDX 7 1 6 2 11 3 5 4 12 5 4 6 8 7 9 8 10 9 2 10 1 11 3 12
REMARK H PARENT
REMARK Flexibility Score: inf
ROOT
ATOM      1  C   UNL     1     -28.200  44.735  34.535  1.00  0.00    -0.003 A 
ATOM      2  C   UNL     1     -28.372  43.377  34.858  1.00  0.00     0.010 A 
ATOM      3  C   UNL     1     -29.286  45.612  34.685  1.00  0.00     0.010 A 
ATOM      4  C   UNL     1     -29.605  42.909  35.320  1.00  0.00     0.004 A 
ATOM      5  C   UNL     1     -30.519  45.144  35.148  1.00  0.00     0.004 A 
ATOM      6  C   UNL     1     -30.693  43.788  35.471  1.00  0.00    -0.045 A 
ENDROOT
BRANCH   1   7
ATOM      7  C   UNL     1     -26.898  45.235  34.044  1.00  0.00     0.071 C 
ATOM      8  O   UNL     1     -25.886  45.233  34.795  1.00  0.00    -0.545 OA
ATOM      9  O   UNL     1     -26.772  45.717  32.746  1.00  0.00    -0.545 OA
ENDBRANCH   1   7
BRANCH   6  10
ATOM     10  C   UNL     1     -32.037  43.292  35.973  1.00  0.00     0.013 C 
ATOM     11  C   UNL     1     -31.928  42.754  37.405  1.00  0.00     0.012 C 
ATOM     12  C   UNL     1     -33.102  44.392  35.876  1.00  0.00     0.012 C 
ENDBRANCH   6  10
TORSDOF 2
ENDMDL
MODEL 7
REMARK VINA RESULT:    -3.103     18.253     19.217
REMARK INTER + INTRA:          -3.676
REMARK INTER:                  -3.472
REMARK INTRA:                  -0.204
REMARK UNBOUND:                -0.210
REMARK SMILES CC(C)c1ccc(C(=O)[O-])cc1
REMARK SMILES IDX 7 1 6 2 11 3 5 4 12 5 4 6 8 7 9 8 10 9 2 10 1 11 3 12
REMARK H PARENT
REMARK Flexibility Score: inf
ROOT
ATOM      1  C   UNL     1     -32.759  44.594  37.471  1.00  0.00    -0.003 A 
ATOM      2  C   UNL     1     -31.679  45.383  37.903  1.00  0.00     0.010 A 
ATOM      3  C   UNL     1     -32.764  44.114  36.151  1.00  0.00     0.010 A 
ATOM      4  C   UNL     1     -30.628  45.686  37.033  1.00  0.00     0.004 A 
ATOM      5  C   UNL     1     -31.713  44.416  35.281  1.00  0.00     0.004 A 
ATOM      6  C   UNL     1     -30.633  45.205  35.711  1.00  0.00    -0.045 A 
ENDROOT
BRANCH   1   7
ATOM      7  C   UNL     1     -33.874  44.272  38.387  1.00  0.00     0.071 C 
ATOM      8  O   UNL     1     -33.660  43.655  39.465  1.00  0.00    -0.545 OA
ATOM      9  O   UNL     1     -35.176  44.645  38.071  1.00  0.00    -0.545 OA
ENDBRANCH   1   7
BRANCH   6  10
ATOM     10  C   UNL     1     -29.498  45.525  34.756  1.00  0.00     0.013 C 
ATOM     11  C   UNL     1     -28.872  46.888  35.079  1.00  0.00     0.012 C 
ATOM     12  C   UNL     1     -28.439  44.416  34.765  1.00  0.00     0.012 C 
ENDBRANCH   6  10
TORSDOF 2
ENDMDL
MODEL 8
REMARK VINA RESULT:    -3.019     20.119     21.085
REMARK INTER + INTRA:          -3.583
REMARK INTER:                  -3.371
REMARK INTRA:                  -0.212
REMARK UNBOUND:                -0.210
REMARK SMILES CC(C)c1ccc(C(=O)[O-])cc1
REMARK SMILES IDX 7 1 6 2 11 3 5 4 12 5 4 6 8 7 9 8 10 9 2 10 1 11 3 12
REMARK H PARENT
REMARK Flexibility Score: inf
ROOT
ATOM      1  C   UNL     1     -32.226  43.677  36.777  1.00  0.00    -0.003 A 
ATOM      2  C   UNL     1     -32.369  43.101  38.051  1.00  0.00     0.010 A 
ATOM      3  C   UNL     1     -33.115  44.691  36.385  1.00  0.00     0.010 A 
ATOM      4  C   UNL     1     -33.381  43.531  38.914  1.00  0.00     0.004 A 
ATOM      5  C   UNL     1     -34.127  45.121  37.248  1.00  0.00     0.004 A 
ATOM      6  C   UNL     1     -34.272  44.546  38.522  1.00  0.00    -0.045 A 
ENDROOT
BRANCH   1   7
ATOM      7  C   UNL     1     -31.157  43.226  35.859  1.00  0.00     0.071 C 
ATOM      8  O   UNL     1     -30.517  44.058  35.163  1.00  0.00    -0.545 OA
ATOM      9  O   UNL     1     -30.845  41.875  35.751  1.00  0.00    -0.545 OA
ENDBRANCH   1   7
BRANCH   6  10
ATOM     10  C   UNL     1     -35.375  45.022  39.449  1.00  0.00     0.013 C 
ATOM     11  C   UNL     1     -35.468  44.136  40.698  1.00  0.00     0.012 C 
ATOM     12  C   UNL     1     -35.179  46.495  39.831  1.00  0.00     0.012 C 
ENDBRANCH   6  10
TORSDOF 2
ENDMDL
MODEL 9
REMARK VINA RESULT:    -3.008     18.726     19.778
REMARK INTER + INTRA:          -3.570
REMARK INTER:                  -3.361
REMARK INTRA:                  -0.209
REMARK UNBOUND:                -0.210
REMARK SMILES CC(C)c1ccc(C(=O)[O-])cc1
REMARK SMILES IDX 7 1 6 2 11 3 5 4 12 5 4 6 8 7 9 8 10 9 2 10 1 11 3 12
REMARK H PARENT
REMARK Flexibility Score: inf
ROOT
ATOM      1  C   UNL     1     -30.724  44.088  35.939  1.00  0.00    -0.003 A 
ATOM      2  C   UNL     1     -31.994  43.830  35.393  1.00  0.00     0.010 A 
ATOM      3  C   UNL     1     -30.624  44.934  37.056  1.00  0.00     0.010 A 
ATOM      4  C   UNL     1     -33.137  44.407  35.952  1.00  0.00     0.004 A 
ATOM      5  C   UNL     1     -31.767  45.511  37.615  1.00  0.00     0.004 A 
ATOM      6  C   UNL     1     -33.037  45.254  37.070  1.00  0.00    -0.045 A 
ENDROOT
BRANCH   1   7
ATOM      7  C   UNL     1     -29.511  43.481  35.351  1.00  0.00     0.071 C 
ATOM      8  O   UNL     1     -28.479  44.176  35.151  1.00  0.00    -0.545 OA
ATOM      9  O   UNL     1     -29.492  42.133  35.008  1.00  0.00    -0.545 OA
ENDBRANCH   1   7
BRANCH   6  10
ATOM     10  C   UNL     1     -34.271  45.887  37.687  1.00  0.00     0.013 C 
ATOM     11  C   UNL     1     -35.095  44.852  38.462  1.00  0.00     0.012 C 
ATOM     12  C   UNL     1     -33.894  47.074  38.583  1.00  0.00     0.012 C 
ENDBRANCH   6  10
TORSDOF 2
ENDMDL
