MODEL 1
REMARK VINA RESULT:    -8.646      0.000      0.000
REMARK INTER + INTRA:         -10.446
REMARK INTER:                 -10.162
REMARK INTRA:                  -0.284
REMARK UNBOUND:                -0.284
REMARK SMILES O=c1cc(-c2ccc(O)c(O)c2)oc2cc(O)cc(O)c12
REMARK SMILES IDX 4 1 3 2 2 3 1 4 21 5 19 6 18 7 16 8 15 9 14 10 13 11 5 12
REMARK SMILES IDX 6 13 7 14 8 15 12 16 10 17 9 18 11 20 20 22 17 24
REMARK H PARENT 9 19 11 21 20 23 17 25
REMARK Flexibility Score: inf
ROOT
ATOM      1  C   UNL     1       8.298 -25.447  35.474  1.00  0.00     0.138 A 
ATOM      2  C   UNL     1       8.243 -24.079  35.171  1.00  0.00     0.100 A 
ATOM      3  C   UNL     1       7.269 -23.606  34.291  1.00  0.00     0.197 A 
ATOM      4  O   UNL     1       7.285 -22.385  33.989  1.00  0.00    -0.289 OA
ATOM      5  C   UNL     1       6.326 -24.504  33.738  1.00  0.00     0.107 A 
ATOM      6  C   UNL     1       5.264 -24.128  32.861  1.00  0.00     0.134 A 
ATOM      7  C   UNL     1       4.462 -25.121  32.284  1.00  0.00     0.093 A 
ATOM      8  C   UNL     1       4.643 -26.467  32.597  1.00  0.00     0.123 A 
ATOM      9  C   UNL     1       5.645 -26.841  33.494  1.00  0.00     0.094 A 
ATOM     10  C   UNL     1       6.484 -25.878  34.060  1.00  0.00     0.146 A 
ATOM     11  O   UNL     1       7.434 -26.276  34.899  1.00  0.00    -0.456 OA
ENDROOT
BRANCH   1  12
ATOM     12  C   UNL     1       9.313 -26.004  36.405  1.00  0.00     0.021 A 
ATOM     13  C   UNL     1       9.460 -25.515  37.717  1.00  0.00     0.016 A 
ATOM     14  C   UNL     1      10.417 -26.065  38.574  1.00  0.00     0.051 A 
ATOM     15  C   UNL     1      11.235 -27.113  38.144  1.00  0.00     0.157 A 
ATOM     16  C   UNL     1      10.130 -27.068  35.982  1.00  0.00     0.062 A 
ATOM     17  C   UNL     1      11.091 -27.620  36.842  1.00  0.00     0.158 A 
BRANCH  15  18
ATOM     18  O   UNL     1      12.182 -27.640  39.022  1.00  0.00    -0.504 OA
ATOM     19  H   UNL     1      12.275 -28.636  39.180  1.00  0.00     0.293 HD
ENDBRANCH  15  18
BRANCH  17  20
ATOM     20  O   UNL     1      11.901 -28.668  36.407  1.00  0.00    -0.504 OA
ATOM     21  H   UNL     1      11.626 -29.636  36.524  1.00  0.00     0.293 HD
ENDBRANCH  17  20
ENDBRANCH   1  12
BRANCH   6  22
ATOM     22  O   UNL     1       4.940 -22.804  32.548  1.00  0.00    -0.507 OA
ATOM     23  H   UNL     1       5.350 -21.992  32.984  1.00  0.00     0.293 HD
ENDBRANCH   6  22
BRANCH   8  24
ATOM     24  O   UNL     1       3.817 -27.426  32.014  1.00  0.00    -0.508 OA
ATOM     25  H   UNL     1       3.730 -28.357  32.404  1.00  0.00     0.293 HD
ENDBRANCH   8  24
TORSDOF 5
ENDMDL
MODEL 2
REMARK VINA RESULT:    -8.254      3.955      6.039
REMARK INTER + INTRA:          -9.986
REMARK INTER:                  -9.687
REMARK INTRA:                  -0.299
REMARK UNBOUND:                -0.284
REMARK SMILES O=c1cc(-c2ccc(O)c(O)c2)oc2cc(O)cc(O)c12
REMARK SMILES IDX 4 1 3 2 2 3 1 4 21 5 19 6 18 7 16 8 15 9 14 10 13 11 5 12
REMARK SMILES IDX 6 13 7 14 8 15 12 16 10 17 9 18 11 20 20 22 17 24
REMARK H PARENT 9 19 11 21 20 23 17 25
REMARK Flexibility Score: inf
ROOT
ATOM      1  C   UNL     1       9.792 -22.341  35.060  1.00  0.00     0.138 A 
ATOM      2  C   UNL     1       8.433 -22.207  34.743  1.00  0.00     0.100 A 
ATOM      3  C   UNL     1       7.536 -23.209  35.116  1.00  0.00     0.197 A 
ATOM      4  O   UNL     1       6.335 -23.091  34.763  1.00  0.00    -0.289 OA
ATOM      5  C   UNL     1       7.999 -24.334  35.839  1.00  0.00     0.107 A 
ATOM      6  C   UNL     1       7.169 -25.397  36.306  1.00  0.00     0.134 A 
ATOM      7  C   UNL     1       7.756 -26.516  36.909  1.00  0.00     0.093 A 
ATOM      8  C   UNL     1       9.133 -26.585  37.116  1.00  0.00     0.123 A 
ATOM      9  C   UNL     1       9.948 -25.528  36.710  1.00  0.00     0.094 A 
ATOM     10  C   UNL     1       9.397 -24.413  36.074  1.00  0.00     0.146 A 
ATOM     11  O   UNL     1      10.209 -23.434  35.691  1.00  0.00    -0.456 OA
ENDROOT
BRANCH   1  12
ATOM     12  C   UNL     1      10.790 -21.305  34.688  1.00  0.00     0.021 A 
ATOM     13  C   UNL     1      10.501 -19.931  34.787  1.00  0.00     0.016 A 
ATOM     14  C   UNL     1      11.463 -18.978  34.440  1.00  0.00     0.051 A 
ATOM     15  C   UNL     1      12.727 -19.376  33.999  1.00  0.00     0.157 A 
ATOM     16  C   UNL     1      12.069 -21.699  34.256  1.00  0.00     0.062 A 
ATOM     17  C   UNL     1      13.035 -20.743  33.906  1.00  0.00     0.158 A 
BRANCH  15  18
ATOM     18  O   UNL     1      13.665 -18.401  33.658  1.00  0.00    -0.504 OA
ATOM     19  H   UNL     1      14.134 -18.397  32.760  1.00  0.00     0.293 HD
ENDBRANCH  15  18
BRANCH  17  20
ATOM     20  O   UNL     1      14.295 -21.148  33.470  1.00  0.00    -0.504 OA
ATOM     21  H   UNL     1      15.129 -20.616  33.689  1.00  0.00     0.293 HD
ENDBRANCH  17  20
ENDBRANCH   1  12
BRANCH   6  22
ATOM     22  O   UNL     1       5.773 -25.390  36.227  1.00  0.00    -0.507 OA
ATOM     23  H   UNL     1       5.214 -24.596  35.957  1.00  0.00     0.293 HD
ENDBRANCH   6  22
BRANCH   8  24
ATOM     24  O   UNL     1       9.680 -27.709  37.732  1.00  0.00    -0.508 OA
ATOM     25  H   UNL     1      10.535 -28.135  37.393  1.00  0.00     0.293 HD
ENDBRANCH   8  24
TORSDOF 5
ENDMDL
MODEL 3
REMARK VINA RESULT:    -8.250      1.489      6.920
REMARK INTER + INTRA:          -9.981
REMARK INTER:                  -9.689
REMARK INTRA:                  -0.292
REMARK UNBOUND:                -0.284
REMARK SMILES O=c1cc(-c2ccc(O)c(O)c2)oc2cc(O)cc(O)c12
REMARK SMILES IDX 4 1 3 2 2 3 1 4 21 5 19 6 18 7 16 8 15 9 14 10 13 11 5 12
REMARK SMILES IDX 6 13 7 14 8 15 12 16 10 17 9 18 11 20 20 22 17 24
REMARK H PARENT 9 19 11 21 20 23 17 25
REMARK Flexibility Score: inf
ROOT
ATOM      1  C   UNL     1       7.142 -25.204  34.625  1.00  0.00     0.138 A 
ATOM      2  C   UNL     1       7.349 -23.969  35.256  1.00  0.00     0.100 A 
ATOM      3  C   UNL     1       8.409 -23.821  36.151  1.00  0.00     0.197 A 
ATOM      4  O   UNL     1       8.531 -22.721  36.749  1.00  0.00    -0.289 OA
ATOM      5  C   UNL     1       9.284 -24.906  36.391  1.00  0.00     0.107 A 
ATOM      6  C   UNL     1      10.421 -24.858  37.253  1.00  0.00     0.134 A 
ATOM      7  C   UNL     1      11.147 -26.029  37.503  1.00  0.00     0.093 A 
ATOM      8  C   UNL     1      10.816 -27.231  36.878  1.00  0.00     0.123 A 
ATOM      9  C   UNL     1       9.738 -27.277  35.993  1.00  0.00     0.094 A 
ATOM     10  C   UNL     1       8.972 -26.134  35.749  1.00  0.00     0.146 A 
ATOM     11  O   UNL     1       7.947 -26.223  34.910  1.00  0.00    -0.456 OA
ENDROOT
BRANCH   1  12
ATOM     12  C   UNL     1       6.031 -25.417  33.663  1.00  0.00     0.021 A 
ATOM     13  C   UNL     1       5.607 -26.709  33.298  1.00  0.00     0.016 A 
ATOM     14  C   UNL     1       4.552 -26.880  32.397  1.00  0.00     0.051 A 
ATOM     15  C   UNL     1       3.898 -25.771  31.854  1.00  0.00     0.157 A 
ATOM     16  C   UNL     1       5.360 -24.306  33.122  1.00  0.00     0.062 A 
ATOM     17  C   UNL     1       4.301 -24.476  32.218  1.00  0.00     0.158 A 
BRANCH  15  18
ATOM     18  O   UNL     1       2.850 -25.975  30.956  1.00  0.00    -0.504 OA
ATOM     19  H   UNL     1       2.130 -26.669  31.118  1.00  0.00     0.293 HD
ENDBRANCH  15  18
BRANCH  17  20
ATOM     20  O   UNL     1       3.651 -23.366  31.683  1.00  0.00    -0.504 OA
ATOM     21  H   UNL     1       2.985 -22.828  32.224  1.00  0.00     0.293 HD
ENDBRANCH  17  20
ENDBRANCH   1  12
BRANCH   6  22
ATOM     22  O   UNL     1      10.890 -23.690  37.862  1.00  0.00    -0.507 OA
ATOM     23  H   UNL     1      11.233 -22.881  37.369  1.00  0.00     0.293 HD
ENDBRANCH   6  22
BRANCH   8  24
ATOM     24  O   UNL     1      11.570 -28.372  37.140  1.00  0.00    -0.508 OA
ATOM     25  H   UNL     1      11.400 -28.942  37.962  1.00  0.00     0.293 HD
ENDBRANCH   8  24
TORSDOF 5
ENDMDL
MODEL 4
REMARK VINA RESULT:    -8.177      1.898      7.222
REMARK INTER + INTRA:          -9.895
REMARK INTER:                  -9.579
REMARK INTRA:                  -0.316
REMARK UNBOUND:                -0.284
REMARK SMILES O=c1cc(-c2ccc(O)c(O)c2)oc2cc(O)cc(O)c12
REMARK SMILES IDX 4 1 3 2 2 3 1 4 21 5 19 6 18 7 16 8 15 9 14 10 13 11 5 12
REMARK SMILES IDX 6 13 7 14 8 15 12 16 10 17 9 18 11 20 20 22 17 24
REMARK H PARENT 9 19 11 21 20 23 17 25
REMARK Flexibility Score: inf
ROOT
ATOM      1  C   UNL     1       7.234 -25.331  34.646  1.00  0.00     0.138 A 
ATOM      2  C   UNL     1       8.050 -26.412  35.009  1.00  0.00     0.100 A 
ATOM      3  C   UNL     1       9.148 -26.199  35.842  1.00  0.00     0.197 A 
ATOM      4  O   UNL     1       9.897 -27.176  36.098  1.00  0.00    -0.289 OA
ATOM      5  C   UNL     1       9.412 -24.901  36.340  1.00  0.00     0.107 A 
ATOM      6  C   UNL     1      10.480 -24.573  37.229  1.00  0.00     0.134 A 
ATOM      7  C   UNL     1      10.712 -23.233  37.563  1.00  0.00     0.093 A 
ATOM      8  C   UNL     1       9.882 -22.217  37.091  1.00  0.00     0.123 A 
ATOM      9  C   UNL     1       8.803 -22.532  36.263  1.00  0.00     0.094 A 
ATOM     10  C   UNL     1       8.565 -23.856  35.884  1.00  0.00     0.146 A 
ATOM     11  O   UNL     1       7.536 -24.112  35.084  1.00  0.00    -0.456 OA
ENDROOT
BRANCH   1  12
ATOM     12  C   UNL     1       6.052 -25.501  33.763  1.00  0.00     0.021 A 
ATOM     13  C   UNL     1       5.534 -26.774  33.459  1.00  0.00     0.016 A 
ATOM     14  C   UNL     1       4.414 -26.903  32.633  1.00  0.00     0.051 A 
ATOM     15  C   UNL     1       3.788 -25.771  32.105  1.00  0.00     0.157 A 
ATOM     16  C   UNL     1       5.410 -24.365  33.239  1.00  0.00     0.062 A 
ATOM     17  C   UNL     1       4.287 -24.494  32.409  1.00  0.00     0.158 A 
BRANCH  15  18
ATOM     18  O   UNL     1       2.674 -25.934  31.282  1.00  0.00    -0.504 OA
ATOM     19  H   UNL     1       2.591 -25.465  30.389  1.00  0.00     0.293 HD
ENDBRANCH  15  18
BRANCH  17  20
ATOM     20  O   UNL     1       3.666 -23.360  31.888  1.00  0.00    -0.504 OA
ATOM     21  H   UNL     1       2.657 -23.269  31.869  1.00  0.00     0.293 HD
ENDBRANCH  17  20
ENDBRANCH   1  12
BRANCH   6  22
ATOM     22  O   UNL     1      11.317 -25.520  37.827  1.00  0.00    -0.507 OA
ATOM     23  H   UNL     1      12.295 -25.638  37.617  1.00  0.00     0.293 HD
ENDBRANCH   6  22
BRANCH   8  24
ATOM     24  O   UNL     1      10.136 -20.897  37.455  1.00  0.00    -0.508 OA
ATOM     25  H   UNL     1       9.846 -20.121  36.871  1.00  0.00     0.293 HD
ENDBRANCH   8  24
TORSDOF 5
ENDMDL
MODEL 5
REMARK VINA RESULT:    -8.125      3.597      5.585
REMARK INTER + INTRA:          -9.834
REMARK INTER:                  -9.568
REMARK INTRA:                  -0.267
REMARK UNBOUND:                -0.284
REMARK SMILES O=c1cc(-c2ccc(O)c(O)c2)oc2cc(O)cc(O)c12
REMARK SMILES IDX 4 1 3 2 2 3 1 4 21 5 19 6 18 7 16 8 15 9 14 10 13 11 5 12
REMARK SMILES IDX 6 13 7 14 8 15 12 16 10 17 9 18 11 20 20 22 17 24
REMARK H PARENT 9 19 11 21 20 23 17 25
REMARK Flexibility Score: inf
ROOT
ATOM      1  C   UNL     1      10.100 -23.479  35.153  1.00  0.00     0.138 A 
ATOM      2  C   UNL     1      10.558 -24.213  36.257  1.00  0.00     0.100 A 
ATOM      3  C   UNL     1       9.883 -25.371  36.643  1.00  0.00     0.197 A 
ATOM      4  O   UNL     1      10.279 -25.973  37.674  1.00  0.00    -0.289 OA
ATOM      5  C   UNL     1       8.762 -25.813  35.900  1.00  0.00     0.107 A 
ATOM      6  C   UNL     1       8.021 -27.001  36.178  1.00  0.00     0.134 A 
ATOM      7  C   UNL     1       6.859 -27.276  35.445  1.00  0.00     0.093 A 
ATOM      8  C   UNL     1       6.446 -26.441  34.407  1.00  0.00     0.123 A 
ATOM      9  C   UNL     1       7.193 -25.305  34.093  1.00  0.00     0.094 A 
ATOM     10  C   UNL     1       8.337 -24.984  34.828  1.00  0.00     0.146 A 
ATOM     11  O   UNL     1       9.013 -23.887  34.506  1.00  0.00    -0.456 OA
ENDROOT
BRANCH   1  12
ATOM     12  C   UNL     1      10.781 -22.240  34.698  1.00  0.00     0.021 A 
ATOM     13  C   UNL     1      10.108 -21.005  34.644  1.00  0.00     0.016 A 
ATOM     14  C   UNL     1      10.777 -19.853  34.221  1.00  0.00     0.051 A 
ATOM     15  C   UNL     1      12.124 -19.909  33.854  1.00  0.00     0.157 A 
ATOM     16  C   UNL     1      12.140 -22.288  34.340  1.00  0.00     0.062 A 
ATOM     17  C   UNL     1      12.812 -21.133  33.914  1.00  0.00     0.158 A 
BRANCH  15  18
ATOM     18  O   UNL     1      12.763 -18.743  33.434  1.00  0.00    -0.504 OA
ATOM     19  H   UNL     1      13.584 -18.762  32.842  1.00  0.00     0.293 HD
ENDBRANCH  15  18
BRANCH  17  20
ATOM     20  O   UNL     1      14.156 -21.197  33.553  1.00  0.00    -0.504 OA
ATOM     21  H   UNL     1      14.872 -20.711  34.080  1.00  0.00     0.293 HD
ENDBRANCH  17  20
ENDBRANCH   1  12
BRANCH   6  22
ATOM     22  O   UNL     1       8.394 -27.949  37.136  1.00  0.00    -0.507 OA
ATOM     23  H   UNL     1       7.800 -28.689  37.475  1.00  0.00     0.293 HD
ENDBRANCH   6  22
BRANCH   8  24
ATOM     24  O   UNL     1       5.293 -26.754  33.691  1.00  0.00    -0.508 OA
ATOM     25  H   UNL     1       4.491 -27.181  34.140  1.00  0.00     0.293 HD
ENDBRANCH   8  24
TORSDOF 5
ENDMDL
MODEL 6
REMARK VINA RESULT:    -8.090      2.718      7.072
REMARK INTER + INTRA:          -9.794
REMARK INTER:                  -9.510
REMARK INTRA:                  -0.283
REMARK UNBOUND:                -0.284
REMARK SMILES O=c1cc(-c2ccc(O)c(O)c2)oc2cc(O)cc(O)c12
REMARK SMILES IDX 4 1 3 2 2 3 1 4 21 5 19 6 18 7 16 8 15 9 14 10 13 11 5 12
REMARK SMILES IDX 6 13 7 14 8 15 12 16 10 17 9 18 11 20 20 22 17 24
REMARK H PARENT 9 19 11 21 20 23 17 25
REMARK Flexibility Score: inf
ROOT
ATOM      1  C   UNL     1       8.373 -23.493  35.962  1.00  0.00     0.138 A 
ATOM      2  C   UNL     1       7.274 -24.362  36.014  1.00  0.00     0.100 A 
ATOM      3  C   UNL     1       7.418 -25.622  36.595  1.00  0.00     0.197 A 
ATOM      4  O   UNL     1       6.433 -26.403  36.571  1.00  0.00    -0.289 OA
ATOM      5  C   UNL     1       8.661 -26.000  37.156  1.00  0.00     0.107 A 
ATOM      6  C   UNL     1       8.913 -27.243  37.811  1.00  0.00     0.134 A 
ATOM      7  C   UNL     1      10.214 -27.554  38.225  1.00  0.00     0.093 A 
ATOM      8  C   UNL     1      11.259 -26.645  38.062  1.00  0.00     0.123 A 
ATOM      9  C   UNL     1      11.013 -25.405  37.471  1.00  0.00     0.094 A 
ATOM     10  C   UNL     1       9.733 -25.079  37.017  1.00  0.00     0.146 A 
ATOM     11  O   UNL     1       9.544 -23.893  36.447  1.00  0.00    -0.456 OA
ENDROOT
BRANCH   1  12
ATOM     12  C   UNL     1       8.275 -22.140  35.355  1.00  0.00     0.021 A 
ATOM     13  C   UNL     1       9.053 -21.063  35.822  1.00  0.00     0.016 A 
ATOM     14  C   UNL     1       8.948 -19.804  35.226  1.00  0.00     0.051 A 
ATOM     15  C   UNL     1       8.077 -19.598  34.153  1.00  0.00     0.157 A 
ATOM     16  C   UNL     1       7.410 -21.930  34.266  1.00  0.00     0.062 A 
ATOM     17  C   UNL     1       7.304 -20.666  33.668  1.00  0.00     0.158 A 
BRANCH  15  18
ATOM     18  O   UNL     1       7.993 -18.329  33.580  1.00  0.00    -0.504 OA
ATOM     19  H   UNL     1       8.714 -17.966  32.969  1.00  0.00     0.293 HD
ENDBRANCH  15  18
BRANCH  17  20
ATOM     20  O   UNL     1       6.436 -20.469  32.596  1.00  0.00    -0.504 OA
ATOM     21  H   UNL     1       5.796 -19.685  32.567  1.00  0.00     0.293 HD
ENDBRANCH  17  20
ENDBRANCH   1  12
BRANCH   6  22
ATOM     22  O   UNL     1       7.924 -28.188  38.100  1.00  0.00    -0.507 OA
ATOM     23  H   UNL     1       6.947 -28.088  37.873  1.00  0.00     0.293 HD
ENDBRANCH   6  22
BRANCH   8  24
ATOM     24  O   UNL     1      12.538 -26.983  38.499  1.00  0.00    -0.508 OA
ATOM     25  H   UNL     1      13.027 -26.424  39.189  1.00  0.00     0.293 HD
ENDBRANCH   8  24
TORSDOF 5
ENDMDL
MODEL 7
REMARK VINA RESULT:    -8.067      3.331      5.522
REMARK INTER + INTRA:          -9.766
REMARK INTER:                  -9.472
REMARK INTRA:                  -0.294
REMARK UNBOUND:                -0.284
REMARK SMILES O=c1cc(-c2ccc(O)c(O)c2)oc2cc(O)cc(O)c12
REMARK SMILES IDX 4 1 3 2 2 3 1 4 21 5 19 6 18 7 16 8 15 9 14 10 13 11 5 12
REMARK SMILES IDX 6 13 7 14 8 15 12 16 10 17 9 18 11 20 20 22 17 24
REMARK H PARENT 9 19 11 21 20 23 17 25
REMARK Flexibility Score: inf
ROOT
ATOM      1  C   UNL     1       8.365 -24.087  35.748  1.00  0.00     0.138 A 
ATOM      2  C   UNL     1       7.783 -22.812  35.779  1.00  0.00     0.100 A 
ATOM      3  C   UNL     1       8.523 -21.705  35.360  1.00  0.00     0.197 A 
ATOM      4  O   UNL     1       7.996 -20.568  35.459  1.00  0.00    -0.289 OA
ATOM      5  C   UNL     1       9.842 -21.882  34.879  1.00  0.00     0.107 A 
ATOM      6  C   UNL     1      10.675 -20.832  34.389  1.00  0.00     0.134 A 
ATOM      7  C   UNL     1      12.005 -21.110  34.047  1.00  0.00     0.093 A 
ATOM      8  C   UNL     1      12.513 -22.407  34.120  1.00  0.00     0.123 A 
ATOM      9  C   UNL     1      11.691 -23.450  34.548  1.00  0.00     0.094 A 
ATOM     10  C   UNL     1      10.370 -23.200  34.929  1.00  0.00     0.146 A 
ATOM     11  O   UNL     1       9.624 -24.218  35.343  1.00  0.00    -0.456 OA
ENDROOT
BRANCH   1  12
ATOM     12  C   UNL     1       7.623 -25.299  36.181  1.00  0.00     0.021 A 
ATOM     13  C   UNL     1       6.299 -25.541  35.768  1.00  0.00     0.016 A 
ATOM     14  C   UNL     1       5.628 -26.695  36.183  1.00  0.00     0.051 A 
ATOM     15  C   UNL     1       6.265 -27.628  37.005  1.00  0.00     0.157 A 
ATOM     16  C   UNL     1       8.263 -26.248  36.998  1.00  0.00     0.062 A 
ATOM     17  C   UNL     1       7.590 -27.406  37.415  1.00  0.00     0.158 A 
BRANCH  15  18
ATOM     18  O   UNL     1       5.568 -28.769  37.403  1.00  0.00    -0.504 OA
ATOM     19  H   UNL     1       5.940 -29.415  38.089  1.00  0.00     0.293 HD
ENDBRANCH  15  18
BRANCH  17  20
ATOM     20  O   UNL     1       8.233 -28.334  38.232  1.00  0.00    -0.504 OA
ATOM     21  H   UNL     1       7.998 -29.319  38.205  1.00  0.00     0.293 HD
ENDBRANCH  17  20
ENDBRANCH   1  12
BRANCH   6  22
ATOM     22  O   UNL     1      10.243 -19.517  34.196  1.00  0.00    -0.507 OA
ATOM     23  H   UNL     1       9.549 -19.049  34.759  1.00  0.00     0.293 HD
ENDBRANCH   6  22
BRANCH   8  24
ATOM     24  O   UNL     1      13.836 -22.647  33.758  1.00  0.00    -0.508 OA
ATOM     25  H   UNL     1      14.077 -23.349  33.068  1.00  0.00     0.293 HD
ENDBRANCH   8  24
TORSDOF 5
ENDMDL
MODEL 8
REMARK VINA RESULT:    -8.064      3.290      5.489
REMARK INTER + INTRA:          -9.762
REMARK INTER:                  -9.444
REMARK INTRA:                  -0.318
REMARK UNBOUND:                -0.284
REMARK SMILES O=c1cc(-c2ccc(O)c(O)c2)oc2cc(O)cc(O)c12
REMARK SMILES IDX 4 1 3 2 2 3 1 4 21 5 19 6 18 7 16 8 15 9 14 10 13 11 5 12
REMARK SMILES IDX 6 13 7 14 8 15 12 16 10 17 9 18 11 20 20 22 17 24
REMARK H PARENT 9 19 11 21 20 23 17 25
REMARK Flexibility Score: inf
ROOT
ATOM      1  C   UNL     1       9.451 -24.059  36.915  1.00  0.00     0.138 A 
ATOM      2  C   UNL     1       8.485 -23.741  35.950  1.00  0.00     0.100 A 
ATOM      3  C   UNL     1       7.870 -22.489  35.975  1.00  0.00     0.197 A 
ATOM      4  O   UNL     1       6.962 -22.257  35.136  1.00  0.00    -0.289 OA
ATOM      5  C   UNL     1       8.250 -21.539  36.952  1.00  0.00     0.107 A 
ATOM      6  C   UNL     1       7.720 -20.217  37.049  1.00  0.00     0.134 A 
ATOM      7  C   UNL     1       8.086 -19.404  38.129  1.00  0.00     0.093 A 
ATOM      8  C   UNL     1       9.007 -19.841  39.081  1.00  0.00     0.123 A 
ATOM      9  C   UNL     1       9.571 -21.112  38.967  1.00  0.00     0.094 A 
ATOM     10  C   UNL     1       9.200 -21.960  37.920  1.00  0.00     0.146 A 
ATOM     11  O   UNL     1       9.750 -23.168  37.855  1.00  0.00    -0.456 OA
ENDROOT
BRANCH   1  12
ATOM     12  C   UNL     1      10.137 -25.376  36.934  1.00  0.00     0.021 A 
ATOM     13  C   UNL     1       9.831 -26.382  35.999  1.00  0.00     0.016 A 
ATOM     14  C   UNL     1      10.500 -27.609  36.035  1.00  0.00     0.051 A 
ATOM     15  C   UNL     1      11.487 -27.850  36.994  1.00  0.00     0.157 A 
ATOM     16  C   UNL     1      11.141 -25.620  37.889  1.00  0.00     0.062 A 
ATOM     17  C   UNL     1      11.812 -26.851  37.926  1.00  0.00     0.158 A 
BRANCH  15  18
ATOM     18  O   UNL     1      12.135 -29.085  37.005  1.00  0.00    -0.504 OA
ATOM     19  H   UNL     1      13.145 -29.163  37.028  1.00  0.00     0.293 HD
ENDBRANCH  15  18
BRANCH  17  20
ATOM     20  O   UNL     1      12.798 -27.083  38.883  1.00  0.00    -0.504 OA
ATOM     21  H   UNL     1      13.411 -27.888  38.830  1.00  0.00     0.293 HD
ENDBRANCH  17  20
ENDBRANCH   1  12
BRANCH   6  22
ATOM     22  O   UNL     1       6.859 -19.650  36.105  1.00  0.00    -0.507 OA
ATOM     23  H   UNL     1       6.073 -20.121  35.684  1.00  0.00     0.293 HD
ENDBRANCH   6  22
BRANCH   8  24
ATOM     24  O   UNL     1       9.358 -18.999  40.134  1.00  0.00    -0.508 OA
ATOM     25  H   UNL     1       9.331 -17.990  40.037  1.00  0.00     0.293 HD
ENDBRANCH   8  24
TORSDOF 5
ENDMDL
MODEL 9
REMARK VINA RESULT:    -7.824      3.289      6.959
REMARK INTER + INTRA:          -9.480
REMARK INTER:                  -9.171
REMARK INTRA:                  -0.309
REMARK UNBOUND:                -0.284
REMARK SMILES O=c1cc(-c2ccc(O)c(O)c2)oc2cc(O)cc(O)c12
REMARK SMILES IDX 4 1 3 2 2 3 1 4 21 5 19 6 18 7 16 8 15 9 14 10 13 11 5 12
REMARK SMILES IDX 6 13 7 14 8 15 12 16 10 17 9 18 11 20 20 22 17 24
REMARK H PARENT 9 19 11 21 20 23 17 25
REMARK Flexibility Score: inf
ROOT
ATOM      1  C   UNL     1       8.744 -22.977  36.495  1.00  0.00     0.138 A 
ATOM      2  C   UNL     1       8.037 -23.734  35.550  1.00  0.00     0.100 A 
ATOM      3  C   UNL     1       8.340 -25.085  35.382  1.00  0.00     0.197 A 
ATOM      4  O   UNL     1       7.733 -25.723  34.484  1.00  0.00    -0.289 OA
ATOM      5  C   UNL     1       9.336 -25.688  36.188  1.00  0.00     0.107 A 
ATOM      6  C   UNL     1       9.701 -27.066  36.132  1.00  0.00     0.134 A 
ATOM      7  C   UNL     1      10.781 -27.525  36.896  1.00  0.00     0.093 A 
ATOM      8  C   UNL     1      11.470 -26.671  37.757  1.00  0.00     0.123 A 
ATOM      9  C   UNL     1      11.087 -25.333  37.859  1.00  0.00     0.094 A 
ATOM     10  C   UNL     1      10.036 -24.837  37.084  1.00  0.00     0.146 A 
ATOM     11  O   UNL     1       9.711 -23.554  37.200  1.00  0.00    -0.456 OA
ENDROOT
BRANCH   1  12
ATOM     12  C   UNL     1       8.461 -21.535  36.715  1.00  0.00     0.021 A 
ATOM     13  C   UNL     1       7.192 -20.983  36.458  1.00  0.00     0.016 A 
ATOM     14  C   UNL     1       6.952 -19.625  36.684  1.00  0.00     0.051 A 
ATOM     15  C   UNL     1       7.964 -18.798  37.177  1.00  0.00     0.157 A 
ATOM     16  C   UNL     1       9.473 -20.701  37.224  1.00  0.00     0.062 A 
ATOM     17  C   UNL     1       9.232 -19.337  37.450  1.00  0.00     0.158 A 
BRANCH  15  18
ATOM     18  O   UNL     1       7.694 -17.447  37.390  1.00  0.00    -0.504 OA
ATOM     19  H   UNL     1       8.422 -16.744  37.377  1.00  0.00     0.293 HD
ENDBRANCH  15  18
BRANCH  17  20
ATOM     20  O   UNL     1      10.246 -18.520  37.946  1.00  0.00    -0.504 OA
ATOM     21  H   UNL     1      10.157 -18.041  38.834  1.00  0.00     0.293 HD
ENDBRANCH  17  20
ENDBRANCH   1  12
BRANCH   6  22
ATOM     22  O   UNL     1       9.024 -28.024  35.370  1.00  0.00    -0.507 OA
ATOM     23  H   UNL     1       9.210 -29.014  35.392  1.00  0.00     0.293 HD
ENDBRANCH   6  22
BRANCH   8  24
ATOM     24  O   UNL     1      12.531 -27.167  38.513  1.00  0.00    -0.508 OA
ATOM     25  H   UNL     1      13.120 -26.553  39.064  1.00  0.00     0.293 HD
ENDBRANCH   8  24
TORSDOF 5
ENDMDL
