MODEL 1
REMARK VINA RESULT:    -2.556      0.000      0.000
REMARK INTER + INTRA:          -2.556
REMARK INTER:                  -2.556
REMARK INTRA:                   0.000
REMARK UNBOUND:                 0.000
REMARK SMILES c1cc[nH]c1
REMARK SMILES IDX 1 1 5 2 4 3 3 4 2 5
REMARK H PARENT 4 6
REMARK Flexibility Score: inf
ROOT
ATOM      1  C   UNL     1      10.875   7.449  17.265  1.00  0.00     0.019 A 
ATOM      2  C   UNL     1      10.924   7.049  15.945  1.00  0.00     0.082 A 
ATOM      3  N   UNL     1      11.124   5.721  15.875  1.00  0.00    -0.368 N 
ATOM      4  C   UNL     1      11.204   5.266  17.138  1.00  0.00     0.082 A 
ATOM      5  C   UNL     1      11.054   6.311  18.026  1.00  0.00     0.019 A 
ATOM      6  H   UNL     1      11.203   5.151  15.004  1.00  0.00     0.165 HD
ENDROOT
TORSDOF 0
ENDMDL
MODEL 2
REMARK VINA RESULT:    -2.531      0.129      1.626
REMARK INTER + INTRA:          -2.531
REMARK INTER:                  -2.531
REMARK INTRA:                   0.000
REMARK UNBOUND:                 0.000
REMARK SMILES c1cc[nH]c1
REMARK SMILES IDX 1 1 5 2 4 3 3 4 2 5
REMARK H PARENT 4 6
REMARK Flexibility Score: inf
ROOT
ATOM      1  C   UNL     1      11.061   6.214  18.071  1.00  0.00     0.019 A 
ATOM      2  C   UNL     1      11.085   5.214  17.121  1.00  0.00     0.082 A 
ATOM      3  N   UNL     1      10.974   5.747  15.891  1.00  0.00    -0.368 N 
ATOM      4  C   UNL     1      10.877   7.080  16.044  1.00  0.00     0.082 A 
ATOM      5  C   UNL     1      10.928   7.405  17.384  1.00  0.00     0.019 A 
ATOM      6  H   UNL     1      10.963   5.224  14.987  1.00  0.00     0.165 HD
ENDROOT
TORSDOF 0
ENDMDL
MODEL 3
REMARK VINA RESULT:    -2.491     18.101     18.423
REMARK INTER + INTRA:          -2.491
REMARK INTER:                  -2.491
REMARK INTRA:                   0.000
REMARK UNBOUND:                 0.000
REMARK SMILES c1cc[nH]c1
REMARK SMILES IDX 1 1 5 2 4 3 3 4 2 5
REMARK H PARENT 4 6
REMARK Flexibility Score: inf
ROOT
ATOM      1  C   UNL     1      28.339   3.486  16.309  1.00  0.00     0.019 A 
ATOM      2  C   UNL     1      28.014   2.148  16.223  1.00  0.00     0.082 A 
ATOM      3  N   UNL     1      29.054   1.396  16.624  1.00  0.00    -0.368 N 
ATOM      4  C   UNL     1      30.044   2.240  16.966  1.00  0.00     0.082 A 
ATOM      5  C   UNL     1      29.635   3.545  16.783  1.00  0.00     0.019 A 
ATOM      6  H   UNL     1      29.088   0.353  16.662  1.00  0.00     0.165 HD
ENDROOT
TORSDOF 0
ENDMDL
MODEL 4
REMARK VINA RESULT:    -2.297      1.683      2.388
REMARK INTER + INTRA:          -2.297
REMARK INTER:                  -2.297
REMARK INTRA:                   0.000
REMARK UNBOUND:                 0.000
REMARK SMILES c1cc[nH]c1
REMARK SMILES IDX 1 1 5 2 4 3 3 4 2 5
REMARK H PARENT 4 6
REMARK Flexibility Score: inf
ROOT
ATOM      1  C   UNL     1      10.881   6.981  17.167  1.00  0.00     0.019 A 
ATOM      2  C   UNL     1      10.968   7.458  15.876  1.00  0.00     0.082 A 
ATOM      3  N   UNL     1      11.037   8.801  15.886  1.00  0.00    -0.368 N 
ATOM      4  C   UNL     1      10.995   9.189  17.174  1.00  0.00     0.082 A 
ATOM      5  C   UNL     1      10.897   8.085  17.995  1.00  0.00     0.019 A 
ATOM      6  H   UNL     1      11.110   9.426  15.053  1.00  0.00     0.165 HD
ENDROOT
TORSDOF 0
ENDMDL
MODEL 5
REMARK VINA RESULT:    -2.273     16.597     16.995
REMARK INTER + INTRA:          -2.273
REMARK INTER:                  -2.273
REMARK INTRA:                   0.000
REMARK UNBOUND:                 0.000
REMARK SMILES c1cc[nH]c1
REMARK SMILES IDX 1 1 5 2 4 3 3 4 2 5
REMARK H PARENT 4 6
REMARK Flexibility Score: inf
ROOT
ATOM      1  C   UNL     1      27.036   2.339  15.988  1.00  0.00     0.019 A 
ATOM      2  C   UNL     1      28.298   2.024  16.448  1.00  0.00     0.082 A 
ATOM      3  N   UNL     1      28.207   1.289  17.570  1.00  0.00    -0.368 N 
ATOM      4  C   UNL     1      26.898   1.130  17.834  1.00  0.00     0.082 A 
ATOM      5  C   UNL     1      26.143   1.769  16.873  1.00  0.00     0.019 A 
ATOM      6  H   UNL     1      29.003   0.913  18.131  1.00  0.00     0.165 HD
ENDROOT
TORSDOF 0
ENDMDL
MODEL 6
REMARK VINA RESULT:    -2.272      3.854      4.688
REMARK INTER + INTRA:          -2.272
REMARK INTER:                  -2.272
REMARK INTRA:                   0.000
REMARK UNBOUND:                 0.000
REMARK SMILES c1cc[nH]c1
REMARK SMILES IDX 1 1 5 2 4 3 3 4 2 5
REMARK H PARENT 4 6
REMARK Flexibility Score: inf
ROOT
ATOM      1  C   UNL     1      13.974   3.457  18.722  1.00  0.00     0.019 A 
ATOM      2  C   UNL     1      15.062   2.864  18.115  1.00  0.00     0.082 A 
ATOM      3  N   UNL     1      15.120   3.226  16.821  1.00  0.00    -0.368 N 
ATOM      4  C   UNL     1      14.078   4.046  16.593  1.00  0.00     0.082 A 
ATOM      5  C   UNL     1      13.346   4.210  17.751  1.00  0.00     0.019 A 
ATOM      6  H   UNL     1      15.838   2.928  16.124  1.00  0.00     0.165 HD
ENDROOT
TORSDOF 0
ENDMDL
MODEL 7
REMARK VINA RESULT:    -2.195      3.416      3.749
REMARK INTER + INTRA:          -2.195
REMARK INTER:                  -2.195
REMARK INTRA:                   0.000
REMARK UNBOUND:                 0.000
REMARK SMILES c1cc[nH]c1
REMARK SMILES IDX 1 1 5 2 4 3 3 4 2 5
REMARK H PARENT 4 6
REMARK Flexibility Score: inf
ROOT
ATOM      1  C   UNL     1      14.808   5.987  15.875  1.00  0.00     0.019 A 
ATOM      2  C   UNL     1      13.461   5.854  16.143  1.00  0.00     0.082 A 
ATOM      3  N   UNL     1      13.195   4.599  16.548  1.00  0.00    -0.368 N 
ATOM      4  C   UNL     1      14.360   3.926  16.542  1.00  0.00     0.082 A 
ATOM      5  C   UNL     1      15.381   4.757  16.129  1.00  0.00     0.019 A 
ATOM      6  H   UNL     1      12.261   4.219  16.816  1.00  0.00     0.165 HD
ENDROOT
TORSDOF 0
ENDMDL
MODEL 8
REMARK VINA RESULT:    -2.189      2.888      3.659
REMARK INTER + INTRA:          -2.189
REMARK INTER:                  -2.189
REMARK INTRA:                   0.000
REMARK UNBOUND:                 0.000
REMARK SMILES c1cc[nH]c1
REMARK SMILES IDX 1 1 5 2 4 3 3 4 2 5
REMARK H PARENT 4 6
REMARK Flexibility Score: inf
ROOT
ATOM      1  C   UNL     1      13.006   3.973  19.039  1.00  0.00     0.019 A 
ATOM      2  C   UNL     1      12.301   4.551  18.003  1.00  0.00     0.082 A 
ATOM      3  N   UNL     1      12.998   4.445  16.858  1.00  0.00    -0.368 N 
ATOM      4  C   UNL     1      14.144   3.805  17.150  1.00  0.00     0.082 A 
ATOM      5  C   UNL     1      14.182   3.498  18.495  1.00  0.00     0.019 A 
ATOM      6  H   UNL     1      12.705   4.794  15.918  1.00  0.00     0.165 HD
ENDROOT
TORSDOF 0
ENDMDL
