MODEL 1
REMARK VINA RESULT:    11.507      0.000      0.000
REMARK INTER + INTRA:          15.640
REMARK INTER:                  15.207
REMARK INTRA:                   0.433
REMARK UNBOUND:                 0.433
REMARK SMILES CC[C@@H](C=C[C@H](C)[C@H]1CC[C@@H]2[C@@H]3CC[C@@H]4C[C@@H](O)CC[C@]4(C)[C@@H]3CC[C@@]21C)C(C)C
REMARK SMILES IDX 6 1 7 2 5 3 4 4 3 5 2 6 1 7 28 8 29 9 30 10 8 11 9 12 26 13
REMARK SMILES IDX 10 14 11 15 25 16 27 17 12 18 24 19 23 20 13 21 21 22 14 23
REMARK SMILES IDX 15 24 20 25 22 26 16 27 19 28 17 29 18 30
REMARK H PARENT 18 31
REMARK Flexibility Score: inf
ROOT
ATOM      1  C   UNL     1     135.255 125.120 144.969  1.00  0.00     0.012 C 
ATOM      2  C   UNL     1     134.245 124.908 146.116  1.00  0.00     0.012 C 
ENDROOT
BRANCH   1   3
ATOM      3  C   UNL     1     136.621 125.330 145.602  1.00  0.00    -0.028 C 
ATOM      4  C   UNL     1     136.919 126.389 146.377  1.00  0.00    -0.027 C 
BRANCH   4   5
ATOM      5  C   UNL     1     138.329 126.650 146.885  1.00  0.00     0.014 C 
BRANCH   5   6
ATOM      6  C   UNL     1     139.417 126.344 145.806  1.00  0.00     0.004 C 
ATOM      7  C   UNL     1     140.732 127.068 146.095  1.00  0.00     0.004 C 
ENDBRANCH   5   6
BRANCH   5   8
ATOM      8  C   UNL     1     138.570 125.905 148.234  1.00  0.00    -0.011 C 
ATOM      9  C   UNL     1     138.012 124.473 148.204  1.00  0.00     0.008 C 
ATOM     10  C   UNL     1     138.039 126.668 149.463  1.00  0.00     0.008 C 
ENDBRANCH   5   8
ENDBRANCH   4   5
ENDBRANCH   1   3
BRANCH   1  11
ATOM     11  C   UNL     1     135.237 123.968 143.887  1.00  0.00     0.002 C 
ATOM     12  C   UNL     1     134.061 124.118 142.902  1.00  0.00     0.005 C 
ATOM     13  C   UNL     1     136.470 123.913 142.912  1.00  0.00    -0.026 C 
ATOM     14  C   UNL     1     134.572 124.957 141.736  1.00  0.00     0.005 C 
ATOM     15  C   UNL     1     136.107 124.968 141.838  1.00  0.00    -0.001 C 
ATOM     16  C   UNL     1     136.602 122.468 142.298  1.00  0.00     0.007 C 
ATOM     17  C   UNL     1     137.818 124.270 143.581  1.00  0.00     0.012 C 
ATOM     18  C   UNL     1     136.885 124.819 140.492  1.00  0.00    -0.004 C 
ATOM     19  C   UNL     1     136.218 122.347 140.815  1.00  0.00     0.005 C 
ATOM     20  C   UNL     1     137.006 123.349 139.945  1.00  0.00    -0.001 C 
ATOM     21  C   UNL     1     136.473 125.900 139.462  1.00  0.00     0.004 C 
ATOM     22  C   UNL     1     136.829 123.210 138.375  1.00  0.00    -0.026 C 
ATOM     23  C   UNL     1     135.436 125.465 138.426  1.00  0.00     0.004 C 
ATOM     24  C   UNL     1     135.611 124.045 137.821  1.00  0.00    -0.002 C 
ATOM     25  C   UNL     1     136.742 121.713 137.892  1.00  0.00     0.010 C 
ATOM     26  C   UNL     1     138.145 123.736 137.714  1.00  0.00     0.012 C 
ATOM     27  C   UNL     1     134.256 123.300 137.881  1.00  0.00     0.036 C 
ATOM     28  C   UNL     1     135.348 121.060 137.914  1.00  0.00     0.032 C 
ATOM     29  C   UNL     1     134.308 121.925 137.214  1.00  0.00     0.114 C 
BRANCH  29  30
ATOM     30  O   UNL     1     134.617 122.040 135.848  1.00  0.00    -0.393 OA
ATOM     31  H   UNL     1     134.622 121.119 135.478  1.00  0.00     0.210 HD
ENDBRANCH  29  30
ENDBRANCH   1  11
TORSDOF 6
ENDMDL
MODEL 2
REMARK VINA RESULT:    12.723      1.321      2.869
REMARK INTER + INTRA:          17.247
REMARK INTER:                  17.374
REMARK INTRA:                  -0.127
REMARK UNBOUND:                 0.433
REMARK SMILES CC[C@@H](C=C[C@H](C)[C@H]1CC[C@@H]2[C@@H]3CC[C@@H]4C[C@@H](O)CC[C@]4(C)[C@@H]3CC[C@@]21C)C(C)C
REMARK SMILES IDX 6 1 7 2 5 3 4 4 3 5 2 6 1 7 28 8 29 9 30 10 8 11 9 12 26 13
REMARK SMILES IDX 10 14 11 15 25 16 27 17 12 18 24 19 23 20 13 21 21 22 14 23
REMARK SMILES IDX 15 24 20 25 22 26 16 27 19 28 17 29 18 30
REMARK H PARENT 18 31
REMARK Flexibility Score: inf
ROOT
ATOM      1  C   UNL     1     135.020 125.587 144.959  1.00  0.00     0.012 C 
ATOM      2  C   UNL     1     134.737 124.130 145.384  1.00  0.00     0.012 C 
ENDROOT
BRANCH   1   3
ATOM      3  C   UNL     1     135.892 126.210 146.037  1.00  0.00    -0.028 C 
ATOM      4  C   UNL     1     137.237 126.187 146.002  1.00  0.00    -0.027 C 
BRANCH   4   5
ATOM      5  C   UNL     1     138.087 126.693 147.158  1.00  0.00     0.014 C 
BRANCH   5   6
ATOM      6  C   UNL     1     139.614 126.667 146.831  1.00  0.00     0.004 C 
ATOM      7  C   UNL     1     139.879 126.672 145.325  1.00  0.00     0.004 C 
ENDBRANCH   5   6
BRANCH   5   8
ATOM      8  C   UNL     1     137.724 125.939 148.474  1.00  0.00    -0.011 C 
ATOM      9  C   UNL     1     138.399 126.572 149.701  1.00  0.00     0.008 C 
ATOM     10  C   UNL     1     138.013 124.426 148.416  1.00  0.00     0.008 C 
ENDBRANCH   5   8
ENDBRANCH   4   5
ENDBRANCH   1   3
BRANCH   1  11
ATOM     11  C   UNL     1     135.630 125.716 143.507  1.00  0.00     0.002 C 
ATOM     12  C   UNL     1     136.785 124.725 143.273  1.00  0.00     0.005 C 
ATOM     13  C   UNL     1     134.662 125.371 142.316  1.00  0.00    -0.026 C 
ATOM     14  C   UNL     1     136.163 123.455 142.702  1.00  0.00     0.005 C 
ATOM     15  C   UNL     1     134.742 123.826 142.244  1.00  0.00    -0.001 C 
ATOM     16  C   UNL     1     135.179 126.051 140.992  1.00  0.00     0.007 C 
ATOM     17  C   UNL     1     133.200 125.822 142.542  1.00  0.00     0.012 C 
ATOM     18  C   UNL     1     134.279 123.214 140.884  1.00  0.00    -0.004 C 
ATOM     19  C   UNL     1     135.786 125.093 139.955  1.00  0.00     0.005 C 
ATOM     20  C   UNL     1     134.806 123.953 139.599  1.00  0.00    -0.001 C 
ATOM     21  C   UNL     1     134.388 121.669 140.877  1.00  0.00     0.004 C 
ATOM     22  C   UNL     1     135.243 122.994 138.415  1.00  0.00    -0.026 C 
ATOM     23  C   UNL     1     135.648 121.098 140.225  1.00  0.00     0.004 C 
ATOM     24  C   UNL     1     136.115 121.775 138.906  1.00  0.00    -0.002 C 
ATOM     25  C   UNL     1     135.962 123.752 137.237  1.00  0.00     0.010 C 
ATOM     26  C   UNL     1     133.933 122.445 137.758  1.00  0.00     0.012 C 
ATOM     27  C   UNL     1     137.629 122.081 139.005  1.00  0.00     0.036 C 
ATOM     28  C   UNL     1     137.481 123.959 137.373  1.00  0.00     0.032 C 
ATOM     29  C   UNL     1     138.200 122.659 137.710  1.00  0.00     0.114 C 
BRANCH  29  30
ATOM     30  O   UNL     1     138.067 121.746 136.650  1.00  0.00    -0.393 OA
ATOM     31  H   UNL     1     138.155 120.838 137.041  1.00  0.00     0.210 HD
ENDBRANCH  29  30
ENDBRANCH   1  11
TORSDOF 6
ENDMDL
MODEL 3
REMARK VINA RESULT:    12.957      3.285      6.035
REMARK INTER + INTRA:          17.556
REMARK INTER:                  17.454
REMARK INTRA:                   0.101
REMARK UNBOUND:                 0.433
REMARK SMILES CC[C@@H](C=C[C@H](C)[C@H]1CC[C@@H]2[C@@H]3CC[C@@H]4C[C@@H](O)CC[C@]4(C)[C@@H]3CC[C@@]21C)C(C)C
REMARK SMILES IDX 6 1 7 2 5 3 4 4 3 5 2 6 1 7 28 8 29 9 30 10 8 11 9 12 26 13
REMARK SMILES IDX 10 14 11 15 25 16 27 17 12 18 24 19 23 20 13 21 21 22 14 23
REMARK SMILES IDX 15 24 20 25 22 26 16 27 19 28 17 29 18 30
REMARK H PARENT 18 31
REMARK Flexibility Score: inf
ROOT
ATOM      1  C   UNL     1     139.675 122.452 139.721  1.00  0.00     0.012 C 
ATOM      2  C   UNL     1     140.456 122.698 138.413  1.00  0.00     0.012 C 
ENDROOT
BRANCH   1   3
ATOM      3  C   UNL     1     140.266 123.368 140.779  1.00  0.00    -0.028 C 
ATOM      4  C   UNL     1     141.559 123.739 140.795  1.00  0.00    -0.027 C 
BRANCH   4   5
ATOM      5  C   UNL     1     142.158 124.543 141.939  1.00  0.00     0.014 C 
BRANCH   5   6
ATOM      6  C   UNL     1     141.370 125.863 142.216  1.00  0.00     0.004 C 
ATOM      7  C   UNL     1     141.927 126.622 143.421  1.00  0.00     0.004 C 
ENDBRANCH   5   6
BRANCH   5   8
ATOM      8  C   UNL     1     143.684 124.771 141.707  1.00  0.00    -0.011 C 
ATOM      9  C   UNL     1     144.211 123.948 140.521  1.00  0.00     0.008 C 
ATOM     10  C   UNL     1     144.542 124.524 142.962  1.00  0.00     0.008 C 
ENDBRANCH   5   8
ENDBRANCH   4   5
ENDBRANCH   1   3
BRANCH   1  11
ATOM     11  C   UNL     1     138.110 122.604 139.563  1.00  0.00     0.002 C 
ATOM     12  C   UNL     1     137.339 121.684 140.529  1.00  0.00     0.005 C 
ATOM     13  C   UNL     1     137.512 124.015 139.914  1.00  0.00    -0.026 C 
ATOM     14  C   UNL     1     137.105 122.487 141.804  1.00  0.00     0.005 C 
ATOM     15  C   UNL     1     137.381 123.961 141.456  1.00  0.00    -0.001 C 
ATOM     16  C   UNL     1     136.114 124.195 139.209  1.00  0.00     0.007 C 
ATOM     17  C   UNL     1     138.411 125.202 139.494  1.00  0.00     0.012 C 
ATOM     18  C   UNL     1     136.390 125.005 142.062  1.00  0.00    -0.004 C 
ATOM     19  C   UNL     1     134.895 124.139 140.144  1.00  0.00     0.005 C 
ATOM     20  C   UNL     1     135.023 125.157 141.298  1.00  0.00    -0.001 C 
ATOM     21  C   UNL     1     136.303 124.893 143.604  1.00  0.00     0.004 C 
ATOM     22  C   UNL     1     133.755 125.322 142.235  1.00  0.00    -0.026 C 
ATOM     23  C   UNL     1     135.121 124.086 144.143  1.00  0.00     0.004 C 
ATOM     24  C   UNL     1     133.752 124.306 143.442  1.00  0.00    -0.002 C 
ATOM     25  C   UNL     1     132.392 125.255 141.450  1.00  0.00     0.010 C 
ATOM     26  C   UNL     1     133.786 126.780 142.802  1.00  0.00     0.012 C 
ATOM     27  C   UNL     1     133.129 122.930 143.107  1.00  0.00     0.036 C 
ATOM     28  C   UNL     1     131.797 123.855 141.214  1.00  0.00     0.032 C 
ATOM     29  C   UNL     1     131.729 123.047 142.504  1.00  0.00     0.114 C 
BRANCH  29  30
ATOM     30  O   UNL     1     130.840 123.654 143.408  1.00  0.00    -0.393 OA
ATOM     31  H   UNL     1     131.139 123.398 144.319  1.00  0.00     0.210 HD
ENDBRANCH  29  30
ENDBRANCH   1  11
TORSDOF 6
ENDMDL
MODEL 4
REMARK VINA RESULT:    13.041      2.675      7.839
REMARK INTER + INTRA:          17.667
REMARK INTER:                  16.358
REMARK INTRA:                   1.309
REMARK UNBOUND:                 0.433
REMARK SMILES CC[C@@H](C=C[C@H](C)[C@H]1CC[C@@H]2[C@@H]3CC[C@@H]4C[C@@H](O)CC[C@]4(C)[C@@H]3CC[C@@]21C)C(C)C
REMARK SMILES IDX 6 1 7 2 5 3 4 4 3 5 2 6 1 7 28 8 29 9 30 10 8 11 9 12 26 13
REMARK SMILES IDX 10 14 11 15 25 16 27 17 12 18 24 19 23 20 13 21 21 22 14 23
REMARK SMILES IDX 15 24 20 25 22 26 16 27 19 28 17 29 18 30
REMARK H PARENT 18 31
REMARK Flexibility Score: inf
ROOT
ATOM      1  C   UNL     1     138.478 123.461 138.187  1.00  0.00     0.012 C 
ATOM      2  C   UNL     1     139.466 122.293 137.986  1.00  0.00     0.012 C 
ENDROOT
BRANCH   1   3
ATOM      3  C   UNL     1     137.075 122.878 138.147  1.00  0.00    -0.028 C 
ATOM      4  C   UNL     1     136.072 123.419 137.430  1.00  0.00    -0.027 C 
BRANCH   4   5
ATOM      5  C   UNL     1     134.645 122.900 137.515  1.00  0.00     0.014 C 
BRANCH   5   6
ATOM      6  C   UNL     1     133.600 124.052 137.669  1.00  0.00     0.004 C 
ATOM      7  C   UNL     1     134.266 125.427 137.716  1.00  0.00     0.004 C 
ENDBRANCH   5   6
BRANCH   5   8
ATOM      8  C   UNL     1     134.526 121.807 138.622  1.00  0.00    -0.011 C 
ATOM      9  C   UNL     1     134.244 122.419 140.003  1.00  0.00     0.008 C 
ATOM     10  C   UNL     1     135.741 120.861 138.686  1.00  0.00     0.008 C 
ENDBRANCH   5   8
ENDBRANCH   4   5
ENDBRANCH   1   3
BRANCH   1  11
ATOM     11  C   UNL     1     138.764 124.317 139.484  1.00  0.00     0.002 C 
ATOM     12  C   UNL     1     137.688 125.395 139.716  1.00  0.00     0.005 C 
ATOM     13  C   UNL     1     138.739 123.536 140.849  1.00  0.00    -0.026 C 
ATOM     14  C   UNL     1     136.614 124.759 140.594  1.00  0.00     0.005 C 
ATOM     15  C   UNL     1     137.229 123.478 141.185  1.00  0.00    -0.001 C 
ATOM     16  C   UNL     1     139.555 124.333 141.937  1.00  0.00     0.007 C 
ATOM     17  C   UNL     1     139.326 122.107 140.768  1.00  0.00     0.012 C 
ATOM     18  C   UNL     1     136.907 123.195 142.687  1.00  0.00    -0.004 C 
ATOM     19  C   UNL     1     138.709 125.011 143.026  1.00  0.00     0.005 C 
ATOM     20  C   UNL     1     137.774 124.001 143.724  1.00  0.00    -0.001 C 
ATOM     21  C   UNL     1     135.382 123.154 142.955  1.00  0.00     0.004 C 
ATOM     22  C   UNL     1     136.972 124.536 144.982  1.00  0.00    -0.026 C 
ATOM     23  C   UNL     1     134.773 124.445 143.503  1.00  0.00     0.004 C 
ATOM     24  C   UNL     1     135.591 125.192 144.593  1.00  0.00    -0.002 C 
ATOM     25  C   UNL     1     137.816 125.514 145.884  1.00  0.00     0.010 C 
ATOM     26  C   UNL     1     136.704 123.310 145.916  1.00  0.00     0.012 C 
ATOM     27  C   UNL     1     135.687 126.689 144.215  1.00  0.00     0.036 C 
ATOM     28  C   UNL     1     137.808 127.001 145.486  1.00  0.00     0.032 C 
ATOM     29  C   UNL     1     136.391 127.524 145.285  1.00  0.00     0.114 C 
BRANCH  29  30
ATOM     30  O   UNL     1     135.685 127.486 146.500  1.00  0.00    -0.393 OA
ATOM     31  H   UNL     1     136.355 127.324 147.215  1.00  0.00     0.210 HD
ENDBRANCH  29  30
ENDBRANCH   1  11
TORSDOF 6
ENDMDL
MODEL 5
REMARK VINA RESULT:    13.195      3.574      6.803
REMARK INTER + INTRA:          17.870
REMARK INTER:                  17.446
REMARK INTRA:                   0.425
REMARK UNBOUND:                 0.433
REMARK SMILES CC[C@@H](C=C[C@H](C)[C@H]1CC[C@@H]2[C@@H]3CC[C@@H]4C[C@@H](O)CC[C@]4(C)[C@@H]3CC[C@@]21C)C(C)C
REMARK SMILES IDX 6 1 7 2 5 3 4 4 3 5 2 6 1 7 28 8 29 9 30 10 8 11 9 12 26 13
REMARK SMILES IDX 10 14 11 15 25 16 27 17 12 18 24 19 23 20 13 21 21 22 14 23
REMARK SMILES IDX 15 24 20 25 22 26 16 27 19 28 17 29 18 30
REMARK H PARENT 18 31
REMARK Flexibility Score: inf
ROOT
ATOM      1  C   UNL     1     131.600 123.841 142.072  1.00  0.00     0.012 C 
ATOM      2  C   UNL     1     130.822 123.924 143.402  1.00  0.00     0.012 C 
ENDROOT
BRANCH   1   3
ATOM      3  C   UNL     1     131.361 125.143 141.327  1.00  0.00    -0.028 C 
ATOM      4  C   UNL     1     130.663 125.219 140.179  1.00  0.00    -0.027 C 
BRANCH   4   5
ATOM      5  C   UNL     1     130.555 126.509 139.379  1.00  0.00     0.014 C 
BRANCH   5   6
ATOM      6  C   UNL     1     129.775 127.623 140.148  1.00  0.00     0.004 C 
ATOM      7  C   UNL     1     130.024 129.010 139.558  1.00  0.00     0.004 C 
ENDBRANCH   5   6
BRANCH   5   8
ATOM      8  C   UNL     1     129.982 126.223 137.957  1.00  0.00    -0.011 C 
ATOM      9  C   UNL     1     131.039 126.438 136.861  1.00  0.00     0.008 C 
ATOM     10  C   UNL     1     128.702 127.019 137.637  1.00  0.00     0.008 C 
ENDBRANCH   5   8
ENDBRANCH   4   5
ENDBRANCH   1   3
BRANCH   1  11
ATOM     11  C   UNL     1     133.131 123.494 142.253  1.00  0.00     0.002 C 
ATOM     12  C   UNL     1     133.581 122.354 141.319  1.00  0.00     0.005 C 
ATOM     13  C   UNL     1     134.148 124.634 141.883  1.00  0.00    -0.026 C 
ATOM     14  C   UNL     1     134.068 123.010 140.032  1.00  0.00     0.005 C 
ATOM     15  C   UNL     1     134.270 124.503 140.345  1.00  0.00    -0.001 C 
ATOM     16  C   UNL     1     135.525 124.380 142.607  1.00  0.00     0.007 C 
ATOM     17  C   UNL     1     133.667 126.055 142.263  1.00  0.00     0.012 C 
ATOM     18  C   UNL     1     135.546 125.165 139.735  1.00  0.00    -0.004 C 
ATOM     19  C   UNL     1     136.671 123.919 141.695  1.00  0.00     0.005 C 
ATOM     20  C   UNL     1     136.884 124.896 140.518  1.00  0.00    -0.001 C 
ATOM     21  C   UNL     1     135.608 124.993 138.196  1.00  0.00     0.004 C 
ATOM     22  C   UNL     1     138.147 124.627 139.599  1.00  0.00    -0.026 C 
ATOM     23  C   UNL     1     136.478 123.840 137.695  1.00  0.00     0.004 C 
ATOM     24  C   UNL     1     137.840 123.633 138.414  1.00  0.00    -0.002 C 
ATOM     25  C   UNL     1     139.412 124.152 140.409  1.00  0.00     0.010 C 
ATOM     26  C   UNL     1     138.585 126.005 139.003  1.00  0.00     0.012 C 
ATOM     27  C   UNL     1     137.992 122.139 138.788  1.00  0.00     0.036 C 
ATOM     28  C   UNL     1     139.530 122.642 140.683  1.00  0.00     0.032 C 
ATOM     29  C   UNL     1     139.351 121.822 139.412  1.00  0.00     0.114 C 
BRANCH  29  30
ATOM     30  O   UNL     1     140.395 122.094 138.511  1.00  0.00    -0.393 OA
ATOM     31  H   UNL     1     140.687 121.222 138.139  1.00  0.00     0.210 HD
ENDBRANCH  29  30
ENDBRANCH   1  11
TORSDOF 6
ENDMDL
MODEL 6
REMARK VINA RESULT:    13.482      3.327      8.574
REMARK INTER + INTRA:          18.249
REMARK INTER:                  16.722
REMARK INTRA:                   1.528
REMARK UNBOUND:                 0.433
REMARK SMILES CC[C@@H](C=C[C@H](C)[C@H]1CC[C@@H]2[C@@H]3CC[C@@H]4C[C@@H](O)CC[C@]4(C)[C@@H]3CC[C@@]21C)C(C)C
REMARK SMILES IDX 6 1 7 2 5 3 4 4 3 5 2 6 1 7 28 8 29 9 30 10 8 11 9 12 26 13
REMARK SMILES IDX 10 14 11 15 25 16 27 17 12 18 24 19 23 20 13 21 21 22 14 23
REMARK SMILES IDX 15 24 20 25 22 26 16 27 19 28 17 29 18 30
REMARK H PARENT 18 31
REMARK Flexibility Score: inf
ROOT
ATOM      1  C   UNL     1     135.396 123.997 137.895  1.00  0.00     0.012 C 
ATOM      2  C   UNL     1     134.958 122.633 137.320  1.00  0.00     0.012 C 
ENDROOT
BRANCH   1   3
ATOM      3  C   UNL     1     134.144 124.844 138.050  1.00  0.00    -0.028 C 
ATOM      4  C   UNL     1     133.389 125.241 137.009  1.00  0.00    -0.027 C 
BRANCH   4   5
ATOM      5  C   UNL     1     132.222 126.203 137.176  1.00  0.00     0.014 C 
BRANCH   5   6
ATOM      6  C   UNL     1     131.424 125.949 138.495  1.00  0.00     0.004 C 
ATOM      7  C   UNL     1     130.101 126.715 138.523  1.00  0.00     0.004 C 
ENDBRANCH   5   6
BRANCH   5   8
ATOM      8  C   UNL     1     131.324 126.198 135.901  1.00  0.00    -0.011 C 
ATOM      9  C   UNL     1     132.137 126.479 134.627  1.00  0.00     0.008 C 
ATOM     10  C   UNL     1     130.117 127.152 135.993  1.00  0.00     0.008 C 
ENDBRANCH   5   8
ENDBRANCH   4   5
ENDBRANCH   1   3
BRANCH   1  11
ATOM     11  C   UNL     1     136.244 123.882 139.223  1.00  0.00     0.002 C 
ATOM     12  C   UNL     1     136.788 125.248 139.682  1.00  0.00     0.005 C 
ATOM     13  C   UNL     1     135.467 123.397 140.502  1.00  0.00    -0.026 C 
ATOM     14  C   UNL     1     135.741 125.844 140.618  1.00  0.00     0.005 C 
ATOM     15  C   UNL     1     134.793 124.696 141.008  1.00  0.00    -0.001 C 
ATOM     16  C   UNL     1     136.482 122.810 141.554  1.00  0.00     0.007 C 
ATOM     17  C   UNL     1     134.399 122.315 140.217  1.00  0.00     0.012 C 
ATOM     18  C   UNL     1     134.348 124.656 142.505  1.00  0.00    -0.004 C 
ATOM     19  C   UNL     1     136.721 123.683 142.795  1.00  0.00     0.005 C 
ATOM     20  C   UNL     1     135.393 124.033 143.502  1.00  0.00    -0.001 C 
ATOM     21  C   UNL     1     133.687 125.985 142.948  1.00  0.00     0.004 C 
ATOM     22  C   UNL     1     135.513 124.787 144.892  1.00  0.00    -0.026 C 
ATOM     23  C   UNL     1     134.602 126.965 143.684  1.00  0.00     0.004 C 
ATOM     24  C   UNL     1     135.572 126.355 144.734  1.00  0.00    -0.002 C 
ATOM     25  C   UNL     1     136.711 124.272 145.774  1.00  0.00     0.010 C 
ATOM     26  C   UNL     1     134.247 124.411 145.731  1.00  0.00     0.012 C 
ATOM     27  C   UNL     1     136.995 126.911 144.490  1.00  0.00     0.036 C 
ATOM     28  C   UNL     1     138.084 124.922 145.522  1.00  0.00     0.032 C 
ATOM     29  C   UNL     1     138.001 126.442 145.541  1.00  0.00     0.114 C 
BRANCH  29  30
ATOM     30  O   UNL     1     137.635 126.890 146.823  1.00  0.00    -0.393 OA
ATOM     31  H   UNL     1     138.224 127.660 147.036  1.00  0.00     0.210 HD
ENDBRANCH  29  30
ENDBRANCH   1  11
TORSDOF 6
ENDMDL
MODEL 7
REMARK VINA RESULT:    13.593      1.343      2.693
REMARK INTER + INTRA:          18.396
REMARK INTER:                  18.293
REMARK INTRA:                   0.103
REMARK UNBOUND:                 0.433
REMARK SMILES CC[C@@H](C=C[C@H](C)[C@H]1CC[C@@H]2[C@@H]3CC[C@@H]4C[C@@H](O)CC[C@]4(C)[C@@H]3CC[C@@]21C)C(C)C
REMARK SMILES IDX 6 1 7 2 5 3 4 4 3 5 2 6 1 7 28 8 29 9 30 10 8 11 9 12 26 13
REMARK SMILES IDX 10 14 11 15 25 16 27 17 12 18 24 19 23 20 13 21 21 22 14 23
REMARK SMILES IDX 15 24 20 25 22 26 16 27 19 28 17 29 18 30
REMARK H PARENT 18 31
REMARK Flexibility Score: inf
ROOT
ATOM      1  C   UNL     1     134.585 125.880 144.955  1.00  0.00     0.012 C 
ATOM      2  C   UNL     1     134.525 124.497 145.638  1.00  0.00     0.012 C 
ENDROOT
BRANCH   1   3
ATOM      3  C   UNL     1     135.810 126.598 145.496  1.00  0.00    -0.028 C 
ATOM      4  C   UNL     1     136.873 125.955 146.013  1.00  0.00    -0.027 C 
BRANCH   4   5
ATOM      5  C   UNL     1     138.026 126.696 146.674  1.00  0.00     0.014 C 
BRANCH   5   6
ATOM      6  C   UNL     1     139.221 126.931 145.697  1.00  0.00     0.004 C 
ATOM      7  C   UNL     1     140.570 126.661 146.364  1.00  0.00     0.004 C 
ENDBRANCH   5   6
BRANCH   5   8
ATOM      8  C   UNL     1     138.442 125.988 148.000  1.00  0.00    -0.011 C 
ATOM      9  C   UNL     1     137.915 124.546 148.068  1.00  0.00     0.008 C 
ATOM     10  C   UNL     1     138.045 126.769 149.268  1.00  0.00     0.008 C 
ENDBRANCH   5   8
ENDBRANCH   4   5
ENDBRANCH   1   3
BRANCH   1  11
ATOM     11  C   UNL     1     134.545 125.810 143.377  1.00  0.00     0.002 C 
ATOM     12  C   UNL     1     135.930 126.063 142.751  1.00  0.00     0.005 C 
ATOM     13  C   UNL     1     134.158 124.419 142.754  1.00  0.00    -0.026 C 
ATOM     14  C   UNL     1     136.602 124.701 142.613  1.00  0.00     0.005 C 
ATOM     15  C   UNL     1     135.498 123.643 142.785  1.00  0.00    -0.001 C 
ATOM     16  C   UNL     1     133.626 124.619 141.285  1.00  0.00     0.007 C 
ATOM     17  C   UNL     1     133.076 123.651 143.551  1.00  0.00     0.012 C 
ATOM     18  C   UNL     1     135.564 122.421 141.814  1.00  0.00    -0.004 C 
ATOM     19  C   UNL     1     134.575 124.150 140.172  1.00  0.00     0.005 C 
ATOM     20  C   UNL     1     134.992 122.676 140.371  1.00  0.00    -0.001 C 
ATOM     21  C   UNL     1     136.930 121.694 141.891  1.00  0.00     0.004 C 
ATOM     22  C   UNL     1     135.834 122.018 139.200  1.00  0.00    -0.026 C 
ATOM     23  C   UNL     1     137.941 122.073 140.808  1.00  0.00     0.004 C 
ATOM     24  C   UNL     1     137.387 122.237 139.366  1.00  0.00    -0.002 C 
ATOM     25  C   UNL     1     135.360 122.470 137.767  1.00  0.00     0.010 C 
ATOM     26  C   UNL     1     135.534 120.483 139.221  1.00  0.00     0.012 C 
ATOM     27  C   UNL     1     137.903 123.570 138.775  1.00  0.00     0.036 C 
ATOM     28  C   UNL     1     135.970 123.772 137.216  1.00  0.00     0.032 C 
ATOM     29  C   UNL     1     137.489 123.769 137.317  1.00  0.00     0.114 C 
BRANCH  29  30
ATOM     30  O   UNL     1     138.026 122.761 136.498  1.00  0.00    -0.393 OA
ATOM     31  H   UNL     1     137.585 122.846 135.613  1.00  0.00     0.210 HD
ENDBRANCH  29  30
ENDBRANCH   1  11
TORSDOF 6
ENDMDL
