MODEL 1
REMARK VINA RESULT:    -7.593      0.000      0.000
REMARK INTER + INTRA:         -22.370
REMARK INTER:                 -18.025
REMARK INTRA:                  -4.345
REMARK UNBOUND:                -4.345
REMARK SMILES O=C(OC[C@@H]1O[C@@H](OC(=O)c2cc(O)c(O)c(O)c2)[C@@H](OC(=O)c2cc(O)c(O)c(O)c2)[C@H](OC(=O)c2cc(O)c(O)c(O)c2)[C@@H]1OC(=O)c1cc(O)c(O)c(O)c1)c1cc(O)c(O)c(O)c1
REMARK SMILES IDX 5 1 46 2 33 3 20 4 7 5 6 6 4 7 3 8 2 9 1 10 59 11 60 12
REMARK SMILES IDX 61 13 67 14 63 15 65 16 62 17 64 19 66 21 47 23 48 24 49 25
REMARK SMILES IDX 50 26 58 27 51 28 56 29 52 30 54 31 57 32 53 34 55 36 34 38
REMARK SMILES IDX 35 39 36 40 37 41 45 42 38 43 43 44 39 45 41 46 44 47 40 49
REMARK SMILES IDX 42 51 8 53 9 54 10 55 11 56 19 57 12 58 17 59 13 60 15 61
REMARK SMILES IDX 18 62 14 64 16 66 21 68 22 69 23 70 24 71 32 72 25 73 30 74
REMARK SMILES IDX 26 75 28 76 31 77 27 79 29 81
REMARK H PARENT 62 18 64 20 66 22 57 33 53 35 55 37 44 48 40 50 42 52 18 63
REMARK H PARENT 14 65 16 67 31 78 27 80 29 82
REMARK Flexibility Score: inf
ROOT
ATOM      1  C   UNL     1      17.281  26.282  28.113  1.00  0.00     0.205 C 
ATOM      2  C   UNL     1      17.480  27.693  28.710  1.00  0.00     0.254 C 
ATOM      3  C   UNL     1      18.965  28.090  28.585  1.00  0.00     0.267 C 
ATOM      4  C   UNL     1      19.859  26.991  29.185  1.00  0.00     0.290 C 
ATOM      5  C   UNL     1      19.479  25.619  28.599  1.00  0.00     0.357 C 
ATOM      6  O   UNL     1      18.101  25.339  28.787  1.00  0.00    -0.329 OA
ENDROOT
BRANCH   1   7
ATOM      7  C   UNL     1      15.812  25.840  28.217  1.00  0.00     0.269 C 
BRANCH   7   8
ATOM      8  O   UNL     1      15.373  25.260  26.990  1.00  0.00    -0.459 OA
BRANCH   8   9
ATOM      9  C   UNL     1      15.399  23.887  26.716  1.00  0.00     0.338 C 
ATOM     10  O   UNL     1      15.580  23.478  25.538  1.00  0.00    -0.246 OA
BRANCH   9  11
ATOM     11  C   UNL     1      15.246  22.919  27.824  1.00  0.00     0.067 A 
ATOM     12  C   UNL     1      15.120  23.371  29.144  1.00  0.00     0.066 A 
ATOM     13  C   UNL     1      14.992  22.467  30.201  1.00  0.00     0.162 A 
ATOM     14  C   UNL     1      15.231  21.539  27.572  1.00  0.00     0.066 A 
ATOM     15  C   UNL     1      14.988  21.083  29.950  1.00  0.00     0.200 A 
ATOM     16  C   UNL     1      15.101  20.617  28.616  1.00  0.00     0.162 A 
BRANCH  13  17
ATOM     17  O   UNL     1      14.886  22.963  31.502  1.00  0.00    -0.504 OA
ATOM     18  H   UNL     1      15.281  22.480  32.300  1.00  0.00     0.293 HD
ENDBRANCH  13  17
BRANCH  15  19
ATOM     19  O   UNL     1      14.879  20.211  31.037  1.00  0.00    -0.502 OA
ATOM     20  H   UNL     1      15.549  19.488  31.251  1.00  0.00     0.293 HD
ENDBRANCH  15  19
BRANCH  16  21
ATOM     21  O   UNL     1      15.081  19.259  28.286  1.00  0.00    -0.504 OA
ATOM     22  H   UNL     1      15.676  18.834  27.594  1.00  0.00     0.293 HD
ENDBRANCH  16  21
ENDBRANCH   9  11
ENDBRANCH   8   9
ENDBRANCH   7   8
ENDBRANCH   1   7
BRANCH   2  23
ATOM     23  O   UNL     1      17.096  27.686  30.085  1.00  0.00    -0.452 OA
BRANCH  23  24
ATOM     24  C   UNL     1      16.124  28.536  30.631  1.00  0.00     0.338 C 
ATOM     25  O   UNL     1      14.902  28.229  30.570  1.00  0.00    -0.246 OA
BRANCH  24  26
ATOM     26  C   UNL     1      16.541  29.794  31.283  1.00  0.00     0.067 A 
ATOM     27  C   UNL     1      17.791  29.892  31.920  1.00  0.00     0.066 A 
ATOM     28  C   UNL     1      15.693  30.911  31.265  1.00  0.00     0.066 A 
ATOM     29  C   UNL     1      18.188  31.086  32.528  1.00  0.00     0.162 A 
ATOM     30  C   UNL     1      16.079  32.107  31.877  1.00  0.00     0.162 A 
ATOM     31  C   UNL     1      17.329  32.199  32.513  1.00  0.00     0.200 A 
BRANCH  29  32
ATOM     32  O   UNL     1      19.448  31.156  33.125  1.00  0.00    -0.504 OA
ATOM     33  H   UNL     1      20.140  30.426  33.001  1.00  0.00     0.293 HD
ENDBRANCH  29  32
BRANCH  30  34
ATOM     34  O   UNL     1      15.221  33.209  31.862  1.00  0.00    -0.504 OA
ATOM     35  H   UNL     1      15.466  34.059  31.365  1.00  0.00     0.293 HD
ENDBRANCH  30  34
BRANCH  31  36
ATOM     36  O   UNL     1      17.732  33.388  33.124  1.00  0.00    -0.502 OA
ATOM     37  H   UNL     1      17.685  33.523  34.130  1.00  0.00     0.293 HD
ENDBRANCH  31  36
ENDBRANCH  24  26
ENDBRANCH  23  24
ENDBRANCH   2  23
BRANCH   3  38
ATOM     38  O   UNL     1      19.220  29.320  29.264  1.00  0.00    -0.450 OA
BRANCH  38  39
ATOM     39  C   UNL     1      19.256  30.574  28.647  1.00  0.00     0.338 C 
ATOM     40  O   UNL     1      18.840  30.709  27.463  1.00  0.00    -0.246 OA
BRANCH  39  41
ATOM     41  C   UNL     1      19.794  31.739  29.388  1.00  0.00     0.067 A 
ATOM     42  C   UNL     1      18.998  32.868  29.648  1.00  0.00     0.066 A 
ATOM     43  C   UNL     1      21.124  31.728  29.837  1.00  0.00     0.066 A 
ATOM     44  C   UNL     1      19.529  33.981  30.314  1.00  0.00     0.162 A 
ATOM     45  C   UNL     1      21.663  32.834  30.500  1.00  0.00     0.162 A 
ATOM     46  C   UNL     1      20.869  33.968  30.737  1.00  0.00     0.200 A 
BRANCH  44  47
ATOM     47  O   UNL     1      18.731  35.103  30.557  1.00  0.00    -0.504 OA
ATOM     48  H   UNL     1      17.828  35.225  30.111  1.00  0.00     0.293 HD
ENDBRANCH  44  47
BRANCH  45  49
ATOM     49  O   UNL     1      22.992  32.788  30.923  1.00  0.00    -0.504 OA
ATOM     50  H   UNL     1      23.269  33.080  31.851  1.00  0.00     0.293 HD
ENDBRANCH  45  49
BRANCH  46  51
ATOM     51  O   UNL     1      21.421  35.067  31.393  1.00  0.00    -0.502 OA
ATOM     52  H   UNL     1      21.023  35.450  32.244  1.00  0.00     0.293 HD
ENDBRANCH  46  51
ENDBRANCH  39  41
ENDBRANCH  38  39
ENDBRANCH   3  38
BRANCH   5  53
ATOM     53  O   UNL     1      19.825  25.544  27.214  1.00  0.00    -0.428 OA
BRANCH  53  54
ATOM     54  C   UNL     1      20.798  24.674  26.708  1.00  0.00     0.340 C 
ATOM     55  O   UNL     1      21.980  24.720  27.148  1.00  0.00    -0.246 OA
BRANCH  54  56
ATOM     56  C   UNL     1      20.437  23.722  25.633  1.00  0.00     0.067 A 
ATOM     57  C   UNL     1      19.264  22.957  25.736  1.00  0.00     0.066 A 
ATOM     58  C   UNL     1      21.251  23.583  24.498  1.00  0.00     0.066 A 
ATOM     59  C   UNL     1      18.912  22.055  24.722  1.00  0.00     0.162 A 
ATOM     60  C   UNL     1      20.901  22.689  23.477  1.00  0.00     0.162 A 
ATOM     61  C   UNL     1      19.734  21.917  23.590  1.00  0.00     0.200 A 
BRANCH  59  62
ATOM     62  O   UNL     1      17.750  21.295  24.832  1.00  0.00    -0.504 OA
ATOM     63  H   UNL     1      17.558  20.522  24.205  1.00  0.00     0.293 HD
ENDBRANCH  59  62
BRANCH  60  64
ATOM     64  O   UNL     1      21.728  22.565  22.361  1.00  0.00    -0.504 OA
ATOM     65  H   UNL     1      21.370  22.657  21.417  1.00  0.00     0.293 HD
ENDBRANCH  60  64
BRANCH  61  66
ATOM     66  O   UNL     1      19.404  21.021  22.570  1.00  0.00    -0.502 OA
ATOM     67  H   UNL     1      20.080  20.743  21.859  1.00  0.00     0.293 HD
ENDBRANCH  61  66
ENDBRANCH  54  56
ENDBRANCH  53  54
ENDBRANCH   5  53
BRANCH   4  68
ATOM     68  O   UNL     1      21.236  27.262  28.903  1.00  0.00    -0.448 OA
BRANCH  68  69
ATOM     69  C   UNL     1      22.065  28.019  29.746  1.00  0.00     0.339 C 
ATOM     70  O   UNL     1      21.669  28.339  30.899  1.00  0.00    -0.246 OA
BRANCH  69  71
ATOM     71  C   UNL     1      23.418  28.408  29.298  1.00  0.00     0.067 A 
ATOM     72  C   UNL     1      24.013  27.779  28.189  1.00  0.00     0.066 A 
ATOM     73  C   UNL     1      24.127  29.415  29.972  1.00  0.00     0.066 A 
ATOM     74  C   UNL     1      25.282  28.174  27.741  1.00  0.00     0.162 A 
ATOM     75  C   UNL     1      25.403  29.809  29.546  1.00  0.00     0.162 A 
ATOM     76  C   UNL     1      25.979  29.195  28.405  1.00  0.00     0.200 A 
BRANCH  74  77
ATOM     77  O   UNL     1      25.856  27.566  26.625  1.00  0.00    -0.504 OA
ATOM     78  H   UNL     1      25.763  27.963  25.703  1.00  0.00     0.293 HD
ENDBRANCH  74  77
BRANCH  75  79
ATOM     79  O   UNL     1      26.056  30.797  30.287  1.00  0.00    -0.504 OA
ATOM     80  H   UNL     1      25.651  31.690  30.520  1.00  0.00     0.293 HD
ENDBRANCH  75  79
BRANCH  76  81
ATOM     81  O   UNL     1      27.224  29.577  27.902  1.00  0.00    -0.502 OA
ATOM     82  H   UNL     1      28.025  28.971  27.886  1.00  0.00     0.293 HD
ENDBRANCH  76  81
ENDBRANCH  69  71
ENDBRANCH  68  69
ENDBRANCH   4  68
TORSDOF 31
ENDMDL
MODEL 2
REMARK VINA RESULT:    -7.403      1.371      7.607
REMARK INTER + INTRA:         -21.918
REMARK INTER:                 -17.570
REMARK INTRA:                  -4.348
REMARK UNBOUND:                -4.345
REMARK SMILES O=C(OC[C@@H]1O[C@@H](OC(=O)c2cc(O)c(O)c(O)c2)[C@@H](OC(=O)c2cc(O)c(O)c(O)c2)[C@H](OC(=O)c2cc(O)c(O)c(O)c2)[C@@H]1OC(=O)c1cc(O)c(O)c(O)c1)c1cc(O)c(O)c(O)c1
REMARK SMILES IDX 5 1 46 2 33 3 20 4 7 5 6 6 4 7 3 8 2 9 1 10 59 11 60 12
REMARK SMILES IDX 61 13 67 14 63 15 65 16 62 17 64 19 66 21 47 23 48 24 49 25
REMARK SMILES IDX 50 26 58 27 51 28 56 29 52 30 54 31 57 32 53 34 55 36 34 38
REMARK SMILES IDX 35 39 36 40 37 41 45 42 38 43 43 44 39 45 41 46 44 47 40 49
REMARK SMILES IDX 42 51 8 53 9 54 10 55 11 56 19 57 12 58 17 59 13 60 15 61
REMARK SMILES IDX 18 62 14 64 16 66 21 68 22 69 23 70 24 71 32 72 25 73 30 74
REMARK SMILES IDX 26 75 28 76 31 77 27 79 29 81
REMARK H PARENT 62 18 64 20 66 22 57 33 53 35 55 37 44 48 40 50 42 52 18 63
REMARK H PARENT 14 65 16 67 31 78 27 80 29 82
REMARK Flexibility Score: inf
ROOT
ATOM      1  C   UNL     1      17.729  28.366  30.020  1.00  0.00     0.205 C 
ATOM      2  C   UNL     1      19.164  28.874  29.757  1.00  0.00     0.254 C 
ATOM      3  C   UNL     1      19.727  28.174  28.504  1.00  0.00     0.267 C 
ATOM      4  C   UNL     1      19.585  26.647  28.643  1.00  0.00     0.290 C 
ATOM      5  C   UNL     1      18.140  26.281  29.024  1.00  0.00     0.357 C 
ATOM      6  O   UNL     1      17.727  26.958  30.201  1.00  0.00    -0.329 OA
ENDROOT
BRANCH   1   7
ATOM      7  C   UNL     1      17.124  29.037  31.265  1.00  0.00     0.269 C 
BRANCH   7   8
ATOM      8  O   UNL     1      15.889  29.673  30.943  1.00  0.00    -0.459 OA
BRANCH   8   9
ATOM      9  C   UNL     1      15.780  30.826  30.157  1.00  0.00     0.338 C 
ATOM     10  O   UNL     1      14.876  30.915  29.283  1.00  0.00    -0.246 OA
BRANCH   9  11
ATOM     11  C   UNL     1      16.711  31.953  30.380  1.00  0.00     0.067 A 
ATOM     12  C   UNL     1      17.613  32.332  29.377  1.00  0.00     0.066 A 
ATOM     13  C   UNL     1      18.509  33.384  29.581  1.00  0.00     0.162 A 
ATOM     14  C   UNL     1      16.710  32.653  31.596  1.00  0.00     0.066 A 
ATOM     15  C   UNL     1      18.516  34.078  30.804  1.00  0.00     0.200 A 
ATOM     16  C   UNL     1      17.598  33.711  31.819  1.00  0.00     0.162 A 
BRANCH  13  17
ATOM     17  O   UNL     1      19.401  33.715  28.559  1.00  0.00    -0.504 OA
ATOM     18  H   UNL     1      19.438  34.642  28.150  1.00  0.00     0.293 HD
ENDBRANCH  13  17
BRANCH  15  19
ATOM     19  O   UNL     1      19.442  35.111  30.976  1.00  0.00    -0.502 OA
ATOM     20  H   UNL     1      19.337  35.859  31.643  1.00  0.00     0.293 HD
ENDBRANCH  15  19
BRANCH  16  21
ATOM     21  O   UNL     1      17.529  34.369  33.050  1.00  0.00    -0.504 OA
ATOM     22  H   UNL     1      17.710  33.932  33.939  1.00  0.00     0.293 HD
ENDBRANCH  16  21
ENDBRANCH   9  11
ENDBRANCH   8   9
ENDBRANCH   7   8
ENDBRANCH   1   7
BRANCH   2  23
ATOM     23  O   UNL     1      19.987  28.580  30.886  1.00  0.00    -0.452 OA
BRANCH  23  24
ATOM     24  C   UNL     1      20.297  29.506  31.892  1.00  0.00     0.338 C 
ATOM     25  O   UNL     1      19.645  29.516  32.972  1.00  0.00    -0.246 OA
BRANCH  24  26
ATOM     26  C   UNL     1      21.396  30.470  31.680  1.00  0.00     0.067 A 
ATOM     27  C   UNL     1      22.640  30.289  32.310  1.00  0.00     0.066 A 
ATOM     28  C   UNL     1      21.210  31.576  30.838  1.00  0.00     0.066 A 
ATOM     29  C   UNL     1      23.682  31.196  32.101  1.00  0.00     0.162 A 
ATOM     30  C   UNL     1      22.244  32.493  30.629  1.00  0.00     0.162 A 
ATOM     31  C   UNL     1      23.486  32.307  31.262  1.00  0.00     0.200 A 
BRANCH  29  32
ATOM     32  O   UNL     1      24.913  30.969  32.719  1.00  0.00    -0.504 OA
ATOM     33  H   UNL     1      25.471  30.149  32.513  1.00  0.00     0.293 HD
ENDBRANCH  29  32
BRANCH  30  34
ATOM     34  O   UNL     1      22.043  33.596  29.797  1.00  0.00    -0.504 OA
ATOM     35  H   UNL     1      22.807  34.220  29.559  1.00  0.00     0.293 HD
ENDBRANCH  30  34
BRANCH  31  36
ATOM     36  O   UNL     1      24.530  33.210  31.059  1.00  0.00    -0.502 OA
ATOM     37  H   UNL     1      24.625  34.060  31.608  1.00  0.00     0.293 HD
ENDBRANCH  31  36
ENDBRANCH  24  26
ENDBRANCH  23  24
ENDBRANCH   2  23
BRANCH   3  38
ATOM     38  O   UNL     1      21.105  28.498  28.317  1.00  0.00    -0.450 OA
BRANCH  38  39
ATOM     39  C   UNL     1      22.166  27.831  28.938  1.00  0.00     0.338 C 
ATOM     40  O   UNL     1      21.937  26.881  29.736  1.00  0.00    -0.246 OA
BRANCH  39  41
ATOM     41  C   UNL     1      23.558  28.254  28.658  1.00  0.00     0.067 A 
ATOM     42  C   UNL     1      24.179  29.263  29.415  1.00  0.00     0.066 A 
ATOM     43  C   UNL     1      24.277  27.648  27.616  1.00  0.00     0.066 A 
ATOM     44  C   UNL     1      25.482  29.684  29.115  1.00  0.00     0.162 A 
ATOM     45  C   UNL     1      25.576  28.062  27.308  1.00  0.00     0.162 A 
ATOM     46  C   UNL     1      26.182  29.086  28.053  1.00  0.00     0.200 A 
BRANCH  44  47
ATOM     47  O   UNL     1      26.086  30.697  29.867  1.00  0.00    -0.504 OA
ATOM     48  H   UNL     1      27.086  30.864  29.834  1.00  0.00     0.293 HD
ENDBRANCH  44  47
BRANCH  45  49
ATOM     49  O   UNL     1      26.255  27.441  26.259  1.00  0.00    -0.504 OA
ATOM     50  H   UNL     1      26.081  27.681  25.292  1.00  0.00     0.293 HD
ENDBRANCH  45  49
BRANCH  46  51
ATOM     51  O   UNL     1      27.476  29.495  27.732  1.00  0.00    -0.502 OA
ATOM     52  H   UNL     1      27.673  30.387  27.290  1.00  0.00     0.293 HD
ENDBRANCH  46  51
ENDBRANCH  39  41
ENDBRANCH  38  39
ENDBRANCH   3  38
BRANCH   5  53
ATOM     53  O   UNL     1      17.243  26.555  27.945  1.00  0.00    -0.428 OA
BRANCH  53  54
ATOM     54  C   UNL     1      15.918  26.104  27.910  1.00  0.00     0.340 C 
ATOM     55  O   UNL     1      14.967  26.921  28.046  1.00  0.00    -0.246 OA
BRANCH  54  56
ATOM     56  C   UNL     1      15.644  24.659  27.743  1.00  0.00     0.067 A 
ATOM     57  C   UNL     1      15.604  24.093  26.458  1.00  0.00     0.066 A 
ATOM     58  C   UNL     1      15.436  23.837  28.863  1.00  0.00     0.066 A 
ATOM     59  C   UNL     1      15.348  22.725  26.290  1.00  0.00     0.162 A 
ATOM     60  C   UNL     1      15.188  22.467  28.702  1.00  0.00     0.162 A 
ATOM     61  C   UNL     1      15.135  21.908  27.415  1.00  0.00     0.200 A 
BRANCH  59  62
ATOM     62  O   UNL     1      15.305  22.172  25.013  1.00  0.00    -0.504 OA
ATOM     63  H   UNL     1      14.541  22.364  24.376  1.00  0.00     0.293 HD
ENDBRANCH  59  62
BRANCH  60  64
ATOM     64  O   UNL     1      14.979  21.672  29.829  1.00  0.00    -0.504 OA
ATOM     65  H   UNL     1      15.685  21.569  30.549  1.00  0.00     0.293 HD
ENDBRANCH  60  64
BRANCH  61  66
ATOM     66  O   UNL     1      14.875  20.543  27.270  1.00  0.00    -0.502 OA
ATOM     67  H   UNL     1      14.991  20.065  26.377  1.00  0.00     0.293 HD
ENDBRANCH  61  66
ENDBRANCH  54  56
ENDBRANCH  53  54
ENDBRANCH   5  53
BRANCH   4  68
ATOM     68  O   UNL     1      19.928  26.003  27.411  1.00  0.00    -0.448 OA
BRANCH  68  69
ATOM     69  C   UNL     1      20.519  24.733  27.340  1.00  0.00     0.339 C 
ATOM     70  O   UNL     1      21.137  24.267  28.335  1.00  0.00    -0.246 OA
BRANCH  69  71
ATOM     71  C   UNL     1      20.384  23.922  26.111  1.00  0.00     0.067 A 
ATOM     72  C   UNL     1      21.340  24.015  25.084  1.00  0.00     0.066 A 
ATOM     73  C   UNL     1      19.300  23.043  25.956  1.00  0.00     0.066 A 
ATOM     74  C   UNL     1      21.232  23.218  23.935  1.00  0.00     0.162 A 
ATOM     75  C   UNL     1      19.171  22.252  24.807  1.00  0.00     0.162 A 
ATOM     76  C   UNL     1      20.159  22.326  23.793  1.00  0.00     0.200 A 
BRANCH  74  77
ATOM     77  O   UNL     1      22.197  23.295  22.931  1.00  0.00    -0.504 OA
ATOM     78  H   UNL     1      22.074  23.891  22.127  1.00  0.00     0.293 HD
ENDBRANCH  74  77
BRANCH  75  79
ATOM     79  O   UNL     1      18.048  21.424  24.714  1.00  0.00    -0.504 OA
ATOM     80  H   UNL     1      17.887  20.773  23.963  1.00  0.00     0.293 HD
ENDBRANCH  75  79
BRANCH  76  81
ATOM     81  O   UNL     1      20.113  21.529  22.648  1.00  0.00    -0.502 OA
ATOM     82  H   UNL     1      20.930  21.147  22.205  1.00  0.00     0.293 HD
ENDBRANCH  76  81
ENDBRANCH  69  71
ENDBRANCH  68  69
ENDBRANCH   4  68
TORSDOF 31
ENDMDL
MODEL 3
REMARK VINA RESULT:    -6.706      2.603      9.516
REMARK INTER + INTRA:         -20.265
REMARK INTER:                 -15.326
REMARK INTRA:                  -4.939
REMARK UNBOUND:                -4.345
REMARK SMILES O=C(OC[C@@H]1O[C@@H](OC(=O)c2cc(O)c(O)c(O)c2)[C@@H](OC(=O)c2cc(O)c(O)c(O)c2)[C@H](OC(=O)c2cc(O)c(O)c(O)c2)[C@@H]1OC(=O)c1cc(O)c(O)c(O)c1)c1cc(O)c(O)c(O)c1
REMARK SMILES IDX 5 1 46 2 33 3 20 4 7 5 6 6 4 7 3 8 2 9 1 10 59 11 60 12
REMARK SMILES IDX 61 13 67 14 63 15 65 16 62 17 64 19 66 21 47 23 48 24 49 25
REMARK SMILES IDX 50 26 58 27 51 28 56 29 52 30 54 31 57 32 53 34 55 36 34 38
REMARK SMILES IDX 35 39 36 40 37 41 45 42 38 43 43 44 39 45 41 46 44 47 40 49
REMARK SMILES IDX 42 51 8 53 9 54 10 55 11 56 19 57 12 58 17 59 13 60 15 61
REMARK SMILES IDX 18 62 14 64 16 66 21 68 22 69 23 70 24 71 32 72 25 73 30 74
REMARK SMILES IDX 26 75 28 76 31 77 27 79 29 81
REMARK H PARENT 62 18 64 20 66 22 57 33 53 35 55 37 44 48 40 50 42 52 18 63
REMARK H PARENT 14 65 16 67 31 78 27 80 29 82
REMARK Flexibility Score: inf
ROOT
ATOM      1  C   UNL     1      24.101  28.237  29.595  1.00  0.00     0.205 C 
ATOM      2  C   UNL     1      23.529  29.408  30.425  1.00  0.00     0.254 C 
ATOM      3  C   UNL     1      21.995  29.268  30.507  1.00  0.00     0.267 C 
ATOM      4  C   UNL     1      21.403  29.112  29.095  1.00  0.00     0.290 C 
ATOM      5  C   UNL     1      22.139  27.998  28.330  1.00  0.00     0.357 C 
ATOM      6  O   UNL     1      23.538  28.232  28.292  1.00  0.00    -0.329 OA
ENDROOT
BRANCH   1   7
ATOM      7  C   UNL     1      25.632  28.334  29.484  1.00  0.00     0.269 C 
BRANCH   7   8
ATOM      8  O   UNL     1      26.009  29.474  28.714  1.00  0.00    -0.459 OA
BRANCH   8   9
ATOM      9  C   UNL     1      27.146  29.529  27.898  1.00  0.00     0.338 C 
ATOM     10  O   UNL     1      27.282  28.717  26.944  1.00  0.00    -0.246 OA
BRANCH   9  11
ATOM     11  C   UNL     1      28.169  30.569  28.141  1.00  0.00     0.067 A 
ATOM     12  C   UNL     1      29.512  30.209  28.314  1.00  0.00     0.066 A 
ATOM     13  C   UNL     1      30.486  31.179  28.561  1.00  0.00     0.162 A 
ATOM     14  C   UNL     1      27.813  31.924  28.207  1.00  0.00     0.066 A 
ATOM     15  C   UNL     1      30.127  32.537  28.638  1.00  0.00     0.200 A 
ATOM     16  C   UNL     1      28.773  32.911  28.450  1.00  0.00     0.162 A 
BRANCH  13  17
ATOM     17  O   UNL     1      31.810  30.773  28.744  1.00  0.00    -0.504 OA
ATOM     18  H   UNL     1      32.589  31.418  28.682  1.00  0.00     0.293 HD
ENDBRANCH  13  17
BRANCH  15  19
ATOM     19  O   UNL     1      31.128  33.475  28.907  1.00  0.00    -0.502 OA
ATOM     20  H   UNL     1      31.851  33.733  28.254  1.00  0.00     0.293 HD
ENDBRANCH  15  19
BRANCH  16  21
ATOM     21  O   UNL     1      28.344  34.241  28.489  1.00  0.00    -0.504 OA
ATOM     22  H   UNL     1      28.732  34.980  27.925  1.00  0.00     0.293 HD
ENDBRANCH  16  21
ENDBRANCH   9  11
ENDBRANCH   8   9
ENDBRANCH   7   8
ENDBRANCH   1   7
BRANCH   2  23
ATOM     23  O   UNL     1      23.869  30.645  29.800  1.00  0.00    -0.452 OA
BRANCH  23  24
ATOM     24  C   UNL     1      24.114  31.835  30.499  1.00  0.00     0.338 C 
ATOM     25  O   UNL     1      23.187  32.674  30.673  1.00  0.00    -0.246 OA
BRANCH  24  26
ATOM     26  C   UNL     1      25.464  32.101  31.035  1.00  0.00     0.067 A 
ATOM     27  C   UNL     1      26.340  31.041  31.331  1.00  0.00     0.066 A 
ATOM     28  C   UNL     1      25.891  33.420  31.246  1.00  0.00     0.066 A 
ATOM     29  C   UNL     1      27.621  31.293  31.828  1.00  0.00     0.162 A 
ATOM     30  C   UNL     1      27.168  33.682  31.750  1.00  0.00     0.162 A 
ATOM     31  C   UNL     1      28.039  32.618  32.045  1.00  0.00     0.200 A 
BRANCH  29  32
ATOM     32  O   UNL     1      28.473  30.218  32.084  1.00  0.00    -0.504 OA
ATOM     33  H   UNL     1      28.122  29.319  32.391  1.00  0.00     0.293 HD
ENDBRANCH  29  32
BRANCH  30  34
ATOM     34  O   UNL     1      27.578  34.999  31.966  1.00  0.00    -0.504 OA
ATOM     35  H   UNL     1      28.478  35.207  32.387  1.00  0.00     0.293 HD
ENDBRANCH  30  34
BRANCH  31  36
ATOM     36  O   UNL     1      29.319  32.863  32.544  1.00  0.00    -0.502 OA
ATOM     37  H   UNL     1      30.085  32.208  32.415  1.00  0.00     0.293 HD
ENDBRANCH  31  36
ENDBRANCH  24  26
ENDBRANCH  23  24
ENDBRANCH   2  23
BRANCH   3  38
ATOM     38  O   UNL     1      21.414  30.413  31.131  1.00  0.00    -0.450 OA
BRANCH  38  39
ATOM     39  C   UNL     1      20.638  30.372  32.294  1.00  0.00     0.338 C 
ATOM     40  O   UNL     1      20.789  29.434  33.124  1.00  0.00    -0.246 OA
BRANCH  39  41
ATOM     41  C   UNL     1      19.634  31.433  32.540  1.00  0.00     0.067 A 
ATOM     42  C   UNL     1      18.279  31.121  32.744  1.00  0.00     0.066 A 
ATOM     43  C   UNL     1      20.030  32.780  32.563  1.00  0.00     0.066 A 
ATOM     44  C   UNL     1      17.329  32.135  32.934  1.00  0.00     0.162 A 
ATOM     45  C   UNL     1      19.092  33.798  32.750  1.00  0.00     0.162 A 
ATOM     46  C   UNL     1      17.736  33.480  32.931  1.00  0.00     0.200 A 
BRANCH  44  47
ATOM     47  O   UNL     1      15.982  31.812  33.125  1.00  0.00    -0.504 OA
ATOM     48  H   UNL     1      15.667  30.851  33.199  1.00  0.00     0.293 HD
ENDBRANCH  44  47
BRANCH  45  49
ATOM     49  O   UNL     1      19.524  35.125  32.758  1.00  0.00    -0.504 OA
ATOM     50  H   UNL     1      20.357  35.421  32.268  1.00  0.00     0.293 HD
ENDBRANCH  45  49
BRANCH  46  51
ATOM     51  O   UNL     1      16.808  34.506  33.109  1.00  0.00    -0.502 OA
ATOM     52  H   UNL     1      15.848  34.435  32.789  1.00  0.00     0.293 HD
ENDBRANCH  46  51
ENDBRANCH  39  41
ENDBRANCH  38  39
ENDBRANCH   3  38
BRANCH   5  53
ATOM     53  O   UNL     1      21.858  26.717  28.901  1.00  0.00    -0.428 OA
BRANCH  53  54
ATOM     54  C   UNL     1      21.790  25.537  28.151  1.00  0.00     0.340 C 
ATOM     55  O   UNL     1      22.847  24.927  27.832  1.00  0.00    -0.246 OA
BRANCH  54  56
ATOM     56  C   UNL     1      20.471  25.027  27.713  1.00  0.00     0.067 A 
ATOM     57  C   UNL     1      19.296  25.702  28.085  1.00  0.00     0.066 A 
ATOM     58  C   UNL     1      20.379  23.877  26.912  1.00  0.00     0.066 A 
ATOM     59  C   UNL     1      18.043  25.228  27.672  1.00  0.00     0.162 A 
ATOM     60  C   UNL     1      19.130  23.403  26.490  1.00  0.00     0.162 A 
ATOM     61  C   UNL     1      17.957  24.073  26.875  1.00  0.00     0.200 A 
BRANCH  59  62
ATOM     62  O   UNL     1      16.882  25.898  28.049  1.00  0.00    -0.504 OA
ATOM     63  H   UNL     1      16.911  26.822  28.463  1.00  0.00     0.293 HD
ENDBRANCH  59  62
BRANCH  60  64
ATOM     64  O   UNL     1      19.064  22.256  25.699  1.00  0.00    -0.504 OA
ATOM     65  H   UNL     1      18.935  22.305  24.695  1.00  0.00     0.293 HD
ENDBRANCH  60  64
BRANCH  61  66
ATOM     66  O   UNL     1      16.719  23.581  26.456  1.00  0.00    -0.502 OA
ATOM     67  H   UNL     1      15.980  23.348  27.119  1.00  0.00     0.293 HD
ENDBRANCH  61  66
ENDBRANCH  54  56
ENDBRANCH  53  54
ENDBRANCH   5  53
BRANCH   4  68
ATOM     68  O   UNL     1      20.010  28.793  29.174  1.00  0.00    -0.448 OA
BRANCH  68  69
ATOM     69  C   UNL     1      19.040  29.338  28.319  1.00  0.00     0.339 C 
ATOM     70  O   UNL     1      18.831  28.819  27.189  1.00  0.00    -0.246 OA
BRANCH  69  71
ATOM     71  C   UNL     1      18.234  30.497  28.757  1.00  0.00     0.067 A 
ATOM     72  C   UNL     1      16.920  30.318  29.224  1.00  0.00     0.066 A 
ATOM     73  C   UNL     1      18.773  31.793  28.716  1.00  0.00     0.066 A 
ATOM     74  C   UNL     1      16.168  31.413  29.675  1.00  0.00     0.162 A 
ATOM     75  C   UNL     1      18.028  32.898  29.147  1.00  0.00     0.162 A 
ATOM     76  C   UNL     1      16.717  32.704  29.651  1.00  0.00     0.200 A 
BRANCH  74  77
ATOM     77  O   UNL     1      14.875  31.227  30.163  1.00  0.00    -0.504 OA
ATOM     78  H   UNL     1      14.266  30.518  29.784  1.00  0.00     0.293 HD
ENDBRANCH  74  77
BRANCH  75  79
ATOM     79  O   UNL     1      18.624  34.159  29.047  1.00  0.00    -0.504 OA
ATOM     80  H   UNL     1      18.314  34.972  29.555  1.00  0.00     0.293 HD
ENDBRANCH  75  79
BRANCH  76  81
ATOM     81  O   UNL     1      15.944  33.757  30.142  1.00  0.00    -0.502 OA
ATOM     82  H   UNL     1      16.204  34.724  30.054  1.00  0.00     0.293 HD
ENDBRANCH  76  81
ENDBRANCH  69  71
ENDBRANCH  68  69
ENDBRANCH   4  68
TORSDOF 31
ENDMDL
MODEL 4
REMARK VINA RESULT:    -6.407      2.392      9.244
REMARK INTER + INTRA:         -19.555
REMARK INTER:                 -15.726
REMARK INTRA:                  -3.829
REMARK UNBOUND:                -4.345
REMARK SMILES O=C(OC[C@@H]1O[C@@H](OC(=O)c2cc(O)c(O)c(O)c2)[C@@H](OC(=O)c2cc(O)c(O)c(O)c2)[C@H](OC(=O)c2cc(O)c(O)c(O)c2)[C@@H]1OC(=O)c1cc(O)c(O)c(O)c1)c1cc(O)c(O)c(O)c1
REMARK SMILES IDX 5 1 46 2 33 3 20 4 7 5 6 6 4 7 3 8 2 9 1 10 59 11 60 12
REMARK SMILES IDX 61 13 67 14 63 15 65 16 62 17 64 19 66 21 47 23 48 24 49 25
REMARK SMILES IDX 50 26 58 27 51 28 56 29 52 30 54 31 57 32 53 34 55 36 34 38
REMARK SMILES IDX 35 39 36 40 37 41 45 42 38 43 43 44 39 45 41 46 44 47 40 49
REMARK SMILES IDX 42 51 8 53 9 54 10 55 11 56 19 57 12 58 17 59 13 60 15 61
REMARK SMILES IDX 18 62 14 64 16 66 21 68 22 69 23 70 24 71 32 72 25 73 30 74
REMARK SMILES IDX 26 75 28 76 31 77 27 79 29 81
REMARK H PARENT 62 18 64 20 66 22 57 33 53 35 55 37 44 48 40 50 42 52 18 63
REMARK H PARENT 14 65 16 67 31 78 27 80 29 82
REMARK Flexibility Score: inf
ROOT
ATOM      1  C   UNL     1      24.274  28.871  29.261  1.00  0.00     0.205 C 
ATOM      2  C   UNL     1      23.492  29.800  30.215  1.00  0.00     0.254 C 
ATOM      3  C   UNL     1      22.097  29.198  30.477  1.00  0.00     0.267 C 
ATOM      4  C   UNL     1      21.396  28.886  29.142  1.00  0.00     0.290 C 
ATOM      5  C   UNL     1      22.325  28.060  28.236  1.00  0.00     0.357 C 
ATOM      6  O   UNL     1      23.571  28.711  28.038  1.00  0.00    -0.329 OA
ENDROOT
BRANCH   1   7
ATOM      7  C   UNL     1      25.676  29.432  28.967  1.00  0.00     0.269 C 
BRANCH   7   8
ATOM      8  O   UNL     1      25.977  30.518  29.843  1.00  0.00    -0.459 OA
BRANCH   8   9
ATOM      9  C   UNL     1      27.190  30.662  30.526  1.00  0.00     0.338 C 
ATOM     10  O   UNL     1      27.376  30.066  31.621  1.00  0.00    -0.246 OA
BRANCH   9  11
ATOM     11  C   UNL     1      28.265  31.491  29.939  1.00  0.00     0.067 A 
ATOM     12  C   UNL     1      29.588  31.029  29.933  1.00  0.00     0.066 A 
ATOM     13  C   UNL     1      30.615  31.808  29.397  1.00  0.00     0.162 A 
ATOM     14  C   UNL     1      27.980  32.749  29.387  1.00  0.00     0.066 A 
ATOM     15  C   UNL     1      30.331  33.074  28.854  1.00  0.00     0.200 A 
ATOM     16  C   UNL     1      28.994  33.544  28.843  1.00  0.00     0.162 A 
BRANCH  13  17
ATOM     17  O   UNL     1      31.921  31.314  29.428  1.00  0.00    -0.504 OA
ATOM     18  H   UNL     1      32.651  31.746  29.983  1.00  0.00     0.293 HD
ENDBRANCH  13  17
BRANCH  15  19
ATOM     19  O   UNL     1      31.391  33.832  28.346  1.00  0.00    -0.502 OA
ATOM     20  H   UNL     1      31.339  34.380  27.501  1.00  0.00     0.293 HD
ENDBRANCH  15  19
BRANCH  16  21
ATOM     21  O   UNL     1      28.631  34.779  28.299  1.00  0.00    -0.504 OA
ATOM     22  H   UNL     1      29.223  35.593  28.294  1.00  0.00     0.293 HD
ENDBRANCH  16  21
ENDBRANCH   9  11
ENDBRANCH   8   9
ENDBRANCH   7   8
ENDBRANCH   1   7
BRANCH   2  23
ATOM     23  O   UNL     1      23.358  31.090  29.618  1.00  0.00    -0.452 OA
BRANCH  23  24
ATOM     24  C   UNL     1      23.341  32.291  30.343  1.00  0.00     0.338 C 
ATOM     25  O   UNL     1      24.404  32.743  30.850  1.00  0.00    -0.246 OA
BRANCH  24  26
ATOM     26  C   UNL     1      22.070  33.025  30.506  1.00  0.00     0.067 A 
ATOM     27  C   UNL     1      21.159  33.127  29.440  1.00  0.00     0.066 A 
ATOM     28  C   UNL     1      21.755  33.623  31.735  1.00  0.00     0.066 A 
ATOM     29  C   UNL     1      19.952  33.814  29.598  1.00  0.00     0.162 A 
ATOM     30  C   UNL     1      20.554  34.318  31.900  1.00  0.00     0.162 A 
ATOM     31  C   UNL     1      19.647  34.418  30.830  1.00  0.00     0.200 A 
BRANCH  29  32
ATOM     32  O   UNL     1      19.059  33.870  28.527  1.00  0.00    -0.504 OA
ATOM     33  H   UNL     1      18.090  33.591  28.624  1.00  0.00     0.293 HD
ENDBRANCH  29  32
BRANCH  30  34
ATOM     34  O   UNL     1      20.257  34.919  33.125  1.00  0.00    -0.504 OA
ATOM     35  H   UNL     1      19.364  35.375  33.284  1.00  0.00     0.293 HD
ENDBRANCH  30  34
BRANCH  31  36
ATOM     36  O   UNL     1      18.441  35.104  30.981  1.00  0.00    -0.502 OA
ATOM     37  H   UNL     1      17.542  34.631  30.951  1.00  0.00     0.293 HD
ENDBRANCH  31  36
ENDBRANCH  24  26
ENDBRANCH  23  24
ENDBRANCH   2  23
BRANCH   3  38
ATOM     38  O   UNL     1      21.287  30.102  31.228  1.00  0.00    -0.450 OA
BRANCH  38  39
ATOM     39  C   UNL     1      20.216  29.718  32.042  1.00  0.00     0.338 C 
ATOM     40  O   UNL     1      20.430  29.081  33.110  1.00  0.00    -0.246 OA
BRANCH  39  41
ATOM     41  C   UNL     1      18.832  30.057  31.637  1.00  0.00     0.067 A 
ATOM     42  C   UNL     1      18.578  30.869  30.519  1.00  0.00     0.066 A 
ATOM     43  C   UNL     1      17.747  29.569  32.382  1.00  0.00     0.066 A 
ATOM     44  C   UNL     1      17.266  31.217  30.169  1.00  0.00     0.162 A 
ATOM     45  C   UNL     1      16.435  29.911  32.043  1.00  0.00     0.162 A 
ATOM     46  C   UNL     1      16.189  30.742  30.938  1.00  0.00     0.200 A 
BRANCH  44  47
ATOM     47  O   UNL     1      17.025  32.035  29.061  1.00  0.00    -0.504 OA
ATOM     48  H   UNL     1      17.782  32.450  28.528  1.00  0.00     0.293 HD
ENDBRANCH  44  47
BRANCH  45  49
ATOM     49  O   UNL     1      15.384  29.413  32.813  1.00  0.00    -0.504 OA
ATOM     50  H   UNL     1      14.434  29.741  32.699  1.00  0.00     0.293 HD
ENDBRANCH  45  49
BRANCH  46  51
ATOM     51  O   UNL     1      14.876  31.082  30.613  1.00  0.00    -0.502 OA
ATOM     52  H   UNL     1      14.392  30.687  29.815  1.00  0.00     0.293 HD
ENDBRANCH  46  51
ENDBRANCH  39  41
ENDBRANCH  38  39
ENDBRANCH   3  38
BRANCH   5  53
ATOM     53  O   UNL     1      22.521  26.748  28.768  1.00  0.00    -0.428 OA
BRANCH  53  54
ATOM     54  C   UNL     1      21.556  25.735  28.698  1.00  0.00     0.340 C 
ATOM     55  O   UNL     1      20.920  25.393  29.732  1.00  0.00    -0.246 OA
BRANCH  54  56
ATOM     56  C   UNL     1      21.312  25.050  27.409  1.00  0.00     0.067 A 
ATOM     57  C   UNL     1      20.359  24.022  27.327  1.00  0.00     0.066 A 
ATOM     58  C   UNL     1      22.018  25.427  26.255  1.00  0.00     0.066 A 
ATOM     59  C   UNL     1      20.119  23.370  26.109  1.00  0.00     0.162 A 
ATOM     60  C   UNL     1      21.778  24.785  25.033  1.00  0.00     0.162 A 
ATOM     61  C   UNL     1      20.833  23.749  24.958  1.00  0.00     0.200 A 
BRANCH  59  62
ATOM     62  O   UNL     1      19.176  22.348  26.035  1.00  0.00    -0.504 OA
ATOM     63  H   UNL     1      19.128  21.617  26.735  1.00  0.00     0.293 HD
ENDBRANCH  59  62
BRANCH  60  64
ATOM     64  O   UNL     1      22.494  25.174  23.901  1.00  0.00    -0.504 OA
ATOM     65  H   UNL     1      22.117  25.068  22.966  1.00  0.00     0.293 HD
ENDBRANCH  60  64
BRANCH  61  66
ATOM     66  O   UNL     1      20.612  23.109  23.736  1.00  0.00    -0.502 OA
ATOM     67  H   UNL     1      21.113  22.261  23.475  1.00  0.00     0.293 HD
ENDBRANCH  61  66
ENDBRANCH  54  56
ENDBRANCH  53  54
ENDBRANCH   5  53
BRANCH   4  68
ATOM     68  O   UNL     1      20.188  28.156  29.375  1.00  0.00    -0.448 OA
BRANCH  68  69
ATOM     69  C   UNL     1      19.100  28.156  28.490  1.00  0.00     0.339 C 
ATOM     70  O   UNL     1      19.062  28.978  27.535  1.00  0.00    -0.246 OA
BRANCH  69  71
ATOM     71  C   UNL     1      18.014  27.165  28.650  1.00  0.00     0.067 A 
ATOM     72  C   UNL     1      17.786  26.188  27.665  1.00  0.00     0.066 A 
ATOM     73  C   UNL     1      17.199  27.185  29.793  1.00  0.00     0.066 A 
ATOM     74  C   UNL     1      16.781  25.225  27.836  1.00  0.00     0.162 A 
ATOM     75  C   UNL     1      16.180  26.240  29.969  1.00  0.00     0.162 A 
ATOM     76  C   UNL     1      15.982  25.236  28.988  1.00  0.00     0.200 A 
BRANCH  74  77
ATOM     77  O   UNL     1      16.576  24.241  26.869  1.00  0.00    -0.504 OA
ATOM     78  H   UNL     1      17.025  23.340  26.931  1.00  0.00     0.293 HD
ENDBRANCH  74  77
BRANCH  75  79
ATOM     79  O   UNL     1      15.392  26.344  31.119  1.00  0.00    -0.504 OA
ATOM     80  H   UNL     1      14.442  26.015  31.185  1.00  0.00     0.293 HD
ENDBRANCH  75  79
BRANCH  76  81
ATOM     81  O   UNL     1      15.017  24.236  29.129  1.00  0.00    -0.502 OA
ATOM     82  H   UNL     1      14.760  23.834  30.014  1.00  0.00     0.293 HD
ENDBRANCH  76  81
ENDBRANCH  69  71
ENDBRANCH  68  69
ENDBRANCH   4  68
TORSDOF 31
ENDMDL
MODEL 5
REMARK VINA RESULT:    -6.397      2.864      9.016
REMARK INTER + INTRA:         -19.530
REMARK INTER:                 -16.510
REMARK INTRA:                  -3.020
REMARK UNBOUND:                -4.345
REMARK SMILES O=C(OC[C@@H]1O[C@@H](OC(=O)c2cc(O)c(O)c(O)c2)[C@@H](OC(=O)c2cc(O)c(O)c(O)c2)[C@H](OC(=O)c2cc(O)c(O)c(O)c2)[C@@H]1OC(=O)c1cc(O)c(O)c(O)c1)c1cc(O)c(O)c(O)c1
REMARK SMILES IDX 5 1 46 2 33 3 20 4 7 5 6 6 4 7 3 8 2 9 1 10 59 11 60 12
REMARK SMILES IDX 61 13 67 14 63 15 65 16 62 17 64 19 66 21 47 23 48 24 49 25
REMARK SMILES IDX 50 26 58 27 51 28 56 29 52 30 54 31 57 32 53 34 55 36 34 38
REMARK SMILES IDX 35 39 36 40 37 41 45 42 38 43 43 44 39 45 41 46 44 47 40 49
REMARK SMILES IDX 42 51 8 53 9 54 10 55 11 56 19 57 12 58 17 59 13 60 15 61
REMARK SMILES IDX 18 62 14 64 16 66 21 68 22 69 23 70 24 71 32 72 25 73 30 74
REMARK SMILES IDX 26 75 28 76 31 77 27 79 29 81
REMARK H PARENT 62 18 64 20 66 22 57 33 53 35 55 37 44 48 40 50 42 52 18 63
REMARK H PARENT 14 65 16 67 31 78 27 80 29 82
REMARK Flexibility Score: inf
ROOT
ATOM      1  C   UNL     1      23.534  29.164  30.207  1.00  0.00     0.205 C 
ATOM      2  C   UNL     1      24.754  30.038  30.572  1.00  0.00     0.254 C 
ATOM      3  C   UNL     1      24.301  31.169  31.517  1.00  0.00     0.267 C 
ATOM      4  C   UNL     1      23.110  31.926  30.903  1.00  0.00     0.290 C 
ATOM      5  C   UNL     1      22.016  30.934  30.471  1.00  0.00     0.357 C 
ATOM      6  O   UNL     1      22.528  29.950  29.586  1.00  0.00    -0.329 OA
ENDROOT
BRANCH   1   7
ATOM      7  C   UNL     1      23.936  28.019  29.262  1.00  0.00     0.269 C 
BRANCH   7   8
ATOM      8  O   UNL     1      22.809  27.566  28.513  1.00  0.00    -0.459 OA
BRANCH   8   9
ATOM      9  C   UNL     1      21.732  26.862  29.064  1.00  0.00     0.338 C 
ATOM     10  O   UNL     1      21.392  27.058  30.262  1.00  0.00    -0.246 OA
BRANCH   9  11
ATOM     11  C   UNL     1      20.971  25.914  28.221  1.00  0.00     0.067 A 
ATOM     12  C   UNL     1      19.571  25.889  28.276  1.00  0.00     0.066 A 
ATOM     13  C   UNL     1      18.841  24.988  27.498  1.00  0.00     0.162 A 
ATOM     14  C   UNL     1      21.636  25.025  27.364  1.00  0.00     0.066 A 
ATOM     15  C   UNL     1      19.508  24.088  26.647  1.00  0.00     0.200 A 
ATOM     16  C   UNL     1      20.923  24.115  26.575  1.00  0.00     0.162 A 
BRANCH  13  17
ATOM     17  O   UNL     1      17.448  24.987  27.597  1.00  0.00    -0.504 OA
ATOM     18  H   UNL     1      16.861  24.433  26.984  1.00  0.00     0.293 HD
ENDBRANCH  13  17
BRANCH  15  19
ATOM     19  O   UNL     1      18.742  23.187  25.901  1.00  0.00    -0.502 OA
ATOM     20  H   UNL     1      18.955  22.206  25.808  1.00  0.00     0.293 HD
ENDBRANCH  15  19
BRANCH  16  21
ATOM     21  O   UNL     1      21.654  23.270  25.736  1.00  0.00    -0.504 OA
ATOM     22  H   UNL     1      21.279  22.818  24.919  1.00  0.00     0.293 HD
ENDBRANCH  16  21
ENDBRANCH   9  11
ENDBRANCH   8   9
ENDBRANCH   7   8
ENDBRANCH   1   7
BRANCH   2  23
ATOM     23  O   UNL     1      25.311  30.596  29.382  1.00  0.00    -0.452 OA
BRANCH  23  24
ATOM     24  C   UNL     1      26.330  29.988  28.634  1.00  0.00     0.338 C 
ATOM     25  O   UNL     1      26.045  29.163  27.722  1.00  0.00    -0.246 OA
BRANCH  24  26
ATOM     26  C   UNL     1      27.740  30.323  28.918  1.00  0.00     0.067 A 
ATOM     27  C   UNL     1      28.267  30.171  30.212  1.00  0.00     0.066 A 
ATOM     28  C   UNL     1      28.573  30.789  27.891  1.00  0.00     0.066 A 
ATOM     29  C   UNL     1      29.604  30.478  30.478  1.00  0.00     0.162 A 
ATOM     30  C   UNL     1      29.910  31.106  28.148  1.00  0.00     0.162 A 
ATOM     31  C   UNL     1      30.431  30.953  29.445  1.00  0.00     0.200 A 
BRANCH  29  32
ATOM     32  O   UNL     1      30.100  30.287  31.768  1.00  0.00    -0.504 OA
ATOM     33  H   UNL     1      29.907  29.445  32.296  1.00  0.00     0.293 HD
ENDBRANCH  29  32
BRANCH  30  34
ATOM     34  O   UNL     1      30.726  31.581  27.119  1.00  0.00    -0.504 OA
ATOM     35  H   UNL     1      31.681  31.252  27.012  1.00  0.00     0.293 HD
ENDBRANCH  30  34
BRANCH  31  36
ATOM     36  O   UNL     1      31.765  31.260  29.717  1.00  0.00    -0.502 OA
ATOM     37  H   UNL     1      32.396  30.593  30.152  1.00  0.00     0.293 HD
ENDBRANCH  31  36
ENDBRANCH  24  26
ENDBRANCH  23  24
ENDBRANCH   2  23
BRANCH   3  38
ATOM     38  O   UNL     1      25.366  32.090  31.752  1.00  0.00    -0.450 OA
BRANCH  38  39
ATOM     39  C   UNL     1      25.788  33.063  30.840  1.00  0.00     0.338 C 
ATOM     40  O   UNL     1      24.952  33.618  30.074  1.00  0.00    -0.246 OA
BRANCH  39  41
ATOM     41  C   UNL     1      27.222  33.429  30.773  1.00  0.00     0.067 A 
ATOM     42  C   UNL     1      27.819  33.816  29.560  1.00  0.00     0.066 A 
ATOM     43  C   UNL     1      28.010  33.385  31.933  1.00  0.00     0.066 A 
ATOM     44  C   UNL     1      29.186  34.121  29.500  1.00  0.00     0.162 A 
ATOM     45  C   UNL     1      29.374  33.685  31.884  1.00  0.00     0.162 A 
ATOM     46  C   UNL     1      29.969  34.049  30.665  1.00  0.00     0.200 A 
BRANCH  44  47
ATOM     47  O   UNL     1      29.772  34.494  28.287  1.00  0.00    -0.504 OA
ATOM     48  H   UNL     1      30.312  35.348  28.193  1.00  0.00     0.293 HD
ENDBRANCH  44  47
BRANCH  45  49
ATOM     49  O   UNL     1      30.125  33.622  33.058  1.00  0.00    -0.504 OA
ATOM     50  H   UNL     1      30.228  34.418  33.672  1.00  0.00     0.293 HD
ENDBRANCH  45  49
BRANCH  46  51
ATOM     51  O   UNL     1      31.333  34.339  30.627  1.00  0.00    -0.502 OA
ATOM     52  H   UNL     1      31.690  35.287  30.680  1.00  0.00     0.293 HD
ENDBRANCH  46  51
ENDBRANCH  39  41
ENDBRANCH  38  39
ENDBRANCH   3  38
BRANCH   5  53
ATOM     53  O   UNL     1      21.408  30.320  31.610  1.00  0.00    -0.428 OA
BRANCH  53  54
ATOM     54  C   UNL     1      20.040  30.409  31.896  1.00  0.00     0.340 C 
ATOM     55  O   UNL     1      19.643  31.066  32.897  1.00  0.00    -0.246 OA
BRANCH  54  56
ATOM     56  C   UNL     1      19.068  29.701  31.033  1.00  0.00     0.067 A 
ATOM     57  C   UNL     1      19.248  29.680  29.640  1.00  0.00     0.066 A 
ATOM     58  C   UNL     1      17.966  29.034  31.594  1.00  0.00     0.066 A 
ATOM     59  C   UNL     1      18.333  29.010  28.814  1.00  0.00     0.162 A 
ATOM     60  C   UNL     1      17.054  28.356  30.775  1.00  0.00     0.162 A 
ATOM     61  C   UNL     1      17.230  28.349  29.382  1.00  0.00     0.200 A 
BRANCH  59  62
ATOM     62  O   UNL     1      18.515  28.997  27.434  1.00  0.00    -0.504 OA
ATOM     63  H   UNL     1      19.362  28.634  27.012  1.00  0.00     0.293 HD
ENDBRANCH  59  62
BRANCH  60  64
ATOM     64  O   UNL     1      15.966  27.705  31.355  1.00  0.00    -0.504 OA
ATOM     65  H   UNL     1      15.950  27.460  32.338  1.00  0.00     0.293 HD
ENDBRANCH  60  64
BRANCH  61  66
ATOM     66  O   UNL     1      16.305  27.678  28.577  1.00  0.00    -0.502 OA
ATOM     67  H   UNL     1      16.552  26.832  28.065  1.00  0.00     0.293 HD
ENDBRANCH  61  66
ENDBRANCH  54  56
ENDBRANCH  53  54
ENDBRANCH   5  53
BRANCH   4  68
ATOM     68  O   UNL     1      22.566  32.849  31.852  1.00  0.00    -0.448 OA
BRANCH  68  69
ATOM     69  C   UNL     1      21.871  34.013  31.491  1.00  0.00     0.339 C 
ATOM     70  O   UNL     1      22.479  35.116  31.425  1.00  0.00    -0.246 OA
BRANCH  69  71
ATOM     71  C   UNL     1      20.435  33.943  31.149  1.00  0.00     0.067 A 
ATOM     72  C   UNL     1      20.026  33.663  29.833  1.00  0.00     0.066 A 
ATOM     73  C   UNL     1      19.459  34.151  32.137  1.00  0.00     0.066 A 
ATOM     74  C   UNL     1      18.664  33.559  29.517  1.00  0.00     0.162 A 
ATOM     75  C   UNL     1      18.094  34.066  31.832  1.00  0.00     0.162 A 
ATOM     76  C   UNL     1      17.692  33.748  30.511  1.00  0.00     0.200 A 
BRANCH  74  77
ATOM     77  O   UNL     1      18.264  33.255  28.216  1.00  0.00    -0.504 OA
ATOM     78  H   UNL     1      18.295  33.944  27.481  1.00  0.00     0.293 HD
ENDBRANCH  74  77
BRANCH  75  79
ATOM     79  O   UNL     1      17.184  34.316  32.864  1.00  0.00    -0.504 OA
ATOM     80  H   UNL     1      17.438  34.699  33.761  1.00  0.00     0.293 HD
ENDBRANCH  75  79
BRANCH  76  81
ATOM     81  O   UNL     1      16.350  33.600  30.156  1.00  0.00    -0.502 OA
ATOM     82  H   UNL     1      15.592  33.664  30.813  1.00  0.00     0.293 HD
ENDBRANCH  76  81
ENDBRANCH  69  71
ENDBRANCH  68  69
ENDBRANCH   4  68
TORSDOF 31
ENDMDL
MODEL 6
REMARK VINA RESULT:    -6.342      3.191      8.045
REMARK INTER + INTRA:         -19.401
REMARK INTER:                 -16.788
REMARK INTRA:                  -2.613
REMARK UNBOUND:                -4.345
REMARK SMILES O=C(OC[C@@H]1O[C@@H](OC(=O)c2cc(O)c(O)c(O)c2)[C@@H](OC(=O)c2cc(O)c(O)c(O)c2)[C@H](OC(=O)c2cc(O)c(O)c(O)c2)[C@@H]1OC(=O)c1cc(O)c(O)c(O)c1)c1cc(O)c(O)c(O)c1
REMARK SMILES IDX 5 1 46 2 33 3 20 4 7 5 6 6 4 7 3 8 2 9 1 10 59 11 60 12
REMARK SMILES IDX 61 13 67 14 63 15 65 16 62 17 64 19 66 21 47 23 48 24 49 25
REMARK SMILES IDX 50 26 58 27 51 28 56 29 52 30 54 31 57 32 53 34 55 36 34 38
REMARK SMILES IDX 35 39 36 40 37 41 45 42 38 43 43 44 39 45 41 46 44 47 40 49
REMARK SMILES IDX 42 51 8 53 9 54 10 55 11 56 19 57 12 58 17 59 13 60 15 61
REMARK SMILES IDX 18 62 14 64 16 66 21 68 22 69 23 70 24 71 32 72 25 73 30 74
REMARK SMILES IDX 26 75 28 76 31 77 27 79 29 81
REMARK H PARENT 62 18 64 20 66 22 57 33 53 35 55 37 44 48 40 50 42 52 18 63
REMARK H PARENT 14 65 16 67 31 78 27 80 29 82
REMARK Flexibility Score: inf
ROOT
ATOM      1  C   UNL     1      23.742  30.508  31.100  1.00  0.00     0.205 C 
ATOM      2  C   UNL     1      22.775  31.684  30.845  1.00  0.00     0.254 C 
ATOM      3  C   UNL     1      23.577  33.001  30.817  1.00  0.00     0.267 C 
ATOM      4  C   UNL     1      24.439  33.122  32.088  1.00  0.00     0.290 C 
ATOM      5  C   UNL     1      25.262  31.838  32.294  1.00  0.00     0.357 C 
ATOM      6  O   UNL     1      24.431  30.689  32.328  1.00  0.00    -0.329 OA
ENDROOT
BRANCH   1   7
ATOM      7  C   UNL     1      22.986  29.168  31.138  1.00  0.00     0.269 C 
BRANCH   7   8
ATOM      8  O   UNL     1      22.453  28.855  29.852  1.00  0.00    -0.459 OA
BRANCH   8   9
ATOM      9  C   UNL     1      22.763  27.693  29.135  1.00  0.00     0.338 C 
ATOM     10  O   UNL     1      23.965  27.348  28.975  1.00  0.00    -0.246 OA
BRANCH   9  11
ATOM     11  C   UNL     1      21.670  26.854  28.596  1.00  0.00     0.067 A 
ATOM     12  C   UNL     1      20.351  27.327  28.598  1.00  0.00     0.066 A 
ATOM     13  C   UNL     1      19.308  26.539  28.108  1.00  0.00     0.162 A 
ATOM     14  C   UNL     1      21.935  25.576  28.084  1.00  0.00     0.066 A 
ATOM     15  C   UNL     1      19.572  25.253  27.605  1.00  0.00     0.200 A 
ATOM     16  C   UNL     1      20.905  24.771  27.586  1.00  0.00     0.162 A 
BRANCH  13  17
ATOM     17  O   UNL     1      18.007  27.045  28.146  1.00  0.00    -0.504 OA
ATOM     18  H   UNL     1      17.554  27.312  29.012  1.00  0.00     0.293 HD
ENDBRANCH  13  17
BRANCH  15  19
ATOM     19  O   UNL     1      18.497  24.487  27.142  1.00  0.00    -0.502 OA
ATOM     20  H   UNL     1      18.287  24.339  26.168  1.00  0.00     0.293 HD
ENDBRANCH  15  19
BRANCH  16  21
ATOM     21  O   UNL     1      21.248  23.514  27.079  1.00  0.00    -0.504 OA
ATOM     22  H   UNL     1      20.855  23.112  26.244  1.00  0.00     0.293 HD
ENDBRANCH  16  21
ENDBRANCH   9  11
ENDBRANCH   8   9
ENDBRANCH   7   8
ENDBRANCH   1   7
BRANCH   2  23
ATOM     23  O   UNL     1      21.800  31.733  31.887  1.00  0.00    -0.452 OA
BRANCH  23  24
ATOM     24  C   UNL     1      20.942  30.672  32.207  1.00  0.00     0.338 C 
ATOM     25  O   UNL     1      21.245  29.862  33.125  1.00  0.00    -0.246 OA
BRANCH  24  26
ATOM     26  C   UNL     1      19.676  30.510  31.463  1.00  0.00     0.067 A 
ATOM     27  C   UNL     1      19.672  30.439  30.059  1.00  0.00     0.066 A 
ATOM     28  C   UNL     1      18.460  30.416  32.156  1.00  0.00     0.066 A 
ATOM     29  C   UNL     1      18.475  30.276  29.358  1.00  0.00     0.162 A 
ATOM     30  C   UNL     1      17.256  30.261  31.463  1.00  0.00     0.162 A 
ATOM     31  C   UNL     1      17.259  30.192  30.058  1.00  0.00     0.200 A 
BRANCH  29  32
ATOM     32  O   UNL     1      18.513  30.181  27.966  1.00  0.00    -0.504 OA
ATOM     33  H   UNL     1      17.715  30.425  27.391  1.00  0.00     0.293 HD
ENDBRANCH  29  32
BRANCH  30  34
ATOM     34  O   UNL     1      16.051  30.180  32.163  1.00  0.00    -0.504 OA
ATOM     35  H   UNL     1      15.620  31.006  32.565  1.00  0.00     0.293 HD
ENDBRANCH  30  34
BRANCH  31  36
ATOM     36  O   UNL     1      16.066  30.031  29.351  1.00  0.00    -0.502 OA
ATOM     37  H   UNL     1      15.783  30.671  28.615  1.00  0.00     0.293 HD
ENDBRANCH  31  36
ENDBRANCH  24  26
ENDBRANCH  23  24
ENDBRANCH   2  23
BRANCH   3  38
ATOM     38  O   UNL     1      22.702  34.126  30.741  1.00  0.00    -0.450 OA
BRANCH  38  39
ATOM     39  C   UNL     1      21.695  34.411  31.669  1.00  0.00     0.338 C 
ATOM     40  O   UNL     1      21.996  34.817  32.825  1.00  0.00    -0.246 OA
BRANCH  39  41
ATOM     41  C   UNL     1      20.275  34.225  31.287  1.00  0.00     0.067 A 
ATOM     42  C   UNL     1      19.254  34.234  32.252  1.00  0.00     0.066 A 
ATOM     43  C   UNL     1      19.934  34.028  29.940  1.00  0.00     0.066 A 
ATOM     44  C   UNL     1      17.918  34.016  31.885  1.00  0.00     0.162 A 
ATOM     45  C   UNL     1      18.606  33.808  29.563  1.00  0.00     0.162 A 
ATOM     46  C   UNL     1      17.593  33.795  30.536  1.00  0.00     0.200 A 
BRANCH  44  47
ATOM     47  O   UNL     1      16.912  34.015  32.855  1.00  0.00    -0.504 OA
ATOM     48  H   UNL     1      16.721  33.200  33.429  1.00  0.00     0.293 HD
ENDBRANCH  44  47
BRANCH  45  49
ATOM     49  O   UNL     1      18.308  33.607  28.215  1.00  0.00    -0.504 OA
ATOM     50  H   UNL     1      17.852  34.316  27.656  1.00  0.00     0.293 HD
ENDBRANCH  45  49
BRANCH  46  51
ATOM     51  O   UNL     1      16.273  33.568  30.149  1.00  0.00    -0.502 OA
ATOM     52  H   UNL     1      15.658  34.313  29.841  1.00  0.00     0.293 HD
ENDBRANCH  46  51
ENDBRANCH  39  41
ENDBRANCH  38  39
ENDBRANCH   3  38
BRANCH   5  53
ATOM     53  O   UNL     1      26.262  31.707  31.281  1.00  0.00    -0.428 OA
BRANCH  53  54
ATOM     54  C   UNL     1      27.424  30.940  31.439  1.00  0.00     0.340 C 
ATOM     55  O   UNL     1      27.658  30.363  32.536  1.00  0.00    -0.246 OA
BRANCH  54  56
ATOM     56  C   UNL     1      28.386  30.837  30.319  1.00  0.00     0.067 A 
ATOM     57  C   UNL     1      27.937  30.944  28.992  1.00  0.00     0.066 A 
ATOM     58  C   UNL     1      29.754  30.644  30.568  1.00  0.00     0.066 A 
ATOM     59  C   UNL     1      28.842  30.850  27.925  1.00  0.00     0.162 A 
ATOM     60  C   UNL     1      30.665  30.557  29.506  1.00  0.00     0.162 A 
ATOM     61  C   UNL     1      30.210  30.652  28.182  1.00  0.00     0.200 A 
BRANCH  59  62
ATOM     62  O   UNL     1      28.390  30.952  26.612  1.00  0.00    -0.504 OA
ATOM     63  H   UNL     1      28.451  31.821  26.094  1.00  0.00     0.293 HD
ENDBRANCH  59  62
BRANCH  60  64
ATOM     64  O   UNL     1      32.019  30.362  29.779  1.00  0.00    -0.504 OA
ATOM     65  H   UNL     1      32.575  29.685  29.269  1.00  0.00     0.293 HD
ENDBRANCH  60  64
BRANCH  61  66
ATOM     66  O   UNL     1      31.128  30.552  27.133  1.00  0.00    -0.502 OA
ATOM     67  H   UNL     1      31.290  31.321  26.484  1.00  0.00     0.293 HD
ENDBRANCH  61  66
ENDBRANCH  54  56
ENDBRANCH  53  54
ENDBRANCH   5  53
BRANCH   4  68
ATOM     68  O   UNL     1      25.324  34.242  31.982  1.00  0.00    -0.448 OA
BRANCH  68  69
ATOM     69  C   UNL     1      25.973  34.606  30.793  1.00  0.00     0.339 C 
ATOM     70  O   UNL     1      25.315  35.111  29.843  1.00  0.00    -0.246 OA
BRANCH  69  71
ATOM     71  C   UNL     1      27.436  34.437  30.666  1.00  0.00     0.067 A 
ATOM     72  C   UNL     1      28.239  34.274  31.809  1.00  0.00     0.066 A 
ATOM     73  C   UNL     1      28.043  34.433  29.400  1.00  0.00     0.066 A 
ATOM     74  C   UNL     1      29.621  34.076  31.686  1.00  0.00     0.162 A 
ATOM     75  C   UNL     1      29.426  34.252  29.263  1.00  0.00     0.162 A 
ATOM     76  C   UNL     1      30.222  34.052  30.419  1.00  0.00     0.200 A 
BRANCH  74  77
ATOM     77  O   UNL     1      30.410  33.888  32.822  1.00  0.00    -0.504 OA
ATOM     78  H   UNL     1      30.002  33.649  33.713  1.00  0.00     0.293 HD
ENDBRANCH  74  77
BRANCH  75  79
ATOM     79  O   UNL     1      29.959  34.291  27.971  1.00  0.00    -0.504 OA
ATOM     80  H   UNL     1      30.763  34.836  27.708  1.00  0.00     0.293 HD
ENDBRANCH  75  79
BRANCH  76  81
ATOM     81  O   UNL     1      31.596  33.817  30.345  1.00  0.00    -0.502 OA
ATOM     82  H   UNL     1      32.270  34.531  30.131  1.00  0.00     0.293 HD
ENDBRANCH  76  81
ENDBRANCH  69  71
ENDBRANCH  68  69
ENDBRANCH   4  68
TORSDOF 31
ENDMDL
MODEL 7
REMARK VINA RESULT:    -5.926      3.104     10.164
REMARK INTER + INTRA:         -18.412
REMARK INTER:                 -15.314
REMARK INTRA:                  -3.098
REMARK UNBOUND:                -4.345
REMARK SMILES O=C(OC[C@@H]1O[C@@H](OC(=O)c2cc(O)c(O)c(O)c2)[C@@H](OC(=O)c2cc(O)c(O)c(O)c2)[C@H](OC(=O)c2cc(O)c(O)c(O)c2)[C@@H]1OC(=O)c1cc(O)c(O)c(O)c1)c1cc(O)c(O)c(O)c1
REMARK SMILES IDX 5 1 46 2 33 3 20 4 7 5 6 6 4 7 3 8 2 9 1 10 59 11 60 12
REMARK SMILES IDX 61 13 67 14 63 15 65 16 62 17 64 19 66 21 47 23 48 24 49 25
REMARK SMILES IDX 50 26 58 27 51 28 56 29 52 30 54 31 57 32 53 34 55 36 34 38
REMARK SMILES IDX 35 39 36 40 37 41 45 42 38 43 43 44 39 45 41 46 44 47 40 49
REMARK SMILES IDX 42 51 8 53 9 54 10 55 11 56 19 57 12 58 17 59 13 60 15 61
REMARK SMILES IDX 18 62 14 64 16 66 21 68 22 69 23 70 24 71 32 72 25 73 30 74
REMARK SMILES IDX 26 75 28 76 31 77 27 79 29 81
REMARK H PARENT 62 18 64 20 66 22 57 33 53 35 55 37 44 48 40 50 42 52 18 63
REMARK H PARENT 14 65 16 67 31 78 27 80 29 82
REMARK Flexibility Score: inf
ROOT
ATOM      1  C   UNL     1      24.876  29.691  30.147  1.00  0.00     0.205 C 
ATOM      2  C   UNL     1      24.133  30.890  30.776  1.00  0.00     0.254 C 
ATOM      3  C   UNL     1      22.612  30.666  30.650  1.00  0.00     0.267 C 
ATOM      4  C   UNL     1      22.243  30.358  29.188  1.00  0.00     0.290 C 
ATOM      5  C   UNL     1      23.136  29.230  28.642  1.00  0.00     0.357 C 
ATOM      6  O   UNL     1      24.513  29.544  28.783  1.00  0.00    -0.329 OA
ENDROOT
BRANCH   1   7
ATOM      7  C   UNL     1      26.400  29.870  30.248  1.00  0.00     0.269 C 
BRANCH   7   8
ATOM      8  O   UNL     1      26.893  30.622  29.140  1.00  0.00    -0.459 OA
BRANCH   8   9
ATOM      9  C   UNL     1      27.942  30.205  28.313  1.00  0.00     0.338 C 
ATOM     10  O   UNL     1      27.711  29.464  27.319  1.00  0.00    -0.246 OA
BRANCH   9  11
ATOM     11  C   UNL     1      29.320  30.666  28.591  1.00  0.00     0.067 A 
ATOM     12  C   UNL     1      29.761  30.813  29.913  1.00  0.00     0.066 A 
ATOM     13  C   UNL     1      31.053  31.264  30.190  1.00  0.00     0.162 A 
ATOM     14  C   UNL     1      30.200  30.969  27.542  1.00  0.00     0.066 A 
ATOM     15  C   UNL     1      31.932  31.578  29.138  1.00  0.00     0.200 A 
ATOM     16  C   UNL     1      31.499  31.420  27.798  1.00  0.00     0.162 A 
BRANCH  13  17
ATOM     17  O   UNL     1      31.443  31.411  31.523  1.00  0.00    -0.504 OA
ATOM     18  H   UNL     1      32.114  30.792  31.964  1.00  0.00     0.293 HD
ENDBRANCH  13  17
BRANCH  15  19
ATOM     19  O   UNL     1      33.210  32.047  29.457  1.00  0.00    -0.502 OA
ATOM     20  H   UNL     1      33.478  32.381  30.370  1.00  0.00     0.293 HD
ENDBRANCH  15  19
BRANCH  16  21
ATOM     21  O   UNL     1      32.323  31.689  26.701  1.00  0.00    -0.504 OA
ATOM     22  H   UNL     1      33.324  31.783  26.751  1.00  0.00     0.293 HD
ENDBRANCH  16  21
ENDBRANCH   9  11
ENDBRANCH   8   9
ENDBRANCH   7   8
ENDBRANCH   1   7
BRANCH   2  23
ATOM     23  O   UNL     1      24.503  32.090  30.096  1.00  0.00    -0.452 OA
BRANCH  23  24
ATOM     24  C   UNL     1      24.992  33.236  30.738  1.00  0.00     0.338 C 
ATOM     25  O   UNL     1      24.201  34.020  31.330  1.00  0.00    -0.246 OA
BRANCH  24  26
ATOM     26  C   UNL     1      26.442  33.518  30.719  1.00  0.00     0.067 A 
ATOM     27  C   UNL     1      27.225  33.322  31.870  1.00  0.00     0.066 A 
ATOM     28  C   UNL     1      27.054  33.978  29.545  1.00  0.00     0.066 A 
ATOM     29  C   UNL     1      28.599  33.580  31.849  1.00  0.00     0.162 A 
ATOM     30  C   UNL     1      28.426  34.246  29.516  1.00  0.00     0.162 A 
ATOM     31  C   UNL     1      29.204  34.049  30.670  1.00  0.00     0.200 A 
BRANCH  29  32
ATOM     32  O   UNL     1      29.350  33.346  33.001  1.00  0.00    -0.504 OA
ATOM     33  H   UNL     1      30.258  32.898  32.966  1.00  0.00     0.293 HD
ENDBRANCH  29  32
BRANCH  30  34
ATOM     34  O   UNL     1      29.022  34.715  28.344  1.00  0.00    -0.504 OA
ATOM     35  H   UNL     1      29.555  34.095  27.741  1.00  0.00     0.293 HD
ENDBRANCH  30  34
BRANCH  31  36
ATOM     36  O   UNL     1      30.576  34.306  30.656  1.00  0.00    -0.502 OA
ATOM     37  H   UNL     1      30.963  35.197  30.955  1.00  0.00     0.293 HD
ENDBRANCH  31  36
ENDBRANCH  24  26
ENDBRANCH  23  24
ENDBRANCH   2  23
BRANCH   3  38
ATOM     38  O   UNL     1      21.892  31.822  31.078  1.00  0.00    -0.450 OA
BRANCH  38  39
ATOM     39  C   UNL     1      20.791  31.795  31.940  1.00  0.00     0.338 C 
ATOM     40  O   UNL     1      20.925  31.383  33.125  1.00  0.00    -0.246 OA
BRANCH  39  41
ATOM     41  C   UNL     1      19.467  32.245  31.450  1.00  0.00     0.067 A 
ATOM     42  C   UNL     1      18.348  32.277  32.299  1.00  0.00     0.066 A 
ATOM     43  C   UNL     1      19.315  32.642  30.112  1.00  0.00     0.066 A 
ATOM     44  C   UNL     1      17.091  32.666  31.814  1.00  0.00     0.162 A 
ATOM     45  C   UNL     1      18.067  33.028  29.618  1.00  0.00     0.162 A 
ATOM     46  C   UNL     1      16.947  33.037  30.466  1.00  0.00     0.200 A 
BRANCH  44  47
ATOM     47  O   UNL     1      15.982  32.683  32.666  1.00  0.00    -0.504 OA
ATOM     48  H   UNL     1      15.053  32.916  32.330  1.00  0.00     0.293 HD
ENDBRANCH  44  47
BRANCH  45  49
ATOM     49  O   UNL     1      17.954  33.408  28.280  1.00  0.00    -0.504 OA
ATOM     50  H   UNL     1      17.609  32.775  27.571  1.00  0.00     0.293 HD
ENDBRANCH  45  49
BRANCH  46  51
ATOM     51  O   UNL     1      15.705  33.418  29.960  1.00  0.00    -0.502 OA
ATOM     52  H   UNL     1      15.586  34.228  29.361  1.00  0.00     0.293 HD
ENDBRANCH  46  51
ENDBRANCH  39  41
ENDBRANCH  38  39
ENDBRANCH   3  38
BRANCH   5  53
ATOM     53  O   UNL     1      22.834  27.987  29.281  1.00  0.00    -0.428 OA
BRANCH  53  54
ATOM     54  C   UNL     1      23.111  26.739  28.709  1.00  0.00     0.340 C 
ATOM     55  O   UNL     1      24.298  26.318  28.650  1.00  0.00    -0.246 OA
BRANCH  54  56
ATOM     56  C   UNL     1      22.003  25.933  28.150  1.00  0.00     0.067 A 
ATOM     57  C   UNL     1      22.149  25.304  26.902  1.00  0.00     0.066 A 
ATOM     58  C   UNL     1      20.802  25.777  28.861  1.00  0.00     0.066 A 
ATOM     59  C   UNL     1      21.105  24.536  26.366  1.00  0.00     0.162 A 
ATOM     60  C   UNL     1      19.758  25.005  28.334  1.00  0.00     0.162 A 
ATOM     61  C   UNL     1      19.904  24.389  27.081  1.00  0.00     0.200 A 
BRANCH  59  62
ATOM     62  O   UNL     1      21.255  23.919  25.126  1.00  0.00    -0.504 OA
ATOM     63  H   UNL     1      20.487  23.854  24.468  1.00  0.00     0.293 HD
ENDBRANCH  59  62
BRANCH  60  64
ATOM     64  O   UNL     1      18.574  24.868  29.058  1.00  0.00    -0.504 OA
ATOM     65  H   UNL     1      17.669  24.826  28.602  1.00  0.00     0.293 HD
ENDBRANCH  60  64
BRANCH  61  66
ATOM     66  O   UNL     1      18.850  23.632  26.563  1.00  0.00    -0.502 OA
ATOM     67  H   UNL     1      18.342  23.919  25.727  1.00  0.00     0.293 HD
ENDBRANCH  61  66
ENDBRANCH  54  56
ENDBRANCH  53  54
ENDBRANCH   5  53
BRANCH   4  68
ATOM     68  O   UNL     1      20.871  29.963  29.095  1.00  0.00    -0.448 OA
BRANCH  68  69
ATOM     69  C   UNL     1      20.247  29.108  30.016  1.00  0.00     0.339 C 
ATOM     70  O   UNL     1      20.871  28.718  31.039  1.00  0.00    -0.246 OA
BRANCH  69  71
ATOM     71  C   UNL     1      18.842  28.696  29.809  1.00  0.00     0.067 A 
ATOM     72  C   UNL     1      18.455  28.044  28.625  1.00  0.00     0.066 A 
ATOM     73  C   UNL     1      17.876  28.946  30.797  1.00  0.00     0.066 A 
ATOM     74  C   UNL     1      17.131  27.619  28.445  1.00  0.00     0.162 A 
ATOM     75  C   UNL     1      16.546  28.542  30.624  1.00  0.00     0.162 A 
ATOM     76  C   UNL     1      16.173  27.853  29.442  1.00  0.00     0.200 A 
BRANCH  74  77
ATOM     77  O   UNL     1      16.758  26.949  27.280  1.00  0.00    -0.504 OA
ATOM     78  H   UNL     1      15.822  26.595  27.153  1.00  0.00     0.293 HD
ENDBRANCH  74  77
BRANCH  75  79
ATOM     79  O   UNL     1      15.637  28.855  31.639  1.00  0.00    -0.504 OA
ATOM     80  H   UNL     1      14.677  29.114  31.478  1.00  0.00     0.293 HD
ENDBRANCH  75  79
BRANCH  76  81
ATOM     81  O   UNL     1      14.875  27.381  29.233  1.00  0.00    -0.502 OA
ATOM     82  H   UNL     1      14.366  27.520  28.377  1.00  0.00     0.293 HD
ENDBRANCH  76  81
ENDBRANCH  69  71
ENDBRANCH  68  69
ENDBRANCH   4  68
TORSDOF 31
ENDMDL
MODEL 8
REMARK VINA RESULT:    -5.679      3.780     11.132
REMARK INTER + INTRA:         -17.825
REMARK INTER:                 -15.379
REMARK INTRA:                  -2.446
REMARK UNBOUND:                -4.345
REMARK SMILES O=C(OC[C@@H]1O[C@@H](OC(=O)c2cc(O)c(O)c(O)c2)[C@@H](OC(=O)c2cc(O)c(O)c(O)c2)[C@H](OC(=O)c2cc(O)c(O)c(O)c2)[C@@H]1OC(=O)c1cc(O)c(O)c(O)c1)c1cc(O)c(O)c(O)c1
REMARK SMILES IDX 5 1 46 2 33 3 20 4 7 5 6 6 4 7 3 8 2 9 1 10 59 11 60 12
REMARK SMILES IDX 61 13 67 14 63 15 65 16 62 17 64 19 66 21 47 23 48 24 49 25
REMARK SMILES IDX 50 26 58 27 51 28 56 29 52 30 54 31 57 32 53 34 55 36 34 38
REMARK SMILES IDX 35 39 36 40 37 41 45 42 38 43 43 44 39 45 41 46 44 47 40 49
REMARK SMILES IDX 42 51 8 53 9 54 10 55 11 56 19 57 12 58 17 59 13 60 15 61
REMARK SMILES IDX 18 62 14 64 16 66 21 68 22 69 23 70 24 71 32 72 25 73 30 74
REMARK SMILES IDX 26 75 28 76 31 77 27 79 29 81
REMARK H PARENT 62 18 64 20 66 22 57 33 53 35 55 37 44 48 40 50 42 52 18 63
REMARK H PARENT 14 65 16 67 31 78 27 80 29 82
REMARK Flexibility Score: inf
ROOT
ATOM      1  C   UNL     1      25.399  33.043  32.023  1.00  0.00     0.205 C 
ATOM      2  C   UNL     1      23.897  32.977  32.377  1.00  0.00     0.254 C 
ATOM      3  C   UNL     1      23.385  31.541  32.146  1.00  0.00     0.267 C 
ATOM      4  C   UNL     1      23.746  31.074  30.724  1.00  0.00     0.290 C 
ATOM      5  C   UNL     1      25.243  31.305  30.454  1.00  0.00     0.357 C 
ATOM      6  O   UNL     1      25.607  32.659  30.672  1.00  0.00    -0.329 OA
ENDROOT
BRANCH   1   7
ATOM      7  C   UNL     1      25.956  34.460  32.237  1.00  0.00     0.269 C 
BRANCH   7   8
ATOM      8  O   UNL     1      27.351  34.502  31.942  1.00  0.00    -0.459 OA
BRANCH   8   9
ATOM      9  C   UNL     1      27.877  34.630  30.651  1.00  0.00     0.338 C 
ATOM     10  O   UNL     1      27.178  35.125  29.726  1.00  0.00    -0.246 OA
BRANCH   9  11
ATOM     11  C   UNL     1      29.271  34.211  30.385  1.00  0.00     0.067 A 
ATOM     12  C   UNL     1      29.762  34.186  29.073  1.00  0.00     0.066 A 
ATOM     13  C   UNL     1      31.070  33.777  28.806  1.00  0.00     0.162 A 
ATOM     14  C   UNL     1      30.117  33.829  31.436  1.00  0.00     0.066 A 
ATOM     15  C   UNL     1      31.915  33.384  29.859  1.00  0.00     0.200 A 
ATOM     16  C   UNL     1      31.432  33.419  31.191  1.00  0.00     0.162 A 
BRANCH  13  17
ATOM     17  O   UNL     1      31.511  33.751  27.481  1.00  0.00    -0.504 OA
ATOM     18  H   UNL     1      31.959  34.547  27.043  1.00  0.00     0.293 HD
ENDBRANCH  13  17
BRANCH  15  19
ATOM     19  O   UNL     1      33.211  32.961  29.549  1.00  0.00    -0.502 OA
ATOM     20  H   UNL     1      33.564  32.035  29.736  1.00  0.00     0.293 HD
ENDBRANCH  15  19
BRANCH  16  21
ATOM     21  O   UNL     1      32.219  33.066  32.291  1.00  0.00    -0.504 OA
ATOM     22  H   UNL     1      32.207  33.546  33.176  1.00  0.00     0.293 HD
ENDBRANCH  16  21
ENDBRANCH   9  11
ENDBRANCH   8   9
ENDBRANCH   7   8
ENDBRANCH   1   7
BRANCH   2  23
ATOM     23  O   UNL     1      23.173  33.888  31.550  1.00  0.00    -0.452 OA
BRANCH  23  24
ATOM     24  C   UNL     1      22.521  33.521  30.365  1.00  0.00     0.338 C 
ATOM     25  O   UNL     1      23.189  33.212  29.340  1.00  0.00    -0.246 OA
BRANCH  24  26
ATOM     26  C   UNL     1      21.045  33.495  30.323  1.00  0.00     0.067 A 
ATOM     27  C   UNL     1      20.367  32.647  29.430  1.00  0.00     0.066 A 
ATOM     28  C   UNL     1      20.302  34.314  31.186  1.00  0.00     0.066 A 
ATOM     29  C   UNL     1      18.970  32.616  29.399  1.00  0.00     0.162 A 
ATOM     30  C   UNL     1      18.905  34.296  31.157  1.00  0.00     0.162 A 
ATOM     31  C   UNL     1      18.232  33.446  30.261  1.00  0.00     0.200 A 
BRANCH  29  32
ATOM     32  O   UNL     1      18.331  31.741  28.519  1.00  0.00    -0.504 OA
ATOM     33  H   UNL     1      18.851  31.112  27.919  1.00  0.00     0.293 HD
ENDBRANCH  29  32
BRANCH  30  34
ATOM     34  O   UNL     1      18.176  35.124  32.013  1.00  0.00    -0.504 OA
ATOM     35  H   UNL     1      17.342  35.607  31.693  1.00  0.00     0.293 HD
ENDBRANCH  30  34
BRANCH  31  36
ATOM     36  O   UNL     1      16.838  33.412  30.223  1.00  0.00    -0.502 OA
ATOM     37  H   UNL     1      16.312  33.657  29.389  1.00  0.00     0.293 HD
ENDBRANCH  31  36
ENDBRANCH  24  26
ENDBRANCH  23  24
ENDBRANCH   2  23
BRANCH   3  38
ATOM     38  O   UNL     1      21.969  31.474  32.312  1.00  0.00    -0.450 OA
BRANCH  38  39
ATOM     39  C   UNL     1      21.262  30.311  32.632  1.00  0.00     0.338 C 
ATOM     40  O   UNL     1      21.866  29.319  33.125  1.00  0.00    -0.246 OA
BRANCH  39  41
ATOM     41  C   UNL     1      19.803  30.249  32.380  1.00  0.00     0.067 A 
ATOM     42  C   UNL     1      19.236  29.198  31.639  1.00  0.00     0.066 A 
ATOM     43  C   UNL     1      18.964  31.257  32.880  1.00  0.00     0.066 A 
ATOM     44  C   UNL     1      17.860  29.170  31.371  1.00  0.00     0.162 A 
ATOM     45  C   UNL     1      17.592  31.240  32.617  1.00  0.00     0.162 A 
ATOM     46  C   UNL     1      17.034  30.199  31.856  1.00  0.00     0.200 A 
BRANCH  44  47
ATOM     47  O   UNL     1      17.308  28.126  30.623  1.00  0.00    -0.504 OA
ATOM     48  H   UNL     1      16.336  28.131  30.334  1.00  0.00     0.293 HD
ENDBRANCH  44  47
BRANCH  45  49
ATOM     49  O   UNL     1      16.792  32.264  33.124  1.00  0.00    -0.504 OA
ATOM     50  H   UNL     1      16.310  32.917  32.520  1.00  0.00     0.293 HD
ENDBRANCH  45  49
BRANCH  46  51
ATOM     51  O   UNL     1      15.665  30.197  31.595  1.00  0.00    -0.502 OA
ATOM     52  H   UNL     1      15.207  29.449  31.086  1.00  0.00     0.293 HD
ENDBRANCH  46  51
ENDBRANCH  39  41
ENDBRANCH  38  39
ENDBRANCH   3  38
BRANCH   5  53
ATOM     53  O   UNL     1      26.045  30.432  31.253  1.00  0.00    -0.428 OA
BRANCH  53  54
ATOM     54  C   UNL     1      27.410  30.641  31.491  1.00  0.00     0.340 C 
ATOM     55  O   UNL     1      27.824  30.851  32.664  1.00  0.00    -0.246 OA
BRANCH  54  56
ATOM     56  C   UNL     1      28.355  30.641  30.353  1.00  0.00     0.067 A 
ATOM     57  C   UNL     1      29.697  30.276  30.551  1.00  0.00     0.066 A 
ATOM     58  C   UNL     1      27.922  30.992  29.064  1.00  0.00     0.066 A 
ATOM     59  C   UNL     1      30.599  30.270  29.478  1.00  0.00     0.162 A 
ATOM     60  C   UNL     1      28.817  30.981  27.986  1.00  0.00     0.162 A 
ATOM     61  C   UNL     1      30.160  30.627  28.191  1.00  0.00     0.200 A 
BRANCH  59  62
ATOM     62  O   UNL     1      31.929  29.912  29.682  1.00  0.00    -0.504 OA
ATOM     63  H   UNL     1      32.253  28.962  29.539  1.00  0.00     0.293 HD
ENDBRANCH  59  62
BRANCH  60  64
ATOM     64  O   UNL     1      28.364  31.337  26.715  1.00  0.00    -0.504 OA
ATOM     65  H   UNL     1      28.889  31.963  26.116  1.00  0.00     0.293 HD
ENDBRANCH  60  64
BRANCH  61  66
ATOM     66  O   UNL     1      31.043  30.633  27.108  1.00  0.00    -0.502 OA
ATOM     67  H   UNL     1      30.893  30.045  26.289  1.00  0.00     0.293 HD
ENDBRANCH  61  66
ENDBRANCH  54  56
ENDBRANCH  53  54
ENDBRANCH   5  53
BRANCH   4  68
ATOM     68  O   UNL     1      23.444  29.684  30.567  1.00  0.00    -0.448 OA
BRANCH  68  69
ATOM     69  C   UNL     1      23.382  29.040  29.322  1.00  0.00     0.339 C 
ATOM     70  O   UNL     1      24.349  29.124  28.519  1.00  0.00    -0.246 OA
BRANCH  69  71
ATOM     71  C   UNL     1      22.198  28.229  28.967  1.00  0.00     0.067 A 
ATOM     72  C   UNL     1      22.274  26.825  28.940  1.00  0.00     0.066 A 
ATOM     73  C   UNL     1      20.979  28.852  28.655  1.00  0.00     0.066 A 
ATOM     74  C   UNL     1      21.142  26.055  28.640  1.00  0.00     0.162 A 
ATOM     75  C   UNL     1      19.843  28.095  28.337  1.00  0.00     0.162 A 
ATOM     76  C   UNL     1      19.920  26.680  28.348  1.00  0.00     0.200 A 
BRANCH  74  77
ATOM     77  O   UNL     1      21.216  24.662  28.641  1.00  0.00    -0.504 OA
ATOM     78  H   UNL     1      21.890  24.170  28.074  1.00  0.00     0.293 HD
ENDBRANCH  74  77
BRANCH  75  79
ATOM     79  O   UNL     1      18.674  28.789  28.009  1.00  0.00    -0.504 OA
ATOM     80  H   UNL     1      18.008  29.125  28.685  1.00  0.00     0.293 HD
ENDBRANCH  75  79
BRANCH  76  81
ATOM     81  O   UNL     1      18.812  25.871  28.089  1.00  0.00    -0.502 OA
ATOM     82  H   UNL     1      17.864  26.160  28.255  1.00  0.00     0.293 HD
ENDBRANCH  76  81
ENDBRANCH  69  71
ENDBRANCH  68  69
ENDBRANCH   4  68
TORSDOF 31
ENDMDL
MODEL 9
REMARK VINA RESULT:    -5.605      2.488      8.608
REMARK INTER + INTRA:         -17.649
REMARK INTER:                 -12.887
REMARK INTRA:                  -4.762
REMARK UNBOUND:                -4.345
REMARK SMILES O=C(OC[C@@H]1O[C@@H](OC(=O)c2cc(O)c(O)c(O)c2)[C@@H](OC(=O)c2cc(O)c(O)c(O)c2)[C@H](OC(=O)c2cc(O)c(O)c(O)c2)[C@@H]1OC(=O)c1cc(O)c(O)c(O)c1)c1cc(O)c(O)c(O)c1
REMARK SMILES IDX 5 1 46 2 33 3 20 4 7 5 6 6 4 7 3 8 2 9 1 10 59 11 60 12
REMARK SMILES IDX 61 13 67 14 63 15 65 16 62 17 64 19 66 21 47 23 48 24 49 25
REMARK SMILES IDX 50 26 58 27 51 28 56 29 52 30 54 31 57 32 53 34 55 36 34 38
REMARK SMILES IDX 35 39 36 40 37 41 45 42 38 43 43 44 39 45 41 46 44 47 40 49
REMARK SMILES IDX 42 51 8 53 9 54 10 55 11 56 19 57 12 58 17 59 13 60 15 61
REMARK SMILES IDX 18 62 14 64 16 66 21 68 22 69 23 70 24 71 32 72 25 73 30 74
REMARK SMILES IDX 26 75 28 76 31 77 27 79 29 81
REMARK H PARENT 62 18 64 20 66 22 57 33 53 35 55 37 44 48 40 50 42 52 18 63
REMARK H PARENT 14 65 16 67 31 78 27 80 29 82
REMARK Flexibility Score: inf
ROOT
ATOM      1  C   UNL     1      22.703  27.839  28.843  1.00  0.00     0.205 C 
ATOM      2  C   UNL     1      24.084  28.329  29.331  1.00  0.00     0.254 C 
ATOM      3  C   UNL     1      23.886  29.345  30.474  1.00  0.00     0.267 C 
ATOM      4  C   UNL     1      22.914  30.454  30.032  1.00  0.00     0.290 C 
ATOM      5  C   UNL     1      21.630  29.835  29.455  1.00  0.00     0.357 C 
ATOM      6  O   UNL     1      21.918  28.935  28.396  1.00  0.00    -0.329 OA
ENDROOT
BRANCH   1   7
ATOM      7  C   UNL     1      22.848  26.822  27.699  1.00  0.00     0.269 C 
BRANCH   7   8
ATOM      8  O   UNL     1      21.969  25.716  27.893  1.00  0.00    -0.459 OA
BRANCH   8   9
ATOM      9  C   UNL     1      21.329  25.029  26.855  1.00  0.00     0.338 C 
ATOM     10  O   UNL     1      21.992  24.611  25.868  1.00  0.00    -0.246 OA
BRANCH   9  11
ATOM     11  C   UNL     1      19.876  24.766  26.940  1.00  0.00     0.067 A 
ATOM     12  C   UNL     1      19.035  25.662  27.615  1.00  0.00     0.066 A 
ATOM     13  C   UNL     1      17.664  25.417  27.716  1.00  0.00     0.162 A 
ATOM     14  C   UNL     1      19.320  23.619  26.354  1.00  0.00     0.066 A 
ATOM     15  C   UNL     1      17.108  24.261  27.139  1.00  0.00     0.200 A 
ATOM     16  C   UNL     1      17.948  23.357  26.443  1.00  0.00     0.162 A 
BRANCH  13  17
ATOM     17  O   UNL     1      16.868  26.328  28.413  1.00  0.00    -0.504 OA
ATOM     18  H   UNL     1      17.261  27.080  28.967  1.00  0.00     0.293 HD
ENDBRANCH  13  17
BRANCH  15  19
ATOM     19  O   UNL     1      15.735  24.042  27.281  1.00  0.00    -0.502 OA
ATOM     20  H   UNL     1      15.322  23.140  27.462  1.00  0.00     0.293 HD
ENDBRANCH  15  19
BRANCH  16  21
ATOM     21  O   UNL     1      17.466  22.201  25.823  1.00  0.00    -0.504 OA
ATOM     22  H   UNL     1      17.118  22.166  24.878  1.00  0.00     0.293 HD
ENDBRANCH  16  21
ENDBRANCH   9  11
ENDBRANCH   8   9
ENDBRANCH   7   8
ENDBRANCH   1   7
BRANCH   2  23
ATOM     23  O   UNL     1      24.779  28.948  28.248  1.00  0.00    -0.452 OA
BRANCH  23  24
ATOM     24  C   UNL     1      26.135  28.735  27.964  1.00  0.00     0.338 C 
ATOM     25  O   UNL     1      26.516  27.646  27.453  1.00  0.00    -0.246 OA
BRANCH  24  26
ATOM     26  C   UNL     1      27.117  29.797  28.263  1.00  0.00     0.067 A 
ATOM     27  C   UNL     1      26.696  31.044  28.758  1.00  0.00     0.066 A 
ATOM     28  C   UNL     1      28.486  29.567  28.063  1.00  0.00     0.066 A 
ATOM     29  C   UNL     1      27.627  32.045  29.050  1.00  0.00     0.162 A 
ATOM     30  C   UNL     1      29.423  30.564  28.345  1.00  0.00     0.162 A 
ATOM     31  C   UNL     1      28.997  31.810  28.839  1.00  0.00     0.200 A 
BRANCH  29  32
ATOM     32  O   UNL     1      27.175  33.260  29.567  1.00  0.00    -0.504 OA
ATOM     33  H   UNL     1      27.111  34.094  28.996  1.00  0.00     0.293 HD
ENDBRANCH  29  32
BRANCH  30  34
ATOM     34  O   UNL     1      30.783  30.327  28.131  1.00  0.00    -0.504 OA
ATOM     35  H   UNL     1      31.315  30.881  27.468  1.00  0.00     0.293 HD
ENDBRANCH  30  34
BRANCH  31  36
ATOM     36  O   UNL     1      29.921  32.814  29.131  1.00  0.00    -0.502 OA
ATOM     37  H   UNL     1      30.920  32.686  29.000  1.00  0.00     0.293 HD
ENDBRANCH  31  36
ENDBRANCH  24  26
ENDBRANCH  23  24
ENDBRANCH   2  23
BRANCH   3  38
ATOM     38  O   UNL     1      25.130  29.938  30.846  1.00  0.00    -0.450 OA
BRANCH  38  39
ATOM     39  C   UNL     1      25.518  30.205  32.163  1.00  0.00     0.338 C 
ATOM     40  O   UNL     1      24.923  29.644  33.124  1.00  0.00    -0.246 OA
BRANCH  39  41
ATOM     41  C   UNL     1      26.623  31.157  32.420  1.00  0.00     0.067 A 
ATOM     42  C   UNL     1      26.370  32.517  32.670  1.00  0.00     0.066 A 
ATOM     43  C   UNL     1      27.952  30.706  32.409  1.00  0.00     0.066 A 
ATOM     44  C   UNL     1      27.426  33.418  32.872  1.00  0.00     0.162 A 
ATOM     45  C   UNL     1      29.012  31.595  32.607  1.00  0.00     0.162 A 
ATOM     46  C   UNL     1      28.753  32.957  32.834  1.00  0.00     0.200 A 
BRANCH  44  47
ATOM     47  O   UNL     1      27.163  34.770  33.109  1.00  0.00    -0.504 OA
ATOM     48  H   UNL     1      27.899  35.469  33.096  1.00  0.00     0.293 HD
ENDBRANCH  44  47
BRANCH  45  49
ATOM     49  O   UNL     1      30.319  31.109  32.580  1.00  0.00    -0.504 OA
ATOM     50  H   UNL     1      30.833  31.000  31.716  1.00  0.00     0.293 HD
ENDBRANCH  45  49
BRANCH  46  51
ATOM     51  O   UNL     1      29.819  33.836  33.023  1.00  0.00    -0.502 OA
ATOM     52  H   UNL     1      29.686  34.827  33.192  1.00  0.00     0.293 HD
ENDBRANCH  46  51
ENDBRANCH  39  41
ENDBRANCH  38  39
ENDBRANCH   3  38
BRANCH   5  53
ATOM     53  O   UNL     1      20.874  29.183  30.478  1.00  0.00    -0.428 OA
BRANCH  53  54
ATOM     54  C   UNL     1      19.573  28.701  30.288  1.00  0.00     0.340 C 
ATOM     55  O   UNL     1      19.388  27.550  29.805  1.00  0.00    -0.246 OA
BRANCH  54  56
ATOM     56  C   UNL     1      18.419  29.563  30.629  1.00  0.00     0.067 A 
ATOM     57  C   UNL     1      17.238  29.491  29.873  1.00  0.00     0.066 A 
ATOM     58  C   UNL     1      18.487  30.450  31.716  1.00  0.00     0.066 A 
ATOM     59  C   UNL     1      16.139  30.303  30.191  1.00  0.00     0.162 A 
ATOM     60  C   UNL     1      17.390  31.258  32.044  1.00  0.00     0.162 A 
ATOM     61  C   UNL     1      16.216  31.192  31.277  1.00  0.00     0.200 A 
BRANCH  59  62
ATOM     62  O   UNL     1      14.973  30.230  29.434  1.00  0.00    -0.504 OA
ATOM     63  H   UNL     1      14.060  30.380  29.848  1.00  0.00     0.293 HD
ENDBRANCH  59  62
BRANCH  60  64
ATOM     64  O   UNL     1      17.483  32.133  33.125  1.00  0.00    -0.504 OA
ATOM     65  H   UNL     1      18.253  32.785  33.222  1.00  0.00     0.293 HD
ENDBRANCH  60  64
BRANCH  61  66
ATOM     66  O   UNL     1      15.134  32.012  31.609  1.00  0.00    -0.502 OA
ATOM     67  H   UNL     1      14.995  32.922  31.170  1.00  0.00     0.293 HD
ENDBRANCH  61  66
ENDBRANCH  54  56
ENDBRANCH  53  54
ENDBRANCH   5  53
BRANCH   4  68
ATOM     68  O   UNL     1      22.580  31.291  31.144  1.00  0.00    -0.448 OA
BRANCH  68  69
ATOM     69  C   UNL     1      22.380  32.676  31.039  1.00  0.00     0.339 C 
ATOM     70  O   UNL     1      23.365  33.461  31.094  1.00  0.00    -0.246 OA
BRANCH  69  71
ATOM     71  C   UNL     1      21.021  33.214  30.824  1.00  0.00     0.067 A 
ATOM     72  C   UNL     1      20.367  33.036  29.592  1.00  0.00     0.066 A 
ATOM     73  C   UNL     1      20.361  33.907  31.852  1.00  0.00     0.066 A 
ATOM     74  C   UNL     1      19.063  33.514  29.401  1.00  0.00     0.162 A 
ATOM     75  C   UNL     1      19.064  34.405  31.670  1.00  0.00     0.162 A 
ATOM     76  C   UNL     1      18.400  34.188  30.436  1.00  0.00     0.200 A 
BRANCH  74  77
ATOM     77  O   UNL     1      18.410  33.312  28.185  1.00  0.00    -0.504 OA
ATOM     78  H   UNL     1      18.120  32.392  27.890  1.00  0.00     0.293 HD
ENDBRANCH  74  77
BRANCH  75  79
ATOM     79  O   UNL     1      18.486  35.110  32.730  1.00  0.00    -0.504 OA
ATOM     80  H   UNL     1      18.358  34.733  33.655  1.00  0.00     0.293 HD
ENDBRANCH  75  79
BRANCH  76  81
ATOM     81  O   UNL     1      17.089  34.615  30.211  1.00  0.00    -0.502 OA
ATOM     82  H   UNL     1      16.380  34.629  30.923  1.00  0.00     0.293 HD
ENDBRANCH  76  81
ENDBRANCH  69  71
ENDBRANCH  68  69
ENDBRANCH   4  68
TORSDOF 31
ENDMDL
