MODEL 1
REMARK VINA RESULT:    -5.487      0.000      0.000
REMARK INTER + INTRA:         -17.151
REMARK INTER:                 -13.828
REMARK INTRA:                  -3.324
REMARK UNBOUND:                -3.324
REMARK SMILES CCCCCCCCCCCCCCCCCCCCCCCCCCCC(=O)[O-]
REMARK SMILES IDX 15 1 16 2 17 3 18 4 19 5 20 6 21 7 22 8 23 9 24 10 25 11
REMARK SMILES IDX 26 12 27 13 28 14 29 15 30 16 14 17 13 18 12 19 11 20 10 21
REMARK SMILES IDX 9 22 8 23 7 24 6 25 5 26 4 27 3 28 2 29 1 30
REMARK H PARENT
REMARK Flexibility Score: inf
ROOT
ATOM      1  C   UNL     1      43.833  26.155  19.656  1.00  0.00     0.000 C 
ENDROOT
BRANCH   1   2
ATOM      2  C   UNL     1      45.069  25.714  20.464  1.00  0.00     0.000 C 
BRANCH   2   3
ATOM      3  C   UNL     1      46.216  25.112  19.632  1.00  0.00     0.000 C 
BRANCH   3   4
ATOM      4  C   UNL     1      46.011  23.624  19.311  1.00  0.00     0.000 C 
BRANCH   4   5
ATOM      5  C   UNL     1      46.798  22.738  20.283  1.00  0.00     0.000 C 
BRANCH   5   6
ATOM      6  C   UNL     1      45.963  22.412  21.530  1.00  0.00     0.000 C 
BRANCH   6   7
ATOM      7  C   UNL     1      45.412  20.977  21.513  1.00  0.00     0.000 C 
BRANCH   7   8
ATOM      8  C   UNL     1      43.953  20.911  21.030  1.00  0.00     0.000 C 
BRANCH   8   9
ATOM      9  C   UNL     1      43.180  22.218  21.280  1.00  0.00     0.000 C 
BRANCH   9  10
ATOM     10  C   UNL     1      42.469  22.804  20.047  1.00  0.00     0.000 C 
BRANCH  10  11
ATOM     11  C   UNL     1      41.233  23.642  20.408  1.00  0.00     0.000 C 
BRANCH  11  12
ATOM     12  C   UNL     1      40.587  24.236  19.147  1.00  0.00     0.006 C 
BRANCH  12  13
ATOM     13  C   UNL     1      40.423  23.195  18.033  1.00  0.00     0.053 C 
BRANCH  13  14
ATOM     14  C   UNL     1      38.983  22.878  17.777  1.00  0.00     0.041 C 
ATOM     15  O   UNL     1      38.221  22.570  18.732  1.00  0.00    -0.550 OA
ATOM     16  O   UNL     1      38.472  22.955  16.487  1.00  0.00    -0.550 OA
ENDBRANCH  13  14
ENDBRANCH  12  13
ENDBRANCH  11  12
ENDBRANCH  10  11
ENDBRANCH   9  10
ENDBRANCH   8   9
ENDBRANCH   7   8
ENDBRANCH   6   7
ENDBRANCH   5   6
ENDBRANCH   4   5
ENDBRANCH   3   4
ENDBRANCH   2   3
ENDBRANCH   1   2
BRANCH   1  17
ATOM     17  C   UNL     1      43.072  27.320  20.311  1.00  0.00     0.000 C 
BRANCH  17  18
ATOM     18  C   UNL     1      44.014  28.361  20.937  1.00  0.00     0.000 C 
BRANCH  18  19
ATOM     19  C   UNL     1      44.159  29.627  20.074  1.00  0.00     0.000 C 
BRANCH  19  20
ATOM     20  C   UNL     1      45.255  29.472  18.997  1.00  0.00     0.000 C 
BRANCH  20  21
ATOM     21  C   UNL     1      44.847  30.016  17.616  1.00  0.00     0.000 C 
BRANCH  21  22
ATOM     22  C   UNL     1      44.944  31.547  17.526  1.00  0.00    -0.000 C 
BRANCH  22  23
ATOM     23  C   UNL     1      43.595  32.205  17.193  1.00  0.00    -0.000 C 
BRANCH  23  24
ATOM     24  C   UNL     1      43.503  32.643  15.721  1.00  0.00    -0.000 C 
BRANCH  24  25
ATOM     25  C   UNL     1      44.676  33.540  15.294  1.00  0.00    -0.000 C 
BRANCH  25  26
ATOM     26  C   UNL     1      45.345  33.060  13.994  1.00  0.00    -0.000 C 
BRANCH  26  27
ATOM     27  C   UNL     1      45.746  31.574  14.041  1.00  0.00    -0.000 C 
BRANCH  27  28
ATOM     28  C   UNL     1      44.892  30.632  13.166  1.00  0.00    -0.000 C 
BRANCH  28  29
ATOM     29  C   UNL     1      44.236  29.461  13.918  1.00  0.00    -0.003 C 
ATOM     30  C   UNL     1      42.710  29.520  13.896  1.00  0.00     0.004 C 
ENDBRANCH  28  29
ENDBRANCH  27  28
ENDBRANCH  26  27
ENDBRANCH  25  26
ENDBRANCH  24  25
ENDBRANCH  23  24
ENDBRANCH  22  23
ENDBRANCH  21  22
ENDBRANCH  20  21
ENDBRANCH  19  20
ENDBRANCH  18  19
ENDBRANCH  17  18
ENDBRANCH   1  17
TORSDOF 26
ENDMDL
MODEL 2
REMARK VINA RESULT:    -5.220      2.784      9.150
REMARK INTER + INTRA:         -16.478
REMARK INTER:                 -13.305
REMARK INTRA:                  -3.172
REMARK UNBOUND:                -3.324
REMARK SMILES CCCCCCCCCCCCCCCCCCCCCCCCCCCC(=O)[O-]
REMARK SMILES IDX 15 1 16 2 17 3 18 4 19 5 20 6 21 7 22 8 23 9 24 10 25 11
REMARK SMILES IDX 26 12 27 13 28 14 29 15 30 16 14 17 13 18 12 19 11 20 10 21
REMARK SMILES IDX 9 22 8 23 7 24 6 25 5 26 4 27 3 28 2 29 1 30
REMARK H PARENT
REMARK Flexibility Score: inf
ROOT
ATOM      1  C   UNL     1      45.158  25.555  20.538  1.00  0.00     0.000 C 
ENDROOT
BRANCH   1   2
ATOM      2  C   UNL     1      43.789  26.124  20.120  1.00  0.00     0.000 C 
BRANCH   2   3
ATOM      3  C   UNL     1      43.784  27.619  19.752  1.00  0.00     0.000 C 
BRANCH   3   4
ATOM      4  C   UNL     1      44.749  28.453  20.608  1.00  0.00     0.000 C 
BRANCH   4   5
ATOM      5  C   UNL     1      45.780  29.171  19.730  1.00  0.00     0.000 C 
BRANCH   5   6
ATOM      6  C   UNL     1      45.387  29.098  18.248  1.00  0.00     0.000 C 
BRANCH   6   7
ATOM      7  C   UNL     1      46.035  30.212  17.409  1.00  0.00     0.000 C 
BRANCH   7   8
ATOM      8  C   UNL     1      45.434  31.598  17.705  1.00  0.00     0.000 C 
BRANCH   8   9
ATOM      9  C   UNL     1      43.896  31.590  17.733  1.00  0.00     0.000 C 
BRANCH   9  10
ATOM     10  C   UNL     1      43.225  32.864  17.193  1.00  0.00     0.000 C 
BRANCH  10  11
ATOM     11  C   UNL     1      43.280  32.970  15.661  1.00  0.00     0.000 C 
BRANCH  11  12
ATOM     12  C   UNL     1      42.968  31.616  15.006  1.00  0.00     0.006 C 
BRANCH  12  13
ATOM     13  C   UNL     1      43.765  31.399  13.713  1.00  0.00     0.053 C 
BRANCH  13  14
ATOM     14  C   UNL     1      44.876  30.414  13.904  1.00  0.00     0.041 C 
ATOM     15  O   UNL     1      44.646  29.178  13.841  1.00  0.00    -0.550 OA
ATOM     16  O   UNL     1      46.173  30.863  14.118  1.00  0.00    -0.550 OA
ENDBRANCH  13  14
ENDBRANCH  12  13
ENDBRANCH  11  12
ENDBRANCH  10  11
ENDBRANCH   9  10
ENDBRANCH   8   9
ENDBRANCH   7   8
ENDBRANCH   6   7
ENDBRANCH   5   6
ENDBRANCH   4   5
ENDBRANCH   3   4
ENDBRANCH   2   3
ENDBRANCH   1   2
BRANCH   1  17
ATOM     17  C   UNL     1      46.147  25.447  19.365  1.00  0.00     0.000 C 
BRANCH  17  18
ATOM     18  C   UNL     1      47.176  24.323  19.563  1.00  0.00     0.000 C 
BRANCH  18  19
ATOM     19  C   UNL     1      46.528  22.989  19.974  1.00  0.00     0.000 C 
BRANCH  19  20
ATOM     20  C   UNL     1      47.032  22.499  21.349  1.00  0.00     0.000 C 
BRANCH  20  21
ATOM     21  C   UNL     1      46.024  21.610  22.097  1.00  0.00     0.000 C 
BRANCH  21  22
ATOM     22  C   UNL     1      45.161  20.759  21.152  1.00  0.00    -0.000 C 
BRANCH  22  23
ATOM     23  C   UNL     1      43.655  20.967  21.381  1.00  0.00    -0.000 C 
BRANCH  23  24
ATOM     24  C   UNL     1      43.294  22.448  21.595  1.00  0.00    -0.000 C 
BRANCH  24  25
ATOM     25  C   UNL     1      42.135  22.913  20.698  1.00  0.00    -0.000 C 
BRANCH  25  26
ATOM     26  C   UNL     1      42.496  22.885  19.203  1.00  0.00    -0.000 C 
BRANCH  26  27
ATOM     27  C   UNL     1      41.262  22.978  18.287  1.00  0.00    -0.000 C 
BRANCH  27  28
ATOM     28  C   UNL     1      40.040  23.694  18.898  1.00  0.00    -0.000 C 
BRANCH  28  29
ATOM     29  C   UNL     1      38.955  24.107  17.888  1.00  0.00    -0.003 C 
ATOM     30  C   UNL     1      38.602  22.993  16.904  1.00  0.00     0.004 C 
ENDBRANCH  28  29
ENDBRANCH  27  28
ENDBRANCH  26  27
ENDBRANCH  25  26
ENDBRANCH  24  25
ENDBRANCH  23  24
ENDBRANCH  22  23
ENDBRANCH  21  22
ENDBRANCH  20  21
ENDBRANCH  19  20
ENDBRANCH  18  19
ENDBRANCH  17  18
ENDBRANCH   1  17
TORSDOF 26
ENDMDL
MODEL 3
REMARK VINA RESULT:    -5.194      1.330      2.285
REMARK INTER + INTRA:         -16.413
REMARK INTER:                 -13.716
REMARK INTRA:                  -2.697
REMARK UNBOUND:                -3.324
REMARK SMILES CCCCCCCCCCCCCCCCCCCCCCCCCCCC(=O)[O-]
REMARK SMILES IDX 15 1 16 2 17 3 18 4 19 5 20 6 21 7 22 8 23 9 24 10 25 11
REMARK SMILES IDX 26 12 27 13 28 14 29 15 30 16 14 17 13 18 12 19 11 20 10 21
REMARK SMILES IDX 9 22 8 23 7 24 6 25 5 26 4 27 3 28 2 29 1 30
REMARK H PARENT
REMARK Flexibility Score: inf
ROOT
ATOM      1  C   UNL     1      45.558  24.497  19.359  1.00  0.00     0.000 C 
ENDROOT
BRANCH   1   2
ATOM      2  C   UNL     1      47.038  24.097  19.509  1.00  0.00     0.000 C 
BRANCH   2   3
ATOM      3  C   UNL     1      47.397  23.390  20.828  1.00  0.00     0.000 C 
BRANCH   3   4
ATOM      4  C   UNL     1      46.875  21.947  20.899  1.00  0.00     0.000 C 
BRANCH   4   5
ATOM      5  C   UNL     1      45.760  21.817  21.943  1.00  0.00     0.000 C 
BRANCH   5   6
ATOM      6  C   UNL     1      44.871  20.599  21.650  1.00  0.00     0.000 C 
BRANCH   6   7
ATOM      7  C   UNL     1      43.461  20.996  21.183  1.00  0.00     0.000 C 
BRANCH   7   8
ATOM      8  C   UNL     1      43.135  22.470  21.480  1.00  0.00     0.000 C 
BRANCH   8   9
ATOM      9  C   UNL     1      42.071  23.051  20.532  1.00  0.00     0.000 C 
BRANCH   9  10
ATOM     10  C   UNL     1      42.450  23.046  19.041  1.00  0.00     0.000 C 
BRANCH  10  11
ATOM     11  C   UNL     1      41.716  21.962  18.238  1.00  0.00     0.000 C 
BRANCH  11  12
ATOM     12  C   UNL     1      40.796  22.592  17.181  1.00  0.00     0.006 C 
BRANCH  12  13
ATOM     13  C   UNL     1      39.379  22.006  17.223  1.00  0.00     0.053 C 
BRANCH  13  14
ATOM     14  C   UNL     1      38.341  23.074  17.373  1.00  0.00     0.041 C 
ATOM     15  O   UNL     1      37.149  22.853  17.036  1.00  0.00    -0.550 OA
ATOM     16  O   UNL     1      38.686  24.305  17.918  1.00  0.00    -0.550 OA
ENDBRANCH  13  14
ENDBRANCH  12  13
ENDBRANCH  11  12
ENDBRANCH  10  11
ENDBRANCH   9  10
ENDBRANCH   8   9
ENDBRANCH   7   8
ENDBRANCH   6   7
ENDBRANCH   5   6
ENDBRANCH   4   5
ENDBRANCH   3   4
ENDBRANCH   2   3
ENDBRANCH   1   2
BRANCH   1  17
ATOM     17  C   UNL     1      45.113  25.547  20.391  1.00  0.00     0.000 C 
BRANCH  17  18
ATOM     18  C   UNL     1      43.988  26.452  19.863  1.00  0.00     0.000 C 
BRANCH  18  19
ATOM     19  C   UNL     1      44.520  27.692  19.123  1.00  0.00     0.000 C 
BRANCH  19  20
ATOM     20  C   UNL     1      46.058  27.800  19.203  1.00  0.00     0.000 C 
BRANCH  20  21
ATOM     21  C   UNL     1      46.605  29.174  18.779  1.00  0.00     0.000 C 
BRANCH  21  22
ATOM     22  C   UNL     1      45.512  30.250  18.687  1.00  0.00    -0.000 C 
BRANCH  22  23
ATOM     23  C   UNL     1      45.758  31.243  17.539  1.00  0.00    -0.000 C 
BRANCH  23  24
ATOM     24  C   UNL     1      45.518  32.702  17.965  1.00  0.00    -0.000 C 
BRANCH  24  25
ATOM     25  C   UNL     1      44.414  33.388  17.144  1.00  0.00    -0.000 C 
BRANCH  25  26
ATOM     26  C   UNL     1      43.240  32.445  16.828  1.00  0.00    -0.000 C 
BRANCH  26  27
ATOM     27  C   UNL     1      42.629  32.695  15.437  1.00  0.00    -0.000 C 
BRANCH  27  28
ATOM     28  C   UNL     1      42.958  31.630  14.371  1.00  0.00    -0.000 C 
BRANCH  28  29
ATOM     29  C   UNL     1      43.526  30.310  14.922  1.00  0.00    -0.003 C 
ATOM     30  C   UNL     1      44.678  29.761  14.083  1.00  0.00     0.004 C 
ENDBRANCH  28  29
ENDBRANCH  27  28
ENDBRANCH  26  27
ENDBRANCH  25  26
ENDBRANCH  24  25
ENDBRANCH  23  24
ENDBRANCH  22  23
ENDBRANCH  21  22
ENDBRANCH  20  21
ENDBRANCH  19  20
ENDBRANCH  18  19
ENDBRANCH  17  18
ENDBRANCH   1  17
TORSDOF 26
ENDMDL
MODEL 4
REMARK VINA RESULT:    -5.183      5.059      8.797
REMARK INTER + INTRA:         -16.384
REMARK INTER:                 -11.331
REMARK INTRA:                  -5.053
REMARK UNBOUND:                -3.324
REMARK SMILES CCCCCCCCCCCCCCCCCCCCCCCCCCCC(=O)[O-]
REMARK SMILES IDX 15 1 16 2 17 3 18 4 19 5 20 6 21 7 22 8 23 9 24 10 25 11
REMARK SMILES IDX 26 12 27 13 28 14 29 15 30 16 14 17 13 18 12 19 11 20 10 21
REMARK SMILES IDX 9 22 8 23 7 24 6 25 5 26 4 27 3 28 2 29 1 30
REMARK H PARENT
REMARK Flexibility Score: inf
ROOT
ATOM      1  C   UNL     1      43.687  31.915  17.229  1.00  0.00     0.000 C 
ENDROOT
BRANCH   1   2
ATOM      2  C   UNL     1      44.790  32.655  18.008  1.00  0.00     0.000 C 
BRANCH   2   3
ATOM      3  C   UNL     1      45.000  34.128  17.609  1.00  0.00     0.000 C 
BRANCH   3   4
ATOM      4  C   UNL     1      46.390  34.662  17.986  1.00  0.00     0.000 C 
BRANCH   4   5
ATOM      5  C   UNL     1      47.115  35.224  16.758  1.00  0.00     0.000 C 
BRANCH   5   6
ATOM      6  C   UNL     1      46.413  34.794  15.461  1.00  0.00     0.000 C 
BRANCH   6   7
ATOM      7  C   UNL     1      47.127  33.626  14.762  1.00  0.00     0.000 C 
BRANCH   7   8
ATOM      8  C   UNL     1      48.497  33.313  15.389  1.00  0.00     0.000 C 
BRANCH   8   9
ATOM      9  C   UNL     1      48.575  31.895  15.981  1.00  0.00     0.000 C 
BRANCH   9  10
ATOM     10  C   UNL     1      47.229  31.156  16.087  1.00  0.00     0.000 C 
BRANCH  10  11
ATOM     11  C   UNL     1      47.385  29.673  16.459  1.00  0.00     0.000 C 
BRANCH  11  12
ATOM     12  C   UNL     1      46.890  29.412  17.890  1.00  0.00     0.006 C 
BRANCH  12  13
ATOM     13  C   UNL     1      45.439  28.913  17.918  1.00  0.00     0.053 C 
BRANCH  13  14
ATOM     14  C   UNL     1      44.942  28.734  19.319  1.00  0.00     0.041 C 
ATOM     15  O   UNL     1      45.483  27.892  20.082  1.00  0.00    -0.550 OA
ATOM     16  O   UNL     1      43.900  29.522  19.792  1.00  0.00    -0.550 OA
ENDBRANCH  13  14
ENDBRANCH  12  13
ENDBRANCH  11  12
ENDBRANCH  10  11
ENDBRANCH   9  10
ENDBRANCH   8   9
ENDBRANCH   7   8
ENDBRANCH   6   7
ENDBRANCH   5   6
ENDBRANCH   4   5
ENDBRANCH   3   4
ENDBRANCH   2   3
ENDBRANCH   1   2
BRANCH   1  17
ATOM     17  C   UNL     1      43.277  32.639  15.935  1.00  0.00     0.000 C 
BRANCH  17  18
ATOM     18  C   UNL     1      43.116  31.676  14.748  1.00  0.00     0.000 C 
BRANCH  18  19
ATOM     19  C   UNL     1      43.925  30.378  14.921  1.00  0.00     0.000 C 
BRANCH  19  20
ATOM     20  C   UNL     1      44.595  29.932  13.603  1.00  0.00     0.000 C 
BRANCH  20  21
ATOM     21  C   UNL     1      45.510  31.000  12.981  1.00  0.00     0.000 C 
BRANCH  21  22
ATOM     22  C   UNL     1      44.990  31.519  11.631  1.00  0.00    -0.000 C 
BRANCH  22  23
ATOM     23  C   UNL     1      46.126  31.833  10.643  1.00  0.00    -0.000 C 
BRANCH  23  24
ATOM     24  C   UNL     1      47.412  31.050  10.961  1.00  0.00    -0.000 C 
BRANCH  24  25
ATOM     25  C   UNL     1      48.686  31.877  10.722  1.00  0.00    -0.000 C 
BRANCH  25  26
ATOM     26  C   UNL     1      48.904  32.951  11.802  1.00  0.00    -0.000 C 
BRANCH  26  27
ATOM     27  C   UNL     1      49.141  34.354  11.212  1.00  0.00    -0.000 C 
BRANCH  27  28
ATOM     28  C   UNL     1      48.093  35.417  11.598  1.00  0.00    -0.000 C 
BRANCH  28  29
ATOM     29  C   UNL     1      46.664  35.133  11.104  1.00  0.00    -0.003 C 
ATOM     30  C   UNL     1      45.739  36.343  11.226  1.00  0.00     0.004 C 
ENDBRANCH  28  29
ENDBRANCH  27  28
ENDBRANCH  26  27
ENDBRANCH  25  26
ENDBRANCH  24  25
ENDBRANCH  23  24
ENDBRANCH  22  23
ENDBRANCH  21  22
ENDBRANCH  20  21
ENDBRANCH  19  20
ENDBRANCH  18  19
ENDBRANCH  17  18
ENDBRANCH   1  17
TORSDOF 26
ENDMDL
MODEL 5
REMARK VINA RESULT:    -5.147      1.136      1.753
REMARK INTER + INTRA:         -16.294
REMARK INTER:                 -12.841
REMARK INTRA:                  -3.453
REMARK UNBOUND:                -3.324
REMARK SMILES CCCCCCCCCCCCCCCCCCCCCCCCCCCC(=O)[O-]
REMARK SMILES IDX 15 1 16 2 17 3 18 4 19 5 20 6 21 7 22 8 23 9 24 10 25 11
REMARK SMILES IDX 26 12 27 13 28 14 29 15 30 16 14 17 13 18 12 19 11 20 10 21
REMARK SMILES IDX 9 22 8 23 7 24 6 25 5 26 4 27 3 28 2 29 1 30
REMARK H PARENT
REMARK Flexibility Score: inf
ROOT
ATOM      1  C   UNL     1      43.897  27.215  19.501  1.00  0.00     0.000 C 
ENDROOT
BRANCH   1   2
ATOM      2  C   UNL     1      45.157  26.403  19.857  1.00  0.00     0.000 C 
BRANCH   2   3
ATOM      3  C   UNL     1      45.098  24.908  19.494  1.00  0.00     0.000 C 
BRANCH   3   4
ATOM      4  C   UNL     1      46.484  24.295  19.241  1.00  0.00     0.000 C 
BRANCH   4   5
ATOM      5  C   UNL     1      46.584  22.892  19.852  1.00  0.00     0.000 C 
BRANCH   5   6
ATOM      6  C   UNL     1      46.022  22.873  21.281  1.00  0.00     0.000 C 
BRANCH   6   7
ATOM      7  C   UNL     1      45.039  21.713  21.514  1.00  0.00     0.000 C 
BRANCH   7   8
ATOM      8  C   UNL     1      43.639  22.201  21.927  1.00  0.00     0.000 C 
BRANCH   8   9
ATOM      9  C   UNL     1      42.709  22.439  20.724  1.00  0.00     0.000 C 
BRANCH   9  10
ATOM     10  C   UNL     1      41.731  23.617  20.876  1.00  0.00     0.000 C 
BRANCH  10  11
ATOM     11  C   UNL     1      41.425  24.320  19.544  1.00  0.00     0.000 C 
BRANCH  11  12
ATOM     12  C   UNL     1      40.756  23.354  18.556  1.00  0.00     0.006 C 
BRANCH  12  13
ATOM     13  C   UNL     1      39.285  23.709  18.302  1.00  0.00     0.053 C 
BRANCH  13  14
ATOM     14  C   UNL     1      38.580  22.637  17.531  1.00  0.00     0.041 C 
ATOM     15  O   UNL     1      37.327  22.663  17.408  1.00  0.00    -0.550 OA
ATOM     16  O   UNL     1      39.311  21.626  16.919  1.00  0.00    -0.550 OA
ENDBRANCH  13  14
ENDBRANCH  12  13
ENDBRANCH  11  12
ENDBRANCH  10  11
ENDBRANCH   9  10
ENDBRANCH   8   9
ENDBRANCH   7   8
ENDBRANCH   6   7
ENDBRANCH   5   6
ENDBRANCH   4   5
ENDBRANCH   3   4
ENDBRANCH   2   3
ENDBRANCH   1   2
BRANCH   1  17
ATOM     17  C   UNL     1      43.337  28.007  20.694  1.00  0.00     0.000 C 
BRANCH  17  18
ATOM     18  C   UNL     1      44.389  28.245  21.790  1.00  0.00     0.000 C 
BRANCH  18  19
ATOM     19  C   UNL     1      45.027  29.643  21.709  1.00  0.00     0.000 C 
BRANCH  19  20
ATOM     20  C   UNL     1      46.515  29.579  21.305  1.00  0.00     0.000 C 
BRANCH  20  21
ATOM     21  C   UNL     1      46.859  30.427  20.068  1.00  0.00     0.000 C 
BRANCH  21  22
ATOM     22  C   UNL     1      46.578  29.696  18.745  1.00  0.00    -0.000 C 
BRANCH  22  23
ATOM     23  C   UNL     1      45.840  30.582  17.728  1.00  0.00    -0.000 C 
BRANCH  23  24
ATOM     24  C   UNL     1      44.315  30.567  17.936  1.00  0.00    -0.000 C 
BRANCH  24  25
ATOM     25  C   UNL     1      43.648  31.896  17.548  1.00  0.00    -0.000 C 
BRANCH  25  26
ATOM     26  C   UNL     1      44.279  32.529  16.295  1.00  0.00    -0.000 C 
BRANCH  26  27
ATOM     27  C   UNL     1      43.421  32.336  15.031  1.00  0.00    -0.000 C 
BRANCH  27  28
ATOM     28  C   UNL     1      44.096  31.544  13.891  1.00  0.00    -0.000 C 
BRANCH  28  29
ATOM     29  C   UNL     1      44.054  30.014  14.048  1.00  0.00    -0.003 C 
ATOM     30  C   UNL     1      42.642  29.442  13.942  1.00  0.00     0.004 C 
ENDBRANCH  28  29
ENDBRANCH  27  28
ENDBRANCH  26  27
ENDBRANCH  25  26
ENDBRANCH  24  25
ENDBRANCH  23  24
ENDBRANCH  22  23
ENDBRANCH  21  22
ENDBRANCH  20  21
ENDBRANCH  19  20
ENDBRANCH  18  19
ENDBRANCH  17  18
ENDBRANCH   1  17
TORSDOF 26
ENDMDL
MODEL 6
REMARK VINA RESULT:    -5.118      6.652      9.907
REMARK INTER + INTRA:         -16.221
REMARK INTER:                 -11.146
REMARK INTRA:                  -5.075
REMARK UNBOUND:                -3.324
REMARK SMILES CCCCCCCCCCCCCCCCCCCCCCCCCCCC(=O)[O-]
REMARK SMILES IDX 15 1 16 2 17 3 18 4 19 5 20 6 21 7 22 8 23 9 24 10 25 11
REMARK SMILES IDX 26 12 27 13 28 14 29 15 30 16 14 17 13 18 12 19 11 20 10 21
REMARK SMILES IDX 9 22 8 23 7 24 6 25 5 26 4 27 3 28 2 29 1 30
REMARK H PARENT
REMARK Flexibility Score: inf
ROOT
ATOM      1  C   UNL     1      46.130  32.936  11.463  1.00  0.00     0.000 C 
ENDROOT
BRANCH   1   2
ATOM      2  C   UNL     1      46.568  32.552  12.889  1.00  0.00     0.000 C 
BRANCH   2   3
ATOM      3  C   UNL     1      46.109  33.515  13.999  1.00  0.00     0.000 C 
BRANCH   3   4
ATOM      4  C   UNL     1      47.258  33.984  14.904  1.00  0.00     0.000 C 
BRANCH   4   5
ATOM      5  C   UNL     1      46.872  35.254  15.669  1.00  0.00     0.000 C 
BRANCH   5   6
ATOM      6  C   UNL     1      47.259  35.142  17.151  1.00  0.00     0.000 C 
BRANCH   6   7
ATOM      7  C   UNL     1      46.085  34.694  18.036  1.00  0.00     0.000 C 
BRANCH   7   8
ATOM      8  C   UNL     1      46.055  33.170  18.247  1.00  0.00     0.000 C 
BRANCH   8   9
ATOM      9  C   UNL     1      44.744  32.524  17.764  1.00  0.00     0.000 C 
BRANCH   9  10
ATOM     10  C   UNL     1      43.695  33.505  17.214  1.00  0.00     0.000 C 
BRANCH  10  11
ATOM     11  C   UNL     1      42.975  32.977  15.964  1.00  0.00     0.000 C 
BRANCH  11  12
ATOM     12  C   UNL     1      43.443  31.555  15.621  1.00  0.00     0.006 C 
BRANCH  12  13
ATOM     13  C   UNL     1      43.127  31.174  14.169  1.00  0.00     0.053 C 
BRANCH  13  14
ATOM     14  C   UNL     1      43.312  29.709  13.927  1.00  0.00     0.041 C 
ATOM     15  O   UNL     1      44.464  29.236  13.741  1.00  0.00    -0.550 OA
ATOM     16  O   UNL     1      42.213  28.858  13.939  1.00  0.00    -0.550 OA
ENDBRANCH  13  14
ENDBRANCH  12  13
ENDBRANCH  11  12
ENDBRANCH  10  11
ENDBRANCH   9  10
ENDBRANCH   8   9
ENDBRANCH   7   8
ENDBRANCH   6   7
ENDBRANCH   5   6
ENDBRANCH   4   5
ENDBRANCH   3   4
ENDBRANCH   2   3
ENDBRANCH   1   2
BRANCH   1  17
ATOM     17  C   UNL     1      46.833  34.200  10.939  1.00  0.00     0.000 C 
BRANCH  17  18
ATOM     18  C   UNL     1      46.038  35.482  11.234  1.00  0.00     0.000 C 
BRANCH  18  19
ATOM     19  C   UNL     1      46.941  36.668  11.615  1.00  0.00     0.000 C 
BRANCH  19  20
ATOM     20  C   UNL     1      48.206  36.213  12.374  1.00  0.00     0.000 C 
BRANCH  20  21
ATOM     21  C   UNL     1      49.521  36.655  11.708  1.00  0.00     0.000 C 
BRANCH  21  22
ATOM     22  C   UNL     1      50.549  35.517  11.604  1.00  0.00    -0.000 C 
BRANCH  22  23
ATOM     23  C   UNL     1      50.200  34.323  12.507  1.00  0.00    -0.000 C 
BRANCH  23  24
ATOM     24  C   UNL     1      49.983  33.027  11.706  1.00  0.00    -0.000 C 
BRANCH  24  25
ATOM     25  C   UNL     1      50.820  31.852  12.237  1.00  0.00    -0.000 C 
BRANCH  25  26
ATOM     26  C   UNL     1      49.954  30.733  12.839  1.00  0.00    -0.000 C 
BRANCH  26  27
ATOM     27  C   UNL     1      50.354  30.377  14.283  1.00  0.00    -0.000 C 
BRANCH  27  28
ATOM     28  C   UNL     1      49.392  30.881  15.378  1.00  0.00    -0.000 C 
BRANCH  28  29
ATOM     29  C   UNL     1      48.405  29.829  15.913  1.00  0.00    -0.003 C 
ATOM     30  C   UNL     1      46.945  30.252  15.762  1.00  0.00     0.004 C 
ENDBRANCH  28  29
ENDBRANCH  27  28
ENDBRANCH  26  27
ENDBRANCH  25  26
ENDBRANCH  24  25
ENDBRANCH  23  24
ENDBRANCH  22  23
ENDBRANCH  21  22
ENDBRANCH  20  21
ENDBRANCH  19  20
ENDBRANCH  18  19
ENDBRANCH  17  18
ENDBRANCH   1  17
TORSDOF 26
ENDMDL
MODEL 7
REMARK VINA RESULT:    -5.116      5.625     11.354
REMARK INTER + INTRA:         -16.216
REMARK INTER:                 -10.990
REMARK INTRA:                  -5.226
REMARK UNBOUND:                -3.324
REMARK SMILES CCCCCCCCCCCCCCCCCCCCCCCCCCCC(=O)[O-]
REMARK SMILES IDX 15 1 16 2 17 3 18 4 19 5 20 6 21 7 22 8 23 9 24 10 25 11
REMARK SMILES IDX 26 12 27 13 28 14 29 15 30 16 14 17 13 18 12 19 11 20 10 21
REMARK SMILES IDX 9 22 8 23 7 24 6 25 5 26 4 27 3 28 2 29 1 30
REMARK H PARENT
REMARK Flexibility Score: inf
ROOT
ATOM      1  C   UNL     1      44.613  29.805  13.674  1.00  0.00     0.000 C 
ENDROOT
BRANCH   1   2
ATOM      2  C   UNL     1      44.697  30.767  12.473  1.00  0.00     0.000 C 
BRANCH   2   3
ATOM      3  C   UNL     1      46.060  31.457  12.280  1.00  0.00     0.000 C 
BRANCH   3   4
ATOM      4  C   UNL     1      46.459  31.601  10.804  1.00  0.00     0.000 C 
BRANCH   4   5
ATOM      5  C   UNL     1      46.817  33.053  10.470  1.00  0.00     0.000 C 
BRANCH   5   6
ATOM      6  C   UNL     1      46.459  33.989  11.633  1.00  0.00     0.000 C 
BRANCH   6   7
ATOM      7  C   UNL     1      46.217  35.437  11.174  1.00  0.00     0.000 C 
BRANCH   7   8
ATOM      8  C   UNL     1      47.297  36.406  11.686  1.00  0.00     0.000 C 
BRANCH   8   9
ATOM      9  C   UNL     1      48.058  35.863  12.908  1.00  0.00     0.000 C 
BRANCH   9  10
ATOM     10  C   UNL     1      49.544  35.544  12.666  1.00  0.00     0.000 C 
BRANCH  10  11
ATOM     11  C   UNL     1      49.883  35.357  11.179  1.00  0.00     0.000 C 
BRANCH  11  12
ATOM     12  C   UNL     1      50.347  33.919  10.900  1.00  0.00     0.006 C 
BRANCH  12  13
ATOM     13  C   UNL     1      50.505  33.100  12.187  1.00  0.00     0.053 C 
BRANCH  13  14
ATOM     14  C   UNL     1      49.977  31.709  12.027  1.00  0.00     0.041 C 
ATOM     15  O   UNL     1      49.441  31.117  13.001  1.00  0.00    -0.550 OA
ATOM     16  O   UNL     1      50.047  31.076  10.791  1.00  0.00    -0.550 OA
ENDBRANCH  13  14
ENDBRANCH  12  13
ENDBRANCH  11  12
ENDBRANCH  10  11
ENDBRANCH   9  10
ENDBRANCH   8   9
ENDBRANCH   7   8
ENDBRANCH   6   7
ENDBRANCH   5   6
ENDBRANCH   4   5
ENDBRANCH   3   4
ENDBRANCH   2   3
ENDBRANCH   1   2
BRANCH   1  17
ATOM     17  C   UNL     1      43.426  30.109  14.604  1.00  0.00     0.000 C 
BRANCH  17  18
ATOM     18  C   UNL     1      43.000  31.585  14.551  1.00  0.00     0.000 C 
BRANCH  18  19
ATOM     19  C   UNL     1      42.885  32.222  15.948  1.00  0.00     0.000 C 
BRANCH  19  20
ATOM     20  C   UNL     1      43.864  33.402  16.130  1.00  0.00     0.000 C 
BRANCH  20  21
ATOM     21  C   UNL     1      44.872  33.555  14.977  1.00  0.00     0.000 C 
BRANCH  21  22
ATOM     22  C   UNL     1      46.263  34.000  15.454  1.00  0.00    -0.000 C 
BRANCH  22  23
ATOM     23  C   UNL     1      47.327  32.905  15.274  1.00  0.00    -0.000 C 
BRANCH  23  24
ATOM     24  C   UNL     1      46.984  31.622  16.050  1.00  0.00    -0.000 C 
BRANCH  24  25
ATOM     25  C   UNL     1      46.961  31.836  17.572  1.00  0.00    -0.000 C 
BRANCH  25  26
ATOM     26  C   UNL     1      45.792  31.105  18.255  1.00  0.00    -0.000 C 
BRANCH  26  27
ATOM     27  C   UNL     1      45.370  29.825  17.510  1.00  0.00    -0.000 C 
BRANCH  27  28
ATOM     28  C   UNL     1      45.307  28.548  18.374  1.00  0.00    -0.000 C 
BRANCH  28  29
ATOM     29  C   UNL     1      44.277  28.584  19.516  1.00  0.00    -0.003 C 
ATOM     30  C   UNL     1      44.916  28.473  20.899  1.00  0.00     0.004 C 
ENDBRANCH  28  29
ENDBRANCH  27  28
ENDBRANCH  26  27
ENDBRANCH  25  26
ENDBRANCH  24  25
ENDBRANCH  23  24
ENDBRANCH  22  23
ENDBRANCH  21  22
ENDBRANCH  20  21
ENDBRANCH  19  20
ENDBRANCH  18  19
ENDBRANCH  17  18
ENDBRANCH   1  17
TORSDOF 26
ENDMDL
MODEL 8
REMARK VINA RESULT:    -5.113      7.240     11.143
REMARK INTER + INTRA:         -16.208
REMARK INTER:                 -10.432
REMARK INTRA:                  -5.776
REMARK UNBOUND:                -3.324
REMARK SMILES CCCCCCCCCCCCCCCCCCCCCCCCCCCC(=O)[O-]
REMARK SMILES IDX 15 1 16 2 17 3 18 4 19 5 20 6 21 7 22 8 23 9 24 10 25 11
REMARK SMILES IDX 26 12 27 13 28 14 29 15 30 16 14 17 13 18 12 19 11 20 10 21
REMARK SMILES IDX 9 22 8 23 7 24 6 25 5 26 4 27 3 28 2 29 1 30
REMARK H PARENT
REMARK Flexibility Score: inf
ROOT
ATOM      1  C   UNL     1      46.095  31.352  11.028  1.00  0.00     0.000 C 
ENDROOT
BRANCH   1   2
ATOM      2  C   UNL     1      46.673  32.715  10.604  1.00  0.00     0.000 C 
BRANCH   2   3
ATOM      3  C   UNL     1      46.203  33.917  11.445  1.00  0.00     0.000 C 
BRANCH   3   4
ATOM      4  C   UNL     1      46.723  35.262  10.916  1.00  0.00     0.000 C 
BRANCH   4   5
ATOM      5  C   UNL     1      46.890  36.273  12.056  1.00  0.00     0.000 C 
BRANCH   5   6
ATOM      6  C   UNL     1      48.336  36.286  12.572  1.00  0.00     0.000 C 
BRANCH   6   7
ATOM      7  C   UNL     1      48.415  36.381  14.105  1.00  0.00     0.000 C 
BRANCH   7   8
ATOM      8  C   UNL     1      47.359  35.507  14.804  1.00  0.00     0.000 C 
BRANCH   8   9
ATOM      9  C   UNL     1      47.921  34.156  15.283  1.00  0.00     0.000 C 
BRANCH   9  10
ATOM     10  C   UNL     1      47.283  32.915  14.635  1.00  0.00     0.000 C 
BRANCH  10  11
ATOM     11  C   UNL     1      48.304  32.024  13.912  1.00  0.00     0.000 C 
BRANCH  11  12
ATOM     12  C   UNL     1      49.560  32.823  13.532  1.00  0.00     0.006 C 
BRANCH  12  13
ATOM     13  C   UNL     1      49.908  32.685  12.044  1.00  0.00     0.053 C 
BRANCH  13  14
ATOM     14  C   UNL     1      50.196  31.264  11.672  1.00  0.00     0.041 C 
ATOM     15  O   UNL     1      50.952  30.560  12.391  1.00  0.00    -0.550 OA
ATOM     16  O   UNL     1      49.600  30.706  10.547  1.00  0.00    -0.550 OA
ENDBRANCH  13  14
ENDBRANCH  12  13
ENDBRANCH  11  12
ENDBRANCH  10  11
ENDBRANCH   9  10
ENDBRANCH   8   9
ENDBRANCH   7   8
ENDBRANCH   6   7
ENDBRANCH   5   6
ENDBRANCH   4   5
ENDBRANCH   3   4
ENDBRANCH   2   3
ENDBRANCH   1   2
BRANCH   1  17
ATOM     17  C   UNL     1      44.945  31.476  12.042  1.00  0.00     0.000 C 
BRANCH  17  18
ATOM     18  C   UNL     1      44.973  30.365  13.103  1.00  0.00     0.000 C 
BRANCH  18  19
ATOM     19  C   UNL     1      43.565  29.895  13.510  1.00  0.00     0.000 C 
BRANCH  19  20
ATOM     20  C   UNL     1      42.874  30.893  14.464  1.00  0.00     0.000 C 
BRANCH  20  21
ATOM     21  C   UNL     1      43.778  31.384  15.608  1.00  0.00     0.000 C 
BRANCH  21  22
ATOM     22  C   UNL     1      43.713  32.907  15.809  1.00  0.00    -0.000 C 
BRANCH  22  23
ATOM     23  C   UNL     1      43.752  33.308  17.292  1.00  0.00    -0.000 C 
BRANCH  23  24
ATOM     24  C   UNL     1      45.172  33.665  17.765  1.00  0.00    -0.000 C 
BRANCH  24  25
ATOM     25  C   UNL     1      45.803  32.566  18.635  1.00  0.00    -0.000 C 
BRANCH  25  26
ATOM     26  C   UNL     1      47.337  32.530  18.522  1.00  0.00    -0.000 C 
BRANCH  26  27
ATOM     27  C   UNL     1      47.867  31.191  17.978  1.00  0.00    -0.000 C 
BRANCH  27  28
ATOM     28  C   UNL     1      46.812  30.289  17.304  1.00  0.00    -0.000 C 
BRANCH  28  29
ATOM     29  C   UNL     1      47.333  29.442  16.130  1.00  0.00    -0.003 C 
ATOM     30  C   UNL     1      48.841  29.208  16.188  1.00  0.00     0.004 C 
ENDBRANCH  28  29
ENDBRANCH  27  28
ENDBRANCH  26  27
ENDBRANCH  25  26
ENDBRANCH  24  25
ENDBRANCH  23  24
ENDBRANCH  22  23
ENDBRANCH  21  22
ENDBRANCH  20  21
ENDBRANCH  19  20
ENDBRANCH  18  19
ENDBRANCH  17  18
ENDBRANCH   1  17
TORSDOF 26
ENDMDL
MODEL 9
REMARK VINA RESULT:    -5.103      4.727     10.584
REMARK INTER + INTRA:         -16.184
REMARK INTER:                 -11.429
REMARK INTRA:                  -4.756
REMARK UNBOUND:                -3.324
REMARK SMILES CCCCCCCCCCCCCCCCCCCCCCCCCCCC(=O)[O-]
REMARK SMILES IDX 15 1 16 2 17 3 18 4 19 5 20 6 21 7 22 8 23 9 24 10 25 11
REMARK SMILES IDX 26 12 27 13 28 14 29 15 30 16 14 17 13 18 12 19 11 20 10 21
REMARK SMILES IDX 9 22 8 23 7 24 6 25 5 26 4 27 3 28 2 29 1 30
REMARK H PARENT
REMARK Flexibility Score: inf
ROOT
ATOM      1  C   UNL     1      43.094  29.981  14.206  1.00  0.00     0.000 C 
ENDROOT
BRANCH   1   2
ATOM      2  C   UNL     1      42.851  31.501  14.266  1.00  0.00     0.000 C 
BRANCH   2   3
ATOM      3  C   UNL     1      42.843  32.109  15.681  1.00  0.00     0.000 C 
BRANCH   3   4
ATOM      4  C   UNL     1      43.755  33.338  15.814  1.00  0.00     0.000 C 
BRANCH   4   5
ATOM      5  C   UNL     1      44.346  33.434  17.225  1.00  0.00     0.000 C 
BRANCH   5   6
ATOM      6  C   UNL     1      45.704  34.150  17.205  1.00  0.00     0.000 C 
BRANCH   6   7
ATOM      7  C   UNL     1      46.172  34.490  15.780  1.00  0.00     0.000 C 
BRANCH   7   8
ATOM      8  C   UNL     1      47.240  35.597  15.760  1.00  0.00     0.000 C 
BRANCH   8   9
ATOM      9  C   UNL     1      47.990  35.681  14.418  1.00  0.00     0.000 C 
BRANCH   9  10
ATOM     10  C   UNL     1      48.005  34.382  13.595  1.00  0.00     0.000 C 
BRANCH  10  11
ATOM     11  C   UNL     1      47.240  34.502  12.268  1.00  0.00     0.000 C 
BRANCH  11  12
ATOM     12  C   UNL     1      48.090  33.991  11.096  1.00  0.00     0.006 C 
BRANCH  12  13
ATOM     13  C   UNL     1      48.829  32.690  11.439  1.00  0.00     0.053 C 
BRANCH  13  14
ATOM     14  C   UNL     1      48.285  31.526  10.671  1.00  0.00     0.041 C 
ATOM     15  O   UNL     1      49.068  30.683  10.157  1.00  0.00    -0.550 OA
ATOM     16  O   UNL     1      46.912  31.351  10.552  1.00  0.00    -0.550 OA
ENDBRANCH  13  14
ENDBRANCH  12  13
ENDBRANCH  11  12
ENDBRANCH  10  11
ENDBRANCH   9  10
ENDBRANCH   8   9
ENDBRANCH   7   8
ENDBRANCH   6   7
ENDBRANCH   5   6
ENDBRANCH   4   5
ENDBRANCH   3   4
ENDBRANCH   2   3
ENDBRANCH   1   2
BRANCH   1  17
ATOM     17  C   UNL     1      44.559  29.619  13.910  1.00  0.00     0.000 C 
BRANCH  17  18
ATOM     18  C   UNL     1      45.416  30.852  13.581  1.00  0.00     0.000 C 
BRANCH  18  19
ATOM     19  C   UNL     1      46.489  31.133  14.648  1.00  0.00     0.000 C 
BRANCH  19  20
ATOM     20  C   UNL     1      46.623  29.971  15.656  1.00  0.00     0.000 C 
BRANCH  20  21
ATOM     21  C   UNL     1      46.206  30.343  17.089  1.00  0.00     0.000 C 
BRANCH  21  22
ATOM     22  C   UNL     1      44.873  29.704  17.508  1.00  0.00    -0.000 C 
BRANCH  22  23
ATOM     23  C   UNL     1      44.413  30.160  18.903  1.00  0.00    -0.000 C 
BRANCH  23  24
ATOM     24  C   UNL     1      45.589  30.602  19.792  1.00  0.00    -0.000 C 
BRANCH  24  25
ATOM     25  C   UNL     1      45.754  29.722  21.041  1.00  0.00    -0.000 C 
BRANCH  25  26
ATOM     26  C   UNL     1      46.280  28.315  20.707  1.00  0.00    -0.000 C 
BRANCH  26  27
ATOM     27  C   UNL     1      45.305  27.198  21.122  1.00  0.00    -0.000 C 
BRANCH  27  28
ATOM     28  C   UNL     1      44.536  26.530  19.964  1.00  0.00    -0.000 C 
BRANCH  28  29
ATOM     29  C   UNL     1      43.039  26.881  19.888  1.00  0.00    -0.003 C 
ATOM     30  C   UNL     1      42.519  27.547  21.161  1.00  0.00     0.004 C 
ENDBRANCH  28  29
ENDBRANCH  27  28
ENDBRANCH  26  27
ENDBRANCH  25  26
ENDBRANCH  24  25
ENDBRANCH  23  24
ENDBRANCH  22  23
ENDBRANCH  21  22
ENDBRANCH  20  21
ENDBRANCH  19  20
ENDBRANCH  18  19
ENDBRANCH  17  18
ENDBRANCH   1  17
TORSDOF 26
ENDMDL
