MODEL 1
REMARK VINA RESULT:    -5.362      0.000      0.000
REMARK INTER + INTRA:         -10.381
REMARK INTER:                  -8.183
REMARK INTRA:                  -2.197
REMARK UNBOUND:                -2.197
REMARK SMILES CC(=O)CCC=C(C)CCC=C(C)CCC=C(C)C
REMARK SMILES IDX 10 1 11 2 12 3 13 4 14 5 15 6 16 7 18 8 17 9 19 10 9 11 7 12
REMARK SMILES IDX 6 13 8 14 5 15 4 16 2 17 3 18 1 19
REMARK H PARENT
REMARK Flexibility Score: inf
ROOT
ATOM      1  C   UNL     1      16.862  -9.190  63.011  1.00  0.00     0.032 C 
ENDROOT
BRANCH   1   2
ATOM      2  C   UNL     1      15.576  -8.445  63.277  1.00  0.00    -0.028 C 
ATOM      3  C   UNL     1      14.603  -8.227  62.364  1.00  0.00    -0.077 C 
ATOM      4  C   UNL     1      13.364  -7.490  62.801  1.00  0.00     0.039 C 
BRANCH   3   5
ATOM      5  C   UNL     1      14.733  -8.623  60.906  1.00  0.00     0.034 C 
BRANCH   5   6
ATOM      6  C   UNL     1      13.640  -9.626  60.521  1.00  0.00     0.032 C 
BRANCH   6   7
ATOM      7  C   UNL     1      14.093 -11.040  60.785  1.00  0.00    -0.028 C 
ATOM      8  C   UNL     1      12.542 -11.345  62.728  1.00  0.00     0.039 C 
ATOM      9  C   UNL     1      13.631 -11.813  61.794  1.00  0.00    -0.080 C 
ATOM     10  C   UNL     1      14.176 -13.204  61.982  1.00  0.00     0.039 C 
ENDBRANCH   6   7
ENDBRANCH   5   6
ENDBRANCH   3   5
ENDBRANCH   1   2
BRANCH   1  11
ATOM     11  C   UNL     1      16.729 -10.685  63.335  1.00  0.00     0.034 C 
BRANCH  11  12
ATOM     12  C   UNL     1      16.561 -10.928  64.822  1.00  0.00    -0.077 C 
ATOM     13  C   UNL     1      17.576 -10.615  65.657  1.00  0.00    -0.028 C 
ATOM     14  C   UNL     1      15.253 -11.491  65.328  1.00  0.00     0.039 C 
BRANCH  13  15
ATOM     15  C   UNL     1      17.560 -10.844  67.150  1.00  0.00     0.035 C 
BRANCH  15  16
ATOM     16  C   UNL     1      18.157  -9.653  67.912  1.00  0.00     0.079 C 
BRANCH  16  17
ATOM     17  C   UNL     1      19.239 -10.090  68.866  1.00  0.00     0.130 C 
ATOM     18  O   UNL     1      19.336  -9.548  69.956  1.00  0.00    -0.300 OA
ATOM     19  C   UNL     1      20.205 -11.180  68.502  1.00  0.00     0.087 C 
ENDBRANCH  16  17
ENDBRANCH  15  16
ENDBRANCH  13  15
ENDBRANCH  11  12
ENDBRANCH   1  11
TORSDOF 9
ENDMDL
MODEL 2
REMARK VINA RESULT:    -5.252      9.344     12.352
REMARK INTER + INTRA:         -10.213
REMARK INTER:                  -7.484
REMARK INTRA:                  -2.728
REMARK UNBOUND:                -2.197
REMARK SMILES CC(=O)CCC=C(C)CCC=C(C)CCC=C(C)C
REMARK SMILES IDX 10 1 11 2 12 3 13 4 14 5 15 6 16 7 18 8 17 9 19 10 9 11 7 12
REMARK SMILES IDX 6 13 8 14 5 15 4 16 2 17 3 18 1 19
REMARK H PARENT
REMARK Flexibility Score: inf
ROOT
ATOM      1  C   UNL     1      11.339  -9.421  53.938  1.00  0.00     0.032 C 
ENDROOT
BRANCH   1   2
ATOM      2  C   UNL     1      12.810  -9.261  54.239  1.00  0.00    -0.028 C 
ATOM      3  C   UNL     1      13.451  -8.077  54.368  1.00  0.00    -0.077 C 
ATOM      4  C   UNL     1      14.920  -8.092  54.701  1.00  0.00     0.039 C 
BRANCH   3   5
ATOM      5  C   UNL     1      12.777  -6.741  54.122  1.00  0.00     0.034 C 
BRANCH   5   6
ATOM      6  C   UNL     1      12.624  -5.966  55.435  1.00  0.00     0.032 C 
BRANCH   6   7
ATOM      7  C   UNL     1      11.282  -6.241  56.065  1.00  0.00    -0.028 C 
ATOM      8  C   UNL     1      12.235  -7.764  57.811  1.00  0.00     0.039 C 
ATOM      9  C   UNL     1      11.088  -7.073  57.113  1.00  0.00    -0.080 C 
ATOM     10  C   UNL     1       9.697  -7.297  57.646  1.00  0.00     0.039 C 
ENDBRANCH   6   7
ENDBRANCH   5   6
ENDBRANCH   3   5
ENDBRANCH   1   2
BRANCH   1  11
ATOM     11  C   UNL     1      10.591 -10.083  55.105  1.00  0.00     0.034 C 
BRANCH  11  12
ATOM     12  C   UNL     1       9.102  -9.807  55.050  1.00  0.00    -0.077 C 
ATOM     13  C   UNL     1       8.656  -8.749  54.337  1.00  0.00    -0.028 C 
ATOM     14  C   UNL     1       8.158 -10.737  55.776  1.00  0.00     0.039 C 
BRANCH  13  15
ATOM     15  C   UNL     1       7.208  -8.334  54.232  1.00  0.00     0.035 C 
BRANCH  15  16
ATOM     16  C   UNL     1       6.851  -7.257  55.266  1.00  0.00     0.079 C 
BRANCH  16  17
ATOM     17  C   UNL     1       5.939  -7.795  56.338  1.00  0.00     0.130 C 
ATOM     18  O   UNL     1       5.206  -8.740  56.087  1.00  0.00    -0.300 OA
ATOM     19  C   UNL     1       5.911  -7.193  57.712  1.00  0.00     0.087 C 
ENDBRANCH  16  17
ENDBRANCH  15  16
ENDBRANCH  13  15
ENDBRANCH  11  12
ENDBRANCH   1  11
TORSDOF 9
ENDMDL
MODEL 3
REMARK VINA RESULT:    -5.220      1.111      3.125
REMARK INTER + INTRA:         -10.164
REMARK INTER:                  -8.246
REMARK INTRA:                  -1.918
REMARK UNBOUND:                -2.197
REMARK SMILES CC(=O)CCC=C(C)CCC=C(C)CCC=C(C)C
REMARK SMILES IDX 10 1 11 2 12 3 13 4 14 5 15 6 16 7 18 8 17 9 19 10 9 11 7 12
REMARK SMILES IDX 6 13 8 14 5 15 4 16 2 17 3 18 1 19
REMARK H PARENT
REMARK Flexibility Score: inf
ROOT
ATOM      1  C   UNL     1      16.501 -11.641  62.744  1.00  0.00     0.032 C 
ENDROOT
BRANCH   1   2
ATOM      2  C   UNL     1      15.663 -12.757  62.167  1.00  0.00    -0.028 C 
ATOM      3  C   UNL     1      14.363 -12.984  62.464  1.00  0.00    -0.077 C 
ATOM      4  C   UNL     1      13.662 -14.125  61.776  1.00  0.00     0.039 C 
BRANCH   3   5
ATOM      5  C   UNL     1      13.603 -12.189  63.507  1.00  0.00     0.034 C 
BRANCH   5   6
ATOM      6  C   UNL     1      12.717 -11.132  62.839  1.00  0.00     0.032 C 
BRANCH   6   7
ATOM      7  C   UNL     1      13.402  -9.788  62.830  1.00  0.00    -0.028 C 
ATOM      8  C   UNL     1      13.903  -9.882  60.377  1.00  0.00     0.039 C 
ATOM      9  C   UNL     1      13.969  -9.229  61.737  1.00  0.00    -0.080 C 
ATOM     10  C   UNL     1      14.653  -7.892  61.848  1.00  0.00     0.039 C 
ENDBRANCH   6   7
ENDBRANCH   5   6
ENDBRANCH   3   5
ENDBRANCH   1   2
BRANCH   1  11
ATOM     11  C   UNL     1      17.151 -12.050  64.074  1.00  0.00     0.034 C 
BRANCH  11  12
ATOM     12  C   UNL     1      17.054 -10.950  65.112  1.00  0.00    -0.077 C 
ATOM     13  C   UNL     1      17.489 -11.192  66.369  1.00  0.00    -0.028 C 
ATOM     14  C   UNL     1      16.494  -9.607  64.705  1.00  0.00     0.039 C 
BRANCH  13  15
ATOM     15  C   UNL     1      17.412 -10.205  67.509  1.00  0.00     0.035 C 
BRANCH  15  16
ATOM     16  C   UNL     1      18.794  -9.640  67.863  1.00  0.00     0.079 C 
BRANCH  16  17
ATOM     17  C   UNL     1      19.301 -10.193  69.171  1.00  0.00     0.130 C 
ATOM     18  O   UNL     1      19.360  -9.465  70.150  1.00  0.00    -0.300 OA
ATOM     19  C   UNL     1      19.738 -11.624  69.294  1.00  0.00     0.087 C 
ENDBRANCH  16  17
ENDBRANCH  15  16
ENDBRANCH  13  15
ENDBRANCH  11  12
ENDBRANCH   1  11
TORSDOF 9
ENDMDL
MODEL 4
REMARK VINA RESULT:    -5.199     12.280     15.648
REMARK INTER + INTRA:         -10.132
REMARK INTER:                  -7.084
REMARK INTRA:                  -3.048
REMARK UNBOUND:                -2.197
REMARK SMILES CC(=O)CCC=C(C)CCC=C(C)CCC=C(C)C
REMARK SMILES IDX 10 1 11 2 12 3 13 4 14 5 15 6 16 7 18 8 17 9 19 10 9 11 7 12
REMARK SMILES IDX 6 13 8 14 5 15 4 16 2 17 3 18 1 19
REMARK H PARENT
REMARK Flexibility Score: inf
ROOT
ATOM      1  C   UNL     1       6.059   0.408  60.945  1.00  0.00     0.032 C 
ENDROOT
BRANCH   1   2
ATOM      2  C   UNL     1       5.365   0.226  62.273  1.00  0.00    -0.028 C 
ATOM      3  C   UNL     1       5.946   0.400  63.482  1.00  0.00    -0.077 C 
ATOM      4  C   UNL     1       5.104   0.207  64.715  1.00  0.00     0.039 C 
BRANCH   3   5
ATOM      5  C   UNL     1       7.421   0.709  63.654  1.00  0.00     0.034 C 
BRANCH   5   6
ATOM      6  C   UNL     1       7.612   1.962  64.515  1.00  0.00     0.032 C 
BRANCH   6   7
ATOM      7  C   UNL     1       8.118   3.113  63.682  1.00  0.00    -0.028 C 
ATOM      8  C   UNL     1       5.845   4.135  63.427  1.00  0.00     0.039 C 
ATOM      9  C   UNL     1       7.329   4.079  63.158  1.00  0.00    -0.080 C 
ATOM     10  C   UNL     1       7.938   5.168  62.314  1.00  0.00     0.039 C 
ENDBRANCH   6   7
ENDBRANCH   5   6
ENDBRANCH   3   5
ENDBRANCH   1   2
BRANCH   1  11
ATOM     11  C   UNL     1       5.921   1.848  60.427  1.00  0.00     0.034 C 
BRANCH  11  12
ATOM     12  C   UNL     1       7.230   2.378  59.878  1.00  0.00    -0.077 C 
ATOM     13  C   UNL     1       8.391   1.835  60.308  1.00  0.00    -0.028 C 
ATOM     14  C   UNL     1       7.198   3.484  58.849  1.00  0.00     0.039 C 
BRANCH  13  15
ATOM     15  C   UNL     1       9.764   2.294  59.878  1.00  0.00     0.035 C 
BRANCH  15  16
ATOM     16  C   UNL     1      10.691   2.510  61.082  1.00  0.00     0.079 C 
BRANCH  16  17
ATOM     17  C   UNL     1      11.050   1.207  61.749  1.00  0.00     0.130 C 
ATOM     18  O   UNL     1      10.838   1.063  62.942  1.00  0.00    -0.300 OA
ATOM     19  C   UNL     1      11.665   0.079  60.973  1.00  0.00     0.087 C 
ENDBRANCH  16  17
ENDBRANCH  15  16
ENDBRANCH  13  15
ENDBRANCH  11  12
ENDBRANCH   1  11
TORSDOF 9
ENDMDL
MODEL 5
REMARK VINA RESULT:    -5.198      3.355      7.724
REMARK INTER + INTRA:         -10.131
REMARK INTER:                  -8.242
REMARK INTRA:                  -1.889
REMARK UNBOUND:                -2.197
REMARK SMILES CC(=O)CCC=C(C)CCC=C(C)CCC=C(C)C
REMARK SMILES IDX 10 1 11 2 12 3 13 4 14 5 15 6 16 7 18 8 17 9 19 10 9 11 7 12
REMARK SMILES IDX 6 13 8 14 5 15 4 16 2 17 3 18 1 19
REMARK H PARENT
REMARK Flexibility Score: inf
ROOT
ATOM      1  C   UNL     1      18.973 -10.311  67.341  1.00  0.00     0.032 C 
ENDROOT
BRANCH   1   2
ATOM      2  C   UNL     1      20.318 -10.705  66.780  1.00  0.00    -0.028 C 
ATOM      3  C   UNL     1      20.596 -11.891  66.193  1.00  0.00    -0.077 C 
ATOM      4  C   UNL     1      21.985 -12.115  65.657  1.00  0.00     0.039 C 
BRANCH   3   5
ATOM      5  C   UNL     1      19.597 -13.030  66.116  1.00  0.00     0.034 C 
BRANCH   5   6
ATOM      6  C   UNL     1      19.918 -14.100  67.166  1.00  0.00     0.032 C 
BRANCH   6   7
ATOM      7  C   UNL     1      18.935 -14.040  68.308  1.00  0.00    -0.028 C 
ATOM      8  C   UNL     1      20.519 -12.820  69.818  1.00  0.00     0.039 C 
ATOM      9  C   UNL     1      19.204 -13.497  69.517  1.00  0.00    -0.080 C 
ATOM     10  C   UNL     1      18.154 -13.518  70.598  1.00  0.00     0.039 C 
ENDBRANCH   6   7
ENDBRANCH   5   6
ENDBRANCH   3   5
ENDBRANCH   1   2
BRANCH   1  11
ATOM     11  C   UNL     1      17.991  -9.908  66.230  1.00  0.00     0.034 C 
BRANCH  11  12
ATOM     12  C   UNL     1      16.766 -10.799  66.210  1.00  0.00    -0.077 C 
ATOM     13  C   UNL     1      16.011 -10.852  65.089  1.00  0.00    -0.028 C 
ATOM     14  C   UNL     1      16.436 -11.618  67.435  1.00  0.00     0.039 C 
BRANCH  13  15
ATOM     15  C   UNL     1      14.744 -11.661  64.945  1.00  0.00     0.035 C 
BRANCH  15  16
ATOM     16  C   UNL     1      13.732 -10.969  64.023  1.00  0.00     0.079 C 
BRANCH  16  17
ATOM     17  C   UNL     1      12.679 -11.930  63.532  1.00  0.00     0.130 C 
ATOM     18  O   UNL     1      11.563 -11.515  63.263  1.00  0.00    -0.300 OA
ATOM     19  C   UNL     1      12.976 -13.392  63.367  1.00  0.00     0.087 C 
ENDBRANCH  16  17
ENDBRANCH  15  16
ENDBRANCH  13  15
ENDBRANCH  11  12
ENDBRANCH   1  11
TORSDOF 9
ENDMDL
MODEL 6
REMARK VINA RESULT:    -5.117      8.226     11.174
REMARK INTER + INTRA:         -10.006
REMARK INTER:                  -7.093
REMARK INTRA:                  -2.912
REMARK UNBOUND:                -2.197
REMARK SMILES CC(=O)CCC=C(C)CCC=C(C)CCC=C(C)C
REMARK SMILES IDX 10 1 11 2 12 3 13 4 14 5 15 6 16 7 18 8 17 9 19 10 9 11 7 12
REMARK SMILES IDX 6 13 8 14 5 15 4 16 2 17 3 18 1 19
REMARK H PARENT
REMARK Flexibility Score: inf
ROOT
ATOM      1  C   UNL     1       7.677  -8.653  54.573  1.00  0.00     0.032 C 
ENDROOT
BRANCH   1   2
ATOM      2  C   UNL     1       6.702  -7.662  55.161  1.00  0.00    -0.028 C 
ATOM      3  C   UNL     1       5.934  -7.883  56.252  1.00  0.00    -0.077 C 
ATOM      4  C   UNL     1       5.033  -6.774  56.729  1.00  0.00     0.039 C 
BRANCH   3   5
ATOM      5  C   UNL     1       5.886  -9.216  56.973  1.00  0.00     0.034 C 
BRANCH   5   6
ATOM      6  C   UNL     1       6.275  -9.047  58.445  1.00  0.00     0.032 C 
BRANCH   6   7
ATOM      7  C   UNL     1       7.722  -9.416  58.662  1.00  0.00    -0.028 C 
ATOM      8  C   UNL     1       8.443  -7.042  59.005  1.00  0.00     0.039 C 
ATOM      9  C   UNL     1       8.712  -8.522  58.882  1.00  0.00    -0.080 C 
ATOM     10  C   UNL     1      10.129  -9.001  59.057  1.00  0.00     0.039 C 
ENDBRANCH   6   7
ENDBRANCH   5   6
ENDBRANCH   3   5
ENDBRANCH   1   2
BRANCH   1  11
ATOM     11  C   UNL     1       9.101  -8.432  55.107  1.00  0.00     0.034 C 
BRANCH  11  12
ATOM     12  C   UNL     1       9.816  -9.742  55.367  1.00  0.00    -0.077 C 
ATOM     13  C   UNL     1       9.090 -10.832  55.704  1.00  0.00    -0.028 C 
ATOM     14  C   UNL     1      11.319  -9.797  55.219  1.00  0.00     0.039 C 
BRANCH  13  15
ATOM     15  C   UNL     1       9.675 -12.185  56.032  1.00  0.00     0.035 C 
BRANCH  15  16
ATOM     16  C   UNL     1      10.041 -12.299  57.518  1.00  0.00     0.079 C 
BRANCH  16  17
ATOM     17  C   UNL     1      11.484 -12.694  57.706  1.00  0.00     0.130 C 
ATOM     18  O   UNL     1      11.841 -13.825  57.416  1.00  0.00    -0.300 OA
ATOM     19  C   UNL     1      12.493 -11.723  58.246  1.00  0.00     0.087 C 
ENDBRANCH  16  17
ENDBRANCH  15  16
ENDBRANCH  13  15
ENDBRANCH  11  12
ENDBRANCH   1  11
TORSDOF 9
ENDMDL
MODEL 7
REMARK VINA RESULT:    -5.104     11.918     14.776
REMARK INTER + INTRA:          -9.987
REMARK INTER:                  -7.165
REMARK INTRA:                  -2.822
REMARK UNBOUND:                -2.197
REMARK SMILES CC(=O)CCC=C(C)CCC=C(C)CCC=C(C)C
REMARK SMILES IDX 10 1 11 2 12 3 13 4 14 5 15 6 16 7 18 8 17 9 19 10 9 11 7 12
REMARK SMILES IDX 6 13 8 14 5 15 4 16 2 17 3 18 1 19
REMARK H PARENT
REMARK Flexibility Score: inf
ROOT
ATOM      1  C   UNL     1       6.678   1.538  64.674  1.00  0.00     0.032 C 
ENDROOT
BRANCH   1   2
ATOM      2  C   UNL     1       5.929   2.798  64.313  1.00  0.00    -0.028 C 
ATOM      3  C   UNL     1       6.405   3.783  63.517  1.00  0.00    -0.077 C 
ATOM      4  C   UNL     1       5.515   4.964  63.231  1.00  0.00     0.039 C 
BRANCH   3   5
ATOM      5  C   UNL     1       7.815   3.786  62.960  1.00  0.00     0.034 C 
BRANCH   5   6
ATOM      6  C   UNL     1       7.818   4.272  61.506  1.00  0.00     0.032 C 
BRANCH   6   7
ATOM      7  C   UNL     1       8.272   3.174  60.576  1.00  0.00    -0.028 C 
ATOM      8  C   UNL     1       5.960   2.258  60.273  1.00  0.00     0.039 C 
ATOM      9  C   UNL     1       7.451   2.242  60.041  1.00  0.00    -0.080 C 
ATOM     10  C   UNL     1       8.017   1.171  59.145  1.00  0.00     0.039 C 
ENDBRANCH   6   7
ENDBRANCH   5   6
ENDBRANCH   3   5
ENDBRANCH   1   2
BRANCH   1  11
ATOM     11  C   UNL     1       6.132   0.319  63.916  1.00  0.00     0.034 C 
BRANCH  11  12
ATOM     12  C   UNL     1       7.138  -0.225  62.921  1.00  0.00    -0.077 C 
ATOM     13  C   UNL     1       8.447   0.072  63.082  1.00  0.00    -0.028 C 
ATOM     14  C   UNL     1       6.649  -1.101  61.792  1.00  0.00     0.039 C 
BRANCH  13  15
ATOM     15  C   UNL     1       9.547  -0.366  62.144  1.00  0.00     0.035 C 
BRANCH  15  16
ATOM     16  C   UNL     1      10.634   0.708  62.007  1.00  0.00     0.079 C 
BRANCH  16  17
ATOM     17  C   UNL     1      11.987   0.098  61.737  1.00  0.00     0.130 C 
ATOM     18  O   UNL     1      12.370  -0.841  62.416  1.00  0.00    -0.300 OA
ATOM     19  C   UNL     1      12.874   0.625  60.647  1.00  0.00     0.087 C 
ENDBRANCH  16  17
ENDBRANCH  15  16
ENDBRANCH  13  15
ENDBRANCH  11  12
ENDBRANCH   1  11
TORSDOF 9
ENDMDL
MODEL 8
REMARK VINA RESULT:    -5.079     13.871     16.326
REMARK INTER + INTRA:          -9.948
REMARK INTER:                  -6.959
REMARK INTRA:                  -2.989
REMARK UNBOUND:                -2.197
REMARK SMILES CC(=O)CCC=C(C)CCC=C(C)CCC=C(C)C
REMARK SMILES IDX 10 1 11 2 12 3 13 4 14 5 15 6 16 7 18 8 17 9 19 10 9 11 7 12
REMARK SMILES IDX 6 13 8 14 5 15 4 16 2 17 3 18 1 19
REMARK H PARENT
REMARK Flexibility Score: inf
ROOT
ATOM      1  C   UNL     1       5.950   4.456  62.878  1.00  0.00     0.032 C 
ENDROOT
BRANCH   1   2
ATOM      2  C   UNL     1       5.628   3.769  64.184  1.00  0.00    -0.028 C 
ATOM      3  C   UNL     1       5.700   2.435  64.397  1.00  0.00    -0.077 C 
ATOM      4  C   UNL     1       5.373   1.912  65.771  1.00  0.00     0.039 C 
BRANCH   3   5
ATOM      5  C   UNL     1       6.022   1.439  63.300  1.00  0.00     0.034 C 
BRANCH   5   6
ATOM      6  C   UNL     1       7.168   0.516  63.731  1.00  0.00     0.032 C 
BRANCH   6   7
ATOM      7  C   UNL     1       8.382   0.730  62.862  1.00  0.00    -0.028 C 
ATOM      8  C   UNL     1       9.386   2.428  64.407  1.00  0.00     0.039 C 
ATOM      9  C   UNL     1       9.371   1.610  63.138  1.00  0.00    -0.080 C 
ATOM     10  C   UNL     1      10.527   1.763  62.184  1.00  0.00     0.039 C 
ENDBRANCH   6   7
ENDBRANCH   5   6
ENDBRANCH   3   5
ENDBRANCH   1   2
BRANCH   1  11
ATOM     11  C   UNL     1       7.392   4.984  62.857  1.00  0.00     0.034 C 
BRANCH  11  12
ATOM     12  C   UNL     1       8.104   4.629  61.568  1.00  0.00    -0.077 C 
ATOM     13  C   UNL     1       7.516   3.768  60.708  1.00  0.00    -0.028 C 
ATOM     14  C   UNL     1       9.441   5.268  61.270  1.00  0.00     0.039 C 
BRANCH  13  15
ATOM     15  C   UNL     1       8.131   3.295  59.412  1.00  0.00     0.035 C 
BRANCH  15  16
ATOM     16  C   UNL     1       8.060   1.768  59.275  1.00  0.00     0.079 C 
BRANCH  16  17
ATOM     17  C   UNL     1       9.341   1.200  58.718  1.00  0.00     0.130 C 
ATOM     18  O   UNL     1       9.758   0.132  59.138  1.00  0.00    -0.300 OA
ATOM     19  C   UNL     1      10.117   1.924  57.656  1.00  0.00     0.087 C 
ENDBRANCH  16  17
ENDBRANCH  15  16
ENDBRANCH  13  15
ENDBRANCH  11  12
ENDBRANCH   1  11
TORSDOF 9
ENDMDL
MODEL 9
REMARK VINA RESULT:    -5.027      3.872      6.515
REMARK INTER + INTRA:          -9.869
REMARK INTER:                  -7.101
REMARK INTRA:                  -2.767
REMARK UNBOUND:                -2.197
REMARK SMILES CC(=O)CCC=C(C)CCC=C(C)CCC=C(C)C
REMARK SMILES IDX 10 1 11 2 12 3 13 4 14 5 15 6 16 7 18 8 17 9 19 10 9 11 7 12
REMARK SMILES IDX 6 13 8 14 5 15 4 16 2 17 3 18 1 19
REMARK H PARENT
REMARK Flexibility Score: inf
ROOT
ATOM      1  C   UNL     1      15.748  -8.446  63.280  1.00  0.00     0.032 C 
ENDROOT
BRANCH   1   2
ATOM      2  C   UNL     1      16.149  -9.891  63.451  1.00  0.00    -0.028 C 
ATOM      3  C   UNL     1      15.299 -10.904  63.732  1.00  0.00    -0.077 C 
ATOM      4  C   UNL     1      15.858 -12.298  63.840  1.00  0.00     0.039 C 
BRANCH   3   5
ATOM      5  C   UNL     1      13.824 -10.692  64.013  1.00  0.00     0.034 C 
BRANCH   5   6
ATOM      6  C   UNL     1      12.970 -11.611  63.132  1.00  0.00     0.032 C 
BRANCH   6   7
ATOM      7  C   UNL     1      12.034 -10.805  62.266  1.00  0.00    -0.028 C 
ATOM      8  C   UNL     1      13.512 -10.958  60.249  1.00  0.00     0.039 C 
ATOM      9  C   UNL     1      12.281 -10.476  60.978  1.00  0.00    -0.080 C 
ATOM     10  C   UNL     1      11.288  -9.641  60.214  1.00  0.00     0.039 C 
ENDBRANCH   6   7
ENDBRANCH   5   6
ENDBRANCH   3   5
ENDBRANCH   1   2
BRANCH   1  11
ATOM     11  C   UNL     1      15.539  -8.087  61.801  1.00  0.00     0.034 C 
BRANCH  11  12
ATOM     12  C   UNL     1      14.193  -7.433  61.563  1.00  0.00    -0.077 C 
ATOM     13  C   UNL     1      13.357  -7.250  62.610  1.00  0.00    -0.028 C 
ATOM     14  C   UNL     1      13.835  -6.983  60.166  1.00  0.00     0.039 C 
BRANCH  13  15
ATOM     15  C   UNL     1      11.974  -6.652  62.509  1.00  0.00     0.035 C 
BRANCH  15  16
ATOM     16  C   UNL     1      11.654  -5.760  63.716  1.00  0.00     0.079 C 
BRANCH  16  17
ATOM     17  C   UNL     1      11.609  -4.302  63.333  1.00  0.00     0.130 C 
ATOM     18  O   UNL     1      11.285  -3.471  64.166  1.00  0.00    -0.300 OA
ATOM     19  C   UNL     1      11.955  -3.851  61.944  1.00  0.00     0.087 C 
ENDBRANCH  16  17
ENDBRANCH  15  16
ENDBRANCH  13  15
ENDBRANCH  11  12
ENDBRANCH   1  11
TORSDOF 9
ENDMDL
