MODEL 1
REMARK VINA RESULT:    -2.524      0.000      0.000
REMARK INTER + INTRA:          -2.524
REMARK INTER:                  -2.524
REMARK INTRA:                   0.000
REMARK UNBOUND:                 0.000
REMARK SMILES CC1(C)O[C@]2(C)CC[C@H]1CC2
REMARK SMILES IDX 1 1 2 2 9 3 10 4 11 5 5 6 4 7 7 8 8 9 6 10 3 11
REMARK H PARENT
REMARK Flexibility Score: inf
ROOT
ATOM      1  C   UNL     1      10.051  -3.622   3.508  1.00  0.00     0.042 C 
ATOM      2  C   UNL     1      10.580  -2.355   2.801  1.00  0.00     0.066 C 
ATOM      3  C   UNL     1       9.599  -1.140   3.026  1.00  0.00     0.021 C 
ATOM      4  C   UNL     1      10.149   0.084   2.256  1.00  0.00     0.009 C 
ATOM      5  C   UNL     1      10.433  -0.325   0.789  1.00  0.00     0.035 C 
ATOM      6  C   UNL     1       9.985  -1.796   0.555  1.00  0.00     0.066 C 
ATOM      7  O   UNL     1      10.742  -2.657   1.407  1.00  0.00    -0.369 OA
ATOM      8  C   UNL     1       8.476  -1.928   0.908  1.00  0.00     0.035 C 
ATOM      9  C   UNL     1       8.238  -1.482   2.372  1.00  0.00     0.009 C 
ATOM     10  C   UNL     1      10.229  -2.203  -0.901  1.00  0.00     0.042 C 
ATOM     11  C   UNL     1      11.973  -2.048   3.391  1.00  0.00     0.042 C 
ENDROOT
TORSDOF 0
ENDMDL
MODEL 2
REMARK VINA RESULT:    -2.515      1.260      2.092
REMARK INTER + INTRA:          -2.515
REMARK INTER:                  -2.515
REMARK INTRA:                   0.000
REMARK UNBOUND:                 0.000
REMARK SMILES CC1(C)O[C@]2(C)CC[C@H]1CC2
REMARK SMILES IDX 1 1 2 2 9 3 10 4 11 5 5 6 4 7 7 8 8 9 6 10 3 11
REMARK H PARENT
REMARK Flexibility Score: inf
ROOT
ATOM      1  C   UNL     1      12.289  -3.323   1.407  1.00  0.00     0.042 C 
ATOM      2  C   UNL     1      11.679  -2.111   2.144  1.00  0.00     0.066 C 
ATOM      3  C   UNL     1      10.115  -2.270   2.280  1.00  0.00     0.021 C 
ATOM      4  C   UNL     1       9.552  -1.009   2.977  1.00  0.00     0.009 C 
ATOM      5  C   UNL     1      10.066   0.252   2.239  1.00  0.00     0.035 C 
ATOM      6  C   UNL     1      10.897  -0.169   0.992  1.00  0.00     0.066 C 
ATOM      7  O   UNL     1      12.032  -0.924   1.419  1.00  0.00    -0.369 OA
ATOM      8  C   UNL     1      10.011  -1.056   0.071  1.00  0.00     0.035 C 
ATOM      9  C   UNL     1       9.500  -2.286   0.860  1.00  0.00     0.009 C 
ATOM     10  C   UNL     1      11.383   1.069   0.233  1.00  0.00     0.042 C 
ATOM     11  C   UNL     1      12.343  -2.039   3.536  1.00  0.00     0.042 C 
ENDROOT
TORSDOF 0
ENDMDL
MODEL 3
REMARK VINA RESULT:    -2.508      1.254      3.003
REMARK INTER + INTRA:          -2.508
REMARK INTER:                  -2.508
REMARK INTRA:                   0.000
REMARK UNBOUND:                 0.000
REMARK SMILES CC1(C)O[C@]2(C)CC[C@H]1CC2
REMARK SMILES IDX 1 1 2 2 9 3 10 4 11 5 5 6 4 7 7 8 8 9 6 10 3 11
REMARK H PARENT
REMARK Flexibility Score: inf
ROOT
ATOM      1  C   UNL     1      12.836  -1.898   1.963  1.00  0.00     0.042 C 
ATOM      2  C   UNL     1      11.400  -2.312   1.578  1.00  0.00     0.066 C 
ATOM      3  C   UNL     1      10.814  -1.340   0.481  1.00  0.00     0.021 C 
ATOM      4  C   UNL     1       9.360  -1.769   0.172  1.00  0.00     0.009 C 
ATOM      5  C   UNL     1       8.570  -1.884   1.499  1.00  0.00     0.035 C 
ATOM      6  C   UNL     1       9.471  -1.442   2.688  1.00  0.00     0.066 C 
ATOM      7  O   UNL     1      10.600  -2.313   2.770  1.00  0.00    -0.369 OA
ATOM      8  C   UNL     1       9.965   0.011   2.435  1.00  0.00     0.035 C 
ATOM      9  C   UNL     1      10.722   0.081   1.087  1.00  0.00     0.009 C 
ATOM     10  C   UNL     1       8.692  -1.519   4.004  1.00  0.00     0.042 C 
ATOM     11  C   UNL     1      11.467  -3.759   1.044  1.00  0.00     0.042 C 
ENDROOT
TORSDOF 0
ENDMDL
MODEL 4
REMARK VINA RESULT:    -2.486      8.756     10.115
REMARK INTER + INTRA:          -2.486
REMARK INTER:                  -2.486
REMARK INTRA:                   0.000
REMARK UNBOUND:                 0.000
REMARK SMILES CC1(C)O[C@]2(C)CC[C@H]1CC2
REMARK SMILES IDX 1 1 2 2 9 3 10 4 11 5 5 6 4 7 7 8 8 9 6 10 3 11
REMARK H PARENT
REMARK Flexibility Score: inf
ROOT
ATOM      1  C   UNL     1       6.633   5.398   6.902  1.00  0.00     0.042 C 
ATOM      2  C   UNL     1       7.893   5.995   7.566  1.00  0.00     0.066 C 
ATOM      3  C   UNL     1       7.881   7.570   7.472  1.00  0.00     0.021 C 
ATOM      4  C   UNL     1       9.185   8.110   8.104  1.00  0.00     0.009 C 
ATOM      5  C   UNL     1      10.396   7.381   7.472  1.00  0.00     0.035 C 
ATOM      6  C   UNL     1       9.906   6.420   6.350  1.00  0.00     0.066 C 
ATOM      7  O   UNL     1       9.046   5.433   6.922  1.00  0.00    -0.369 OA
ATOM      8  C   UNL     1       9.111   7.239   5.294  1.00  0.00     0.035 C 
ATOM      9  C   UNL     1       7.930   7.971   5.978  1.00  0.00     0.009 C 
ATOM     10  C   UNL     1      11.097   5.716   5.693  1.00  0.00     0.042 C 
ATOM     11  C   UNL     1       7.896   5.536   9.040  1.00  0.00     0.042 C 
ENDROOT
TORSDOF 0
ENDMDL
MODEL 5
REMARK VINA RESULT:    -2.464      1.283      2.376
REMARK INTER + INTRA:          -2.464
REMARK INTER:                  -2.464
REMARK INTRA:                   0.000
REMARK UNBOUND:                 0.000
REMARK SMILES CC1(C)O[C@]2(C)CC[C@H]1CC2
REMARK SMILES IDX 1 1 2 2 9 3 10 4 11 5 5 6 4 7 7 8 8 9 6 10 3 11
REMARK H PARENT
REMARK Flexibility Score: inf
ROOT
ATOM      1  C   UNL     1       8.138  -2.047   1.239  1.00  0.00     0.042 C 
ATOM      2  C   UNL     1       9.631  -2.319   1.525  1.00  0.00     0.066 C 
ATOM      3  C   UNL     1      10.123  -1.479   2.767  1.00  0.00     0.021 C 
ATOM      4  C   UNL     1      11.631  -1.749   2.976  1.00  0.00     0.009 C 
ATOM      5  C   UNL     1      12.378  -1.523   1.639  1.00  0.00     0.035 C 
ATOM      6  C   UNL     1      11.382  -1.011   0.559  1.00  0.00     0.066 C 
ATOM      7  O   UNL     1      10.378  -2.003   0.340  1.00  0.00    -0.369 OA
ATOM      8  C   UNL     1      10.708   0.294   1.070  1.00  0.00     0.035 C 
ATOM      9  C   UNL     1      10.001   0.025   2.421  1.00  0.00     0.009 C 
ATOM     10  C   UNL     1      12.114  -0.751  -0.761  1.00  0.00     0.042 C 
ATOM     11  C   UNL     1       9.778  -3.831   1.797  1.00  0.00     0.042 C 
ENDROOT
TORSDOF 0
ENDMDL
MODEL 6
REMARK VINA RESULT:    -2.454      1.671      3.530
REMARK INTER + INTRA:          -2.454
REMARK INTER:                  -2.454
REMARK INTRA:                   0.000
REMARK UNBOUND:                 0.000
REMARK SMILES CC1(C)O[C@]2(C)CC[C@H]1CC2
REMARK SMILES IDX 1 1 2 2 9 3 10 4 11 5 5 6 4 7 7 8 8 9 6 10 3 11
REMARK H PARENT
REMARK Flexibility Score: inf
ROOT
ATOM      1  C   UNL     1      10.126  -0.013   2.024  1.00  0.00     0.042 C 
ATOM      2  C   UNL     1      10.015  -1.393   2.708  1.00  0.00     0.066 C 
ATOM      3  C   UNL     1       9.408  -2.460   1.717  1.00  0.00     0.021 C 
ATOM      4  C   UNL     1       9.272  -3.806   2.468  1.00  0.00     0.009 C 
ATOM      5  C   UNL     1       8.510  -3.572   3.796  1.00  0.00     0.035 C 
ATOM      6  C   UNL     1       8.057  -2.086   3.889  1.00  0.00     0.066 C 
ATOM      7  O   UNL     1       9.209  -1.243   3.887  1.00  0.00    -0.369 OA
ATOM      8  C   UNL     1       7.175  -1.748   2.652  1.00  0.00     0.035 C 
ATOM      9  C   UNL     1       7.968  -2.025   1.351  1.00  0.00     0.009 C 
ATOM     10  C   UNL     1       7.273  -1.848   5.183  1.00  0.00     0.042 C 
ATOM     11  C   UNL     1      11.437  -1.804   3.147  1.00  0.00     0.042 C 
ENDROOT
TORSDOF 0
ENDMDL
MODEL 7
REMARK VINA RESULT:    -2.447      1.263      3.260
REMARK INTER + INTRA:          -2.447
REMARK INTER:                  -2.447
REMARK INTRA:                   0.000
REMARK UNBOUND:                 0.000
REMARK SMILES CC1(C)O[C@]2(C)CC[C@H]1CC2
REMARK SMILES IDX 1 1 2 2 9 3 10 4 11 5 5 6 4 7 7 8 8 9 6 10 3 11
REMARK H PARENT
REMARK Flexibility Score: inf
ROOT
ATOM      1  C   UNL     1      10.933  -3.598   0.170  1.00  0.00     0.042 C 
ATOM      2  C   UNL     1      10.426  -2.167   0.449  1.00  0.00     0.066 C 
ATOM      3  C   UNL     1      11.636  -1.178   0.663  1.00  0.00     0.021 C 
ATOM      4  C   UNL     1      11.072   0.226   0.988  1.00  0.00     0.009 C 
ATOM      5  C   UNL     1      10.052   0.107   2.148  1.00  0.00     0.035 C 
ATOM      6  C   UNL     1      10.004  -1.362   2.659  1.00  0.00     0.066 C 
ATOM      7  O   UNL     1       9.567  -2.213   1.599  1.00  0.00    -0.369 OA
ATOM      8  C   UNL     1      11.433  -1.791   3.102  1.00  0.00     0.035 C 
ATOM      9  C   UNL     1      12.419  -1.627   1.920  1.00  0.00     0.009 C 
ATOM     10  C   UNL     1       9.024  -1.488   3.829  1.00  0.00     0.042 C 
ATOM     11  C   UNL     1       9.577  -1.736  -0.767  1.00  0.00     0.042 C 
ENDROOT
TORSDOF 0
ENDMDL
MODEL 8
REMARK VINA RESULT:    -2.432      9.433     10.502
REMARK INTER + INTRA:          -2.432
REMARK INTER:                  -2.432
REMARK INTRA:                   0.000
REMARK UNBOUND:                 0.000
REMARK SMILES CC1(C)O[C@]2(C)CC[C@H]1CC2
REMARK SMILES IDX 1 1 2 2 9 3 10 4 11 5 5 6 4 7 7 8 8 9 6 10 3 11
REMARK H PARENT
REMARK Flexibility Score: inf
ROOT
ATOM      1  C   UNL     1       7.752   5.078   9.116  1.00  0.00     0.042 C 
ATOM      2  C   UNL     1       7.771   5.913   7.817  1.00  0.00     0.066 C 
ATOM      3  C   UNL     1       7.446   7.426   8.120  1.00  0.00     0.021 C 
ATOM      4  C   UNL     1       7.428   8.202   6.782  1.00  0.00     0.009 C 
ATOM      5  C   UNL     1       6.495   7.473   5.784  1.00  0.00     0.035 C 
ATOM      6  C   UNL     1       5.817   6.261   6.486  1.00  0.00     0.066 C 
ATOM      7  O   UNL     1       6.824   5.338   6.904  1.00  0.00    -0.369 OA
ATOM      8  C   UNL     1       5.041   6.769   7.735  1.00  0.00     0.035 C 
ATOM      9  C   UNL     1       6.008   7.514   8.687  1.00  0.00     0.009 C 
ATOM     10  C   UNL     1       4.865   5.550   5.520  1.00  0.00     0.042 C 
ATOM     11  C   UNL     1       9.179   5.769   7.200  1.00  0.00     0.042 C 
ENDROOT
TORSDOF 0
ENDMDL
MODEL 9
REMARK VINA RESULT:    -2.409      1.224      2.057
REMARK INTER + INTRA:          -2.409
REMARK INTER:                  -2.409
REMARK INTRA:                   0.000
REMARK UNBOUND:                 0.000
REMARK SMILES CC1(C)O[C@]2(C)CC[C@H]1CC2
REMARK SMILES IDX 1 1 2 2 9 3 10 4 11 5 5 6 4 7 7 8 8 9 6 10 3 11
REMARK H PARENT
REMARK Flexibility Score: inf
ROOT
ATOM      1  C   UNL     1      12.225  -1.918   3.229  1.00  0.00     0.042 C 
ATOM      2  C   UNL     1      11.762  -1.775   1.763  1.00  0.00     0.066 C 
ATOM      3  C   UNL     1      11.194  -0.327   1.497  1.00  0.00     0.021 C 
ATOM      4  C   UNL     1      10.699  -0.256   0.033  1.00  0.00     0.009 C 
ATOM      5  C   UNL     1       9.743  -1.444  -0.239  1.00  0.00     0.035 C 
ATOM      6  C   UNL     1       9.527  -2.257   1.070  1.00  0.00     0.066 C 
ATOM      7  O   UNL     1      10.779  -2.788   1.505  1.00  0.00    -0.369 OA
ATOM      8  C   UNL     1       8.968  -1.306   2.168  1.00  0.00     0.035 C 
ATOM      9  C   UNL     1       9.942  -0.123   2.383  1.00  0.00     0.009 C 
ATOM     10  C   UNL     1       8.557  -3.416   0.824  1.00  0.00     0.042 C 
ATOM     11  C   UNL     1      12.987  -2.054   0.866  1.00  0.00     0.042 C 
ENDROOT
TORSDOF 0
ENDMDL
