MODEL 1
REMARK VINA RESULT:    -5.236      0.000      0.000
REMARK INTER + INTRA:          -8.615
REMARK INTER:                  -7.991
REMARK INTRA:                  -0.624
REMARK UNBOUND:                -0.624
REMARK SMILES OC[C@@H]1O[C@H](O[C@]2(CO)O[C@H](CO)[C@H](O)[C@H]2O)[C@@H](O)[C@@H](O)[C@@H]1O
REMARK SMILES IDX 6 1 5 2 3 3 22 4 4 5 20 6 18 7 2 8 1 9 23 11 21 13 19 15
REMARK SMILES IDX 7 17 16 18 10 19 14 20 11 21 8 22 9 23 17 25 15 27 12 29
REMARK SMILES IDX 13 30
REMARK H PARENT 1 10 23 12 21 14 19 16 9 24 17 26 15 28 13 31
REMARK Flexibility Score: inf
ROOT
ATOM      1  O   UNL     1       0.274  54.581   7.469  1.00  0.00    -0.313 OA
ENDROOT
BRANCH   1   2
ATOM      2  C   UNL     1       0.293  55.806   8.191  1.00  0.00     0.285 C 
ATOM      3  C   UNL     1       1.526  55.015  10.090  1.00  0.00     0.178 C 
ATOM      4  C   UNL     1       2.776  55.843   9.698  1.00  0.00     0.177 C 
ATOM      5  O   UNL     1       0.312  55.575   9.596  1.00  0.00    -0.341 OA
ATOM      6  C   UNL     1       2.817  56.104   8.185  1.00  0.00     0.179 C 
ATOM      7  C   UNL     1       1.475  56.676   7.711  1.00  0.00     0.202 C 
BRANCH   3   8
ATOM      8  C   UNL     1       1.635  53.503   9.786  1.00  0.00     0.191 C 
BRANCH   8   9
ATOM      9  O   UNL     1       0.376  52.886   9.851  1.00  0.00    -0.394 OA
ATOM     10  H   UNL     1      -0.302  53.606   9.758  1.00  0.00     0.210 HD
ENDBRANCH   8   9
ENDBRANCH   3   8
BRANCH   4  11
ATOM     11  O   UNL     1       3.945  55.179  10.109  1.00  0.00    -0.387 OA
ATOM     12  H   UNL     1       3.783  54.205  10.001  1.00  0.00     0.211 HD
ENDBRANCH   4  11
BRANCH   6  13
ATOM     13  O   UNL     1       3.844  57.010   7.874  1.00  0.00    -0.387 OA
ATOM     14  H   UNL     1       3.439  57.733   7.327  1.00  0.00     0.211 HD
ENDBRANCH   6  13
BRANCH   7  15
ATOM     15  O   UNL     1       1.322  58.019   8.109  1.00  0.00    -0.385 OA
ATOM     16  H   UNL     1       0.352  58.215   8.181  1.00  0.00     0.211 HD
ENDBRANCH   7  15
ENDBRANCH   1   2
BRANCH   1  17
ATOM     17  C   UNL     1      -0.645  54.553   6.379  1.00  0.00     0.224 C 
ATOM     18  C   UNL     1       0.178  54.516   5.080  1.00  0.00     0.208 C 
ATOM     19  O   UNL     1      -1.453  53.383   6.391  1.00  0.00    -0.337 OA
ATOM     20  C   UNL     1      -0.731  53.773   4.134  1.00  0.00     0.180 C 
ATOM     21  C   UNL     1      -1.557  52.880   5.073  1.00  0.00     0.179 C 
BRANCH  17  22
ATOM     22  C   UNL     1      -1.554  55.815   6.429  1.00  0.00     0.225 C 
BRANCH  22  23
ATOM     23  O   UNL     1      -2.125  56.098   5.181  1.00  0.00    -0.391 OA
ATOM     24  H   UNL     1      -1.944  57.055   4.993  1.00  0.00     0.210 HD
ENDBRANCH  22  23
ENDBRANCH  17  22
BRANCH  18  25
ATOM     25  O   UNL     1       0.494  55.790   4.581  1.00  0.00    -0.385 OA
ATOM     26  H   UNL     1       1.200  56.156   5.174  1.00  0.00     0.211 HD
ENDBRANCH  18  25
BRANCH  20  27
ATOM     27  O   UNL     1      -0.041  53.078   3.119  1.00  0.00    -0.387 OA
ATOM     28  H   UNL     1      -0.694  52.558   2.583  1.00  0.00     0.211 HD
ENDBRANCH  20  27
BRANCH  21  29
ATOM     29  C   UNL     1      -1.136  51.401   5.073  1.00  0.00     0.191 C 
BRANCH  29  30
ATOM     30  O   UNL     1      -1.884  50.681   4.130  1.00  0.00    -0.394 OA
ATOM     31  H   UNL     1      -2.305  49.925   4.617  1.00  0.00     0.210 HD
ENDBRANCH  29  30
ENDBRANCH  21  29
ENDBRANCH   1  17
TORSDOF 13
ENDMDL
MODEL 2
REMARK VINA RESULT:    -4.832      1.447      6.015
REMARK INTER + INTRA:          -7.998
REMARK INTER:                  -6.785
REMARK INTRA:                  -1.214
REMARK UNBOUND:                -0.624
REMARK SMILES OC[C@@H]1O[C@H](O[C@]2(CO)O[C@H](CO)[C@H](O)[C@H]2O)[C@@H](O)[C@@H](O)[C@@H]1O
REMARK SMILES IDX 6 1 5 2 3 3 22 4 4 5 20 6 18 7 2 8 1 9 23 11 21 13 19 15
REMARK SMILES IDX 7 17 16 18 10 19 14 20 11 21 8 22 9 23 17 25 15 27 12 29
REMARK SMILES IDX 13 30
REMARK H PARENT 1 10 23 12 21 14 19 16 9 24 17 26 15 28 13 31
REMARK Flexibility Score: inf
ROOT
ATOM      1  O   UNL     1       0.926  55.034   7.272  1.00  0.00    -0.313 OA
ENDROOT
BRANCH   1   2
ATOM      2  C   UNL     1       0.141  55.672   6.273  1.00  0.00     0.285 C 
ATOM      3  C   UNL     1       1.195  54.658   4.372  1.00  0.00     0.178 C 
ATOM      4  C   UNL     1      -0.059  53.805   4.057  1.00  0.00     0.177 C 
ATOM      5  O   UNL     1       0.888  55.859   5.074  1.00  0.00    -0.341 OA
ATOM      6  C   UNL     1      -0.892  53.554   5.322  1.00  0.00     0.179 C 
ATOM      7  C   UNL     1      -1.163  54.877   6.048  1.00  0.00     0.202 C 
BRANCH   3   8
ATOM      8  C   UNL     1       2.354  53.878   5.035  1.00  0.00     0.191 C 
BRANCH   8   9
ATOM      9  O   UNL     1       3.165  53.264   4.068  1.00  0.00    -0.394 OA
ATOM     10  H   UNL     1       3.004  52.286   4.138  1.00  0.00     0.210 HD
ENDBRANCH   8   9
ENDBRANCH   3   8
BRANCH   4  11
ATOM     11  O   UNL     1       0.321  52.583   3.473  1.00  0.00    -0.387 OA
ATOM     12  H   UNL     1      -0.184  52.494   2.623  1.00  0.00     0.211 HD
ENDBRANCH   4  11
BRANCH   6  13
ATOM     13  O   UNL     1      -2.114  52.947   4.989  1.00  0.00    -0.387 OA
ATOM     14  H   UNL     1      -2.835  53.525   5.354  1.00  0.00     0.211 HD
ENDBRANCH   6  13
BRANCH   7  15
ATOM     15  O   UNL     1      -2.125  55.648   5.363  1.00  0.00    -0.385 OA
ATOM     16  H   UNL     1      -1.657  56.386   4.893  1.00  0.00     0.211 HD
ENDBRANCH   7  15
ENDBRANCH   1   2
BRANCH   1  17
ATOM     17  C   UNL     1       1.243  55.862   8.390  1.00  0.00     0.224 C 
ATOM     18  C   UNL     1       2.434  55.217   9.120  1.00  0.00     0.208 C 
ATOM     19  O   UNL     1       1.657  57.162   7.991  1.00  0.00    -0.337 OA
ATOM     20  C   UNL     1       3.131  56.407   9.730  1.00  0.00     0.180 C 
ATOM     21  C   UNL     1       2.772  57.551   8.770  1.00  0.00     0.179 C 
BRANCH  17  22
ATOM     22  C   UNL     1       0.006  55.972   9.326  1.00  0.00     0.225 C 
BRANCH  22  23
ATOM     23  O   UNL     1      -0.607  54.729   9.531  1.00  0.00    -0.391 OA
ATOM     24  H   UNL     1      -0.823  54.671  10.498  1.00  0.00     0.210 HD
ENDBRANCH  22  23
ENDBRANCH  17  22
BRANCH  18  25
ATOM     25  O   UNL     1       2.052  54.295  10.107  1.00  0.00    -0.385 OA
ATOM     26  H   UNL     1       1.156  54.580  10.426  1.00  0.00     0.211 HD
ENDBRANCH  18  25
BRANCH  20  27
ATOM     27  O   UNL     1       4.514  56.213   9.921  1.00  0.00    -0.387 OA
ATOM     28  H   UNL     1       4.667  55.849  10.831  1.00  0.00     0.211 HD
ENDBRANCH  20  27
BRANCH  21  29
ATOM     29  C   UNL     1       3.913  57.969   7.827  1.00  0.00     0.191 C 
BRANCH  29  30
ATOM     30  O   UNL     1       3.469  57.974   6.496  1.00  0.00    -0.394 OA
ATOM     31  H   UNL     1       2.885  58.769   6.393  1.00  0.00     0.210 HD
ENDBRANCH  29  30
ENDBRANCH  21  29
ENDBRANCH   1  17
TORSDOF 13
ENDMDL
MODEL 3
REMARK VINA RESULT:    -4.654      1.522      6.026
REMARK INTER + INTRA:          -7.726
REMARK INTER:                  -6.514
REMARK INTRA:                  -1.212
REMARK UNBOUND:                -0.624
REMARK SMILES OC[C@@H]1O[C@H](O[C@]2(CO)O[C@H](CO)[C@H](O)[C@H]2O)[C@@H](O)[C@@H](O)[C@@H]1O
REMARK SMILES IDX 6 1 5 2 3 3 22 4 4 5 20 6 18 7 2 8 1 9 23 11 21 13 19 15
REMARK SMILES IDX 7 17 16 18 10 19 14 20 11 21 8 22 9 23 17 25 15 27 12 29
REMARK SMILES IDX 13 30
REMARK H PARENT 1 10 23 12 21 14 19 16 9 24 17 26 15 28 13 31
REMARK Flexibility Score: inf
ROOT
ATOM      1  O   UNL     1       0.356  54.419   7.728  1.00  0.00    -0.313 OA
ENDROOT
BRANCH   1   2
ATOM      2  C   UNL     1      -0.957  53.886   7.853  1.00  0.00     0.285 C 
ATOM      3  C   UNL     1      -1.802  54.680   5.753  1.00  0.00     0.178 C 
ATOM      4  C   UNL     1      -1.851  53.248   5.164  1.00  0.00     0.177 C 
ATOM      5  O   UNL     1      -1.909  54.700   7.174  1.00  0.00    -0.341 OA
ATOM      6  C   UNL     1      -0.825  52.331   5.846  1.00  0.00     0.179 C 
ATOM      7  C   UNL     1      -0.971  52.419   7.371  1.00  0.00     0.202 C 
BRANCH   3   8
ATOM      8  C   UNL     1      -0.623  55.545   5.248  1.00  0.00     0.191 C 
BRANCH   8   9
ATOM      9  O   UNL     1      -0.387  56.625   6.111  1.00  0.00    -0.394 OA
ATOM     10  H   UNL     1      -1.273  57.016   6.331  1.00  0.00     0.210 HD
ENDBRANCH   8   9
ENDBRANCH   3   8
BRANCH   4  11
ATOM     11  O   UNL     1      -1.620  53.288   3.777  1.00  0.00    -0.387 OA
ATOM     12  H   UNL     1      -1.483  52.352   3.476  1.00  0.00     0.211 HD
ENDBRANCH   4  11
BRANCH   6  13
ATOM     13  O   UNL     1      -1.013  51.001   5.438  1.00  0.00    -0.387 OA
ATOM     14  H   UNL     1      -1.733  50.620   6.006  1.00  0.00     0.211 HD
ENDBRANCH   6  13
BRANCH   7  15
ATOM     15  O   UNL     1      -2.125  51.742   7.815  1.00  0.00    -0.385 OA
ATOM     16  H   UNL     1      -2.621  52.340   8.431  1.00  0.00     0.211 HD
ENDBRANCH   7  15
ENDBRANCH   1   2
BRANCH   1  17
ATOM     17  C   UNL     1       0.798  55.164   8.862  1.00  0.00     0.224 C 
ATOM     18  C   UNL     1       2.210  54.669   9.218  1.00  0.00     0.208 C 
ATOM     19  O   UNL     1       0.906  56.553   8.580  1.00  0.00    -0.337 OA
ATOM     20  C   UNL     1       2.844  55.891   9.834  1.00  0.00     0.180 C 
ATOM     21  C   UNL     1       2.101  57.050   9.151  1.00  0.00     0.179 C 
BRANCH  17  22
ATOM     22  C   UNL     1      -0.186  54.947  10.047  1.00  0.00     0.225 C 
BRANCH  22  23
ATOM     23  O   UNL     1      -1.175  55.939  10.093  1.00  0.00    -0.391 OA
ATOM     24  H   UNL     1      -1.172  56.305  11.015  1.00  0.00     0.210 HD
ENDBRANCH  22  23
ENDBRANCH  17  22
BRANCH  18  25
ATOM     25  O   UNL     1       2.215  53.591  10.118  1.00  0.00    -0.385 OA
ATOM     26  H   UNL     1       3.125  53.560  10.513  1.00  0.00     0.211 HD
ENDBRANCH  18  25
BRANCH  20  27
ATOM     27  O   UNL     1       4.246  55.930   9.694  1.00  0.00    -0.387 OA
ATOM     28  H   UNL     1       4.615  56.601  10.325  1.00  0.00     0.211 HD
ENDBRANCH  20  27
BRANCH  21  29
ATOM     29  C   UNL     1       2.912  57.766   8.058  1.00  0.00     0.191 C 
BRANCH  29  30
ATOM     30  O   UNL     1       2.695  57.157   6.813  1.00  0.00    -0.394 OA
ATOM     31  H   UNL     1       1.900  56.572   6.915  1.00  0.00     0.210 HD
ENDBRANCH  29  30
ENDBRANCH  21  29
ENDBRANCH   1  17
TORSDOF 13
ENDMDL
MODEL 4
REMARK VINA RESULT:    -4.586      1.411      3.042
REMARK INTER + INTRA:          -7.623
REMARK INTER:                  -6.991
REMARK INTRA:                  -0.632
REMARK UNBOUND:                -0.624
REMARK SMILES OC[C@@H]1O[C@H](O[C@]2(CO)O[C@H](CO)[C@H](O)[C@H]2O)[C@@H](O)[C@@H](O)[C@@H]1O
REMARK SMILES IDX 6 1 5 2 3 3 22 4 4 5 20 6 18 7 2 8 1 9 23 11 21 13 19 15
REMARK SMILES IDX 7 17 16 18 10 19 14 20 11 21 8 22 9 23 17 25 15 27 12 29
REMARK SMILES IDX 13 30
REMARK H PARENT 1 10 23 12 21 14 19 16 9 24 17 26 15 28 13 31
REMARK Flexibility Score: inf
ROOT
ATOM      1  O   UNL     1       0.485  54.992   6.381  1.00  0.00    -0.313 OA
ENDROOT
BRANCH   1   2
ATOM      2  C   UNL     1       0.934  54.489   7.634  1.00  0.00     0.285 C 
ATOM      3  C   UNL     1       2.725  56.051   7.957  1.00  0.00     0.178 C 
ATOM      4  C   UNL     1       1.976  56.760   9.114  1.00  0.00     0.177 C 
ATOM      5  O   UNL     1       2.335  54.690   7.796  1.00  0.00    -0.341 OA
ATOM      6  C   UNL     1       0.456  56.593   8.976  1.00  0.00     0.179 C 
ATOM      7  C   UNL     1       0.103  55.114   8.775  1.00  0.00     0.202 C 
BRANCH   3   8
ATOM      8  C   UNL     1       2.715  56.821   6.617  1.00  0.00     0.191 C 
BRANCH   8   9
ATOM      9  O   UNL     1       3.513  57.973   6.693  1.00  0.00    -0.394 OA
ATOM     10  H   UNL     1       4.135  57.841   7.456  1.00  0.00     0.210 HD
ENDBRANCH   8   9
ENDBRANCH   3   8
BRANCH   4  11
ATOM     11  O   UNL     1       2.314  58.125   9.145  1.00  0.00    -0.387 OA
ATOM     12  H   UNL     1       2.883  58.304   8.351  1.00  0.00     0.211 HD
ENDBRANCH   4  11
BRANCH   6  13
ATOM     13  O   UNL     1      -0.194  57.073  10.125  1.00  0.00    -0.387 OA
ATOM     14  H   UNL     1      -0.054  58.056  10.150  1.00  0.00     0.211 HD
ENDBRANCH   6  13
BRANCH   7  15
ATOM     15  O   UNL     1       0.245  54.386   9.974  1.00  0.00    -0.385 OA
ATOM     16  H   UNL     1      -0.658  54.124  10.289  1.00  0.00     0.211 HD
ENDBRANCH   7  15
ENDBRANCH   1   2
BRANCH   1  17
ATOM     17  C   UNL     1      -0.760  54.450   5.942  1.00  0.00     0.224 C 
ATOM     18  C   UNL     1      -0.446  53.266   5.011  1.00  0.00     0.208 C 
ATOM     19  O   UNL     1      -1.529  53.936   7.021  1.00  0.00    -0.337 OA
ATOM     20  C   UNL     1      -1.641  52.367   5.206  1.00  0.00     0.180 C 
ATOM     21  C   UNL     1      -2.098  52.699   6.636  1.00  0.00     0.179 C 
BRANCH  17  22
ATOM     22  C   UNL     1      -1.574  55.547   5.197  1.00  0.00     0.225 C 
BRANCH  22  23
ATOM     23  O   UNL     1      -2.125  56.482   6.084  1.00  0.00    -0.391 OA
ATOM     24  H   UNL     1      -1.811  57.376   5.790  1.00  0.00     0.210 HD
ENDBRANCH  22  23
ENDBRANCH  17  22
BRANCH  18  25
ATOM     25  O   UNL     1      -0.307  53.635   3.664  1.00  0.00    -0.385 OA
ATOM     26  H   UNL     1      -1.119  54.156   3.431  1.00  0.00     0.211 HD
ENDBRANCH  18  25
BRANCH  20  27
ATOM     27  O   UNL     1      -1.363  51.003   4.982  1.00  0.00    -0.387 OA
ATOM     28  H   UNL     1      -0.381  50.866   5.005  1.00  0.00     0.211 HD
ENDBRANCH  20  27
BRANCH  21  29
ATOM     29  C   UNL     1      -1.726  51.636   7.683  1.00  0.00     0.191 C 
BRANCH  29  30
ATOM     30  O   UNL     1      -1.573  52.228   8.945  1.00  0.00    -0.394 OA
ATOM     31  H   UNL     1      -1.805  53.187   8.841  1.00  0.00     0.210 HD
ENDBRANCH  29  30
ENDBRANCH  21  29
ENDBRANCH   1  17
TORSDOF 13
ENDMDL
MODEL 5
REMARK VINA RESULT:    -4.084      1.376      5.583
REMARK INTER + INTRA:          -6.857
REMARK INTER:                  -6.885
REMARK INTRA:                   0.027
REMARK UNBOUND:                -0.624
REMARK SMILES OC[C@@H]1O[C@H](O[C@]2(CO)O[C@H](CO)[C@H](O)[C@H]2O)[C@@H](O)[C@@H](O)[C@@H]1O
REMARK SMILES IDX 6 1 5 2 3 3 22 4 4 5 20 6 18 7 2 8 1 9 23 11 21 13 19 15
REMARK SMILES IDX 7 17 16 18 10 19 14 20 11 21 8 22 9 23 17 25 15 27 12 29
REMARK SMILES IDX 13 30
REMARK H PARENT 1 10 23 12 21 14 19 16 9 24 17 26 15 28 13 31
REMARK Flexibility Score: inf
ROOT
ATOM      1  O   UNL     1       1.510  55.078   6.585  1.00  0.00    -0.313 OA
ENDROOT
BRANCH   1   2
ATOM      2  C   UNL     1       0.287  55.543   6.027  1.00  0.00     0.285 C 
ATOM      3  C   UNL     1       0.297  54.143   4.079  1.00  0.00     0.178 C 
ATOM      4  C   UNL     1      -0.886  53.295   4.611  1.00  0.00     0.177 C 
ATOM      5  O   UNL     1       0.310  55.467   4.604  1.00  0.00    -0.341 OA
ATOM      6  C   UNL     1      -0.944  53.323   6.145  1.00  0.00     0.179 C 
ATOM      7  C   UNL     1      -0.897  54.771   6.649  1.00  0.00     0.202 C 
BRANCH   3   8
ATOM      8  C   UNL     1       1.679  53.460   4.191  1.00  0.00     0.191 C 
BRANCH   8   9
ATOM      9  O   UNL     1       2.036  52.848   2.980  1.00  0.00    -0.394 OA
ATOM     10  H   UNL     1       2.677  53.457   2.528  1.00  0.00     0.210 HD
ENDBRANCH   8   9
ENDBRANCH   3   8
BRANCH   4  11
ATOM     11  O   UNL     1      -0.776  51.969   4.153  1.00  0.00    -0.387 OA
ATOM     12  H   UNL     1      -1.590  51.775   3.619  1.00  0.00     0.211 HD
ENDBRANCH   4  11
BRANCH   6  13
ATOM     13  O   UNL     1      -2.125  52.712   6.600  1.00  0.00    -0.387 OA
ATOM     14  H   UNL     1      -2.884  53.211   6.199  1.00  0.00     0.211 HD
ENDBRANCH   6  13
BRANCH   7  15
ATOM     15  O   UNL     1      -2.120  55.433   6.421  1.00  0.00    -0.385 OA
ATOM     16  H   UNL     1      -2.180  55.657   5.457  1.00  0.00     0.211 HD
ENDBRANCH   7  15
ENDBRANCH   1   2
BRANCH   1  17
ATOM     17  C   UNL     1       1.712  55.446   7.949  1.00  0.00     0.224 C 
ATOM     18  C   UNL     1       0.779  56.630   8.252  1.00  0.00     0.208 C 
ATOM     19  O   UNL     1       1.357  54.399   8.842  1.00  0.00    -0.337 OA
ATOM     20  C   UNL     1       0.498  56.461   9.723  1.00  0.00     0.180 C 
ATOM     21  C   UNL     1       0.644  54.946   9.935  1.00  0.00     0.179 C 
BRANCH  17  22
ATOM     22  C   UNL     1       3.202  55.837   8.170  1.00  0.00     0.225 C 
BRANCH  22  23
ATOM     23  O   UNL     1       3.442  56.259   9.484  1.00  0.00    -0.391 OA
ATOM     24  H   UNL     1       3.045  55.574  10.082  1.00  0.00     0.210 HD
ENDBRANCH  22  23
ENDBRANCH  17  22
BRANCH  18  25
ATOM     25  O   UNL     1       1.359  57.882   7.989  1.00  0.00    -0.385 OA
ATOM     26  H   UNL     1       0.774  58.327   7.322  1.00  0.00     0.211 HD
ENDBRANCH  18  25
BRANCH  20  27
ATOM     27  O   UNL     1      -0.744  56.993  10.125  1.00  0.00    -0.387 OA
ATOM     28  H   UNL     1      -1.213  57.356   9.329  1.00  0.00     0.211 HD
ENDBRANCH  20  27
BRANCH  21  29
ATOM     29  C   UNL     1      -0.691  54.196  10.081  1.00  0.00     0.191 C 
BRANCH  29  30
ATOM     30  O   UNL     1      -0.574  52.891   9.579  1.00  0.00    -0.394 OA
ATOM     31  H   UNL     1      -1.470  52.472   9.662  1.00  0.00     0.210 HD
ENDBRANCH  29  30
ENDBRANCH  21  29
ENDBRANCH   1  17
TORSDOF 13
ENDMDL
MODEL 6
REMARK VINA RESULT:    -3.858      2.155      5.820
REMARK INTER + INTRA:          -6.511
REMARK INTER:                  -4.920
REMARK INTRA:                  -1.591
REMARK UNBOUND:                -0.624
REMARK SMILES OC[C@@H]1O[C@H](O[C@]2(CO)O[C@H](CO)[C@H](O)[C@H]2O)[C@@H](O)[C@@H](O)[C@@H]1O
REMARK SMILES IDX 6 1 5 2 3 3 22 4 4 5 20 6 18 7 2 8 1 9 23 11 21 13 19 15
REMARK SMILES IDX 7 17 16 18 10 19 14 20 11 21 8 22 9 23 17 25 15 27 12 29
REMARK SMILES IDX 13 30
REMARK H PARENT 1 10 23 12 21 14 19 16 9 24 17 26 15 28 13 31
REMARK Flexibility Score: inf
ROOT
ATOM      1  O   UNL     1      -0.424  52.717   7.044  1.00  0.00    -0.313 OA
ENDROOT
BRANCH   1   2
ATOM      2  C   UNL     1      -1.324  52.709   5.943  1.00  0.00     0.285 C 
ATOM      3  C   UNL     1      -0.057  54.158   4.512  1.00  0.00     0.178 C 
ATOM      4  C   UNL     1       0.293  52.997   3.548  1.00  0.00     0.177 C 
ATOM      5  O   UNL     1      -1.270  53.940   5.227  1.00  0.00    -0.341 OA
ATOM      6  C   UNL     1       0.271  51.645   4.275  1.00  0.00     0.179 C 
ATOM      7  C   UNL     1      -1.044  51.483   5.048  1.00  0.00     0.202 C 
BRANCH   3   8
ATOM      8  C   UNL     1       1.098  54.589   5.446  1.00  0.00     0.191 C 
BRANCH   8   9
ATOM      9  O   UNL     1       0.899  55.894   5.922  1.00  0.00    -0.394 OA
ATOM     10  H   UNL     1       1.377  56.503   5.299  1.00  0.00     0.210 HD
ENDBRANCH   8   9
ENDBRANCH   3   8
BRANCH   4  11
ATOM     11  O   UNL     1       1.555  53.215   2.965  1.00  0.00    -0.387 OA
ATOM     12  H   UNL     1       2.229  53.145   3.691  1.00  0.00     0.211 HD
ENDBRANCH   4  11
BRANCH   6  13
ATOM     13  O   UNL     1       0.400  50.593   3.354  1.00  0.00    -0.387 OA
ATOM     14  H   UNL     1       1.314  50.219   3.464  1.00  0.00     0.211 HD
ENDBRANCH   6  13
BRANCH   7  15
ATOM     15  O   UNL     1      -2.121  51.224   4.177  1.00  0.00    -0.385 OA
ATOM     16  H   UNL     1      -2.920  51.004   4.723  1.00  0.00     0.211 HD
ENDBRANCH   7  15
ENDBRANCH   1   2
BRANCH   1  17
ATOM     17  C   UNL     1      -1.004  53.146   8.275  1.00  0.00     0.224 C 
ATOM     18  C   UNL     1       0.062  53.961   9.028  1.00  0.00     0.208 C 
ATOM     19  O   UNL     1      -2.116  54.007   8.070  1.00  0.00    -0.337 OA
ATOM     20  C   UNL     1      -0.770  54.927   9.834  1.00  0.00     0.180 C 
ATOM     21  C   UNL     1      -2.042  55.083   8.986  1.00  0.00     0.179 C 
BRANCH  17  22
ATOM     22  C   UNL     1      -1.449  51.907   9.104  1.00  0.00     0.225 C 
BRANCH  22  23
ATOM     23  O   UNL     1      -0.690  50.770   8.793  1.00  0.00    -0.391 OA
ATOM     24  H   UNL     1      -0.875  50.100   9.501  1.00  0.00     0.210 HD
ENDBRANCH  22  23
ENDBRANCH  17  22
BRANCH  18  25
ATOM     25  O   UNL     1       0.878  53.180   9.863  1.00  0.00    -0.385 OA
ATOM     26  H   UNL     1       0.786  53.557  10.776  1.00  0.00     0.211 HD
ENDBRANCH  18  25
BRANCH  20  27
ATOM     27  O   UNL     1      -0.106  56.137  10.123  1.00  0.00    -0.387 OA
ATOM     28  H   UNL     1       0.780  55.932  10.518  1.00  0.00     0.211 HD
ENDBRANCH  20  27
BRANCH  21  29
ATOM     29  C   UNL     1      -2.125  56.405   8.204  1.00  0.00     0.191 C 
BRANCH  29  30
ATOM     30  O   UNL     1      -1.791  56.197   6.858  1.00  0.00    -0.394 OA
ATOM     31  H   UNL     1      -1.727  55.215   6.728  1.00  0.00     0.210 HD
ENDBRANCH  29  30
ENDBRANCH  21  29
ENDBRANCH   1  17
TORSDOF 13
ENDMDL
MODEL 7
REMARK VINA RESULT:    -3.641      1.532      5.906
REMARK INTER + INTRA:          -6.181
REMARK INTER:                  -6.528
REMARK INTRA:                   0.348
REMARK UNBOUND:                -0.624
REMARK SMILES OC[C@@H]1O[C@H](O[C@]2(CO)O[C@H](CO)[C@H](O)[C@H]2O)[C@@H](O)[C@@H](O)[C@@H]1O
REMARK SMILES IDX 6 1 5 2 3 3 22 4 4 5 20 6 18 7 2 8 1 9 23 11 21 13 19 15
REMARK SMILES IDX 7 17 16 18 10 19 14 20 11 21 8 22 9 23 17 25 15 27 12 29
REMARK SMILES IDX 13 30
REMARK H PARENT 1 10 23 12 21 14 19 16 9 24 17 26 15 28 13 31
REMARK Flexibility Score: inf
ROOT
ATOM      1  O   UNL     1      -0.437  53.404   6.353  1.00  0.00    -0.313 OA
ENDROOT
BRANCH   1   2
ATOM      2  C   UNL     1      -1.227  53.229   5.183  1.00  0.00     0.285 C 
ATOM      3  C   UNL     1       0.396  54.021   3.605  1.00  0.00     0.178 C 
ATOM      4  C   UNL     1       0.613  52.601   3.025  1.00  0.00     0.177 C 
ATOM      5  O   UNL     1      -0.893  54.192   4.188  1.00  0.00    -0.341 OA
ATOM      6  C   UNL     1       0.287  51.521   4.067  1.00  0.00     0.179 C 
ATOM      7  C   UNL     1      -1.096  51.776   4.678  1.00  0.00     0.202 C 
BRANCH   3   8
ATOM      8  C   UNL     1       1.526  54.515   4.538  1.00  0.00     0.191 C 
BRANCH   8   9
ATOM      9  O   UNL     1       1.617  55.915   4.519  1.00  0.00    -0.394 OA
ATOM     10  H   UNL     1       2.570  56.143   4.683  1.00  0.00     0.210 HD
ENDBRANCH   8   9
ENDBRANCH   3   8
BRANCH   4  11
ATOM     11  O   UNL     1       1.937  52.459   2.575  1.00  0.00    -0.387 OA
ATOM     12  H   UNL     1       1.950  52.713   1.615  1.00  0.00     0.211 HD
ENDBRANCH   4  11
BRANCH   6  13
ATOM     13  O   UNL     1       0.303  50.249   3.471  1.00  0.00    -0.387 OA
ATOM     14  H   UNL     1       0.996  50.269   2.759  1.00  0.00     0.211 HD
ENDBRANCH   6  13
BRANCH   7  15
ATOM     15  O   UNL     1      -2.125  51.452   3.771  1.00  0.00    -0.385 OA
ATOM     16  H   UNL     1      -2.992  51.714   4.174  1.00  0.00     0.211 HD
ENDBRANCH   7  15
ENDBRANCH   1   2
BRANCH   1  17
ATOM     17  C   UNL     1      -0.648  54.645   7.026  1.00  0.00     0.224 C 
ATOM     18  C   UNL     1      -0.402  54.405   8.525  1.00  0.00     0.208 C 
ATOM     19  O   UNL     1       0.275  55.642   6.609  1.00  0.00    -0.337 OA
ATOM     20  C   UNL     1       0.082  55.751   9.000  1.00  0.00     0.180 C 
ATOM     21  C   UNL     1       0.733  56.351   7.744  1.00  0.00     0.179 C 
BRANCH  17  22
ATOM     22  C   UNL     1      -2.101  55.138   6.769  1.00  0.00     0.225 C 
BRANCH  22  23
ATOM     23  O   UNL     1      -2.125  56.332   6.036  1.00  0.00    -0.391 OA
ATOM     24  H   UNL     1      -3.026  56.399   5.625  1.00  0.00     0.210 HD
ENDBRANCH  22  23
ENDBRANCH  17  22
BRANCH  18  25
ATOM     25  O   UNL     1      -1.553  54.006   9.224  1.00  0.00    -0.385 OA
ATOM     26  H   UNL     1      -1.268  53.286   9.845  1.00  0.00     0.211 HD
ENDBRANCH  18  25
BRANCH  20  27
ATOM     27  O   UNL     1       0.929  55.682  10.124  1.00  0.00    -0.387 OA
ATOM     28  H   UNL     1       0.374  55.640  10.946  1.00  0.00     0.211 HD
ENDBRANCH  20  27
BRANCH  21  29
ATOM     29  C   UNL     1       2.271  56.327   7.756  1.00  0.00     0.191 C 
BRANCH  29  30
ATOM     30  O   UNL     1       2.778  57.059   6.672  1.00  0.00    -0.394 OA
ATOM     31  H   UNL     1       3.150  57.900   7.045  1.00  0.00     0.210 HD
ENDBRANCH  29  30
ENDBRANCH  21  29
ENDBRANCH   1  17
TORSDOF 13
ENDMDL
