MODEL 1
REMARK VINA RESULT:    -3.605      0.000      0.000
REMARK INTER + INTRA:          -2.113
REMARK INTER:                  -5.291
REMARK INTRA:                   3.178
REMARK UNBOUND:                 3.178
REMARK SMILES Cc1cc2c(C(C)C)c(O)c(O)c(C=O)c2c(O)c1-c1c(C)cc2c(C(C)C)c(O)c(O)c(C=O)c2c1O
REMARK SMILES IDX 1 1 2 2 3 3 4 4 16 5 13 6 11 7 9 8 5 9 17 10 19 11 20 12
REMARK SMILES IDX 37 13 21 14 36 15 23 16 22 17 24 18 33 19 25 20 31 21 29 22
REMARK SMILES IDX 38 23 34 25 35 26 26 27 27 28 28 29 32 30 30 32 18 34 6 36
REMARK SMILES IDX 7 37 8 38 14 39 15 40 10 41 12 43
REMARK H PARENT 38 24 32 31 30 33 18 35 10 42 12 44
REMARK Flexibility Score: inf
ROOT
ATOM      1  C   UNL     1      28.125  17.092   8.663  1.00  0.00     0.045 C 
ATOM      2  C   UNL     1      26.931  16.171   8.657  1.00  0.00    -0.039 A 
ATOM      3  C   UNL     1      26.866  15.129   9.586  1.00  0.00     0.013 A 
ATOM      4  C   UNL     1      25.789  14.210   9.600  1.00  0.00    -0.006 A 
ATOM      5  C   UNL     1      24.722  14.401   8.672  1.00  0.00     0.039 A 
ATOM      6  C   UNL     1      23.705  13.415   8.588  1.00  0.00     0.072 A 
ATOM      7  C   UNL     1      23.566  12.469   9.614  1.00  0.00     0.169 A 
ATOM      8  C   UNL     1      24.528  12.394  10.639  1.00  0.00     0.162 A 
ATOM      9  C   UNL     1      25.732  13.131  10.536  1.00  0.00     0.008 A 
ATOM     10  C   UNL     1      24.703  15.584   7.880  1.00  0.00     0.132 A 
ATOM     11  C   UNL     1      25.835  16.411   7.813  1.00  0.00     0.031 A 
ENDROOT
BRANCH  11  12
ATOM     12  C   UNL     1      25.819  17.592   6.911  1.00  0.00     0.031 A 
ATOM     13  C   UNL     1      24.730  18.491   6.932  1.00  0.00     0.132 A 
ATOM     14  C   UNL     1      26.878  17.790   6.013  1.00  0.00    -0.039 A 
ATOM     15  C   UNL     1      24.726  19.644   6.088  1.00  0.00     0.039 A 
ATOM     16  C   UNL     1      26.865  18.898   5.166  1.00  0.00     0.013 A 
ATOM     17  C   UNL     1      28.019  16.805   5.925  1.00  0.00     0.045 C 
ATOM     18  C   UNL     1      25.840  19.868   5.221  1.00  0.00    -0.006 A 
ATOM     19  C   UNL     1      23.628  20.558   6.049  1.00  0.00     0.072 A 
ATOM     20  C   UNL     1      25.887  21.035   4.397  1.00  0.00     0.008 A 
ATOM     21  C   UNL     1      23.625  21.614   5.114  1.00  0.00     0.169 A 
ATOM     22  C   UNL     1      24.723  21.821   4.273  1.00  0.00     0.162 A 
BRANCH  13  23
ATOM     23  O   UNL     1      23.646  18.223   7.775  1.00  0.00    -0.507 OA
ATOM     24  H   UNL     1      22.942  18.904   8.028  1.00  0.00     0.293 HD
ENDBRANCH  13  23
BRANCH  19  25
ATOM     25  C   UNL     1      22.477  20.435   6.966  1.00  0.00     0.264 C 
ATOM     26  O   UNL     1      21.298  20.464   6.523  1.00  0.00    -0.298 OA
ENDBRANCH  19  25
BRANCH  20  27
ATOM     27  C   UNL     1      27.164  21.440   3.637  1.00  0.00     0.017 C 
ATOM     28  C   UNL     1      28.125  22.204   4.552  1.00  0.00     0.012 C 
ATOM     29  C   UNL     1      27.872  20.263   2.939  1.00  0.00     0.012 C 
ENDBRANCH  20  27
BRANCH  21  30
ATOM     30  O   UNL     1      22.551  22.507   5.017  1.00  0.00    -0.504 OA
ATOM     31  H   UNL     1      22.528  23.420   5.453  1.00  0.00     0.293 HD
ENDBRANCH  21  30
BRANCH  22  32
ATOM     32  O   UNL     1      24.660  22.826   3.306  1.00  0.00    -0.504 OA
ATOM     33  H   UNL     1      23.802  23.089   2.836  1.00  0.00     0.293 HD
ENDBRANCH  22  32
ENDBRANCH  11  12
BRANCH  10  34
ATOM     34  O   UNL     1      23.551  16.021   7.217  1.00  0.00    -0.507 OA
ATOM     35  H   UNL     1      23.339  15.774   6.260  1.00  0.00     0.293 HD
ENDBRANCH  10  34
BRANCH   9  36
ATOM     36  C   UNL     1      26.908  12.805  11.474  1.00  0.00     0.017 C 
ATOM     37  C   UNL     1      26.420  12.062  12.722  1.00  0.00     0.012 C 
ATOM     38  C   UNL     1      28.064  12.051  10.792  1.00  0.00     0.012 C 
ENDBRANCH   9  36
BRANCH   6  39
ATOM     39  C   UNL     1      22.866  13.233   7.377  1.00  0.00     0.264 C 
ATOM     40  O   UNL     1      21.709  13.728   7.312  1.00  0.00    -0.298 OA
ENDBRANCH   6  39
BRANCH   8  41
ATOM     41  O   UNL     1      24.307  11.596  11.763  1.00  0.00    -0.504 OA
ATOM     42  H   UNL     1      24.690  11.788  12.677  1.00  0.00     0.293 HD
ENDBRANCH   8  41
BRANCH   7  43
ATOM     43  O   UNL     1      22.487  11.579   9.567  1.00  0.00    -0.504 OA
ATOM     44  H   UNL     1      22.278  10.905  10.291  1.00  0.00     0.293 HD
ENDBRANCH   7  43
TORSDOF 11
ENDMDL
MODEL 2
REMARK VINA RESULT:    -0.821      0.512      8.675
REMARK INTER + INTRA:           1.974
REMARK INTER:                  -1.639
REMARK INTRA:                   3.613
REMARK UNBOUND:                 3.178
REMARK SMILES Cc1cc2c(C(C)C)c(O)c(O)c(C=O)c2c(O)c1-c1c(C)cc2c(C(C)C)c(O)c(O)c(C=O)c2c1O
REMARK SMILES IDX 1 1 2 2 3 3 4 4 16 5 13 6 11 7 9 8 5 9 17 10 19 11 20 12
REMARK SMILES IDX 37 13 21 14 36 15 23 16 22 17 24 18 33 19 25 20 31 21 29 22
REMARK SMILES IDX 38 23 34 25 35 26 26 27 27 28 28 29 32 30 30 32 18 34 6 36
REMARK SMILES IDX 7 37 8 38 14 39 15 40 10 41 12 43
REMARK H PARENT 38 24 32 31 30 33 18 35 10 42 12 44
REMARK Flexibility Score: inf
ROOT
ATOM      1  C   UNL     1      28.125  16.924   6.126  1.00  0.00     0.045 C 
ATOM      2  C   UNL     1      26.919  17.829   6.133  1.00  0.00    -0.039 A 
ATOM      3  C   UNL     1      26.817  18.842   5.175  1.00  0.00     0.013 A 
ATOM      4  C   UNL     1      25.727  19.745   5.160  1.00  0.00    -0.006 A 
ATOM      5  C   UNL     1      24.685  19.568   6.118  1.00  0.00     0.039 A 
ATOM      6  C   UNL     1      23.656  20.542   6.198  1.00  0.00     0.072 A 
ATOM      7  C   UNL     1      23.480  21.455   5.147  1.00  0.00     0.169 A 
ATOM      8  C   UNL     1      24.417  21.512   4.098  1.00  0.00     0.162 A 
ATOM      9  C   UNL     1      25.632  20.795   4.194  1.00  0.00     0.008 A 
ATOM     10  C   UNL     1      24.701  18.409   6.946  1.00  0.00     0.132 A 
ATOM     11  C   UNL     1      25.846  17.600   7.010  1.00  0.00     0.031 A 
ENDROOT
BRANCH  11  12
ATOM     12  C   UNL     1      25.868  16.446   7.946  1.00  0.00     0.031 A 
ATOM     13  C   UNL     1      24.772  15.559   8.010  1.00  0.00     0.132 A 
ATOM     14  C   UNL     1      26.972  16.263   8.792  1.00  0.00    -0.039 A 
ATOM     15  C   UNL     1      24.803  14.430   8.888  1.00  0.00     0.039 A 
ATOM     16  C   UNL     1      26.994  15.181   9.672  1.00  0.00     0.013 A 
ATOM     17  C   UNL     1      28.125  17.239   8.789  1.00  0.00     0.045 C 
ATOM     18  C   UNL     1      25.960  14.221   9.700  1.00  0.00    -0.006 A 
ATOM     19  C   UNL     1      23.701  13.530   9.012  1.00  0.00     0.072 A 
ATOM     20  C   UNL     1      26.040  13.079  10.556  1.00  0.00     0.008 A 
ATOM     21  C   UNL     1      23.739  12.502   9.977  1.00  0.00     0.169 A 
ATOM     22  C   UNL     1      24.878  12.308  10.765  1.00  0.00     0.162 A 
BRANCH  13  23
ATOM     23  O   UNL     1      23.647  15.812   7.218  1.00  0.00    -0.507 OA
ATOM     24  H   UNL     1      23.066  15.092   6.811  1.00  0.00     0.293 HD
ENDBRANCH  13  23
BRANCH  19  25
ATOM     25  C   UNL     1      22.503  13.637   8.155  1.00  0.00     0.264 C 
ATOM     26  O   UNL     1      22.454  13.044   7.045  1.00  0.00    -0.298 OA
ENDBRANCH  19  25
BRANCH  20  27
ATOM     27  C   UNL     1      27.353  12.683  11.258  1.00  0.00     0.017 C 
ATOM     28  C   UNL     1      27.119  12.421  12.748  1.00  0.00     0.012 C 
ATOM     29  C   UNL     1      28.083  11.501  10.589  1.00  0.00     0.012 C 
ENDBRANCH  20  27
BRANCH  21  30
ATOM     30  O   UNL     1      22.664  11.623  10.158  1.00  0.00    -0.504 OA
ATOM     31  H   UNL     1      22.017  11.667  10.935  1.00  0.00     0.293 HD
ENDBRANCH  21  30
BRANCH  22  32
ATOM     32  O   UNL     1      24.858  11.333  11.764  1.00  0.00    -0.504 OA
ATOM     33  H   UNL     1      24.915  11.551  12.752  1.00  0.00     0.293 HD
ENDBRANCH  22  32
ENDBRANCH  11  12
BRANCH  10  34
ATOM     34  O   UNL     1      23.572  17.977   7.648  1.00  0.00    -0.507 OA
ATOM     35  H   UNL     1      23.497  17.055   8.058  1.00  0.00     0.293 HD
ENDBRANCH  10  34
BRANCH   9  36
ATOM     36  C   UNL     1      26.781  21.109   3.219  1.00  0.00     0.017 C 
ATOM     37  C   UNL     1      27.371  22.495   3.498  1.00  0.00     0.012 C 
ATOM     38  C   UNL     1      27.882  20.032   3.179  1.00  0.00     0.012 C 
ENDBRANCH   9  36
BRANCH   6  39
ATOM     39  C   UNL     1      22.843  20.749   7.422  1.00  0.00     0.264 C 
ATOM     40  O   UNL     1      21.586  20.801   7.363  1.00  0.00    -0.298 OA
ENDBRANCH   6  39
BRANCH   8  41
ATOM     41  O   UNL     1      24.157  22.274   2.956  1.00  0.00    -0.504 OA
ATOM     42  H   UNL     1      24.804  22.942   2.564  1.00  0.00     0.293 HD
ENDBRANCH   8  41
BRANCH   7  43
ATOM     43  O   UNL     1      22.389  22.331   5.195  1.00  0.00    -0.504 OA
ATOM     44  H   UNL     1      21.773  22.423   5.990  1.00  0.00     0.293 HD
ENDBRANCH   7  43
TORSDOF 11
ENDMDL
