MODEL 1
REMARK VINA RESULT:    -4.439      0.000      0.000
REMARK INTER + INTRA:          -5.772
REMARK INTER:                  -6.255
REMARK INTRA:                   0.483
REMARK UNBOUND:                 0.483
REMARK SMILES CC1=CCC(=C(C)C)C(=O)CC(C)=CCC1
REMARK SMILES IDX 12 1 14 2 13 3 15 4 16 5 2 6 1 7 3 8 11 10 9 11 10 12 5 13
REMARK SMILES IDX 6 14 7 15 8 16 4 17
REMARK H PARENT
REMARK Flexibility Score: 60.00
ROOT
ATOM      1  C   UNL     1     -14.426  13.970 -30.893  1.00  0.00    -0.070 C 
ATOM      2  C   UNL     1     -13.354  13.170 -30.705  1.00  0.00    -0.027 C 
ATOM      3  C   UNL     1     -14.242  15.455 -30.699  1.00  0.00     0.039 C 
ENDROOT
BRANCH   2   4
ATOM      4  C   UNL     1     -13.362  11.657 -30.756  1.00  0.00     0.032 C 
BRANCH   4   5
ATOM      5  C   UNL     1     -12.862  10.963 -29.471  1.00  0.00     0.034 C 
BRANCH   5   6
ATOM      6  C   UNL     1     -13.698  11.298 -28.248  1.00  0.00    -0.077 C 
ATOM      7  C   UNL     1     -12.972  11.764 -27.011  1.00  0.00     0.039 C 
ATOM      8  C   UNL     1     -15.042  11.139 -28.174  1.00  0.00    -0.023 CG0
ATOM      9  G   UNL     1     -15.974  10.705 -29.287  1.00  0.00     0.000 G0
ENDBRANCH   5   6
ENDBRANCH   4   5
ENDBRANCH   2   4
BRANCH   1  10
ATOM     10  C   UNL     1     -15.815  13.444 -31.196  1.00  0.00     0.111 C 
BRANCH  10  11
ATOM     11  C   UNL     1     -16.569  13.108 -29.937  1.00  0.00     0.163 C 
ATOM     12  O   UNL     1     -16.758  14.027 -29.095  1.00  0.00    -0.294 OA
BRANCH  11  13
ATOM     13  C   UNL     1     -17.041  11.725 -29.630  1.00  0.00    -0.002 C 
ATOM     14  C   UNL     1     -18.376  11.438 -29.570  1.00  0.00    -0.069 C 
ATOM     15  C   UNL     1     -19.416  12.463 -29.965  1.00  0.00     0.039 C 
ATOM     16  C   UNL     1     -18.887  10.090 -29.108  1.00  0.00     0.039 C 
BRANCH  13  17
ATOM     17  C   UNL     1     -15.981  10.687 -29.295  1.00  0.00     0.066 CG0
ATOM     18  G   UNL     1     -15.055  11.146 -28.187  1.00  0.00     0.000 G0
ENDBRANCH  13  17
ENDBRANCH  11  13
ENDBRANCH  10  11
ENDBRANCH   1  10
TORSDOF 0
ENDMDL
MODEL 2
REMARK VINA RESULT:    -4.369      1.563      4.077
REMARK INTER + INTRA:          -5.674
REMARK INTER:                  -5.855
REMARK INTRA:                   0.181
REMARK UNBOUND:                 0.483
REMARK SMILES CC1=CCC(=C(C)C)C(=O)CC(C)=CCC1
REMARK SMILES IDX 12 1 14 2 13 3 15 4 16 5 2 6 1 7 3 8 11 10 9 11 10 12 5 13
REMARK SMILES IDX 6 14 7 15 8 16 4 17
REMARK H PARENT
REMARK Flexibility Score: 60.00
ROOT
ATOM      1  C   UNL     1     -17.473  12.414 -29.385  1.00  0.00    -0.070 C 
ATOM      2  C   UNL     1     -17.161  11.267 -28.744  1.00  0.00    -0.027 C 
ATOM      3  C   UNL     1     -18.852  12.535 -29.986  1.00  0.00     0.039 C 
ENDROOT
BRANCH   2   4
ATOM      4  C   UNL     1     -15.806  10.920 -28.165  1.00  0.00     0.032 C 
BRANCH   4   5
ATOM      5  C   UNL     1     -14.854  10.193 -29.138  1.00  0.00     0.034 C 
BRANCH   5   6
ATOM      6  C   UNL     1     -13.447  10.763 -29.135  1.00  0.00    -0.077 C 
ATOM      7  C   UNL     1     -12.550  10.410 -27.974  1.00  0.00     0.039 C 
ATOM      8  C   UNL     1     -12.968  11.622 -30.068  1.00  0.00    -0.023 CG0
ATOM      9  G   UNL     1     -13.676  12.098 -31.320  1.00  0.00     0.000 G0
ENDBRANCH   5   6
ENDBRANCH   4   5
ENDBRANCH   2   4
BRANCH   1  10
ATOM     10  C   UNL     1     -16.484  13.539 -29.609  1.00  0.00     0.111 C 
BRANCH  10  11
ATOM     11  C   UNL     1     -15.825  13.441 -30.960  1.00  0.00     0.163 C 
ATOM     12  O   UNL     1     -16.564  13.301 -31.971  1.00  0.00    -0.294 OA
BRANCH  11  13
ATOM     13  C   UNL     1     -14.342  13.442 -31.131  1.00  0.00    -0.002 C 
ATOM     14  C   UNL     1     -13.646  14.616 -31.196  1.00  0.00    -0.069 C 
ATOM     15  C   UNL     1     -14.324  15.944 -30.940  1.00  0.00     0.039 C 
ATOM     16  C   UNL     1     -12.169  14.656 -31.526  1.00  0.00     0.039 C 
BRANCH  13  17
ATOM     17  C   UNL     1     -13.663  12.095 -31.324  1.00  0.00     0.066 CG0
ATOM     18  G   UNL     1     -12.968  11.615 -30.066  1.00  0.00     0.000 G0
ENDBRANCH  13  17
ENDBRANCH  11  13
ENDBRANCH  10  11
ENDBRANCH   1  10
TORSDOF 0
ENDMDL
MODEL 3
REMARK VINA RESULT:    -3.913      1.581      3.865
REMARK INTER + INTRA:          -5.031
REMARK INTER:                  -5.304
REMARK INTRA:                   0.273
REMARK UNBOUND:                 0.483
REMARK SMILES CC1=CCC(=C(C)C)C(=O)CC(C)=CCC1
REMARK SMILES IDX 12 1 14 2 13 3 15 4 16 5 2 6 1 7 3 8 11 10 9 11 10 12 5 13
REMARK SMILES IDX 6 14 7 15 8 16 4 17
REMARK H PARENT
REMARK Flexibility Score: 60.00
ROOT
ATOM      1  C   UNL     1     -14.048  13.804 -31.072  1.00  0.00    -0.070 C 
ATOM      2  C   UNL     1     -15.183  13.903 -31.798  1.00  0.00    -0.027 C 
ATOM      3  C   UNL     1     -12.739  14.084 -31.768  1.00  0.00     0.039 C 
ENDROOT
BRANCH   2   4
ATOM      4  C   UNL     1     -16.576  13.568 -31.308  1.00  0.00     0.032 C 
BRANCH   4   5
ATOM      5  C   UNL     1     -16.839  12.064 -31.082  1.00  0.00     0.034 C 
BRANCH   5   6
ATOM      6  C   UNL     1     -17.452  11.762 -29.727  1.00  0.00    -0.077 C 
ATOM      7  C   UNL     1     -18.753  12.443 -29.378  1.00  0.00     0.039 C 
ATOM      8  C   UNL     1     -16.875  10.977 -28.784  1.00  0.00    -0.023 CG0
ATOM      9  G   UNL     1     -15.591  10.183 -28.917  1.00  0.00     0.000 G0
ENDBRANCH   5   6
ENDBRANCH   4   5
ENDBRANCH   2   4
BRANCH   1  10
ATOM     10  C   UNL     1     -14.019  13.341 -29.630  1.00  0.00     0.111 C 
BRANCH  10  11
ATOM     11  C   UNL     1     -13.727  11.867 -29.526  1.00  0.00     0.163 C 
ATOM     12  O   UNL     1     -12.960  11.352 -30.383  1.00  0.00    -0.294 OA
BRANCH  11  13
ATOM     13  C   UNL     1     -14.356  10.996 -28.489  1.00  0.00    -0.002 C 
ATOM     14  C   UNL     1     -13.806  10.881 -27.243  1.00  0.00    -0.069 C 
ATOM     15  C   UNL     1     -12.639  11.746 -26.819  1.00  0.00     0.039 C 
ATOM     16  C   UNL     1     -14.326   9.890 -26.225  1.00  0.00     0.039 C 
BRANCH  13  17
ATOM     17  C   UNL     1     -15.568  10.178 -28.910  1.00  0.00     0.066 CG0
ATOM     18  G   UNL     1     -16.861  10.956 -28.778  1.00  0.00     0.000 G0
ENDBRANCH  13  17
ENDBRANCH  11  13
ENDBRANCH  10  11
ENDBRANCH   1  10
TORSDOF 0
ENDMDL
MODEL 4
REMARK VINA RESULT:    -3.668      9.366     12.398
REMARK INTER + INTRA:          -4.686
REMARK INTER:                  -5.586
REMARK INTRA:                   0.900
REMARK UNBOUND:                 0.483
REMARK SMILES CC1=CCC(=C(C)C)C(=O)CC(C)=CCC1
REMARK SMILES IDX 12 1 14 2 13 3 15 4 16 5 2 6 1 7 3 8 11 10 9 11 10 12 5 13
REMARK SMILES IDX 6 14 7 15 8 16 4 17
REMARK H PARENT
REMARK Flexibility Score: 60.00
ROOT
ATOM      1  C   UNL     1     -28.585  13.683 -30.529  1.00  0.00    -0.070 C 
ATOM      2  C   UNL     1     -29.081  12.843 -29.595  1.00  0.00    -0.027 C 
ATOM      3  C   UNL     1     -29.563  14.376 -31.446  1.00  0.00     0.039 C 
ENDROOT
BRANCH   2   4
ATOM      4  C   UNL     1     -28.261  11.987 -28.654  1.00  0.00     0.032 C 
BRANCH   4   5
ATOM      5  C   UNL     1     -28.265  10.478 -28.982  1.00  0.00     0.034 C 
BRANCH   5   6
ATOM      6  C   UNL     1     -28.629  10.181 -30.425  1.00  0.00    -0.077 C 
ATOM      7  C   UNL     1     -30.087   9.971 -30.752  1.00  0.00     0.039 C 
ATOM      8  C   UNL     1     -27.726  10.024 -31.424  1.00  0.00    -0.023 CG0
ATOM      9  G   UNL     1     -26.224  10.204 -31.335  1.00  0.00     0.000 G0
ENDBRANCH   5   6
ENDBRANCH   4   5
ENDBRANCH   2   4
BRANCH   1  10
ATOM     10  C   UNL     1     -27.102  13.890 -30.760  1.00  0.00     0.111 C 
BRANCH  10  11
ATOM     11  C   UNL     1     -26.500  12.762 -31.555  1.00  0.00     0.163 C 
ATOM     12  O   UNL     1     -26.639  12.778 -32.808  1.00  0.00    -0.294 OA
BRANCH  11  13
ATOM     13  C   UNL     1     -25.805  11.609 -30.910  1.00  0.00    -0.002 C 
ATOM     14  C   UNL     1     -24.789  11.813 -30.019  1.00  0.00    -0.069 C 
ATOM     15  C   UNL     1     -24.439  13.203 -29.535  1.00  0.00     0.039 C 
ATOM     16  C   UNL     1     -23.962  10.670 -29.471  1.00  0.00     0.039 C 
BRANCH  13  17
ATOM     17  C   UNL     1     -26.210  10.213 -31.360  1.00  0.00     0.066 CG0
ATOM     18  G   UNL     1     -27.714  10.037 -31.405  1.00  0.00     0.000 G0
ENDBRANCH  13  17
ENDBRANCH  11  13
ENDBRANCH  10  11
ENDBRANCH   1  10
TORSDOF 0
ENDMDL
MODEL 5
REMARK VINA RESULT:    -3.553      9.037     10.982
REMARK INTER + INTRA:          -4.525
REMARK INTER:                  -4.724
REMARK INTRA:                   0.200
REMARK UNBOUND:                 0.483
REMARK SMILES CC1=CCC(=C(C)C)C(=O)CC(C)=CCC1
REMARK SMILES IDX 12 1 14 2 13 3 15 4 16 5 2 6 1 7 3 8 11 10 9 11 10 12 5 13
REMARK SMILES IDX 6 14 7 15 8 16 4 17
REMARK H PARENT
REMARK Flexibility Score: 60.00
ROOT
ATOM      1  C   UNL     1     -24.481  13.933 -30.559  1.00  0.00    -0.070 C 
ATOM      2  C   UNL     1     -23.544  13.135 -30.002  1.00  0.00    -0.027 C 
ATOM      3  C   UNL     1     -24.017  15.016 -31.501  1.00  0.00     0.039 C 
ENDROOT
BRANCH   2   4
ATOM      4  C   UNL     1     -23.801  12.064 -28.965  1.00  0.00     0.032 C 
BRANCH   4   5
ATOM      5  C   UNL     1     -24.415  10.760 -29.519  1.00  0.00     0.034 C 
BRANCH   5   6
ATOM      6  C   UNL     1     -25.635  10.298 -28.743  1.00  0.00    -0.077 C 
ATOM      7  C   UNL     1     -25.434   9.875 -27.308  1.00  0.00     0.039 C 
ATOM      8  C   UNL     1     -26.876  10.173 -29.274  1.00  0.00    -0.023 CG0
ATOM      9  G   UNL     1     -27.313  10.551 -30.674  1.00  0.00     0.000 G0
ENDBRANCH   5   6
ENDBRANCH   4   5
ENDBRANCH   2   4
BRANCH   1  10
ATOM     10  C   UNL     1     -25.954  13.854 -30.214  1.00  0.00     0.111 C 
BRANCH  10  11
ATOM     11  C   UNL     1     -26.713  13.011 -31.205  1.00  0.00     0.163 C 
ATOM     12  O   UNL     1     -26.491  13.194 -32.432  1.00  0.00    -0.294 OA
BRANCH  11  13
ATOM     13  C   UNL     1     -27.750  12.021 -30.787  1.00  0.00    -0.002 C 
ATOM     14  C   UNL     1     -29.004  12.430 -30.431  1.00  0.00    -0.069 C 
ATOM     15  C   UNL     1     -29.436  13.871 -30.595  1.00  0.00     0.039 C 
ATOM     16  C   UNL     1     -30.026  11.473 -29.853  1.00  0.00     0.039 C 
BRANCH  13  17
ATOM     17  C   UNL     1     -27.321  10.566 -30.687  1.00  0.00     0.066 CG0
ATOM     18  G   UNL     1     -26.883  10.190 -29.285  1.00  0.00     0.000 G0
ENDBRANCH  13  17
ENDBRANCH  11  13
ENDBRANCH  10  11
ENDBRANCH   1  10
TORSDOF 0
ENDMDL
MODEL 6
REMARK VINA RESULT:    -3.553      1.825      3.591
REMARK INTER + INTRA:          -4.524
REMARK INTER:                  -4.994
REMARK INTRA:                   0.470
REMARK UNBOUND:                 0.483
REMARK SMILES CC1=CCC(=C(C)C)C(=O)CC(C)=CCC1
REMARK SMILES IDX 12 1 14 2 13 3 15 4 16 5 2 6 1 7 3 8 11 10 9 11 10 12 5 13
REMARK SMILES IDX 6 14 7 15 8 16 4 17
REMARK H PARENT
REMARK Flexibility Score: 60.00
ROOT
ATOM      1  C   UNL     1     -13.996  11.979 -29.024  1.00  0.00    -0.070 C 
ATOM      2  C   UNL     1     -13.631  13.125 -29.639  1.00  0.00    -0.027 C 
ATOM      3  C   UNL     1     -13.040  10.813 -29.080  1.00  0.00     0.039 C 
ENDROOT
BRANCH   2   4
ATOM      4  C   UNL     1     -14.488  14.364 -29.777  1.00  0.00     0.032 C 
BRANCH   4   5
ATOM      5  C   UNL     1     -14.875  14.726 -31.227  1.00  0.00     0.034 C 
BRANCH   5   6
ATOM      6  C   UNL     1     -15.372  13.536 -32.027  1.00  0.00    -0.077 C 
ATOM      7  C   UNL     1     -14.580  13.130 -33.246  1.00  0.00     0.039 C 
ATOM      8  C   UNL     1     -16.516  12.859 -31.760  1.00  0.00    -0.023 CG0
ATOM      9  G   UNL     1     -17.454  13.075 -30.589  1.00  0.00     0.000 G0
ENDBRANCH   5   6
ENDBRANCH   4   5
ENDBRANCH   2   4
BRANCH   1  10
ATOM     10  C   UNL     1     -15.346  11.780 -28.367  1.00  0.00     0.111 C 
BRANCH  10  11
ATOM     11  C   UNL     1     -16.331  11.133 -29.305  1.00  0.00     0.163 C 
ATOM     12  O   UNL     1     -16.043  10.001 -29.779  1.00  0.00    -0.294 OA
BRANCH  11  13
ATOM     13  C   UNL     1     -17.593  11.807 -29.732  1.00  0.00    -0.002 C 
ATOM     14  C   UNL     1     -18.811  11.260 -29.443  1.00  0.00    -0.069 C 
ATOM     15  C   UNL     1     -18.933  10.045 -28.550  1.00  0.00     0.039 C 
ATOM     16  C   UNL     1     -20.099  11.831 -29.997  1.00  0.00     0.039 C 
BRANCH  13  17
ATOM     17  C   UNL     1     -17.457  13.064 -30.578  1.00  0.00     0.066 CG0
ATOM     18  G   UNL     1     -16.530  12.865 -31.760  1.00  0.00     0.000 G0
ENDBRANCH  13  17
ENDBRANCH  11  13
ENDBRANCH  10  11
ENDBRANCH   1  10
TORSDOF 0
ENDMDL
MODEL 7
REMARK VINA RESULT:    -3.525      1.646      3.269
REMARK INTER + INTRA:          -4.484
REMARK INTER:                  -4.906
REMARK INTRA:                   0.422
REMARK UNBOUND:                 0.483
REMARK SMILES CC1=CCC(=C(C)C)C(=O)CC(C)=CCC1
REMARK SMILES IDX 12 1 14 2 13 3 15 4 16 5 2 6 1 7 3 8 11 10 9 11 10 12 5 13
REMARK SMILES IDX 6 14 7 15 8 16 4 17
REMARK H PARENT
REMARK Flexibility Score: 60.00
ROOT
ATOM      1  C   UNL     1     -13.200  11.285 -29.994  1.00  0.00    -0.070 C 
ATOM      2  C   UNL     1     -12.842  12.095 -31.014  1.00  0.00    -0.027 C 
ATOM      3  C   UNL     1     -12.142  10.915 -28.982  1.00  0.00     0.039 C 
ENDROOT
BRANCH   2   4
ATOM      4  C   UNL     1     -13.728  12.496 -32.174  1.00  0.00     0.032 C 
BRANCH   4   5
ATOM      5  C   UNL     1     -13.964  14.015 -32.312  1.00  0.00     0.034 C 
BRANCH   5   6
ATOM      6  C   UNL     1     -14.480  14.659 -31.038  1.00  0.00    -0.077 C 
ATOM      7  C   UNL     1     -13.641  15.746 -30.413  1.00  0.00     0.039 C 
ATOM      8  C   UNL     1     -15.607  14.274 -30.390  1.00  0.00    -0.023 CG0
ATOM      9  G   UNL     1     -16.606  13.227 -30.837  1.00  0.00     0.000 G0
ENDBRANCH   5   6
ENDBRANCH   4   5
ENDBRANCH   2   4
BRANCH   1  10
ATOM     10  C   UNL     1     -14.574  10.660 -29.868  1.00  0.00     0.111 C 
BRANCH  10  11
ATOM     11  C   UNL     1     -15.542  11.581 -29.174  1.00  0.00     0.163 C 
ATOM     12  O   UNL     1     -15.317  11.881 -27.970  1.00  0.00    -0.294 OA
BRANCH  11  13
ATOM     13  C   UNL     1     -16.777  12.095 -29.838  1.00  0.00    -0.002 C 
ATOM     14  C   UNL     1     -17.990  11.507 -29.612  1.00  0.00    -0.069 C 
ATOM     15  C   UNL     1     -18.154  10.424 -28.569  1.00  0.00     0.039 C 
ATOM     16  C   UNL     1     -19.229  11.901 -30.387  1.00  0.00     0.039 C 
BRANCH  13  17
ATOM     17  C   UNL     1     -16.607  13.227 -30.839  1.00  0.00     0.066 CG0
ATOM     18  G   UNL     1     -15.604  14.263 -30.372  1.00  0.00     0.000 G0
ENDBRANCH  13  17
ENDBRANCH  11  13
ENDBRANCH  10  11
ENDBRANCH   1  10
TORSDOF 0
ENDMDL
MODEL 8
REMARK VINA RESULT:    -3.517      2.144      5.147
REMARK INTER + INTRA:          -4.473
REMARK INTER:                  -5.620
REMARK INTRA:                   1.147
REMARK UNBOUND:                 0.483
REMARK SMILES CC1=CCC(=C(C)C)C(=O)CC(C)=CCC1
REMARK SMILES IDX 12 1 14 2 13 3 15 4 16 5 2 6 1 7 3 8 11 10 9 11 10 12 5 13
REMARK SMILES IDX 6 14 7 15 8 16 4 17
REMARK H PARENT
REMARK Flexibility Score: 60.00
ROOT
ATOM      1  C   UNL     1     -13.890  11.016 -28.344  1.00  0.00    -0.070 C 
ATOM      2  C   UNL     1     -14.972  11.314 -27.591  1.00  0.00    -0.027 C 
ATOM      3  C   UNL     1     -12.533  11.085 -27.688  1.00  0.00     0.039 C 
ENDROOT
BRANCH   2   4
ATOM      4  C   UNL     1     -16.398  11.396 -28.090  1.00  0.00     0.032 C 
BRANCH   4   5
ATOM      5  C   UNL     1     -16.840  12.798 -28.561  1.00  0.00     0.034 C 
BRANCH   5   6
ATOM      6  C   UNL     1     -16.849  12.946 -30.072  1.00  0.00    -0.077 C 
ATOM      7  C   UNL     1     -18.127  12.612 -30.801  1.00  0.00     0.039 C 
ATOM      8  C   UNL     1     -15.767  13.290 -30.812  1.00  0.00    -0.023 CG0
ATOM      9  G   UNL     1     -14.396  13.682 -30.300  1.00  0.00     0.000 G0
ENDBRANCH   5   6
ENDBRANCH   4   5
ENDBRANCH   2   4
BRANCH   1  10
ATOM     10  C   UNL     1     -13.966  10.708 -29.825  1.00  0.00     0.111 C 
BRANCH  10  11
ATOM     11  C   UNL     1     -12.985  11.533 -30.616  1.00  0.00     0.163 C 
ATOM     12  O   UNL     1     -11.860  11.029 -30.878  1.00  0.00    -0.294 OA
BRANCH  11  13
ATOM     13  C   UNL     1     -13.276  12.935 -31.041  1.00  0.00    -0.002 C 
ATOM     14  C   UNL     1     -12.512  13.551 -31.992  1.00  0.00    -0.069 C 
ATOM     15  C   UNL     1     -11.450  12.791 -32.757  1.00  0.00     0.039 C 
ATOM     16  C   UNL     1     -12.679  15.016 -32.330  1.00  0.00     0.039 C 
BRANCH  13  17
ATOM     17  C   UNL     1     -14.388  13.667 -30.307  1.00  0.00     0.066 CG0
ATOM     18  G   UNL     1     -15.764  13.280 -30.811  1.00  0.00     0.000 G0
ENDBRANCH  13  17
ENDBRANCH  11  13
ENDBRANCH  10  11
ENDBRANCH   1  10
TORSDOF 0
ENDMDL
MODEL 9
REMARK VINA RESULT:    -3.314      1.958      4.347
REMARK INTER + INTRA:          -4.188
REMARK INTER:                  -4.813
REMARK INTRA:                   0.625
REMARK UNBOUND:                 0.483
REMARK SMILES CC1=CCC(=C(C)C)C(=O)CC(C)=CCC1
REMARK SMILES IDX 12 1 14 2 13 3 15 4 16 5 2 6 1 7 3 8 11 10 9 11 10 12 5 13
REMARK SMILES IDX 6 14 7 15 8 16 4 17
REMARK H PARENT
REMARK Flexibility Score: 60.00
ROOT
ATOM      1  C   UNL     1     -16.359  12.455 -31.130  1.00  0.00    -0.070 C 
ATOM      2  C   UNL     1     -16.506  11.487 -30.200  1.00  0.00    -0.027 C 
ATOM      3  C   UNL     1     -17.407  13.538 -31.194  1.00  0.00     0.039 C 
ENDROOT
BRANCH   2   4
ATOM      4  C   UNL     1     -15.619  10.270 -30.045  1.00  0.00     0.032 C 
BRANCH   4   5
ATOM      5  C   UNL     1     -15.039  10.068 -28.629  1.00  0.00     0.034 C 
BRANCH   5   6
ATOM      6  C   UNL     1     -14.042  11.142 -28.232  1.00  0.00    -0.077 C 
ATOM      7  C   UNL     1     -14.188  11.764 -26.865  1.00  0.00     0.039 C 
ATOM      8  C   UNL     1     -13.076  11.627 -29.050  1.00  0.00    -0.023 CG0
ATOM      9  G   UNL     1     -12.735  11.148 -30.446  1.00  0.00     0.000 G0
ENDBRANCH   5   6
ENDBRANCH   4   5
ENDBRANCH   2   4
BRANCH   1  10
ATOM     10  C   UNL     1     -15.252  12.455 -32.165  1.00  0.00     0.111 C 
BRANCH  10  11
ATOM     11  C   UNL     1     -13.985  13.064 -31.624  1.00  0.00     0.163 C 
ATOM     12  O   UNL     1     -13.991  14.293 -31.343  1.00  0.00    -0.294 OA
BRANCH  11  13
ATOM     13  C   UNL     1     -12.722  12.284 -31.469  1.00  0.00    -0.002 C 
ATOM     14  C   UNL     1     -11.642  12.533 -32.269  1.00  0.00    -0.069 C 
ATOM     15  C   UNL     1     -11.630  13.703 -33.227  1.00  0.00     0.039 C 
ATOM     16  C   UNL     1     -10.408  11.658 -32.245  1.00  0.00     0.039 C 
BRANCH  13  17
ATOM     17  C   UNL     1     -12.727  11.148 -30.457  1.00  0.00     0.066 CG0
ATOM     18  G   UNL     1     -13.076  11.623 -29.061  1.00  0.00     0.000 G0
ENDBRANCH  13  17
ENDBRANCH  11  13
ENDBRANCH  10  11
ENDBRANCH   1  10
TORSDOF 0
ENDMDL
