MODEL 1
REMARK VINA RESULT:    -4.774      0.000      0.000
REMARK INTER + INTRA:          -5.395
REMARK INTER:                  -5.332
REMARK INTRA:                  -0.064
REMARK UNBOUND:                -0.064
REMARK SMILES COc1ccc(C(=O)[O-])cc1
REMARK SMILES IDX 6 1 5 2 10 3 4 4 11 5 3 6 7 7 8 8 9 9 2 10 1 11
REMARK H PARENT
REMARK Flexibility Score: inf
ROOT
ATOM      1  C   UNL     1      11.637 -16.025  31.222  1.00  0.00    -0.003 A 
ATOM      2  C   UNL     1      10.489 -15.643  31.937  1.00  0.00     0.014 A 
ATOM      3  C   UNL     1      12.065 -17.362  31.288  1.00  0.00     0.014 A 
ATOM      4  C   UNL     1       9.784 -16.578  32.702  1.00  0.00     0.047 A 
ATOM      5  C   UNL     1      11.360 -18.295  32.053  1.00  0.00     0.047 A 
ATOM      6  C   UNL     1      10.217 -17.914  32.766  1.00  0.00     0.118 A 
ENDROOT
BRANCH   1   7
ATOM      7  C   UNL     1      12.385 -15.040  30.410  1.00  0.00     0.071 C 
ATOM      8  O   UNL     1      13.617 -14.854  30.604  1.00  0.00    -0.545 OA
ATOM      9  O   UNL     1      11.742 -14.308  29.420  1.00  0.00    -0.545 OA
ENDBRANCH   1   7
BRANCH   6  10
ATOM     10  O   UNL     1       9.545 -18.888  33.519  1.00  0.00    -0.497 OA
ATOM     11  C   UNL     1      10.110 -20.136  33.906  1.00  0.00     0.278 C 
ENDBRANCH   6  10
TORSDOF 2
ENDMDL
MODEL 2
REMARK VINA RESULT:    -4.686      1.838      5.256
REMARK INTER + INTRA:          -5.297
REMARK INTER:                  -5.236
REMARK INTRA:                  -0.061
REMARK UNBOUND:                -0.064
REMARK SMILES COc1ccc(C(=O)[O-])cc1
REMARK SMILES IDX 6 1 5 2 10 3 4 4 11 5 3 6 7 7 8 8 9 9 2 10 1 11
REMARK H PARENT
REMARK Flexibility Score: inf
ROOT
ATOM      1  C   UNL     1      11.641 -16.089  31.517  1.00  0.00    -0.003 A 
ATOM      2  C   UNL     1      13.024 -16.223  31.731  1.00  0.00     0.014 A 
ATOM      3  C   UNL     1      11.191 -15.258  30.476  1.00  0.00     0.014 A 
ATOM      4  C   UNL     1      13.937 -15.541  30.921  1.00  0.00     0.047 A 
ATOM      5  C   UNL     1      12.105 -14.577  29.668  1.00  0.00     0.047 A 
ATOM      6  C   UNL     1      13.482 -14.710  29.881  1.00  0.00     0.118 A 
ENDROOT
BRANCH   1   7
ATOM      7  C   UNL     1      10.670 -16.809  32.371  1.00  0.00     0.071 C 
ATOM      8  O   UNL     1       9.787 -16.176  33.010  1.00  0.00    -0.545 OA
ATOM      9  O   UNL     1      10.718 -18.193  32.479  1.00  0.00    -0.545 OA
ENDBRANCH   1   7
BRANCH   6  10
ATOM     10  O   UNL     1      14.357 -14.005  29.041  1.00  0.00    -0.497 OA
ATOM     11  C   UNL     1      14.131 -13.775  27.655  1.00  0.00     0.278 C 
ENDBRANCH   6  10
TORSDOF 2
ENDMDL
MODEL 3
REMARK VINA RESULT:    -4.673     12.087     12.858
REMARK INTER + INTRA:          -5.283
REMARK INTER:                  -5.224
REMARK INTRA:                  -0.059
REMARK UNBOUND:                -0.064
REMARK SMILES COc1ccc(C(=O)[O-])cc1
REMARK SMILES IDX 6 1 5 2 10 3 4 4 11 5 3 6 7 7 8 8 9 9 2 10 1 11
REMARK H PARENT
REMARK Flexibility Score: inf
ROOT
ATOM      1  C   UNL     1       9.342 -22.260  20.983  1.00  0.00    -0.003 A 
ATOM      2  C   UNL     1       8.049 -22.795  20.849  1.00  0.00     0.014 A 
ATOM      3  C   UNL     1       9.505 -20.864  20.970  1.00  0.00     0.014 A 
ATOM      4  C   UNL     1       6.943 -21.951  20.704  1.00  0.00     0.047 A 
ATOM      5  C   UNL     1       8.399 -20.023  20.825  1.00  0.00     0.047 A 
ATOM      6  C   UNL     1       7.111 -20.555  20.690  1.00  0.00     0.118 A 
ENDROOT
BRANCH   1   7
ATOM      7  C   UNL     1      10.516 -23.148  21.137  1.00  0.00     0.071 C 
ATOM      8  O   UNL     1      11.426 -23.162  20.266  1.00  0.00    -0.545 OA
ATOM      9  O   UNL     1      10.631 -23.978  22.245  1.00  0.00    -0.545 OA
ENDBRANCH   1   7
BRANCH   6  10
ATOM     10  O   UNL     1       6.034 -19.668  20.548  1.00  0.00    -0.497 OA
ATOM     11  C   UNL     1       6.060 -18.495  19.743  1.00  0.00     0.278 C 
ENDBRANCH   6  10
TORSDOF 2
ENDMDL
MODEL 4
REMARK VINA RESULT:    -4.516      1.000      4.764
REMARK INTER + INTRA:          -5.108
REMARK INTER:                  -5.055
REMARK INTRA:                  -0.053
REMARK UNBOUND:                -0.064
REMARK SMILES COc1ccc(C(=O)[O-])cc1
REMARK SMILES IDX 6 1 5 2 10 3 4 4 11 5 3 6 7 7 8 8 9 9 2 10 1 11
REMARK H PARENT
REMARK Flexibility Score: inf
ROOT
ATOM      1  C   UNL     1      10.284 -18.310  32.730  1.00  0.00    -0.003 A 
ATOM      2  C   UNL     1       9.745 -17.033  32.966  1.00  0.00     0.014 A 
ATOM      3  C   UNL     1      11.377 -18.437  31.855  1.00  0.00     0.014 A 
ATOM      4  C   UNL     1      10.288 -15.907  32.339  1.00  0.00     0.047 A 
ATOM      5  C   UNL     1      11.917 -17.310  31.230  1.00  0.00     0.047 A 
ATOM      6  C   UNL     1      11.381 -16.038  31.464  1.00  0.00     0.118 A 
ENDROOT
BRANCH   1   7
ATOM      7  C   UNL     1       9.714 -19.505  33.391  1.00  0.00     0.071 C 
ATOM      8  O   UNL     1      10.346 -20.090  34.311  1.00  0.00    -0.545 OA
ATOM      9  O   UNL     1       8.473 -19.998  33.007  1.00  0.00    -0.545 OA
ENDBRANCH   1   7
BRANCH   6  10
ATOM     10  O   UNL     1      11.960 -14.940  30.812  1.00  0.00    -0.497 OA
ATOM     11  C   UNL     1      11.824 -14.666  29.422  1.00  0.00     0.278 C 
ENDBRANCH   6  10
TORSDOF 2
ENDMDL
MODEL 5
REMARK VINA RESULT:    -4.463     11.009     11.943
REMARK INTER + INTRA:          -5.048
REMARK INTER:                  -4.995
REMARK INTRA:                  -0.053
REMARK UNBOUND:                -0.064
REMARK SMILES COc1ccc(C(=O)[O-])cc1
REMARK SMILES IDX 6 1 5 2 10 3 4 4 11 5 3 6 7 7 8 8 9 9 2 10 1 11
REMARK H PARENT
REMARK Flexibility Score: inf
ROOT
ATOM      1  C   UNL     1       7.275 -19.068  21.267  1.00  0.00    -0.003 A 
ATOM      2  C   UNL     1       7.435 -18.559  22.567  1.00  0.00     0.014 A 
ATOM      3  C   UNL     1       6.558 -18.312  20.323  1.00  0.00     0.014 A 
ATOM      4  C   UNL     1       6.889 -17.320  22.917  1.00  0.00     0.047 A 
ATOM      5  C   UNL     1       6.013 -17.074  20.675  1.00  0.00     0.047 A 
ATOM      6  C   UNL     1       6.171 -16.567  21.970  1.00  0.00     0.118 A 
ENDROOT
BRANCH   1   7
ATOM      7  C   UNL     1       7.851 -20.378  20.892  1.00  0.00     0.071 C 
ATOM      8  O   UNL     1       7.101 -21.365  20.662  1.00  0.00    -0.545 OA
ATOM      9  O   UNL     1       9.227 -20.539  20.785  1.00  0.00    -0.545 OA
ENDBRANCH   1   7
BRANCH   6  10
ATOM     10  O   UNL     1       5.605 -15.319  22.271  1.00  0.00    -0.497 OA
ATOM     11  C   UNL     1       4.234 -15.116  22.596  1.00  0.00     0.278 C 
ENDBRANCH   6  10
TORSDOF 2
ENDMDL
MODEL 6
REMARK VINA RESULT:    -4.430      2.361      3.281
REMARK INTER + INTRA:          -5.012
REMARK INTER:                  -4.950
REMARK INTRA:                  -0.062
REMARK UNBOUND:                -0.064
REMARK SMILES COc1ccc(C(=O)[O-])cc1
REMARK SMILES IDX 6 1 5 2 10 3 4 4 11 5 3 6 7 7 8 8 9 9 2 10 1 11
REMARK H PARENT
REMARK Flexibility Score: inf
ROOT
ATOM      1  C   UNL     1      13.475 -14.899  29.605  1.00  0.00    -0.003 A 
ATOM      2  C   UNL     1      14.001 -15.656  30.666  1.00  0.00     0.014 A 
ATOM      3  C   UNL     1      12.086 -14.697  29.536  1.00  0.00     0.014 A 
ATOM      4  C   UNL     1      13.154 -16.200  31.637  1.00  0.00     0.047 A 
ATOM      5  C   UNL     1      11.242 -15.242  30.507  1.00  0.00     0.047 A 
ATOM      6  C   UNL     1      11.765 -15.997  31.563  1.00  0.00     0.118 A 
ENDROOT
BRANCH   1   7
ATOM      7  C   UNL     1      14.366 -14.320  28.575  1.00  0.00     0.071 C 
ATOM      8  O   UNL     1      15.002 -15.068  27.785  1.00  0.00    -0.545 OA
ATOM      9  O   UNL     1      14.512 -12.942  28.463  1.00  0.00    -0.545 OA
ENDBRANCH   1   7
BRANCH   6  10
ATOM     10  O   UNL     1      10.875 -16.522  32.513  1.00  0.00    -0.497 OA
ATOM     11  C   UNL     1       9.564 -16.021  32.749  1.00  0.00     0.278 C 
ENDBRANCH   6  10
TORSDOF 2
ENDMDL
MODEL 7
REMARK VINA RESULT:    -4.413      2.093      5.494
REMARK INTER + INTRA:          -4.993
REMARK INTER:                  -4.927
REMARK INTRA:                  -0.066
REMARK UNBOUND:                -0.064
REMARK SMILES COc1ccc(C(=O)[O-])cc1
REMARK SMILES IDX 6 1 5 2 10 3 4 4 11 5 3 6 7 7 8 8 9 9 2 10 1 11
REMARK H PARENT
REMARK Flexibility Score: inf
ROOT
ATOM      1  C   UNL     1      12.101 -16.299  30.895  1.00  0.00    -0.003 A 
ATOM      2  C   UNL     1      13.490 -16.477  30.773  1.00  0.00     0.014 A 
ATOM      3  C   UNL     1      11.496 -15.208  30.249  1.00  0.00     0.014 A 
ATOM      4  C   UNL     1      14.257 -15.582  30.021  1.00  0.00     0.047 A 
ATOM      5  C   UNL     1      12.264 -14.314  29.499  1.00  0.00     0.047 A 
ATOM      6  C   UNL     1      13.647 -14.490  29.378  1.00  0.00     0.118 A 
ENDROOT
BRANCH   1   7
ATOM      7  C   UNL     1      11.285 -17.244  31.689  1.00  0.00     0.071 C 
ATOM      8  O   UNL     1      11.502 -18.484  31.630  1.00  0.00    -0.545 OA
ATOM      9  O   UNL     1      10.267 -16.777  32.512  1.00  0.00    -0.545 OA
ENDBRANCH   1   7
BRANCH   6  10
ATOM     10  O   UNL     1      14.373 -13.565  28.612  1.00  0.00    -0.497 OA
ATOM     11  C   UNL     1      13.788 -12.637  27.705  1.00  0.00     0.278 C 
ENDBRANCH   6  10
TORSDOF 2
ENDMDL
MODEL 8
REMARK VINA RESULT:    -4.337      2.600      3.894
REMARK INTER + INTRA:          -4.908
REMARK INTER:                  -4.850
REMARK INTRA:                  -0.058
REMARK UNBOUND:                -0.064
REMARK SMILES COc1ccc(C(=O)[O-])cc1
REMARK SMILES IDX 6 1 5 2 10 3 4 4 11 5 3 6 7 7 8 8 9 9 2 10 1 11
REMARK H PARENT
REMARK Flexibility Score: inf
ROOT
ATOM      1  C   UNL     1      10.241 -18.959  32.288  1.00  0.00    -0.003 A 
ATOM      2  C   UNL     1      10.244 -19.554  33.561  1.00  0.00     0.014 A 
ATOM      3  C   UNL     1       9.915 -19.746  31.170  1.00  0.00     0.014 A 
ATOM      4  C   UNL     1       9.927 -20.908  33.713  1.00  0.00     0.047 A 
ATOM      5  C   UNL     1       9.599 -21.099  31.324  1.00  0.00     0.047 A 
ATOM      6  C   UNL     1       9.603 -21.692  32.591  1.00  0.00     0.118 A 
ENDROOT
BRANCH   1   7
ATOM      7  C   UNL     1      10.574 -17.527  32.121  1.00  0.00     0.071 C 
ATOM      8  O   UNL     1      11.434 -17.164  31.274  1.00  0.00    -0.545 OA
ATOM      9  O   UNL     1       9.942 -16.561  32.895  1.00  0.00    -0.545 OA
ENDBRANCH   1   7
BRANCH   6  10
ATOM     10  O   UNL     1       9.278 -23.053  32.692  1.00  0.00    -0.497 OA
ATOM     11  C   UNL     1       9.945 -24.092  31.985  1.00  0.00     0.278 C 
ENDBRANCH   6  10
TORSDOF 2
ENDMDL
MODEL 9
REMARK VINA RESULT:    -4.239      3.061      6.343
REMARK INTER + INTRA:          -4.799
REMARK INTER:                  -4.747
REMARK INTRA:                  -0.051
REMARK UNBOUND:                -0.064
REMARK SMILES COc1ccc(C(=O)[O-])cc1
REMARK SMILES IDX 6 1 5 2 10 3 4 4 11 5 3 6 7 7 8 8 9 9 2 10 1 11
REMARK H PARENT
REMARK Flexibility Score: inf
ROOT
ATOM      1  C   UNL     1       9.588 -21.959  32.291  1.00  0.00    -0.003 A 
ATOM      2  C   UNL     1       9.501 -21.321  31.042  1.00  0.00     0.014 A 
ATOM      3  C   UNL     1       9.988 -21.209  33.411  1.00  0.00     0.014 A 
ATOM      4  C   UNL     1       9.808 -19.963  30.914  1.00  0.00     0.047 A 
ATOM      5  C   UNL     1      10.295 -19.852  33.282  1.00  0.00     0.047 A 
ATOM      6  C   UNL     1      10.209 -19.217  32.037  1.00  0.00     0.118 A 
ENDROOT
BRANCH   1   7
ATOM      7  C   UNL     1       9.263 -23.396  32.432  1.00  0.00     0.071 C 
ATOM      8  O   UNL     1      10.181 -24.258  32.478  1.00  0.00    -0.545 OA
ATOM      9  O   UNL     1       7.941 -23.814  32.516  1.00  0.00    -0.545 OA
ENDBRANCH   1   7
BRANCH   6  10
ATOM     10  O   UNL     1      10.528 -17.853  31.961  1.00  0.00    -0.497 OA
ATOM     11  C   UNL     1      11.788 -17.345  31.538  1.00  0.00     0.278 C 
ENDBRANCH   6  10
TORSDOF 2
ENDMDL
