MODEL 1
REMARK VINA RESULT:    -4.791      0.000      0.000
REMARK INTER + INTRA:          -9.355
REMARK INTER:                  -8.151
REMARK INTRA:                  -1.204
REMARK UNBOUND:                -1.204
REMARK SMILES CCCCCCCCCCCCCC(=O)[O-]
REMARK SMILES IDX 8 1 9 2 10 3 11 4 12 5 13 6 14 7 15 8 16 9 7 10 6 11 5 12
REMARK SMILES IDX 4 13 3 14 2 15 1 16
REMARK H PARENT
REMARK Flexibility Score: inf
ROOT
ATOM      1  C   UNL     1      -5.700  36.543  21.118  1.00  0.00     0.000 C 
ENDROOT
BRANCH   1   2
ATOM      2  C   UNL     1      -5.061  37.425  20.029  1.00  0.00     0.000 C 
BRANCH   2   3
ATOM      3  C   UNL     1      -3.600  37.079  19.690  1.00  0.00     0.000 C 
BRANCH   3   4
ATOM      4  C   UNL     1      -2.870  38.219  18.958  1.00  0.00     0.000 C 
BRANCH   4   5
ATOM      5  C   UNL     1      -2.000  37.724  17.788  1.00  0.00     0.006 C 
BRANCH   5   6
ATOM      6  C   UNL     1      -2.790  36.980  16.696  1.00  0.00     0.053 C 
BRANCH   6   7
ATOM      7  C   UNL     1      -2.674  37.634  15.353  1.00  0.00     0.041 C 
ATOM      8  O   UNL     1      -1.832  37.219  14.514  1.00  0.00    -0.550 OA
ATOM      9  O   UNL     1      -3.482  38.718  15.037  1.00  0.00    -0.550 OA
ENDBRANCH   6   7
ENDBRANCH   5   6
ENDBRANCH   4   5
ENDBRANCH   3   4
ENDBRANCH   2   3
ENDBRANCH   1   2
BRANCH   1  10
ATOM     10  C   UNL     1      -4.680  36.041  22.156  1.00  0.00     0.000 C 
BRANCH  10  11
ATOM     11  C   UNL     1      -5.346  35.613  23.475  1.00  0.00    -0.000 C 
BRANCH  11  12
ATOM     12  C   UNL     1      -6.123  36.763  24.142  1.00  0.00    -0.000 C 
BRANCH  12  13
ATOM     13  C   UNL     1      -5.337  37.420  25.289  1.00  0.00    -0.000 C 
BRANCH  13  14
ATOM     14  C   UNL     1      -4.620  38.711  24.853  1.00  0.00    -0.000 C 
BRANCH  14  15
ATOM     15  C   UNL     1      -5.267  39.354  23.617  1.00  0.00    -0.003 C 
ATOM     16  C   UNL     1      -4.246  39.755  22.553  1.00  0.00     0.004 C 
ENDBRANCH  14  15
ENDBRANCH  13  14
ENDBRANCH  12  13
ENDBRANCH  11  12
ENDBRANCH  10  11
ENDBRANCH   1  10
TORSDOF 12
ENDMDL
MODEL 2
REMARK VINA RESULT:    -4.745      0.884      1.811
REMARK INTER + INTRA:          -9.278
REMARK INTER:                  -7.786
REMARK INTRA:                  -1.492
REMARK UNBOUND:                -1.204
REMARK SMILES CCCCCCCCCCCCCC(=O)[O-]
REMARK SMILES IDX 8 1 9 2 10 3 11 4 12 5 13 6 14 7 15 8 16 9 7 10 6 11 5 12
REMARK SMILES IDX 4 13 3 14 2 15 1 16
REMARK H PARENT
REMARK Flexibility Score: inf
ROOT
ATOM      1  C   UNL     1      -4.711  36.045  22.212  1.00  0.00     0.000 C 
ENDROOT
BRANCH   1   2
ATOM      2  C   UNL     1      -5.697  36.572  21.154  1.00  0.00     0.000 C 
BRANCH   2   3
ATOM      3  C   UNL     1      -5.285  36.309  19.694  1.00  0.00     0.000 C 
BRANCH   3   4
ATOM      4  C   UNL     1      -3.788  36.562  19.441  1.00  0.00     0.000 C 
BRANCH   4   5
ATOM      5  C   UNL     1      -3.481  38.019  19.051  1.00  0.00     0.006 C 
BRANCH   5   6
ATOM      6  C   UNL     1      -2.172  38.189  18.260  1.00  0.00     0.053 C 
BRANCH   6   7
ATOM      7  C   UNL     1      -2.288  37.720  16.842  1.00  0.00     0.041 C 
ATOM      8  O   UNL     1      -3.019  38.338  16.025  1.00  0.00    -0.550 OA
ATOM      9  O   UNL     1      -1.603  36.584  16.428  1.00  0.00    -0.550 OA
ENDBRANCH   6   7
ENDBRANCH   5   6
ENDBRANCH   4   5
ENDBRANCH   3   4
ENDBRANCH   2   3
ENDBRANCH   1   2
BRANCH   1  10
ATOM     10  C   UNL     1      -5.416  35.469  23.453  1.00  0.00     0.000 C 
BRANCH  10  11
ATOM     11  C   UNL     1      -5.978  36.566  24.373  1.00  0.00    -0.000 C 
BRANCH  11  12
ATOM     12  C   UNL     1      -4.870  37.339  25.112  1.00  0.00    -0.000 C 
BRANCH  12  13
ATOM     13  C   UNL     1      -4.878  38.841  24.786  1.00  0.00    -0.000 C 
BRANCH  13  14
ATOM     14  C   UNL     1      -6.008  39.232  23.816  1.00  0.00    -0.000 C 
BRANCH  14  15
ATOM     15  C   UNL     1      -5.477  39.842  22.510  1.00  0.00    -0.003 C 
ATOM     16  C   UNL     1      -3.954  39.773  22.398  1.00  0.00     0.004 C 
ENDBRANCH  14  15
ENDBRANCH  13  14
ENDBRANCH  12  13
ENDBRANCH  11  12
ENDBRANCH  10  11
ENDBRANCH   1  10
TORSDOF 12
ENDMDL
MODEL 3
REMARK VINA RESULT:    -4.718      2.940      6.933
REMARK INTER + INTRA:          -9.231
REMARK INTER:                  -8.366
REMARK INTRA:                  -0.865
REMARK UNBOUND:                -1.204
REMARK SMILES CCCCCCCCCCCCCC(=O)[O-]
REMARK SMILES IDX 8 1 9 2 10 3 11 4 12 5 13 6 14 7 15 8 16 9 7 10 6 11 5 12
REMARK SMILES IDX 4 13 3 14 2 15 1 16
REMARK H PARENT
REMARK Flexibility Score: inf
ROOT
ATOM      1  C   UNL     1      -4.797  36.308  21.407  1.00  0.00     0.000 C 
ENDROOT
BRANCH   1   2
ATOM      2  C   UNL     1      -6.043  36.354  22.310  1.00  0.00     0.000 C 
BRANCH   2   3
ATOM      3  C   UNL     1      -5.824  35.838  23.744  1.00  0.00     0.000 C 
BRANCH   3   4
ATOM      4  C   UNL     1      -5.881  36.957  24.798  1.00  0.00     0.000 C 
BRANCH   4   5
ATOM      5  C   UNL     1      -4.734  37.974  24.659  1.00  0.00     0.006 C 
BRANCH   5   6
ATOM      6  C   UNL     1      -5.206  39.410  24.367  1.00  0.00     0.053 C 
BRANCH   6   7
ATOM      7  C   UNL     1      -4.893  39.848  22.969  1.00  0.00     0.041 C 
ATOM      8  O   UNL     1      -3.708  39.825  22.546  1.00  0.00    -0.550 OA
ATOM      9  O   UNL     1      -5.910  40.306  22.141  1.00  0.00    -0.550 OA
ENDBRANCH   6   7
ENDBRANCH   5   6
ENDBRANCH   4   5
ENDBRANCH   3   4
ENDBRANCH   2   3
ENDBRANCH   1   2
BRANCH   1  10
ATOM     10  C   UNL     1      -4.853  37.330  20.258  1.00  0.00     0.000 C 
BRANCH  10  11
ATOM     11  C   UNL     1      -3.878  36.988  19.118  1.00  0.00    -0.000 C 
BRANCH  11  12
ATOM     12  C   UNL     1      -2.797  38.067  18.925  1.00  0.00    -0.000 C 
BRANCH  12  13
ATOM     13  C   UNL     1      -1.941  37.830  17.670  1.00  0.00    -0.000 C 
BRANCH  13  14
ATOM     14  C   UNL     1      -2.656  36.961  16.620  1.00  0.00    -0.000 C 
BRANCH  14  15
ATOM     15  C   UNL     1      -2.296  37.361  15.181  1.00  0.00    -0.003 C 
ATOM     16  C   UNL     1      -3.464  38.003  14.433  1.00  0.00     0.004 C 
ENDBRANCH  14  15
ENDBRANCH  13  14
ENDBRANCH  12  13
ENDBRANCH  11  12
ENDBRANCH  10  11
ENDBRANCH   1  10
TORSDOF 12
ENDMDL
MODEL 4
REMARK VINA RESULT:    -4.661      3.811      7.903
REMARK INTER + INTRA:          -9.135
REMARK INTER:                  -8.359
REMARK INTRA:                  -0.777
REMARK UNBOUND:                -1.204
REMARK SMILES CCCCCCCCCCCCCC(=O)[O-]
REMARK SMILES IDX 8 1 9 2 10 3 11 4 12 5 13 6 14 7 15 8 16 9 7 10 6 11 5 12
REMARK SMILES IDX 4 13 3 14 2 15 1 16
REMARK H PARENT
REMARK Flexibility Score: inf
ROOT
ATOM      1  C   UNL     1      -4.007  36.402  18.904  1.00  0.00     0.000 C 
ENDROOT
BRANCH   1   2
ATOM      2  C   UNL     1      -5.272  36.305  19.776  1.00  0.00     0.000 C 
BRANCH   2   3
ATOM      3  C   UNL     1      -5.225  37.122  21.080  1.00  0.00     0.000 C 
BRANCH   3   4
ATOM      4  C   UNL     1      -5.105  36.240  22.334  1.00  0.00     0.000 C 
BRANCH   4   5
ATOM      5  C   UNL     1      -6.085  36.644  23.450  1.00  0.00     0.006 C 
BRANCH   5   6
ATOM      6  C   UNL     1      -5.405  36.936  24.800  1.00  0.00     0.053 C 
BRANCH   6   7
ATOM      7  C   UNL     1      -5.214  38.402  25.045  1.00  0.00     0.041 C 
ATOM      8  O   UNL     1      -4.933  39.174  24.093  1.00  0.00    -0.550 OA
ATOM      9  O   UNL     1      -5.324  38.910  26.333  1.00  0.00    -0.550 OA
ENDBRANCH   6   7
ENDBRANCH   5   6
ENDBRANCH   4   5
ENDBRANCH   3   4
ENDBRANCH   2   3
ENDBRANCH   1   2
BRANCH   1  10
ATOM     10  C   UNL     1      -3.246  37.726  19.098  1.00  0.00     0.000 C 
BRANCH  10  11
ATOM     11  C   UNL     1      -2.721  38.303  17.772  1.00  0.00    -0.000 C 
BRANCH  11  12
ATOM     12  C   UNL     1      -1.632  37.420  17.137  1.00  0.00    -0.000 C 
BRANCH  12  13
ATOM     13  C   UNL     1      -1.708  37.400  15.601  1.00  0.00    -0.000 C 
BRANCH  13  14
ATOM     14  C   UNL     1      -3.119  37.071  15.081  1.00  0.00    -0.000 C 
BRANCH  14  15
ATOM     15  C   UNL     1      -3.529  37.955  13.894  1.00  0.00    -0.003 C 
ATOM     16  C   UNL     1      -3.884  39.382  14.311  1.00  0.00     0.004 C 
ENDBRANCH  14  15
ENDBRANCH  13  14
ENDBRANCH  12  13
ENDBRANCH  11  12
ENDBRANCH  10  11
ENDBRANCH   1  10
TORSDOF 12
ENDMDL
MODEL 5
REMARK VINA RESULT:    -4.456      0.713      1.332
REMARK INTER + INTRA:          -8.787
REMARK INTER:                  -7.744
REMARK INTRA:                  -1.043
REMARK UNBOUND:                -1.204
REMARK SMILES CCCCCCCCCCCCCC(=O)[O-]
REMARK SMILES IDX 8 1 9 2 10 3 11 4 12 5 13 6 14 7 15 8 16 9 7 10 6 11 5 12
REMARK SMILES IDX 4 13 3 14 2 15 1 16
REMARK H PARENT
REMARK Flexibility Score: inf
ROOT
ATOM      1  C   UNL     1      -5.055  36.612  19.654  1.00  0.00     0.000 C 
ENDROOT
BRANCH   1   2
ATOM      2  C   UNL     1      -4.299  37.949  19.549  1.00  0.00     0.000 C 
BRANCH   2   3
ATOM      3  C   UNL     1      -2.769  37.823  19.449  1.00  0.00     0.000 C 
BRANCH   3   4
ATOM      4  C   UNL     1      -2.215  38.314  18.100  1.00  0.00     0.000 C 
BRANCH   4   5
ATOM      5  C   UNL     1      -1.978  37.173  17.095  1.00  0.00     0.006 C 
BRANCH   5   6
ATOM      6  C   UNL     1      -3.172  36.909  16.160  1.00  0.00     0.053 C 
BRANCH   6   7
ATOM      7  C   UNL     1      -2.973  37.486  14.791  1.00  0.00     0.041 C 
ATOM      8  O   UNL     1      -3.924  38.059  14.199  1.00  0.00    -0.550 OA
ATOM      9  O   UNL     1      -1.740  37.370  14.162  1.00  0.00    -0.550 OA
ENDBRANCH   6   7
ENDBRANCH   5   6
ENDBRANCH   4   5
ENDBRANCH   3   4
ENDBRANCH   2   3
ENDBRANCH   1   2
BRANCH   1  10
ATOM     10  C   UNL     1      -5.703  36.396  21.034  1.00  0.00     0.000 C 
BRANCH  10  11
ATOM     11  C   UNL     1      -4.665  36.114  22.133  1.00  0.00    -0.000 C 
BRANCH  11  12
ATOM     12  C   UNL     1      -5.318  35.713  23.469  1.00  0.00    -0.000 C 
BRANCH  12  13
ATOM     13  C   UNL     1      -5.889  36.919  24.234  1.00  0.00    -0.000 C 
BRANCH  13  14
ATOM     14  C   UNL     1      -4.928  38.121  24.249  1.00  0.00    -0.000 C 
BRANCH  14  15
ATOM     15  C   UNL     1      -5.414  39.275  23.361  1.00  0.00    -0.003 C 
ATOM     16  C   UNL     1      -4.268  40.040  22.699  1.00  0.00     0.004 C 
ENDBRANCH  14  15
ENDBRANCH  13  14
ENDBRANCH  12  13
ENDBRANCH  11  12
ENDBRANCH  10  11
ENDBRANCH   1  10
TORSDOF 12
ENDMDL
MODEL 6
REMARK VINA RESULT:    -4.346      0.919      2.290
REMARK INTER + INTRA:          -8.599
REMARK INTER:                  -7.341
REMARK INTRA:                  -1.258
REMARK UNBOUND:                -1.204
REMARK SMILES CCCCCCCCCCCCCC(=O)[O-]
REMARK SMILES IDX 8 1 9 2 10 3 11 4 12 5 13 6 14 7 15 8 16 9 7 10 6 11 5 12
REMARK SMILES IDX 4 13 3 14 2 15 1 16
REMARK H PARENT
REMARK Flexibility Score: inf
ROOT
ATOM      1  C   UNL     1      -4.851  36.444  21.181  1.00  0.00     0.000 C 
ENDROOT
BRANCH   1   2
ATOM      2  C   UNL     1      -3.796  36.118  20.107  1.00  0.00     0.000 C 
BRANCH   2   3
ATOM      3  C   UNL     1      -4.364  35.850  18.702  1.00  0.00     0.000 C 
BRANCH   3   4
ATOM      4  C   UNL     1      -3.395  36.255  17.578  1.00  0.00     0.000 C 
BRANCH   4   5
ATOM      5  C   UNL     1      -2.682  37.592  17.850  1.00  0.00     0.006 C 
BRANCH   5   6
ATOM      6  C   UNL     1      -1.703  38.013  16.740  1.00  0.00     0.053 C 
BRANCH   6   7
ATOM      7  C   UNL     1      -2.317  37.954  15.375  1.00  0.00     0.041 C 
ATOM      8  O   UNL     1      -1.845  37.185  14.498  1.00  0.00    -0.550 OA
ATOM      9  O   UNL     1      -3.399  38.768  15.065  1.00  0.00    -0.550 OA
ENDBRANCH   6   7
ENDBRANCH   5   6
ENDBRANCH   4   5
ENDBRANCH   3   4
ENDBRANCH   2   3
ENDBRANCH   1   2
BRANCH   1  10
ATOM     10  C   UNL     1      -5.262  37.927  21.187  1.00  0.00     0.000 C 
BRANCH  10  11
ATOM     11  C   UNL     1      -4.067  38.868  21.417  1.00  0.00    -0.000 C 
BRANCH  11  12
ATOM     12  C   UNL     1      -4.236  39.736  22.677  1.00  0.00    -0.000 C 
BRANCH  12  13
ATOM     13  C   UNL     1      -5.505  39.385  23.472  1.00  0.00    -0.000 C 
BRANCH  13  14
ATOM     14  C   UNL     1      -5.192  38.835  24.875  1.00  0.00    -0.000 C 
BRANCH  14  15
ATOM     15  C   UNL     1      -4.871  37.333  24.861  1.00  0.00    -0.003 C 
ATOM     16  C   UNL     1      -6.106  36.464  24.625  1.00  0.00     0.004 C 
ENDBRANCH  14  15
ENDBRANCH  13  14
ENDBRANCH  12  13
ENDBRANCH  11  12
ENDBRANCH  10  11
ENDBRANCH   1  10
TORSDOF 12
ENDMDL
MODEL 7
REMARK VINA RESULT:    -4.275      3.935      7.592
REMARK INTER + INTRA:          -8.479
REMARK INTER:                  -7.647
REMARK INTRA:                  -0.832
REMARK UNBOUND:                -1.204
REMARK SMILES CCCCCCCCCCCCCC(=O)[O-]
REMARK SMILES IDX 8 1 9 2 10 3 11 4 12 5 13 6 14 7 15 8 16 9 7 10 6 11 5 12
REMARK SMILES IDX 4 13 3 14 2 15 1 16
REMARK H PARENT
REMARK Flexibility Score: inf
ROOT
ATOM      1  C   UNL     1      -5.374  36.281  19.531  1.00  0.00     0.000 C 
ENDROOT
BRANCH   1   2
ATOM      2  C   UNL     1      -5.484  36.949  20.914  1.00  0.00     0.000 C 
BRANCH   2   3
ATOM      3  C   UNL     1      -4.370  37.962  21.235  1.00  0.00     0.000 C 
BRANCH   3   4
ATOM      4  C   UNL     1      -4.909  39.376  21.512  1.00  0.00     0.000 C 
BRANCH   4   5
ATOM      5  C   UNL     1      -5.611  39.496  22.876  1.00  0.00     0.006 C 
BRANCH   5   6
ATOM      6  C   UNL     1      -4.646  39.508  24.075  1.00  0.00     0.053 C 
BRANCH   6   7
ATOM      7  C   UNL     1      -4.970  38.452  25.088  1.00  0.00     0.041 C 
ATOM      8  O   UNL     1      -5.306  38.775  26.257  1.00  0.00    -0.550 OA
ATOM      9  O   UNL     1      -4.877  37.110  24.745  1.00  0.00    -0.550 OA
ENDBRANCH   6   7
ENDBRANCH   5   6
ENDBRANCH   4   5
ENDBRANCH   3   4
ENDBRANCH   2   3
ENDBRANCH   1   2
BRANCH   1  10
ATOM     10  C   UNL     1      -3.924  35.939  19.144  1.00  0.00     0.000 C 
BRANCH  10  11
ATOM     11  C   UNL     1      -3.549  36.462  17.747  1.00  0.00    -0.000 C 
BRANCH  11  12
ATOM     12  C   UNL     1      -2.922  37.867  17.794  1.00  0.00    -0.000 C 
BRANCH  12  13
ATOM     13  C   UNL     1      -2.167  38.222  16.502  1.00  0.00    -0.000 C 
BRANCH  13  14
ATOM     14  C   UNL     1      -2.323  37.148  15.410  1.00  0.00    -0.000 C 
BRANCH  14  15
ATOM     15  C   UNL     1      -3.473  37.459  14.441  1.00  0.00    -0.003 C 
ATOM     16  C   UNL     1      -3.673  38.958  14.217  1.00  0.00     0.004 C 
ENDBRANCH  14  15
ENDBRANCH  13  14
ENDBRANCH  12  13
ENDBRANCH  11  12
ENDBRANCH  10  11
ENDBRANCH   1  10
TORSDOF 12
ENDMDL
MODEL 8
REMARK VINA RESULT:    -4.142      3.971      6.801
REMARK INTER + INTRA:          -8.251
REMARK INTER:                  -6.996
REMARK INTRA:                  -1.255
REMARK UNBOUND:                -1.204
REMARK SMILES CCCCCCCCCCCCCC(=O)[O-]
REMARK SMILES IDX 8 1 9 2 10 3 11 4 12 5 13 6 14 7 15 8 16 9 7 10 6 11 5 12
REMARK SMILES IDX 4 13 3 14 2 15 1 16
REMARK H PARENT
REMARK Flexibility Score: inf
ROOT
ATOM      1  C   UNL     1      -4.432  36.802  21.276  1.00  0.00     0.000 C 
ENDROOT
BRANCH   1   2
ATOM      2  C   UNL     1      -4.112  38.301  21.134  1.00  0.00     0.000 C 
BRANCH   2   3
ATOM      3  C   UNL     1      -5.326  39.238  21.260  1.00  0.00     0.000 C 
BRANCH   3   4
ATOM      4  C   UNL     1      -5.138  40.319  22.340  1.00  0.00     0.000 C 
BRANCH   4   5
ATOM      5  C   UNL     1      -4.769  39.737  23.716  1.00  0.00     0.006 C 
BRANCH   5   6
ATOM      6  C   UNL     1      -5.780  38.706  24.249  1.00  0.00     0.053 C 
BRANCH   6   7
ATOM      7  C   UNL     1      -5.124  37.583  24.992  1.00  0.00     0.041 C 
ATOM      8  O   UNL     1      -4.203  37.819  25.816  1.00  0.00    -0.550 OA
ATOM      9  O   UNL     1      -5.517  36.272  24.755  1.00  0.00    -0.550 OA
ENDBRANCH   6   7
ENDBRANCH   5   6
ENDBRANCH   4   5
ENDBRANCH   3   4
ENDBRANCH   2   3
ENDBRANCH   1   2
BRANCH   1  10
ATOM     10  C   UNL     1      -5.752  36.403  20.591  1.00  0.00     0.000 C 
BRANCH  10  11
ATOM     11  C   UNL     1      -5.561  36.046  19.107  1.00  0.00    -0.000 C 
BRANCH  11  12
ATOM     12  C   UNL     1      -4.107  35.660  18.778  1.00  0.00    -0.000 C 
BRANCH  12  13
ATOM     13  C   UNL     1      -3.572  36.378  17.528  1.00  0.00    -0.000 C 
BRANCH  13  14
ATOM     14  C   UNL     1      -2.953  37.749  17.852  1.00  0.00    -0.000 C 
BRANCH  14  15
ATOM     15  C   UNL     1      -1.417  37.718  17.840  1.00  0.00    -0.003 C 
ATOM     16  C   UNL     1      -0.797  38.562  18.953  1.00  0.00     0.004 C 
ENDBRANCH  14  15
ENDBRANCH  13  14
ENDBRANCH  12  13
ENDBRANCH  11  12
ENDBRANCH  10  11
ENDBRANCH   1  10
TORSDOF 12
ENDMDL
MODEL 9
REMARK VINA RESULT:    -4.141      1.512      2.779
REMARK INTER + INTRA:          -8.250
REMARK INTER:                  -6.960
REMARK INTRA:                  -1.291
REMARK UNBOUND:                -1.204
REMARK SMILES CCCCCCCCCCCCCC(=O)[O-]
REMARK SMILES IDX 8 1 9 2 10 3 11 4 12 5 13 6 14 7 15 8 16 9 7 10 6 11 5 12
REMARK SMILES IDX 4 13 3 14 2 15 1 16
REMARK H PARENT
REMARK Flexibility Score: inf
ROOT
ATOM      1  C   UNL     1      -5.214  38.570  20.594  1.00  0.00     0.000 C 
ENDROOT
BRANCH   1   2
ATOM      2  C   UNL     1      -5.336  37.062  20.306  1.00  0.00     0.000 C 
BRANCH   2   3
ATOM      3  C   UNL     1      -4.035  36.384  19.841  1.00  0.00     0.000 C 
BRANCH   3   4
ATOM      4  C   UNL     1      -4.205  35.604  18.525  1.00  0.00     0.000 C 
BRANCH   4   5
ATOM      5  C   UNL     1      -3.635  36.351  17.305  1.00  0.00     0.006 C 
BRANCH   5   6
ATOM      6  C   UNL     1      -3.117  37.764  17.626  1.00  0.00     0.053 C 
BRANCH   6   7
ATOM      7  C   UNL     1      -1.652  37.918  17.351  1.00  0.00     0.041 C 
ATOM      8  O   UNL     1      -1.211  37.806  16.178  1.00  0.00    -0.550 OA
ATOM      9  O   UNL     1      -0.772  38.165  18.396  1.00  0.00    -0.550 OA
ENDBRANCH   6   7
ENDBRANCH   5   6
ENDBRANCH   4   5
ENDBRANCH   3   4
ENDBRANCH   2   3
ENDBRANCH   1   2
BRANCH   1  10
ATOM     10  C   UNL     1      -3.903  38.938  21.312  1.00  0.00     0.000 C 
BRANCH  10  11
ATOM     11  C   UNL     1      -4.146  39.628  22.665  1.00  0.00    -0.000 C 
BRANCH  11  12
ATOM     12  C   UNL     1      -5.626  39.592  23.086  1.00  0.00    -0.000 C 
BRANCH  12  13
ATOM     13  C   UNL     1      -5.860  38.759  24.357  1.00  0.00    -0.000 C 
BRANCH  13  14
ATOM     14  C   UNL     1      -4.912  37.551  24.457  1.00  0.00    -0.000 C 
BRANCH  14  15
ATOM     15  C   UNL     1      -5.659  36.240  24.745  1.00  0.00    -0.003 C 
ATOM     16  C   UNL     1      -6.063  35.494  23.474  1.00  0.00     0.004 C 
ENDBRANCH  14  15
ENDBRANCH  13  14
ENDBRANCH  12  13
ENDBRANCH  11  12
ENDBRANCH  10  11
ENDBRANCH   1  10
TORSDOF 12
ENDMDL
