MODEL 1
REMARK VINA RESULT:    -4.495      0.000      0.000
REMARK INTER + INTRA:          -4.642
REMARK INTER:                  -4.758
REMARK INTRA:                   0.116
REMARK UNBOUND:                 0.116
REMARK SMILES C=C(C)[C@H]1CC=C(C)C(=O)C1
REMARK SMILES IDX 8 1 7 2 6 3 5 4 4 5 11 6 9 7 10 8 2 9 1 10 3 11
REMARK H PARENT
REMARK Flexibility Score: inf
ROOT
ATOM      1  C   UNL     1      -0.632   4.737  63.614  1.00  0.00     0.048 C 
ATOM      2  C   UNL     1       0.694   5.264  63.136  1.00  0.00    -0.012 C 
ATOM      3  C   UNL     1       1.037   5.129  61.846  1.00  0.00    -0.019 C 
ATOM      4  C   UNL     1       2.332   5.659  61.294  1.00  0.00     0.036 C 
ATOM      5  C   UNL     1       3.474   5.698  62.331  1.00  0.00     0.025 C 
ATOM      6  C   UNL     1       3.011   6.308  63.670  1.00  0.00     0.089 C 
ATOM      7  C   UNL     1       1.674   5.786  64.115  1.00  0.00     0.158 C 
ATOM      8  O   UNL     1       1.379   5.835  65.341  1.00  0.00    -0.295 OA
ENDROOT
BRANCH   5   9
ATOM      9  C   UNL     1       4.174   4.351  62.497  1.00  0.00    -0.077 C 
ATOM     10  C   UNL     1       3.537   3.181  62.320  1.00  0.00     0.008 C 
ATOM     11  C   UNL     1       5.633   4.350  62.879  1.00  0.00     0.039 C 
ENDBRANCH   5   9
TORSDOF 1
ENDMDL
MODEL 2
REMARK VINA RESULT:    -4.433      3.987      4.801
REMARK INTER + INTRA:          -4.577
REMARK INTER:                  -4.396
REMARK INTRA:                  -0.181
REMARK UNBOUND:                 0.116
REMARK SMILES C=C(C)[C@H]1CC=C(C)C(=O)C1
REMARK SMILES IDX 8 1 7 2 6 3 5 4 4 5 11 6 9 7 10 8 2 9 1 10 3 11
REMARK H PARENT
REMARK Flexibility Score: inf
ROOT
ATOM      1  C   UNL     1      -4.669   4.649  63.949  1.00  0.00     0.048 C 
ATOM      2  C   UNL     1      -3.244   5.129  63.920  1.00  0.00    -0.012 C 
ATOM      3  C   UNL     1      -2.293   4.357  63.371  1.00  0.00    -0.019 C 
ATOM      4  C   UNL     1      -0.854   4.788  63.281  1.00  0.00     0.036 C 
ATOM      5  C   UNL     1      -0.425   5.745  64.412  1.00  0.00     0.025 C 
ATOM      6  C   UNL     1      -1.455   6.874  64.630  1.00  0.00     0.089 C 
ATOM      7  C   UNL     1      -2.872   6.374  64.631  1.00  0.00     0.158 C 
ATOM      8  O   UNL     1      -3.758   7.055  65.217  1.00  0.00    -0.295 OA
ENDROOT
BRANCH   5   9
ATOM      9  C   UNL     1      -0.055   5.015  65.701  1.00  0.00    -0.077 C 
ATOM     10  C   UNL     1       0.215   3.699  65.732  1.00  0.00     0.008 C 
ATOM     11  C   UNL     1      -0.001   5.813  66.981  1.00  0.00     0.039 C 
ENDBRANCH   5   9
TORSDOF 1
ENDMDL
MODEL 3
REMARK VINA RESULT:    -4.426      2.098      2.801
REMARK INTER + INTRA:          -4.569
REMARK INTER:                  -4.401
REMARK INTRA:                  -0.168
REMARK UNBOUND:                 0.116
REMARK SMILES C=C(C)[C@H]1CC=C(C)C(=O)C1
REMARK SMILES IDX 8 1 7 2 6 3 5 4 4 5 11 6 9 7 10 8 2 9 1 10 3 11
REMARK H PARENT
REMARK Flexibility Score: inf
ROOT
ATOM      1  C   UNL     1       0.815   8.604  64.227  1.00  0.00     0.048 C 
ATOM      2  C   UNL     1       0.894   7.493  63.217  1.00  0.00    -0.012 C 
ATOM      3  C   UNL     1       0.517   6.252  63.563  1.00  0.00    -0.019 C 
ATOM      4  C   UNL     1       0.541   5.100  62.595  1.00  0.00     0.036 C 
ATOM      5  C   UNL     1       1.623   5.235  61.503  1.00  0.00     0.025 C 
ATOM      6  C   UNL     1       1.632   6.644  60.875  1.00  0.00     0.089 C 
ATOM      7  C   UNL     1       1.528   7.737  61.901  1.00  0.00     0.158 C 
ATOM      8  O   UNL     1       1.956   8.888  61.611  1.00  0.00    -0.295 OA
ENDROOT
BRANCH   5   9
ATOM      9  C   UNL     1       3.003   4.780  61.973  1.00  0.00    -0.077 C 
ATOM     10  C   UNL     1       3.182   3.683  62.730  1.00  0.00     0.008 C 
ATOM     11  C   UNL     1       4.200   5.605  61.570  1.00  0.00     0.039 C 
ENDBRANCH   5   9
TORSDOF 1
ENDMDL
MODEL 4
REMARK VINA RESULT:    -4.424      1.882      3.901
REMARK INTER + INTRA:          -4.567
REMARK INTER:                  -4.362
REMARK INTRA:                  -0.205
REMARK UNBOUND:                 0.116
REMARK SMILES C=C(C)[C@H]1CC=C(C)C(=O)C1
REMARK SMILES IDX 8 1 7 2 6 3 5 4 4 5 11 6 9 7 10 8 2 9 1 10 3 11
REMARK H PARENT
REMARK Flexibility Score: inf
ROOT
ATOM      1  C   UNL     1       5.204   7.361  61.926  1.00  0.00     0.048 C 
ATOM      2  C   UNL     1       3.997   6.489  61.720  1.00  0.00    -0.012 C 
ATOM      3  C   UNL     1       2.861   7.026  61.249  1.00  0.00    -0.019 C 
ATOM      4  C   UNL     1       1.625   6.208  60.990  1.00  0.00     0.036 C 
ATOM      5  C   UNL     1       1.499   4.976  61.911  1.00  0.00     0.025 C 
ATOM      6  C   UNL     1       2.823   4.189  62.001  1.00  0.00     0.089 C 
ATOM      7  C   UNL     1       4.017   5.082  62.182  1.00  0.00     0.158 C 
ATOM      8  O   UNL     1       5.063   4.603  62.701  1.00  0.00    -0.295 OA
ENDROOT
BRANCH   5   9
ATOM      9  C   UNL     1       0.907   5.312  63.278  1.00  0.00    -0.077 C 
ATOM     10  C   UNL     1       0.120   6.383  63.479  1.00  0.00     0.008 C 
ATOM     11  C   UNL     1       1.233   4.403  64.437  1.00  0.00     0.039 C 
ENDBRANCH   5   9
TORSDOF 1
ENDMDL
MODEL 5
REMARK VINA RESULT:    -4.231      1.651      2.749
REMARK INTER + INTRA:          -4.363
REMARK INTER:                  -4.231
REMARK INTRA:                  -0.132
REMARK UNBOUND:                 0.116
REMARK SMILES C=C(C)[C@H]1CC=C(C)C(=O)C1
REMARK SMILES IDX 8 1 7 2 6 3 5 4 4 5 11 6 9 7 10 8 2 9 1 10 3 11
REMARK H PARENT
REMARK Flexibility Score: inf
ROOT
ATOM      1  C   UNL     1      -2.535   3.996  64.631  1.00  0.00     0.048 C 
ATOM      2  C   UNL     1      -1.220   4.720  64.547  1.00  0.00    -0.012 C 
ATOM      3  C   UNL     1      -1.099   5.787  63.742  1.00  0.00    -0.019 C 
ATOM      4  C   UNL     1       0.177   6.577  63.632  1.00  0.00     0.036 C 
ATOM      5  C   UNL     1       1.446   5.738  63.895  1.00  0.00     0.025 C 
ATOM      6  C   UNL     1       1.302   4.859  65.155  1.00  0.00     0.089 C 
ATOM      7  C   UNL     1      -0.028   4.165  65.230  1.00  0.00     0.158 C 
ATOM      8  O   UNL     1      -0.129   3.114  65.920  1.00  0.00    -0.295 OA
ENDROOT
BRANCH   5   9
ATOM      9  C   UNL     1       1.905   4.954  62.667  1.00  0.00    -0.077 C 
ATOM     10  C   UNL     1       1.357   5.130  61.452  1.00  0.00     0.008 C 
ATOM     11  C   UNL     1       3.012   3.943  62.841  1.00  0.00     0.039 C 
ENDBRANCH   5   9
TORSDOF 1
ENDMDL
MODEL 6
REMARK VINA RESULT:    -4.221      2.520      4.830
REMARK INTER + INTRA:          -4.352
REMARK INTER:                  -4.333
REMARK INTRA:                  -0.019
REMARK UNBOUND:                 0.116
REMARK SMILES C=C(C)[C@H]1CC=C(C)C(=O)C1
REMARK SMILES IDX 8 1 7 2 6 3 5 4 4 5 11 6 9 7 10 8 2 9 1 10 3 11
REMARK H PARENT
REMARK Flexibility Score: inf
ROOT
ATOM      1  C   UNL     1       1.769   5.947  61.287  1.00  0.00     0.048 C 
ATOM      2  C   UNL     1       1.083   5.933  62.625  1.00  0.00    -0.012 C 
ATOM      3  C   UNL     1       0.900   4.768  63.266  1.00  0.00    -0.019 C 
ATOM      4  C   UNL     1       0.250   4.684  64.620  1.00  0.00     0.036 C 
ATOM      5  C   UNL     1      -0.775   5.807  64.883  1.00  0.00     0.025 C 
ATOM      6  C   UNL     1      -0.224   7.192  64.484  1.00  0.00     0.089 C 
ATOM      7  C   UNL     1       0.478   7.177  63.156  1.00  0.00     0.158 C 
ATOM      8  O   UNL     1       0.581   8.255  62.509  1.00  0.00    -0.295 OA
ENDROOT
BRANCH   5   9
ATOM      9  C   UNL     1      -2.148   5.513  64.281  1.00  0.00    -0.077 C 
ATOM     10  C   UNL     1      -2.364   4.477  63.451  1.00  0.00     0.008 C 
ATOM     11  C   UNL     1      -3.292   6.431  64.635  1.00  0.00     0.039 C 
ENDBRANCH   5   9
TORSDOF 1
ENDMDL
MODEL 7
REMARK VINA RESULT:    -4.186      3.128      6.205
REMARK INTER + INTRA:          -4.315
REMARK INTER:                  -4.106
REMARK INTRA:                  -0.210
REMARK UNBOUND:                 0.116
REMARK SMILES C=C(C)[C@H]1CC=C(C)C(=O)C1
REMARK SMILES IDX 8 1 7 2 6 3 5 4 4 5 11 6 9 7 10 8 2 9 1 10 3 11
REMARK H PARENT
REMARK Flexibility Score: inf
ROOT
ATOM      1  C   UNL     1       1.066   4.710  64.600  1.00  0.00     0.048 C 
ATOM      2  C   UNL     1      -0.397   4.365  64.560  1.00  0.00    -0.012 C 
ATOM      3  C   UNL     1      -1.151   4.781  63.530  1.00  0.00    -0.019 C 
ATOM      4  C   UNL     1      -2.613   4.446  63.411  1.00  0.00     0.036 C 
ATOM      5  C   UNL     1      -3.315   4.254  64.771  1.00  0.00     0.025 C 
ATOM      6  C   UNL     1      -2.492   3.356  65.719  1.00  0.00     0.089 C 
ATOM      7  C   UNL     1      -1.030   3.704  65.725  1.00  0.00     0.158 C 
ATOM      8  O   UNL     1      -0.333   3.388  66.727  1.00  0.00    -0.295 OA
ENDROOT
BRANCH   5   9
ATOM      9  C   UNL     1      -3.739   5.573  65.414  1.00  0.00    -0.077 C 
ATOM     10  C   UNL     1      -4.031   6.667  64.689  1.00  0.00     0.008 C 
ATOM     11  C   UNL     1      -3.823   5.637  66.919  1.00  0.00     0.039 C 
ENDBRANCH   5   9
TORSDOF 1
ENDMDL
MODEL 8
REMARK VINA RESULT:    -4.143     15.439     16.863
REMARK INTER + INTRA:          -4.269
REMARK INTER:                  -4.076
REMARK INTRA:                  -0.193
REMARK UNBOUND:                 0.116
REMARK SMILES C=C(C)[C@H]1CC=C(C)C(=O)C1
REMARK SMILES IDX 8 1 7 2 6 3 5 4 4 5 11 6 9 7 10 8 2 9 1 10 3 11
REMARK H PARENT
REMARK Flexibility Score: inf
ROOT
ATOM      1  C   UNL     1       0.502  19.368  74.002  1.00  0.00     0.048 C 
ATOM      2  C   UNL     1       1.584  18.495  74.577  1.00  0.00    -0.012 C 
ATOM      3  C   UNL     1       2.763  19.037  74.921  1.00  0.00    -0.019 C 
ATOM      4  C   UNL     1       3.877  18.230  75.529  1.00  0.00     0.036 C 
ATOM      5  C   UNL     1       3.877  16.751  75.092  1.00  0.00     0.025 C 
ATOM      6  C   UNL     1       2.468  16.127  75.177  1.00  0.00     0.089 C 
ATOM      7  C   UNL     1       1.401  17.026  74.619  1.00  0.00     0.158 C 
ATOM      8  O   UNL     1       0.320  16.513  74.218  1.00  0.00    -0.295 OA
ENDROOT
BRANCH   5   9
ATOM      9  C   UNL     1       4.548  16.530  73.738  1.00  0.00    -0.077 C 
ATOM     10  C   UNL     1       5.399  17.422  73.201  1.00  0.00     0.008 C 
ATOM     11  C   UNL     1       4.230  15.263  72.984  1.00  0.00     0.039 C 
ENDBRANCH   5   9
TORSDOF 1
ENDMDL
MODEL 9
REMARK VINA RESULT:    -4.135      3.380      5.070
REMARK INTER + INTRA:          -4.261
REMARK INTER:                  -4.046
REMARK INTRA:                  -0.215
REMARK UNBOUND:                 0.116
REMARK SMILES C=C(C)[C@H]1CC=C(C)C(=O)C1
REMARK SMILES IDX 8 1 7 2 6 3 5 4 4 5 11 6 9 7 10 8 2 9 1 10 3 11
REMARK H PARENT
REMARK Flexibility Score: inf
ROOT
ATOM      1  C   UNL     1      -0.309   7.513  67.721  1.00  0.00     0.048 C 
ATOM      2  C   UNL     1      -0.312   6.191  67.004  1.00  0.00    -0.012 C 
ATOM      3  C   UNL     1       0.752   5.830  66.270  1.00  0.00    -0.019 C 
ATOM      4  C   UNL     1       0.830   4.511  65.551  1.00  0.00     0.036 C 
ATOM      5  C   UNL     1      -0.547   3.962  65.122  1.00  0.00     0.025 C 
ATOM      6  C   UNL     1      -1.581   4.048  66.264  1.00  0.00     0.089 C 
ATOM      7  C   UNL     1      -1.543   5.367  66.982  1.00  0.00     0.158 C 
ATOM      8  O   UNL     1      -2.570   5.751  67.606  1.00  0.00    -0.295 OA
ENDROOT
BRANCH   5   9
ATOM      9  C   UNL     1      -1.048   4.568  63.813  1.00  0.00    -0.077 C 
ATOM     10  C   UNL     1      -2.356   4.678  63.524  1.00  0.00     0.008 C 
ATOM     11  C   UNL     1      -0.025   5.053  62.816  1.00  0.00     0.039 C 
ENDBRANCH   5   9
TORSDOF 1
ENDMDL
