MODEL 1
REMARK VINA RESULT:    -4.235      0.000      0.000
REMARK INTER + INTRA:          -6.746
REMARK INTER:                  -6.463
REMARK INTRA:                  -0.283
REMARK UNBOUND:                -0.283
REMARK SMILES CC1=CCC[C@H](C)C(=O)C[C@H](C(C)C)C(=O)C1
REMARK SMILES IDX 8 1 9 2 6 3 7 4 5 5 4 6 3 7 2 8 1 9 10 11 11 12 15 13 16 14
REMARK SMILES IDX 17 15 12 17 13 18 14 19
REMARK H PARENT
REMARK Flexibility Score: 70.00
ROOT
ATOM      1  C   UNL     1      33.059  42.713  82.885  1.00  0.00     0.136 C 
ATOM      2  O   UNL     1      32.093  43.446  83.038  1.00  0.00    -0.299 OA
ENDROOT
BRANCH   1   3
ATOM      3  C   UNL     1      32.841  41.211  82.877  1.00  0.00     0.053 C 
ATOM      4  C   UNL     1      33.971  40.502  82.120  1.00  0.00     0.016 C 
BRANCH   3   5
ATOM      5  C   UNL     1      32.695  40.649  84.305  1.00  0.00     0.015 C 
BRANCH   5   6
ATOM      6  C   UNL     1      33.934  39.847  84.739  1.00  0.00     0.028 C 
BRANCH   6   7
ATOM      7  C   UNL     1      34.598  40.495  85.926  1.00  0.00    -0.028 C 
ATOM      8  C   UNL     1      35.730  41.234  85.862  1.00  0.00    -0.070 CG0
ATOM      9  C   UNL     1      36.307  41.758  87.153  1.00  0.00     0.039 C 
ATOM     10  G   UNL     1      36.428  41.568  84.552  1.00  0.00     0.000 G0
ENDBRANCH   6   7
ENDBRANCH   5   6
ENDBRANCH   3   5
ENDBRANCH   1   3
BRANCH   1  11
ATOM     11  C   UNL     1      34.421  43.338  82.682  1.00  0.00     0.087 C 
BRANCH  11  12
ATOM     12  C   UNL     1      35.075  43.776  84.021  1.00  0.00     0.066 C 
BRANCH  12  13
ATOM     13  C   UNL     1      36.401  43.061  84.253  1.00  0.00     0.140 C 
ATOM     14  O   UNL     1      37.445  43.698  84.240  1.00  0.00    -0.299 OA
BRANCH  13  15
ATOM     15  C   UNL     1      36.445  41.585  84.566  1.00  0.00     0.106 CG0
ATOM     16  G   UNL     1      35.741  41.254  85.873  1.00  0.00     0.000 G0
ENDBRANCH  13  15
ENDBRANCH  12  13
BRANCH  12  17
ATOM     17  C   UNL     1      35.212  45.326  84.121  1.00  0.00    -0.006 C 
ATOM     18  C   UNL     1      34.532  46.032  82.937  1.00  0.00     0.008 C 
ATOM     19  C   UNL     1      34.707  45.917  85.449  1.00  0.00     0.008 C 
ENDBRANCH  12  17
ENDBRANCH  11  12
ENDBRANCH   1  11
TORSDOF 1
ENDMDL
MODEL 2
REMARK VINA RESULT:    -4.093      1.596      2.113
REMARK INTER + INTRA:          -6.530
REMARK INTER:                  -6.185
REMARK INTRA:                  -0.345
REMARK UNBOUND:                -0.283
REMARK SMILES CC1=CCC[C@H](C)C(=O)C[C@H](C(C)C)C(=O)C1
REMARK SMILES IDX 8 1 9 2 6 3 7 4 5 5 4 6 3 7 2 8 1 9 10 11 11 12 15 13 16 14
REMARK SMILES IDX 17 15 12 17 13 18 14 19
REMARK H PARENT
REMARK Flexibility Score: 70.00
ROOT
ATOM      1  C   UNL     1      33.587  41.243  83.166  1.00  0.00     0.136 C 
ATOM      2  O   UNL     1      33.258  40.506  82.248  1.00  0.00    -0.299 OA
ENDROOT
BRANCH   1   3
ATOM      3  C   UNL     1      33.803  40.641  84.543  1.00  0.00     0.053 C 
ATOM      4  C   UNL     1      32.481  40.119  85.121  1.00  0.00     0.016 C 
BRANCH   3   5
ATOM      5  C   UNL     1      34.872  39.532  84.518  1.00  0.00     0.015 C 
BRANCH   5   6
ATOM      6  C   UNL     1      36.297  40.108  84.439  1.00  0.00     0.028 C 
BRANCH   6   7
ATOM      7  C   UNL     1      36.567  41.023  85.605  1.00  0.00    -0.028 C 
ATOM      8  C   UNL     1      36.838  42.344  85.496  1.00  0.00    -0.070 CG0
ATOM      9  C   UNL     1      37.153  43.109  86.758  1.00  0.00     0.039 C 
ATOM     10  G   UNL     1      36.822  43.086  84.168  1.00  0.00     0.000 G0
ENDBRANCH   6   7
ENDBRANCH   5   6
ENDBRANCH   3   5
ENDBRANCH   1   3
BRANCH   1  11
ATOM     11  C   UNL     1      33.792  42.714  82.880  1.00  0.00     0.087 C 
BRANCH  11  12
ATOM     12  C   UNL     1      34.213  43.508  84.147  1.00  0.00     0.066 C 
BRANCH  12  13
ATOM     13  C   UNL     1      35.643  44.022  84.031  1.00  0.00     0.140 C 
ATOM     14  O   UNL     1      35.849  45.219  83.886  1.00  0.00    -0.299 OA
BRANCH  13  15
ATOM     15  C   UNL     1      36.820  43.086  84.159  1.00  0.00     0.106 CG0
ATOM     16  G   UNL     1      36.816  42.335  85.482  1.00  0.00     0.000 G0
ENDBRANCH  13  15
ENDBRANCH  12  13
BRANCH  12  17
ATOM     17  C   UNL     1      33.201  44.645  84.484  1.00  0.00    -0.006 C 
ATOM     18  C   UNL     1      32.043  44.689  83.474  1.00  0.00     0.008 C 
ATOM     19  C   UNL     1      32.648  44.588  85.919  1.00  0.00     0.008 C 
ENDBRANCH  12  17
ENDBRANCH  11  12
ENDBRANCH   1  11
TORSDOF 1
ENDMDL
MODEL 3
REMARK VINA RESULT:    -4.089      2.284      4.001
REMARK INTER + INTRA:          -6.523
REMARK INTER:                  -6.275
REMARK INTRA:                  -0.248
REMARK UNBOUND:                -0.283
REMARK SMILES CC1=CCC[C@H](C)C(=O)C[C@H](C(C)C)C(=O)C1
REMARK SMILES IDX 8 1 9 2 6 3 7 4 5 5 4 6 3 7 2 8 1 9 10 11 11 12 15 13 16 14
REMARK SMILES IDX 17 15 12 17 13 18 14 19
REMARK H PARENT
REMARK Flexibility Score: 70.00
ROOT
ATOM      1  C   UNL     1      32.705  41.062  85.732  1.00  0.00     0.136 C 
ATOM      2  O   UNL     1      31.826  40.233  85.546  1.00  0.00    -0.299 OA
ENDROOT
BRANCH   1   3
ATOM      3  C   UNL     1      32.312  42.521  85.883  1.00  0.00     0.053 C 
ATOM      4  C   UNL     1      31.039  42.826  85.084  1.00  0.00     0.016 C 
BRANCH   3   5
ATOM      5  C   UNL     1      32.146  42.915  87.363  1.00  0.00     0.015 C 
BRANCH   5   6
ATOM      6  C   UNL     1      33.501  43.129  88.059  1.00  0.00     0.028 C 
BRANCH   6   7
ATOM      7  C   UNL     1      34.323  44.152  87.317  1.00  0.00    -0.028 C 
ATOM      8  C   UNL     1      35.541  43.912  86.778  1.00  0.00    -0.070 CG0
ATOM      9  C   UNL     1      36.265  45.063  86.126  1.00  0.00     0.039 C 
ATOM     10  G   UNL     1      36.195  42.539  86.789  1.00  0.00     0.000 G0
ENDBRANCH   6   7
ENDBRANCH   5   6
ENDBRANCH   3   5
ENDBRANCH   1   3
BRANCH   1  11
ATOM     11  C   UNL     1      34.139  40.591  85.831  1.00  0.00     0.087 C 
BRANCH  11  12
ATOM     12  C   UNL     1      35.058  41.272  84.780  1.00  0.00     0.066 C 
BRANCH  12  13
ATOM     13  C   UNL     1      36.295  41.878  85.431  1.00  0.00     0.140 C 
ATOM     14  O   UNL     1      37.356  41.894  84.823  1.00  0.00    -0.299 OA
BRANCH  13  15
ATOM     15  C   UNL     1      36.221  42.523  86.794  1.00  0.00     0.106 CG0
ATOM     16  G   UNL     1      35.538  43.882  86.750  1.00  0.00     0.000 G0
ENDBRANCH  13  15
ENDBRANCH  12  13
BRANCH  12  17
ATOM     17  C   UNL     1      35.417  40.306  83.610  1.00  0.00    -0.006 C 
ATOM     18  C   UNL     1      35.690  38.881  84.118  1.00  0.00     0.008 C 
ATOM     19  C   UNL     1      34.374  40.273  82.479  1.00  0.00     0.008 C 
ENDBRANCH  12  17
ENDBRANCH  11  12
ENDBRANCH   1  11
TORSDOF 1
ENDMDL
MODEL 4
REMARK VINA RESULT:    -4.046      2.290      3.551
REMARK INTER + INTRA:          -6.458
REMARK INTER:                  -6.335
REMARK INTRA:                  -0.123
REMARK UNBOUND:                -0.283
REMARK SMILES CC1=CCC[C@H](C)C(=O)C[C@H](C(C)C)C(=O)C1
REMARK SMILES IDX 8 1 9 2 6 3 7 4 5 5 4 6 3 7 2 8 1 9 10 11 11 12 15 13 16 14
REMARK SMILES IDX 17 15 12 17 13 18 14 19
REMARK H PARENT
REMARK Flexibility Score: 70.00
ROOT
ATOM      1  C   UNL     1      33.973  40.909  83.427  1.00  0.00     0.136 C 
ATOM      2  O   UNL     1      34.315  41.004  82.258  1.00  0.00    -0.299 OA
ENDROOT
BRANCH   1   3
ATOM      3  C   UNL     1      32.492  40.945  83.759  1.00  0.00     0.053 C 
ATOM      4  C   UNL     1      32.220  40.257  85.103  1.00  0.00     0.016 C 
BRANCH   3   5
ATOM      5  C   UNL     1      31.942  42.383  83.751  1.00  0.00     0.015 C 
BRANCH   5   6
ATOM      6  C   UNL     1      31.392  42.798  85.128  1.00  0.00     0.028 C 
BRANCH   6   7
ATOM      7  C   UNL     1      32.186  43.947  85.692  1.00  0.00    -0.028 C 
ATOM      8  C   UNL     1      33.236  43.813  86.536  1.00  0.00    -0.070 CG0
ATOM      9  C   UNL     1      33.882  45.068  87.067  1.00  0.00     0.039 C 
ATOM     10  G   UNL     1      33.795  42.461  86.954  1.00  0.00     0.000 G0
ENDBRANCH   6   7
ENDBRANCH   5   6
ENDBRANCH   3   5
ENDBRANCH   1   3
BRANCH   1  11
ATOM     11  C   UNL     1      35.040  40.733  84.485  1.00  0.00     0.087 C 
BRANCH  11  12
ATOM     12  C   UNL     1      35.575  42.090  85.016  1.00  0.00     0.066 C 
BRANCH  12  13
ATOM     13  C   UNL     1      35.245  42.280  86.491  1.00  0.00     0.140 C 
ATOM     14  O   UNL     1      36.148  42.342  87.314  1.00  0.00    -0.299 OA
BRANCH  13  15
ATOM     15  C   UNL     1      33.819  42.461  86.953  1.00  0.00     0.106 CG0
ATOM     16  G   UNL     1      33.251  43.813  86.548  1.00  0.00     0.000 G0
ENDBRANCH  13  15
ENDBRANCH  12  13
BRANCH  12  17
ATOM     17  C   UNL     1      37.096  42.271  84.721  1.00  0.00    -0.006 C 
ATOM     18  C   UNL     1      37.765  40.934  84.366  1.00  0.00     0.008 C 
ATOM     19  C   UNL     1      37.405  43.321  83.640  1.00  0.00     0.008 C 
ENDBRANCH  12  17
ENDBRANCH  11  12
ENDBRANCH   1  11
TORSDOF 1
ENDMDL
MODEL 5
REMARK VINA RESULT:    -3.878      1.898      2.530
REMARK INTER + INTRA:          -6.202
REMARK INTER:                  -6.034
REMARK INTRA:                  -0.168
REMARK UNBOUND:                -0.283
REMARK SMILES CC1=CCC[C@H](C)C(=O)C[C@H](C(C)C)C(=O)C1
REMARK SMILES IDX 8 1 9 2 6 3 7 4 5 5 4 6 3 7 2 8 1 9 10 11 11 12 15 13 16 14
REMARK SMILES IDX 17 15 12 17 13 18 14 19
REMARK H PARENT
REMARK Flexibility Score: 70.00
ROOT
ATOM      1  C   UNL     1      34.167  41.403  82.966  1.00  0.00     0.136 C 
ATOM      2  O   UNL     1      34.091  40.677  81.986  1.00  0.00    -0.299 OA
ENDROOT
BRANCH   1   3
ATOM      3  C   UNL     1      32.890  41.991  83.539  1.00  0.00     0.053 C 
ATOM      4  C   UNL     1      32.239  42.953  82.539  1.00  0.00     0.016 C 
BRANCH   3   5
ATOM      5  C   UNL     1      31.902  40.891  83.973  1.00  0.00     0.015 C 
BRANCH   5   6
ATOM      6  C   UNL     1      32.063  40.526  85.460  1.00  0.00     0.028 C 
BRANCH   6   7
ATOM      7  C   UNL     1      32.187  41.769  86.302  1.00  0.00    -0.028 C 
ATOM      8  C   UNL     1      33.333  42.188  86.887  1.00  0.00    -0.070 CG0
ATOM      9  C   UNL     1      33.274  43.418  87.757  1.00  0.00     0.039 C 
ATOM     10  G   UNL     1      34.667  41.484  86.692  1.00  0.00     0.000 G0
ENDBRANCH   6   7
ENDBRANCH   5   6
ENDBRANCH   3   5
ENDBRANCH   1   3
BRANCH   1  11
ATOM     11  C   UNL     1      35.527  41.656  83.579  1.00  0.00     0.087 C 
BRANCH  11  12
ATOM     12  C   UNL     1      35.502  42.822  84.606  1.00  0.00     0.066 C 
BRANCH  12  13
ATOM     13  C   UNL     1      35.702  42.314  86.029  1.00  0.00     0.140 C 
ATOM     14  O   UNL     1      36.695  42.648  86.660  1.00  0.00    -0.299 OA
BRANCH  13  15
ATOM     15  C   UNL     1      34.658  41.456  86.703  1.00  0.00     0.106 CG0
ATOM     16  G   UNL     1      33.333  42.185  86.866  1.00  0.00     0.000 G0
ENDBRANCH  13  15
ENDBRANCH  12  13
BRANCH  12  17
ATOM     17  C   UNL     1      36.514  43.947  84.231  1.00  0.00    -0.006 C 
ATOM     18  C   UNL     1      37.372  43.555  83.018  1.00  0.00     0.008 C 
ATOM     19  C   UNL     1      35.865  45.323  83.996  1.00  0.00     0.008 C 
ENDBRANCH  12  17
ENDBRANCH  11  12
ENDBRANCH   1  11
TORSDOF 1
ENDMDL
MODEL 6
REMARK VINA RESULT:    -3.877      1.740      2.471
REMARK INTER + INTRA:          -6.200
REMARK INTER:                  -5.996
REMARK INTRA:                  -0.203
REMARK UNBOUND:                -0.283
REMARK SMILES CC1=CCC[C@H](C)C(=O)C[C@H](C(C)C)C(=O)C1
REMARK SMILES IDX 8 1 9 2 6 3 7 4 5 5 4 6 3 7 2 8 1 9 10 11 11 12 15 13 16 14
REMARK SMILES IDX 17 15 12 17 13 18 14 19
REMARK H PARENT
REMARK Flexibility Score: 70.00
ROOT
ATOM      1  C   UNL     1      32.797  42.911  84.766  1.00  0.00     0.136 C 
ATOM      2  O   UNL     1      31.720  43.465  84.929  1.00  0.00    -0.299 OA
ENDROOT
BRANCH   1   3
ATOM      3  C   UNL     1      32.811  41.430  84.432  1.00  0.00     0.053 C 
ATOM      4  C   UNL     1      31.670  40.700  85.151  1.00  0.00     0.016 C 
BRANCH   3   5
ATOM      5  C   UNL     1      32.752  41.189  82.912  1.00  0.00     0.015 C 
BRANCH   5   6
ATOM      6  C   UNL     1      34.153  41.005  82.302  1.00  0.00     0.028 C 
BRANCH   6   7
ATOM      7  C   UNL     1      35.029  40.192  83.220  1.00  0.00    -0.028 C 
ATOM      8  C   UNL     1      36.086  40.685  83.907  1.00  0.00    -0.070 CG0
ATOM      9  C   UNL     1      36.905  39.723  84.731  1.00  0.00     0.039 C 
ATOM     10  G   UNL     1      36.467  42.157  83.896  1.00  0.00     0.000 G0
ENDBRANCH   6   7
ENDBRANCH   5   6
ENDBRANCH   3   5
ENDBRANCH   1   3
BRANCH   1  11
ATOM     11  C   UNL     1      34.062  43.732  84.875  1.00  0.00     0.087 C 
BRANCH  11  12
ATOM     12  C   UNL     1      35.054  43.152  85.919  1.00  0.00     0.066 C 
BRANCH  12  13
ATOM     13  C   UNL     1      36.392  42.800  85.281  1.00  0.00     0.140 C 
ATOM     14  O   UNL     1      37.428  42.967  85.909  1.00  0.00    -0.299 OA
BRANCH  13  15
ATOM     15  C   UNL     1      36.459  42.183  83.905  1.00  0.00     0.106 CG0
ATOM     16  G   UNL     1      36.096  40.706  83.919  1.00  0.00     0.000 G0
ENDBRANCH  13  15
ENDBRANCH  12  13
BRANCH  12  17
ATOM     17  C   UNL     1      35.215  44.093  87.153  1.00  0.00    -0.006 C 
ATOM     18  C   UNL     1      34.766  45.527  86.832  1.00  0.00     0.008 C 
ATOM     19  C   UNL     1      34.508  43.590  88.423  1.00  0.00     0.008 C 
ENDBRANCH  12  17
ENDBRANCH  11  12
ENDBRANCH   1  11
TORSDOF 1
ENDMDL
MODEL 7
REMARK VINA RESULT:    -3.739      2.646      3.351
REMARK INTER + INTRA:          -5.989
REMARK INTER:                  -5.724
REMARK INTRA:                  -0.264
REMARK UNBOUND:                -0.283
REMARK SMILES CC1=CCC[C@H](C)C(=O)C[C@H](C(C)C)C(=O)C1
REMARK SMILES IDX 8 1 9 2 6 3 7 4 5 5 4 6 3 7 2 8 1 9 10 11 11 12 15 13 16 14
REMARK SMILES IDX 17 15 12 17 13 18 14 19
REMARK H PARENT
REMARK Flexibility Score: 70.00
ROOT
ATOM      1  C   UNL     1      34.873  40.480  84.400  1.00  0.00     0.136 C 
ATOM      2  O   UNL     1      34.948  39.270  84.555  1.00  0.00    -0.299 OA
ENDROOT
BRANCH   1   3
ATOM      3  C   UNL     1      33.803  41.032  83.475  1.00  0.00     0.053 C 
ATOM      4  C   UNL     1      33.935  40.428  82.071  1.00  0.00     0.016 C 
BRANCH   3   5
ATOM      5  C   UNL     1      32.389  40.808  84.044  1.00  0.00     0.015 C 
BRANCH   5   6
ATOM      6  C   UNL     1      31.719  42.130  84.459  1.00  0.00     0.028 C 
BRANCH   6   7
ATOM      7  C   UNL     1      31.470  42.156  85.944  1.00  0.00    -0.028 C 
ATOM      8  C   UNL     1      32.185  42.889  86.829  1.00  0.00    -0.070 CG0
ATOM      9  C   UNL     1      31.854  42.751  88.294  1.00  0.00     0.039 C 
ATOM     10  G   UNL     1      33.287  43.849  86.409  1.00  0.00     0.000 G0
ENDBRANCH   6   7
ENDBRANCH   5   6
ENDBRANCH   3   5
ENDBRANCH   1   3
BRANCH   1  11
ATOM     11  C   UNL     1      35.831  41.371  85.158  1.00  0.00     0.087 C 
BRANCH  11  12
ATOM     12  C   UNL     1      35.380  42.857  85.158  1.00  0.00     0.066 C 
BRANCH  12  13
ATOM     13  C   UNL     1      34.656  43.220  86.449  1.00  0.00     0.140 C 
ATOM     14  O   UNL     1      35.206  43.040  87.526  1.00  0.00    -0.299 OA
BRANCH  13  15
ATOM     15  C   UNL     1      33.290  43.863  86.421  1.00  0.00     0.106 CG0
ATOM     16  G   UNL     1      32.191  42.896  86.834  1.00  0.00     0.000 G0
ENDBRANCH  13  15
ENDBRANCH  12  13
BRANCH  12  17
ATOM     17  C   UNL     1      36.565  43.824  84.852  1.00  0.00    -0.006 C 
ATOM     18  C   UNL     1      37.151  43.575  83.453  1.00  0.00     0.008 C 
ATOM     19  C   UNL     1      36.219  45.314  85.022  1.00  0.00     0.008 C 
ENDBRANCH  12  17
ENDBRANCH  11  12
ENDBRANCH   1  11
TORSDOF 1
ENDMDL
MODEL 8
REMARK VINA RESULT:    -3.717      2.224      4.137
REMARK INTER + INTRA:          -5.956
REMARK INTER:                  -5.479
REMARK INTRA:                  -0.478
REMARK UNBOUND:                -0.283
REMARK SMILES CC1=CCC[C@H](C)C(=O)C[C@H](C(C)C)C(=O)C1
REMARK SMILES IDX 8 1 9 2 6 3 7 4 5 5 4 6 3 7 2 8 1 9 10 11 11 12 15 13 16 14
REMARK SMILES IDX 17 15 12 17 13 18 14 19
REMARK H PARENT
REMARK Flexibility Score: 70.00
ROOT
ATOM      1  C   UNL     1      34.450  42.976  86.831  1.00  0.00     0.136 C 
ATOM      2  O   UNL     1      34.498  42.887  88.049  1.00  0.00    -0.299 OA
ENDROOT
BRANCH   1   3
ATOM      3  C   UNL     1      35.475  43.841  86.121  1.00  0.00     0.053 C 
ATOM      4  C   UNL     1      35.575  45.220  86.785  1.00  0.00     0.016 C 
BRANCH   3   5
ATOM      5  C   UNL     1      36.853  43.155  86.059  1.00  0.00     0.015 C 
BRANCH   5   6
ATOM      6  C   UNL     1      37.160  42.604  84.655  1.00  0.00     0.028 C 
BRANCH   6   7
ATOM      7  C   UNL     1      36.867  41.128  84.589  1.00  0.00    -0.028 C 
ATOM      8  C   UNL     1      35.840  40.580  83.897  1.00  0.00    -0.070 CG0
ATOM      9  C   UNL     1      35.643  39.087  83.988  1.00  0.00     0.039 C 
ATOM     10  G   UNL     1      34.897  41.398  83.028  1.00  0.00     0.000 G0
ENDBRANCH   6   7
ENDBRANCH   5   6
ENDBRANCH   3   5
ENDBRANCH   1   3
BRANCH   1  11
ATOM     11  C   UNL     1      33.388  42.196  86.087  1.00  0.00     0.087 C 
BRANCH  11  12
ATOM     12  C   UNL     1      33.233  42.668  84.616  1.00  0.00     0.066 C 
BRANCH  12  13
ATOM     13  C   UNL     1      33.522  41.537  83.636  1.00  0.00     0.140 C 
ATOM     14  O   UNL     1      32.625  40.773  83.307  1.00  0.00    -0.299 OA
BRANCH  13  15
ATOM     15  C   UNL     1      34.886  41.382  83.008  1.00  0.00     0.106 CG0
ATOM     16  G   UNL     1      35.841  40.596  83.893  1.00  0.00     0.000 G0
ENDBRANCH  13  15
ENDBRANCH  12  13
BRANCH  12  17
ATOM     17  C   UNL     1      31.845  43.332  84.361  1.00  0.00    -0.006 C 
ATOM     18  C   UNL     1      30.883  43.099  85.537  1.00  0.00     0.008 C 
ATOM     19  C   UNL     1      31.918  44.832  84.027  1.00  0.00     0.008 C 
ENDBRANCH  12  17
ENDBRANCH  11  12
ENDBRANCH   1  11
TORSDOF 1
ENDMDL
MODEL 9
REMARK VINA RESULT:    -3.676      2.396      4.838
REMARK INTER + INTRA:          -5.893
REMARK INTER:                  -5.767
REMARK INTRA:                  -0.126
REMARK UNBOUND:                -0.283
REMARK SMILES CC1=CCC[C@H](C)C(=O)C[C@H](C(C)C)C(=O)C1
REMARK SMILES IDX 8 1 9 2 6 3 7 4 5 5 4 6 3 7 2 8 1 9 10 11 11 12 15 13 16 14
REMARK SMILES IDX 17 15 12 17 13 18 14 19
REMARK H PARENT
REMARK Flexibility Score: 70.00
ROOT
ATOM      1  C   UNL     1      35.372  42.959  83.430  1.00  0.00     0.136 C 
ATOM      2  O   UNL     1      36.466  43.090  82.901  1.00  0.00    -0.299 OA
ENDROOT
BRANCH   1   3
ATOM      3  C   UNL     1      34.741  44.160  84.110  1.00  0.00     0.053 C 
ATOM      4  C   UNL     1      35.813  45.031  84.777  1.00  0.00     0.016 C 
BRANCH   3   5
ATOM      5  C   UNL     1      33.888  44.987  83.129  1.00  0.00     0.015 C 
BRANCH   5   6
ATOM      6  C   UNL     1      32.388  44.670  83.261  1.00  0.00     0.028 C 
BRANCH   6   7
ATOM      7  C   UNL     1      32.036  44.351  84.691  1.00  0.00    -0.028 C 
ATOM      8  C   UNL     1      31.717  43.117  85.146  1.00  0.00    -0.070 CG0
ATOM      9  C   UNL     1      31.322  42.976  86.595  1.00  0.00     0.039 C 
ATOM     10  G   UNL     1      31.756  41.875  84.267  1.00  0.00     0.000 G0
ENDBRANCH   6   7
ENDBRANCH   5   6
ENDBRANCH   3   5
ENDBRANCH   1   3
BRANCH   1  11
ATOM     11  C   UNL     1      34.685  41.613  83.356  1.00  0.00     0.087 C 
BRANCH  11  12
ATOM     12  C   UNL     1      34.232  41.105  84.751  1.00  0.00     0.066 C 
BRANCH  12  13
ATOM     13  C   UNL     1      32.730  40.848  84.789  1.00  0.00     0.140 C 
ATOM     14  O   UNL     1      32.301  39.822  85.299  1.00  0.00    -0.299 OA
BRANCH  13  15
ATOM     15  C   UNL     1      31.752  41.871  84.266  1.00  0.00     0.106 CG0
ATOM     16  G   UNL     1      31.714  43.124  85.128  1.00  0.00     0.000 G0
ENDBRANCH  13  15
ENDBRANCH  12  13
BRANCH  12  17
ATOM     17  C   UNL     1      35.056  39.866  85.216  1.00  0.00    -0.006 C 
ATOM     18  C   UNL     1      35.476  38.988  84.026  1.00  0.00     0.008 C 
ATOM     19  C   UNL     1      36.285  40.214  86.074  1.00  0.00     0.008 C 
ENDBRANCH  12  17
ENDBRANCH  11  12
ENDBRANCH   1  11
TORSDOF 1
ENDMDL
