MODEL 1
REMARK VINA RESULT:    -7.356      0.000      0.000
REMARK INTER + INTRA:          -8.035
REMARK INTER:                  -8.001
REMARK INTRA:                  -0.035
REMARK UNBOUND:                -0.035
REMARK SMILES CC(=O)[C@@H]1CC[C@@H]2[C@H]3CC=C4C[C@@H](O)CC[C@@]4(C)[C@H]3CC[C@@]21C
REMARK SMILES IDX 4 1 5 2 6 3 7 4 22 5 21 6 20 7 19 8 8 9 9 10 10 11 11 12
REMARK SMILES IDX 17 13 16 14 15 15 13 16 12 17 18 18 23 19 2 20 1 21 3 22
REMARK SMILES IDX 14 23
REMARK H PARENT 14 24
REMARK Flexibility Score: inf
ROOT
ATOM      1  C   UNL     1       2.115  12.245  26.143  1.00  0.00     0.062 C 
ATOM      2  C   UNL     1       0.878  13.103  26.420  1.00  0.00     0.012 C 
ATOM      3  C   UNL     1       1.237  13.982  27.618  1.00  0.00     0.005 C 
ATOM      4  C   UNL     1       2.694  13.657  28.003  1.00  0.00    -0.001 C 
ATOM      5  C   UNL     1       3.327  13.009  26.739  1.00  0.00    -0.020 C 
ATOM      6  C   UNL     1       3.863  14.095  25.766  1.00  0.00     0.008 C 
ATOM      7  C   UNL     1       4.731  15.161  26.449  1.00  0.00     0.005 C 
ATOM      8  C   UNL     1       3.927  15.904  27.543  1.00  0.00     0.003 C 
ATOM      9  C   UNL     1       3.432  14.892  28.611  1.00  0.00     0.000 C 
ATOM     10  C   UNL     1       4.573  14.455  29.546  1.00  0.00     0.031 C 
ATOM     11  C   UNL     1       5.389  15.602  30.058  1.00  0.00    -0.027 C 
ATOM     12  C   UNL     1       5.534  16.768  29.398  1.00  0.00    -0.065 C 
ATOM     13  C   UNL     1       4.642  17.155  28.213  1.00  0.00    -0.008 C 
ATOM     14  C   UNL     1       5.512  17.940  27.180  1.00  0.00     0.014 C 
ATOM     15  C   UNL     1       6.338  19.080  27.800  1.00  0.00     0.033 C 
ATOM     16  C   UNL     1       7.252  18.559  28.921  1.00  0.00     0.118 C 
ATOM     17  C   UNL     1       6.443  17.828  30.000  1.00  0.00     0.063 C 
ATOM     18  C   UNL     1       3.529  18.104  28.744  1.00  0.00     0.016 C 
ATOM     19  C   UNL     1       4.449  11.993  27.075  1.00  0.00     0.012 C 
ENDROOT
BRANCH   1  20
ATOM     20  C   UNL     1       2.268  11.748  24.709  1.00  0.00     0.133 C 
ATOM     21  C   UNL     1       3.293  10.738  24.265  1.00  0.00     0.088 C 
ATOM     22  O   UNL     1       1.498  12.178  23.864  1.00  0.00    -0.300 OA
ENDBRANCH   1  20
BRANCH  16  23
ATOM     23  O   UNL     1       8.223  17.688  28.398  1.00  0.00    -0.393 OA
ATOM     24  H   UNL     1       8.978  17.679  29.044  1.00  0.00     0.210 HD
ENDBRANCH  16  23
TORSDOF 2
ENDMDL
MODEL 2
REMARK VINA RESULT:    -7.343      4.505      6.417
REMARK INTER + INTRA:          -8.022
REMARK INTER:                  -7.985
REMARK INTRA:                  -0.037
REMARK UNBOUND:                -0.035
REMARK SMILES CC(=O)[C@@H]1CC[C@@H]2[C@H]3CC=C4C[C@@H](O)CC[C@@]4(C)[C@H]3CC[C@@]21C
REMARK SMILES IDX 4 1 5 2 6 3 7 4 22 5 21 6 20 7 19 8 8 9 9 10 10 11 11 12
REMARK SMILES IDX 17 13 16 14 15 15 13 16 12 17 18 18 23 19 2 20 1 21 3 22
REMARK SMILES IDX 14 23
REMARK H PARENT 14 24
REMARK Flexibility Score: inf
ROOT
ATOM      1  C   UNL     1      10.512  13.717  28.903  1.00  0.00     0.062 C 
ATOM      2  C   UNL     1      10.409  13.864  27.383  1.00  0.00     0.012 C 
ATOM      3  C   UNL     1       8.977  14.321  27.102  1.00  0.00     0.005 C 
ATOM      4  C   UNL     1       8.271  14.475  28.463  1.00  0.00    -0.001 C 
ATOM      5  C   UNL     1       9.409  14.624  29.512  1.00  0.00    -0.020 C 
ATOM      6  C   UNL     1       9.872  16.103  29.624  1.00  0.00     0.008 C 
ATOM      7  C   UNL     1       8.717  17.101  29.779  1.00  0.00     0.005 C 
ATOM      8  C   UNL     1       7.762  17.026  28.563  1.00  0.00     0.003 C 
ATOM      9  C   UNL     1       7.180  15.592  28.438  1.00  0.00     0.000 C 
ATOM     10  C   UNL     1       6.090  15.331  29.491  1.00  0.00     0.031 C 
ATOM     11  C   UNL     1       5.087  16.439  29.590  1.00  0.00    -0.027 C 
ATOM     12  C   UNL     1       5.357  17.721  29.275  1.00  0.00    -0.065 C 
ATOM     13  C   UNL     1       6.617  18.126  28.501  1.00  0.00    -0.008 C 
ATOM     14  C   UNL     1       7.111  19.502  29.053  1.00  0.00     0.014 C 
ATOM     15  C   UNL     1       6.007  20.568  29.147  1.00  0.00     0.033 C 
ATOM     16  C   UNL     1       4.834  20.081  30.013  1.00  0.00     0.118 C 
ATOM     17  C   UNL     1       4.266  18.759  29.481  1.00  0.00     0.063 C 
ATOM     18  C   UNL     1       6.220  18.308  27.007  1.00  0.00     0.016 C 
ATOM     19  C   UNL     1       9.023  14.079  30.911  1.00  0.00     0.012 C 
ENDROOT
BRANCH   1  20
ATOM     20  C   UNL     1      11.912  13.868  29.489  1.00  0.00     0.133 C 
ATOM     21  C   UNL     1      12.483  12.983  30.565  1.00  0.00     0.088 C 
ATOM     22  O   UNL     1      12.631  14.751  29.046  1.00  0.00    -0.300 OA
ENDBRANCH   1  20
BRANCH  16  23
ATOM     23  O   UNL     1       5.246  19.907  31.345  1.00  0.00    -0.393 OA
ATOM     24  H   UNL     1       6.071  19.354  31.320  1.00  0.00     0.210 HD
ENDBRANCH  16  23
TORSDOF 2
ENDMDL
MODEL 3
REMARK VINA RESULT:    -7.216      3.558      5.348
REMARK INTER + INTRA:          -7.883
REMARK INTER:                  -7.935
REMARK INTRA:                   0.052
REMARK UNBOUND:                -0.035
REMARK SMILES CC(=O)[C@@H]1CC[C@@H]2[C@H]3CC=C4C[C@@H](O)CC[C@@]4(C)[C@H]3CC[C@@]21C
REMARK SMILES IDX 4 1 5 2 6 3 7 4 22 5 21 6 20 7 19 8 8 9 9 10 10 11 11 12
REMARK SMILES IDX 17 13 16 14 15 15 13 16 12 17 18 18 23 19 2 20 1 21 3 22
REMARK SMILES IDX 14 23
REMARK H PARENT 14 24
REMARK Flexibility Score: inf
ROOT
ATOM      1  C   UNL     1       1.898  12.629  27.397  1.00  0.00     0.062 C 
ATOM      2  C   UNL     1       1.694  14.144  27.484  1.00  0.00     0.012 C 
ATOM      3  C   UNL     1       3.021  14.772  27.057  1.00  0.00     0.005 C 
ATOM      4  C   UNL     1       3.973  13.618  26.685  1.00  0.00    -0.001 C 
ATOM      5  C   UNL     1       3.058  12.396  26.392  1.00  0.00    -0.020 C 
ATOM      6  C   UNL     1       2.562  12.413  24.920  1.00  0.00     0.008 C 
ATOM      7  C   UNL     1       3.680  12.643  23.895  1.00  0.00     0.005 C 
ATOM      8  C   UNL     1       4.380  14.001  24.142  1.00  0.00     0.003 C 
ATOM      9  C   UNL     1       4.988  14.027  25.571  1.00  0.00     0.000 C 
ATOM     10  C   UNL     1       6.274  13.187  25.652  1.00  0.00     0.031 C 
ATOM     11  C   UNL     1       7.228  13.457  24.528  1.00  0.00    -0.027 C 
ATOM     12  C   UNL     1       6.845  13.898  23.313  1.00  0.00    -0.065 C 
ATOM     13  C   UNL     1       5.441  14.455  23.049  1.00  0.00    -0.008 C 
ATOM     14  C   UNL     1       5.004  14.024  21.612  1.00  0.00     0.014 C 
ATOM     15  C   UNL     1       6.058  14.313  20.529  1.00  0.00     0.033 C 
ATOM     16  C   UNL     1       7.398  13.638  20.862  1.00  0.00     0.118 C 
ATOM     17  C   UNL     1       7.908  14.071  22.242  1.00  0.00     0.063 C 
ATOM     18  C   UNL     1       5.528  16.008  23.094  1.00  0.00     0.016 C 
ATOM     19  C   UNL     1       3.736  11.038  26.710  1.00  0.00     0.012 C 
ENDROOT
BRANCH   1  20
ATOM     20  C   UNL     1       0.636  11.803  27.176  1.00  0.00     0.133 C 
ATOM     21  C   UNL     1       0.232  10.625  28.024  1.00  0.00     0.088 C 
ATOM     22  O   UNL     1      -0.113  12.125  26.266  1.00  0.00    -0.300 OA
ENDBRANCH   1  20
BRANCH  16  23
ATOM     23  O   UNL     1       7.264  12.239  20.834  1.00  0.00    -0.393 OA
ATOM     24  H   UNL     1       7.204  11.938  21.779  1.00  0.00     0.210 HD
ENDBRANCH  16  23
TORSDOF 2
ENDMDL
MODEL 4
REMARK VINA RESULT:    -7.091      4.266      6.667
REMARK INTER + INTRA:          -7.747
REMARK INTER:                  -7.656
REMARK INTRA:                  -0.091
REMARK UNBOUND:                -0.035
REMARK SMILES CC(=O)[C@@H]1CC[C@@H]2[C@H]3CC=C4C[C@@H](O)CC[C@@]4(C)[C@H]3CC[C@@]21C
REMARK SMILES IDX 4 1 5 2 6 3 7 4 22 5 21 6 20 7 19 8 8 9 9 10 10 11 11 12
REMARK SMILES IDX 17 13 16 14 15 15 13 16 12 17 18 18 23 19 2 20 1 21 3 22
REMARK SMILES IDX 14 23
REMARK H PARENT 14 24
REMARK Flexibility Score: inf
ROOT
ATOM      1  C   UNL     1       5.379  18.606  28.129  1.00  0.00     0.062 C 
ATOM      2  C   UNL     1       5.686  18.475  26.635  1.00  0.00     0.012 C 
ATOM      3  C   UNL     1       7.170  18.119  26.541  1.00  0.00     0.005 C 
ATOM      4  C   UNL     1       7.704  18.005  27.983  1.00  0.00    -0.001 C 
ATOM      5  C   UNL     1       6.454  17.772  28.876  1.00  0.00    -0.020 C 
ATOM      6  C   UNL     1       6.082  16.265  28.933  1.00  0.00     0.008 C 
ATOM      7  C   UNL     1       7.273  15.347  29.237  1.00  0.00     0.005 C 
ATOM      8  C   UNL     1       8.369  15.494  28.155  1.00  0.00     0.003 C 
ATOM      9  C   UNL     1       8.863  16.965  28.101  1.00  0.00     0.000 C 
ATOM     10  C   UNL     1       9.788  17.293  29.285  1.00  0.00     0.031 C 
ATOM     11  C   UNL     1      10.844  16.255  29.515  1.00  0.00    -0.027 C 
ATOM     12  C   UNL     1      10.705  14.959  29.172  1.00  0.00    -0.065 C 
ATOM     13  C   UNL     1       9.585  14.474  28.243  1.00  0.00    -0.008 C 
ATOM     14  C   UNL     1       9.119  13.065  28.731  1.00  0.00     0.014 C 
ATOM     15  C   UNL     1      10.272  12.076  28.969  1.00  0.00     0.033 C 
ATOM     16  C   UNL     1      11.288  12.636  29.977  1.00  0.00     0.118 C 
ATOM     17  C   UNL     1      11.828  13.997  29.519  1.00  0.00     0.063 C 
ATOM     18  C   UNL     1      10.182  14.329  26.813  1.00  0.00     0.016 C 
ATOM     19  C   UNL     1       6.619  18.334  30.312  1.00  0.00     0.012 C 
ENDROOT
BRANCH   1  20
ATOM     20  C   UNL     1       3.929  18.357  28.530  1.00  0.00     0.133 C 
ATOM     21  C   UNL     1       3.227  19.063  29.660  1.00  0.00     0.088 C 
ATOM     22  O   UNL     1       3.282  17.547  27.884  1.00  0.00    -0.300 OA
ENDBRANCH   1  20
BRANCH  16  23
ATOM     23  O   UNL     1      10.698  12.774  31.245  1.00  0.00    -0.393 OA
ATOM     24  H   UNL     1      10.360  13.707  31.305  1.00  0.00     0.210 HD
ENDBRANCH  16  23
TORSDOF 2
ENDMDL
MODEL 5
REMARK VINA RESULT:    -6.877      1.586      6.691
REMARK INTER + INTRA:          -7.515
REMARK INTER:                  -7.416
REMARK INTRA:                  -0.100
REMARK UNBOUND:                -0.035
REMARK SMILES CC(=O)[C@@H]1CC[C@@H]2[C@H]3CC=C4C[C@@H](O)CC[C@@]4(C)[C@H]3CC[C@@]21C
REMARK SMILES IDX 4 1 5 2 6 3 7 4 22 5 21 6 20 7 19 8 8 9 9 10 10 11 11 12
REMARK SMILES IDX 17 13 16 14 15 15 13 16 12 17 18 18 23 19 2 20 1 21 3 22
REMARK SMILES IDX 14 23
REMARK H PARENT 14 24
REMARK Flexibility Score: inf
ROOT
ATOM      1  C   UNL     1       6.215  15.266  30.616  1.00  0.00     0.062 C 
ATOM      2  C   UNL     1       6.173  13.930  31.362  1.00  0.00     0.012 C 
ATOM      3  C   UNL     1       4.857  13.264  30.956  1.00  0.00     0.005 C 
ATOM      4  C   UNL     1       4.164  14.200  29.946  1.00  0.00    -0.001 C 
ATOM      5  C   UNL     1       5.288  15.112  29.380  1.00  0.00    -0.020 C 
ATOM      6  C   UNL     1       6.017  14.426  28.192  1.00  0.00     0.008 C 
ATOM      7  C   UNL     1       5.065  13.845  27.138  1.00  0.00     0.005 C 
ATOM      8  C   UNL     1       4.138  12.776  27.766  1.00  0.00     0.003 C 
ATOM      9  C   UNL     1       3.302  13.412  28.910  1.00  0.00     0.000 C 
ATOM     10  C   UNL     1       2.161  14.283  28.357  1.00  0.00     0.031 C 
ATOM     11  C   UNL     1       1.380  13.612  27.268  1.00  0.00    -0.027 C 
ATOM     12  C   UNL     1       1.891  12.665  26.458  1.00  0.00    -0.065 C 
ATOM     13  C   UNL     1       3.220  11.961  26.757  1.00  0.00    -0.008 C 
ATOM     14  C   UNL     1       3.951  11.696  25.401  1.00  0.00     0.014 C 
ATOM     15  C   UNL     1       3.064  11.032  24.335  1.00  0.00     0.033 C 
ATOM     16  C   UNL     1       1.803  11.868  24.061  1.00  0.00     0.118 C 
ATOM     17  C   UNL     1       1.009  12.110  25.351  1.00  0.00     0.063 C 
ATOM     18  C   UNL     1       2.896  10.591  27.419  1.00  0.00     0.016 C 
ATOM     19  C   UNL     1       4.778  16.514  28.955  1.00  0.00     0.012 C 
ENDROOT
BRANCH   1  20
ATOM     20  C   UNL     1       7.606  15.833  30.352  1.00  0.00     0.133 C 
ATOM     21  C   UNL     1       7.917  17.302  30.243  1.00  0.00     0.088 C 
ATOM     22  O   UNL     1       8.537  15.050  30.243  1.00  0.00    -0.300 OA
ENDBRANCH   1  20
BRANCH  16  23
ATOM     23  O   UNL     1       2.147  13.104  23.488  1.00  0.00    -0.393 OA
ATOM     24  H   UNL     1       2.011  13.014  22.508  1.00  0.00     0.210 HD
ENDBRANCH  16  23
TORSDOF 2
ENDMDL
MODEL 6
REMARK VINA RESULT:    -6.845      1.189      6.628
REMARK INTER + INTRA:          -7.480
REMARK INTER:                  -7.368
REMARK INTRA:                  -0.112
REMARK UNBOUND:                -0.035
REMARK SMILES CC(=O)[C@@H]1CC[C@@H]2[C@H]3CC=C4C[C@@H](O)CC[C@@]4(C)[C@H]3CC[C@@]21C
REMARK SMILES IDX 4 1 5 2 6 3 7 4 22 5 21 6 20 7 19 8 8 9 9 10 10 11 11 12
REMARK SMILES IDX 17 13 16 14 15 15 13 16 12 17 18 18 23 19 2 20 1 21 3 22
REMARK SMILES IDX 14 23
REMARK H PARENT 14 24
REMARK Flexibility Score: inf
ROOT
ATOM      1  C   UNL     1       6.587  17.554  29.393  1.00  0.00     0.062 C 
ATOM      2  C   UNL     1       6.874  16.411  30.371  1.00  0.00     0.012 C 
ATOM      3  C   UNL     1       5.687  15.455  30.258  1.00  0.00     0.005 C 
ATOM      4  C   UNL     1       4.739  16.028  29.185  1.00  0.00    -0.001 C 
ATOM      5  C   UNL     1       5.608  16.991  28.329  1.00  0.00    -0.020 C 
ATOM      6  C   UNL     1       6.353  16.218  27.206  1.00  0.00     0.008 C 
ATOM      7  C   UNL     1       5.449  15.275  26.401  1.00  0.00     0.005 C 
ATOM      8  C   UNL     1       4.808  14.210  27.323  1.00  0.00     0.003 C 
ATOM      9  C   UNL     1       3.964  14.906  28.425  1.00  0.00     0.000 C 
ATOM     10  C   UNL     1       2.630  15.430  27.866  1.00  0.00     0.031 C 
ATOM     11  C   UNL     1       1.907  14.425  27.022  1.00  0.00    -0.027 C 
ATOM     12  C   UNL     1       2.524  13.439  26.342  1.00  0.00    -0.065 C 
ATOM     13  C   UNL     1       3.987  13.057  26.600  1.00  0.00    -0.008 C 
ATOM     14  C   UNL     1       4.637  12.657  25.237  1.00  0.00     0.014 C 
ATOM     15  C   UNL     1       3.811  11.644  24.427  1.00  0.00     0.033 C 
ATOM     16  C   UNL     1       2.391  12.169  24.161  1.00  0.00     0.118 C 
ATOM     17  C   UNL     1       1.678  12.524  25.472  1.00  0.00     0.063 C 
ATOM     18  C   UNL     1       3.997  11.814  27.537  1.00  0.00     0.016 C 
ATOM     19  C   UNL     1       4.796  18.164  27.720  1.00  0.00     0.012 C 
ENDROOT
BRANCH   1  20
ATOM     20  C   UNL     1       7.811  18.293  28.862  1.00  0.00     0.133 C 
ATOM     21  C   UNL     1       9.197  17.708  28.804  1.00  0.00     0.088 C 
ATOM     22  O   UNL     1       7.660  19.427  28.434  1.00  0.00    -0.300 OA
ENDBRANCH   1  20
BRANCH  16  23
ATOM     23  O   UNL     1       2.434  13.304  23.334  1.00  0.00    -0.393 OA
ATOM     24  H   UNL     1       2.449  14.096  23.934  1.00  0.00     0.210 HD
ENDBRANCH  16  23
TORSDOF 2
ENDMDL
MODEL 7
REMARK VINA RESULT:    -6.773      9.279     10.614
REMARK INTER + INTRA:          -7.401
REMARK INTER:                  -7.291
REMARK INTRA:                  -0.111
REMARK UNBOUND:                -0.035
REMARK SMILES CC(=O)[C@@H]1CC[C@@H]2[C@H]3CC=C4C[C@@H](O)CC[C@@]4(C)[C@H]3CC[C@@]21C
REMARK SMILES IDX 4 1 5 2 6 3 7 4 22 5 21 6 20 7 19 8 8 9 9 10 10 11 11 12
REMARK SMILES IDX 17 13 16 14 15 15 13 16 12 17 18 18 23 19 2 20 1 21 3 22
REMARK SMILES IDX 14 23
REMARK H PARENT 14 24
REMARK Flexibility Score: inf
ROOT
ATOM      1  C   UNL     1       4.744  21.577  18.142  1.00  0.00     0.062 C 
ATOM      2  C   UNL     1       5.336  22.787  17.415  1.00  0.00     0.012 C 
ATOM      3  C   UNL     1       5.406  23.907  18.453  1.00  0.00     0.005 C 
ATOM      4  C   UNL     1       4.893  23.328  19.786  1.00  0.00    -0.001 C 
ATOM      5  C   UNL     1       5.031  21.785  19.654  1.00  0.00    -0.020 C 
ATOM      6  C   UNL     1       6.461  21.319  20.042  1.00  0.00     0.008 C 
ATOM      7  C   UNL     1       6.960  21.900  21.372  1.00  0.00     0.005 C 
ATOM      8  C   UNL     1       6.998  23.446  21.314  1.00  0.00     0.003 C 
ATOM      9  C   UNL     1       5.576  23.997  21.020  1.00  0.00     0.000 C 
ATOM     10  C   UNL     1       4.674  23.924  22.265  1.00  0.00     0.031 C 
ATOM     11  C   UNL     1       5.336  24.442  23.505  1.00  0.00    -0.027 C 
ATOM     12  C   UNL     1       6.669  24.435  23.699  1.00  0.00    -0.065 C 
ATOM     13  C   UNL     1       7.661  24.179  22.558  1.00  0.00    -0.008 C 
ATOM     14  C   UNL     1       8.866  23.365  23.130  1.00  0.00     0.014 C 
ATOM     15  C   UNL     1       9.461  23.955  24.419  1.00  0.00     0.033 C 
ATOM     16  C   UNL     1       8.392  24.090  25.515  1.00  0.00     0.118 C 
ATOM     17  C   UNL     1       7.206  24.933  25.031  1.00  0.00     0.063 C 
ATOM     18  C   UNL     1       8.187  25.558  22.066  1.00  0.00     0.016 C 
ATOM     19  C   UNL     1       3.974  21.007  20.479  1.00  0.00     0.012 C 
ENDROOT
BRANCH   1  20
ATOM     20  C   UNL     1       5.112  20.214  17.566  1.00  0.00     0.133 C 
ATOM     21  C   UNL     1       6.322  19.952  16.709  1.00  0.00     0.088 C 
ATOM     22  O   UNL     1       4.392  19.262  17.830  1.00  0.00    -0.300 OA
ENDBRANCH   1  20
BRANCH  16  23
ATOM     23  O   UNL     1       7.930  22.822  25.909  1.00  0.00    -0.393 OA
ATOM     24  H   UNL     1       8.525  22.516  26.644  1.00  0.00     0.210 HD
ENDBRANCH  16  23
TORSDOF 2
ENDMDL
MODEL 8
REMARK VINA RESULT:    -6.749      1.780      2.039
REMARK INTER + INTRA:          -7.376
REMARK INTER:                  -7.262
REMARK INTRA:                  -0.114
REMARK UNBOUND:                -0.035
REMARK SMILES CC(=O)[C@@H]1CC[C@@H]2[C@H]3CC=C4C[C@@H](O)CC[C@@]4(C)[C@H]3CC[C@@]21C
REMARK SMILES IDX 4 1 5 2 6 3 7 4 22 5 21 6 20 7 19 8 8 9 9 10 10 11 11 12
REMARK SMILES IDX 17 13 16 14 15 15 13 16 12 17 18 18 23 19 2 20 1 21 3 22
REMARK SMILES IDX 14 23
REMARK H PARENT 14 24
REMARK Flexibility Score: inf
ROOT
ATOM      1  C   UNL     1       4.305  12.690  24.500  1.00  0.00     0.062 C 
ATOM      2  C   UNL     1       2.853  13.171  24.446  1.00  0.00     0.012 C 
ATOM      3  C   UNL     1       2.554  13.760  25.824  1.00  0.00     0.005 C 
ATOM      4  C   UNL     1       3.848  13.655  26.656  1.00  0.00    -0.001 C 
ATOM      5  C   UNL     1       5.000  13.506  25.623  1.00  0.00    -0.020 C 
ATOM      6  C   UNL     1       5.479  14.895  25.119  1.00  0.00     0.008 C 
ATOM      7  C   UNL     1       5.748  15.901  26.247  1.00  0.00     0.005 C 
ATOM      8  C   UNL     1       4.466  16.148  27.079  1.00  0.00     0.003 C 
ATOM      9  C   UNL     1       3.974  14.812  27.697  1.00  0.00     0.000 C 
ATOM     10  C   UNL     1       4.842  14.392  28.896  1.00  0.00     0.031 C 
ATOM     11  C   UNL     1       5.095  15.508  29.862  1.00  0.00    -0.027 C 
ATOM     12  C   UNL     1       5.099  16.810  29.515  1.00  0.00    -0.065 C 
ATOM     13  C   UNL     1       4.548  17.301  28.170  1.00  0.00    -0.008 C 
ATOM     14  C   UNL     1       5.435  18.492  27.682  1.00  0.00     0.014 C 
ATOM     15  C   UNL     1       5.664  19.574  28.750  1.00  0.00     0.033 C 
ATOM     16  C   UNL     1       6.292  18.979  30.021  1.00  0.00     0.118 C 
ATOM     17  C   UNL     1       5.432  17.840  30.582  1.00  0.00     0.063 C 
ATOM     18  C   UNL     1       3.103  17.826  28.409  1.00  0.00     0.016 C 
ATOM     19  C   UNL     1       6.203  12.692  26.167  1.00  0.00     0.012 C 
ENDROOT
BRANCH   1  20
ATOM     20  C   UNL     1       5.032  12.629  23.161  1.00  0.00     0.133 C 
ATOM     21  C   UNL     1       4.738  13.533  21.993  1.00  0.00     0.088 C 
ATOM     22  O   UNL     1       5.928  11.808  23.027  1.00  0.00    -0.300 OA
ENDBRANCH   1  20
BRANCH  16  23
ATOM     23  O   UNL     1       7.584  18.496  29.750  1.00  0.00    -0.393 OA
ATOM     24  H   UNL     1       7.616  18.292  28.778  1.00  0.00     0.210 HD
ENDBRANCH  16  23
TORSDOF 2
ENDMDL
MODEL 9
REMARK VINA RESULT:    -6.708      8.887     12.006
REMARK INTER + INTRA:          -7.331
REMARK INTER:                  -7.219
REMARK INTRA:                  -0.112
REMARK UNBOUND:                -0.035
REMARK SMILES CC(=O)[C@@H]1CC[C@@H]2[C@H]3CC=C4C[C@@H](O)CC[C@@]4(C)[C@H]3CC[C@@]21C
REMARK SMILES IDX 4 1 5 2 6 3 7 4 22 5 21 6 20 7 19 8 8 9 9 10 10 11 11 12
REMARK SMILES IDX 17 13 16 14 15 15 13 16 12 17 18 18 23 19 2 20 1 21 3 22
REMARK SMILES IDX 14 23
REMARK H PARENT 14 24
REMARK Flexibility Score: inf
ROOT
ATOM      1  C   UNL     1       7.916  24.494  25.268  1.00  0.00     0.062 C 
ATOM      2  C   UNL     1       6.453  24.747  25.642  1.00  0.00     0.012 C 
ATOM      3  C   UNL     1       5.740  25.098  24.336  1.00  0.00     0.005 C 
ATOM      4  C   UNL     1       6.785  25.006  23.206  1.00  0.00    -0.001 C 
ATOM      5  C   UNL     1       7.927  24.111  23.763  1.00  0.00    -0.020 C 
ATOM      6  C   UNL     1       7.612  22.606  23.546  1.00  0.00     0.008 C 
ATOM      7  C   UNL     1       7.166  22.269  22.116  1.00  0.00     0.005 C 
ATOM      8  C   UNL     1       5.883  23.050  21.744  1.00  0.00     0.003 C 
ATOM      9  C   UNL     1       6.146  24.577  21.848  1.00  0.00     0.000 C 
ATOM     10  C   UNL     1       6.974  25.088  20.656  1.00  0.00     0.031 C 
ATOM     11  C   UNL     1       6.471  24.597  19.333  1.00  0.00    -0.027 C 
ATOM     12  C   UNL     1       5.793  23.444  19.173  1.00  0.00    -0.065 C 
ATOM     13  C   UNL     1       5.205  22.668  20.358  1.00  0.00    -0.008 C 
ATOM     14  C   UNL     1       5.334  21.140  20.057  1.00  0.00     0.014 C 
ATOM     15  C   UNL     1       4.819  20.735  18.666  1.00  0.00     0.033 C 
ATOM     16  C   UNL     1       5.537  21.519  17.556  1.00  0.00     0.118 C 
ATOM     17  C   UNL     1       5.394  23.031  17.766  1.00  0.00     0.063 C 
ATOM     18  C   UNL     1       3.694  23.026  20.459  1.00  0.00     0.016 C 
ATOM     19  C   UNL     1       9.316  24.456  23.166  1.00  0.00     0.012 C 
ENDROOT
BRANCH   1  20
ATOM     20  C   UNL     1       8.689  23.573  26.206  1.00  0.00     0.133 C 
ATOM     21  C   UNL     1       8.066  22.465  27.013  1.00  0.00     0.088 C 
ATOM     22  O   UNL     1       9.898  23.726  26.297  1.00  0.00    -0.300 OA
ENDBRANCH   1  20
BRANCH  16  23
ATOM     23  O   UNL     1       6.901  21.183  17.520  1.00  0.00    -0.393 OA
ATOM     24  H   UNL     1       7.367  21.805  18.140  1.00  0.00     0.210 HD
ENDBRANCH  16  23
TORSDOF 2
ENDMDL
