MODEL 1
REMARK VINA RESULT:    -2.326      0.000      0.000
REMARK INTER + INTRA:          -2.326
REMARK INTER:                  -2.326
REMARK INTRA:                   0.000
REMARK UNBOUND:                 0.000
REMARK SMILES CC(=O)[O-]
REMARK SMILES IDX 1 1 2 2 3 3 4 4
REMARK H PARENT
REMARK Flexibility Score: inf
ROOT
ATOM      1  C   UNL     1      -3.439 -12.239  47.776  1.00  0.00     0.063 C 
ATOM      2  C   UNL     1      -2.060 -12.793  47.656  1.00  0.00     0.038 C 
ATOM      3  O   UNL     1      -1.836 -13.773  46.900  1.00  0.00    -0.550 OA
ATOM      4  O   UNL     1      -1.008 -12.194  48.339  1.00  0.00    -0.550 OA
ENDROOT
TORSDOF 0
ENDMDL
MODEL 2
REMARK VINA RESULT:    -2.325      5.748      6.199
REMARK INTER + INTRA:          -2.325
REMARK INTER:                  -2.325
REMARK INTRA:                   0.000
REMARK UNBOUND:                 0.000
REMARK SMILES CC(=O)[O-]
REMARK SMILES IDX 1 1 2 2 3 3 4 4
REMARK H PARENT
REMARK Flexibility Score: inf
ROOT
ATOM      1  C   UNL     1       4.716 -12.337  45.505  1.00  0.00     0.063 C 
ATOM      2  C   UNL     1       3.339 -12.909  45.555  1.00  0.00     0.038 C 
ATOM      3  O   UNL     1       3.071 -13.839  46.359  1.00  0.00    -0.550 OA
ATOM      4  O   UNL     1       2.336 -12.381  44.752  1.00  0.00    -0.550 OA
ENDROOT
TORSDOF 0
ENDMDL
MODEL 3
REMARK VINA RESULT:    -2.311      5.822      6.174
REMARK INTER + INTRA:          -2.311
REMARK INTER:                  -2.311
REMARK INTRA:                   0.000
REMARK UNBOUND:                 0.000
REMARK SMILES CC(=O)[O-]
REMARK SMILES IDX 1 1 2 2 3 3 4 4
REMARK H PARENT
REMARK Flexibility Score: inf
ROOT
ATOM      1  C   UNL     1       2.881 -12.044  44.506  1.00  0.00     0.063 C 
ATOM      2  C   UNL     1       3.574 -12.845  45.556  1.00  0.00     0.038 C 
ATOM      3  O   UNL     1       2.928 -13.676  46.246  1.00  0.00    -0.550 OA
ATOM      4  O   UNL     1       4.945 -12.714  45.740  1.00  0.00    -0.550 OA
ENDROOT
TORSDOF 0
ENDMDL
MODEL 4
REMARK VINA RESULT:    -2.301      1.347      1.862
REMARK INTER + INTRA:          -2.301
REMARK INTER:                  -2.301
REMARK INTRA:                   0.000
REMARK UNBOUND:                 0.000
REMARK SMILES CC(=O)[O-]
REMARK SMILES IDX 1 1 2 2 3 3 4 4
REMARK H PARENT
REMARK Flexibility Score: inf
ROOT
ATOM      1  C   UNL     1      -1.503 -11.771  48.626  1.00  0.00     0.063 C 
ATOM      2  C   UNL     1      -2.258 -12.644  47.682  1.00  0.00     0.038 C 
ATOM      3  O   UNL     1      -3.492 -12.469  47.509  1.00  0.00    -0.550 OA
ATOM      4  O   UNL     1      -1.590 -13.618  46.949  1.00  0.00    -0.550 OA
ENDROOT
TORSDOF 0
ENDMDL
MODEL 5
REMARK VINA RESULT:    -2.282      5.818      6.270
REMARK INTER + INTRA:          -2.282
REMARK INTER:                  -2.282
REMARK INTRA:                   0.000
REMARK UNBOUND:                 0.000
REMARK SMILES CC(=O)[O-]
REMARK SMILES IDX 1 1 2 2 3 3 4 4
REMARK H PARENT
REMARK Flexibility Score: inf
ROOT
ATOM      1  C   UNL     1       2.950 -11.988  44.447  1.00  0.00     0.063 C 
ATOM      2  C   UNL     1       3.610 -12.803  45.506  1.00  0.00     0.038 C 
ATOM      3  O   UNL     1       4.841 -12.670  45.731  1.00  0.00    -0.550 OA
ATOM      4  O   UNL     1       2.857 -13.674  46.285  1.00  0.00    -0.550 OA
ENDROOT
TORSDOF 0
ENDMDL
MODEL 6
REMARK VINA RESULT:    -2.251      6.678      7.098
REMARK INTER + INTRA:          -2.251
REMARK INTER:                  -2.251
REMARK INTRA:                   0.000
REMARK UNBOUND:                 0.000
REMARK SMILES CC(=O)[O-]
REMARK SMILES IDX 1 1 2 2 3 3 4 4
REMARK H PARENT
REMARK Flexibility Score: inf
ROOT
ATOM      1  C   UNL     1       5.279 -12.990  45.726  1.00  0.00     0.063 C 
ATOM      2  C   UNL     1       4.475 -14.176  46.139  1.00  0.00     0.038 C 
ATOM      3  O   UNL     1       5.020 -15.307  46.233  1.00  0.00    -0.550 OA
ATOM      4  O   UNL     1       3.135 -14.027  46.473  1.00  0.00    -0.550 OA
ENDROOT
TORSDOF 0
ENDMDL
MODEL 7
REMARK VINA RESULT:    -2.200      6.465      6.944
REMARK INTER + INTRA:          -2.200
REMARK INTER:                  -2.200
REMARK INTRA:                   0.000
REMARK UNBOUND:                 0.000
REMARK SMILES CC(=O)[O-]
REMARK SMILES IDX 1 1 2 2 3 3 4 4
REMARK H PARENT
REMARK Flexibility Score: inf
ROOT
ATOM      1  C   UNL     1       5.105 -14.722  46.314  1.00  0.00     0.063 C 
ATOM      2  C   UNL     1       4.309 -13.507  45.977  1.00  0.00     0.038 C 
ATOM      3  O   UNL     1       3.054 -13.526  46.072  1.00  0.00    -0.550 OA
ATOM      4  O   UNL     1       4.954 -12.332  45.609  1.00  0.00    -0.550 OA
ENDROOT
TORSDOF 0
ENDMDL
MODEL 8
REMARK VINA RESULT:    -2.053      5.528      5.951
REMARK INTER + INTRA:          -2.053
REMARK INTER:                  -2.053
REMARK INTRA:                   0.000
REMARK UNBOUND:                 0.000
REMARK SMILES CC(=O)[O-]
REMARK SMILES IDX 1 1 2 2 3 3 4 4
REMARK H PARENT
REMARK Flexibility Score: inf
ROOT
ATOM      1  C   UNL     1       3.533 -12.814  45.537  1.00  0.00     0.063 C 
ATOM      2  C   UNL     1       2.754 -11.720  44.889  1.00  0.00     0.038 C 
ATOM      3  O   UNL     1       3.022 -11.365  43.712  1.00  0.00    -0.550 OA
ATOM      4  O   UNL     1       1.695 -11.126  45.564  1.00  0.00    -0.550 OA
ENDROOT
TORSDOF 0
ENDMDL
MODEL 9
REMARK VINA RESULT:    -1.977      1.785      2.502
REMARK INTER + INTRA:          -1.977
REMARK INTER:                  -1.977
REMARK INTRA:                   0.000
REMARK UNBOUND:                 0.000
REMARK SMILES CC(=O)[O-]
REMARK SMILES IDX 1 1 2 2 3 3 4 4
REMARK H PARENT
REMARK Flexibility Score: inf
ROOT
ATOM      1  C   UNL     1      -4.813 -11.798  48.637  1.00  0.00     0.063 C 
ATOM      2  C   UNL     1      -3.890 -12.535  47.726  1.00  0.00     0.038 C 
ATOM      3  O   UNL     1      -2.674 -12.216  47.666  1.00  0.00    -0.550 OA
ATOM      4  O   UNL     1      -4.359 -13.609  46.981  1.00  0.00    -0.550 OA
ENDROOT
TORSDOF 0
ENDMDL
