MODEL 1
REMARK VINA RESULT:    -4.283      0.000      0.000
REMARK INTER + INTRA:          -5.936
REMARK INTER:                  -5.409
REMARK INTRA:                  -0.527
REMARK UNBOUND:                -0.527
REMARK SMILES Oc1ccc(CCc2cc(O)cc(O)c2)cc1
REMARK SMILES IDX 6 1 5 2 4 3 3 4 2 5 16 6 17 7 1 8 7 10 8 11 15 12 9 13 13 14
REMARK SMILES IDX 10 15 12 16 14 17 11 19
REMARK H PARENT 1 9 14 18 11 20
REMARK Flexibility Score: inf
ROOT
ATOM      1  C   UNL     1      40.109 -32.043  12.520  1.00  0.00     0.040 C 
ENDROOT
BRANCH   1   2
ATOM      2  C   UNL     1      39.046 -31.433  11.647  1.00  0.00    -0.047 A 
ATOM      3  C   UNL     1      39.240 -31.334  10.259  1.00  0.00     0.007 A 
ATOM      4  C   UNL     1      38.266 -30.736   9.453  1.00  0.00     0.046 A 
ATOM      5  C   UNL     1      37.097 -30.223  10.023  1.00  0.00     0.115 A 
ATOM      6  C   UNL     1      37.877 -30.904  12.218  1.00  0.00     0.007 A 
ATOM      7  C   UNL     1      36.904 -30.307  11.409  1.00  0.00     0.046 A 
BRANCH   5   8
ATOM      8  O   UNL     1      36.136 -29.631   9.208  1.00  0.00    -0.508 OA
ATOM      9  H   UNL     1      36.390 -28.958   8.492  1.00  0.00     0.293 HD
ENDBRANCH   5   8
ENDBRANCH   1   2
BRANCH   1  10
ATOM     10  C   UNL     1      41.197 -31.016  12.843  1.00  0.00     0.040 C 
BRANCH  10  11
ATOM     11  C   UNL     1      42.532 -31.479  12.325  1.00  0.00    -0.040 A 
ATOM     12  C   UNL     1      42.602 -32.441  11.305  1.00  0.00     0.050 A 
ATOM     13  C   UNL     1      43.718 -30.908  12.817  1.00  0.00     0.050 A 
ATOM     14  C   UNL     1      43.841 -32.847  10.798  1.00  0.00     0.119 A 
ATOM     15  C   UNL     1      44.959 -31.313  12.314  1.00  0.00     0.119 A 
ATOM     16  C   UNL     1      45.020 -32.285  11.305  1.00  0.00     0.092 A 
BRANCH  14  17
ATOM     17  O   UNL     1      43.890 -33.809   9.792  1.00  0.00    -0.508 OA
ATOM     18  H   UNL     1      43.922 -33.550   8.813  1.00  0.00     0.293 HD
ENDBRANCH  14  17
BRANCH  15  19
ATOM     19  O   UNL     1      46.125 -30.741  12.819  1.00  0.00    -0.508 OA
ATOM     20  H   UNL     1      47.037 -30.984  12.451  1.00  0.00     0.293 HD
ENDBRANCH  15  19
ENDBRANCH  10  11
ENDBRANCH   1  10
TORSDOF 6
ENDMDL
MODEL 2
REMARK VINA RESULT:    -4.272      0.070      2.355
REMARK INTER + INTRA:          -5.923
REMARK INTER:                  -5.403
REMARK INTRA:                  -0.519
REMARK UNBOUND:                -0.527
REMARK SMILES Oc1ccc(CCc2cc(O)cc(O)c2)cc1
REMARK SMILES IDX 6 1 5 2 4 3 3 4 2 5 16 6 17 7 1 8 7 10 8 11 15 12 9 13 13 14
REMARK SMILES IDX 10 15 12 16 14 17 11 19
REMARK H PARENT 1 9 14 18 11 20
REMARK Flexibility Score: inf
ROOT
ATOM      1  C   UNL     1      40.119 -32.026  12.482  1.00  0.00     0.040 C 
ENDROOT
BRANCH   1   2
ATOM      2  C   UNL     1      39.062 -31.394  11.617  1.00  0.00    -0.047 A 
ATOM      3  C   UNL     1      37.865 -30.930  12.186  1.00  0.00     0.007 A 
ATOM      4  C   UNL     1      36.869 -30.373  11.377  1.00  0.00     0.046 A 
ATOM      5  C   UNL     1      37.054 -30.283   9.994  1.00  0.00     0.115 A 
ATOM      6  C   UNL     1      39.239 -31.314  10.226  1.00  0.00     0.007 A 
ATOM      7  C   UNL     1      38.242 -30.756   9.419  1.00  0.00     0.046 A 
BRANCH   5   8
ATOM      8  O   UNL     1      36.055 -29.726   9.201  1.00  0.00    -0.508 OA
ATOM      9  H   UNL     1      35.550 -30.279   8.517  1.00  0.00     0.293 HD
ENDBRANCH   5   8
ENDBRANCH   1   2
BRANCH   1  10
ATOM     10  C   UNL     1      41.199 -31.005  12.847  1.00  0.00     0.040 C 
BRANCH  10  11
ATOM     11  C   UNL     1      42.528 -31.411  12.271  1.00  0.00    -0.040 A 
ATOM     12  C   UNL     1      43.717 -30.852  12.768  1.00  0.00     0.050 A 
ATOM     13  C   UNL     1      42.594 -32.396  11.271  1.00  0.00     0.050 A 
ATOM     14  C   UNL     1      44.955 -31.253  12.257  1.00  0.00     0.119 A 
ATOM     15  C   UNL     1      43.831 -32.799  10.756  1.00  0.00     0.119 A 
ATOM     16  C   UNL     1      45.012 -32.225  11.248  1.00  0.00     0.092 A 
BRANCH  14  17
ATOM     17  O   UNL     1      46.123 -30.682  12.757  1.00  0.00    -0.508 OA
ATOM     18  H   UNL     1      46.441 -30.867  13.700  1.00  0.00     0.293 HD
ENDBRANCH  14  17
BRANCH  15  19
ATOM     19  O   UNL     1      43.877 -33.771   9.760  1.00  0.00    -0.508 OA
ATOM     20  H   UNL     1      43.667 -34.743   9.958  1.00  0.00     0.293 HD
ENDBRANCH  15  19
ENDBRANCH  10  11
ENDBRANCH   1  10
TORSDOF 6
ENDMDL
MODEL 3
REMARK VINA RESULT:    -4.073     19.192     21.061
REMARK INTER + INTRA:          -5.671
REMARK INTER:                  -5.616
REMARK INTRA:                  -0.055
REMARK UNBOUND:                -0.527
REMARK SMILES Oc1ccc(CCc2cc(O)cc(O)c2)cc1
REMARK SMILES IDX 6 1 5 2 4 3 3 4 2 5 16 6 17 7 1 8 7 10 8 11 15 12 9 13 13 14
REMARK SMILES IDX 10 15 12 16 14 17 11 19
REMARK H PARENT 1 9 14 18 11 20
REMARK Flexibility Score: inf
ROOT
ATOM      1  C   UNL     1      27.253 -38.196  -0.599  1.00  0.00     0.040 C 
ENDROOT
BRANCH   1   2
ATOM      2  C   UNL     1      27.130 -39.281  -1.634  1.00  0.00    -0.047 A 
ATOM      3  C   UNL     1      26.164 -39.187  -2.649  1.00  0.00     0.007 A 
ATOM      4  C   UNL     1      26.028 -40.211  -3.590  1.00  0.00     0.046 A 
ATOM      5  C   UNL     1      26.846 -41.343  -3.523  1.00  0.00     0.115 A 
ATOM      6  C   UNL     1      27.941 -40.426  -1.561  1.00  0.00     0.007 A 
ATOM      7  C   UNL     1      27.804 -41.449  -2.505  1.00  0.00     0.046 A 
BRANCH   5   8
ATOM      8  O   UNL     1      26.700 -42.355  -4.468  1.00  0.00    -0.508 OA
ATOM      9  H   UNL     1      26.409 -42.155  -5.419  1.00  0.00     0.293 HD
ENDBRANCH   5   8
ENDBRANCH   1   2
BRANCH   1  10
ATOM     10  C   UNL     1      25.960 -38.075   0.211  1.00  0.00     0.040 C 
BRANCH  10  11
ATOM     11  C   UNL     1      25.903 -39.133   1.280  1.00  0.00    -0.040 A 
ATOM     12  C   UNL     1      25.904 -40.493   0.932  1.00  0.00     0.050 A 
ATOM     13  C   UNL     1      25.908 -38.768   2.637  1.00  0.00     0.050 A 
ATOM     14  C   UNL     1      25.886 -41.477   1.925  1.00  0.00     0.119 A 
ATOM     15  C   UNL     1      25.889 -39.750   3.633  1.00  0.00     0.119 A 
ATOM     16  C   UNL     1      25.875 -41.106   3.276  1.00  0.00     0.092 A 
BRANCH  14  17
ATOM     17  O   UNL     1      25.879 -42.822   1.560  1.00  0.00    -0.508 OA
ATOM     18  H   UNL     1      25.035 -43.279   1.237  1.00  0.00     0.293 HD
ENDBRANCH  14  17
BRANCH  15  19
ATOM     19  O   UNL     1      25.887 -39.369   4.973  1.00  0.00    -0.508 OA
ATOM     20  H   UNL     1      25.566 -38.453   5.263  1.00  0.00     0.293 HD
ENDBRANCH  15  19
ENDBRANCH  10  11
ENDBRANCH   1  10
TORSDOF 6
ENDMDL
MODEL 4
REMARK VINA RESULT:    -4.021      1.699      2.849
REMARK INTER + INTRA:          -5.605
REMARK INTER:                  -5.218
REMARK INTRA:                  -0.387
REMARK UNBOUND:                -0.527
REMARK SMILES Oc1ccc(CCc2cc(O)cc(O)c2)cc1
REMARK SMILES IDX 6 1 5 2 4 3 3 4 2 5 16 6 17 7 1 8 7 10 8 11 15 12 9 13 13 14
REMARK SMILES IDX 10 15 12 16 14 17 11 19
REMARK H PARENT 1 9 14 18 11 20
REMARK Flexibility Score: inf
ROOT
ATOM      1  C   UNL     1      39.658 -31.209  10.597  1.00  0.00     0.040 C 
ENDROOT
BRANCH   1   2
ATOM      2  C   UNL     1      38.259 -30.791  10.232  1.00  0.00    -0.047 A 
ATOM      3  C   UNL     1      37.344 -30.428  11.233  1.00  0.00     0.007 A 
ATOM      4  C   UNL     1      36.035 -30.072  10.895  1.00  0.00     0.046 A 
ATOM      5  C   UNL     1      35.623 -30.085   9.558  1.00  0.00     0.115 A 
ATOM      6  C   UNL     1      37.839 -30.816   8.892  1.00  0.00     0.007 A 
ATOM      7  C   UNL     1      36.529 -30.459   8.556  1.00  0.00     0.046 A 
BRANCH   5   8
ATOM      8  O   UNL     1      34.317 -29.728   9.237  1.00  0.00    -0.508 OA
ATOM      9  H   UNL     1      33.934 -28.826   9.499  1.00  0.00     0.293 HD
ENDBRANCH   5   8
ENDBRANCH   1   2
BRANCH   1  10
ATOM     10  C   UNL     1      40.652 -30.082  10.303  1.00  0.00     0.040 C 
BRANCH  10  11
ATOM     11  C   UNL     1      42.060 -30.612  10.274  1.00  0.00    -0.040 A 
ATOM     12  C   UNL     1      43.150 -29.728  10.315  1.00  0.00     0.050 A 
ATOM     13  C   UNL     1      42.294 -31.997  10.266  1.00  0.00     0.050 A 
ATOM     14  C   UNL     1      44.460 -30.220  10.323  1.00  0.00     0.119 A 
ATOM     15  C   UNL     1      43.602 -32.493  10.273  1.00  0.00     0.119 A 
ATOM     16  C   UNL     1      44.685 -31.603  10.299  1.00  0.00     0.092 A 
BRANCH  14  17
ATOM     17  O   UNL     1      45.529 -29.328  10.356  1.00  0.00    -0.508 OA
ATOM     18  H   UNL     1      46.483 -29.640  10.223  1.00  0.00     0.293 HD
ENDBRANCH  14  17
BRANCH  15  19
ATOM     19  O   UNL     1      43.815 -33.869  10.257  1.00  0.00    -0.508 OA
ATOM     20  H   UNL     1      43.061 -34.524  10.424  1.00  0.00     0.293 HD
ENDBRANCH  15  19
ENDBRANCH  10  11
ENDBRANCH   1  10
TORSDOF 6
ENDMDL
MODEL 5
REMARK VINA RESULT:    -3.905      1.715      7.285
REMARK INTER + INTRA:          -5.458
REMARK INTER:                  -5.065
REMARK INTRA:                  -0.393
REMARK UNBOUND:                -0.527
REMARK SMILES Oc1ccc(CCc2cc(O)cc(O)c2)cc1
REMARK SMILES IDX 6 1 5 2 4 3 3 4 2 5 16 6 17 7 1 8 7 10 8 11 15 12 9 13 13 14
REMARK SMILES IDX 10 15 12 16 14 17 11 19
REMARK H PARENT 1 9 14 18 11 20
REMARK Flexibility Score: inf
ROOT
ATOM      1  C   UNL     1      39.808 -31.405  11.411  1.00  0.00     0.040 C 
ENDROOT
BRANCH   1   2
ATOM      2  C   UNL     1      41.204 -31.961  11.338  1.00  0.00    -0.047 A 
ATOM      3  C   UNL     1      41.972 -31.800  10.173  1.00  0.00     0.007 A 
ATOM      4  C   UNL     1      43.256 -32.346  10.094  1.00  0.00     0.046 A 
ATOM      5  C   UNL     1      43.784 -33.065  11.171  1.00  0.00     0.115 A 
ATOM      6  C   UNL     1      41.731 -32.696  12.413  1.00  0.00     0.007 A 
ATOM      7  C   UNL     1      43.018 -33.240  12.332  1.00  0.00     0.046 A 
BRANCH   5   8
ATOM      8  O   UNL     1      45.065 -33.603  11.078  1.00  0.00    -0.508 OA
ATOM      9  H   UNL     1      45.255 -34.423  10.514  1.00  0.00     0.293 HD
ENDBRANCH   5   8
ENDBRANCH   1   2
BRANCH   1  10
ATOM     10  C   UNL     1      39.530 -30.486  10.218  1.00  0.00     0.040 C 
BRANCH  10  11
ATOM     11  C   UNL     1      38.050 -30.359   9.980  1.00  0.00    -0.040 A 
ATOM     12  C   UNL     1      37.200 -29.936  11.015  1.00  0.00     0.050 A 
ATOM     13  C   UNL     1      37.515 -30.607   8.705  1.00  0.00     0.050 A 
ATOM     14  C   UNL     1      35.829 -29.784  10.786  1.00  0.00     0.119 A 
ATOM     15  C   UNL     1      36.143 -30.458   8.473  1.00  0.00     0.119 A 
ATOM     16  C   UNL     1      35.300 -30.049   9.516  1.00  0.00     0.092 A 
BRANCH  14  17
ATOM     17  O   UNL     1      35.000 -29.371  11.827  1.00  0.00    -0.508 OA
ATOM     18  H   UNL     1      35.359 -28.838  12.610  1.00  0.00     0.293 HD
ENDBRANCH  14  17
BRANCH  15  19
ATOM     19  O   UNL     1      35.629 -30.715   7.204  1.00  0.00    -0.508 OA
ATOM     20  H   UNL     1      36.111 -31.320   6.550  1.00  0.00     0.293 HD
ENDBRANCH  15  19
ENDBRANCH  10  11
ENDBRANCH   1  10
TORSDOF 6
ENDMDL
MODEL 6
REMARK VINA RESULT:    -3.883      1.908      7.278
REMARK INTER + INTRA:          -5.431
REMARK INTER:                  -5.039
REMARK INTRA:                  -0.392
REMARK UNBOUND:                -0.527
REMARK SMILES Oc1ccc(CCc2cc(O)cc(O)c2)cc1
REMARK SMILES IDX 6 1 5 2 4 3 3 4 2 5 16 6 17 7 1 8 7 10 8 11 15 12 9 13 13 14
REMARK SMILES IDX 10 15 12 16 14 17 11 19
REMARK H PARENT 1 9 14 18 11 20
REMARK Flexibility Score: inf
ROOT
ATOM      1  C   UNL     1      40.277 -29.935   9.968  1.00  0.00     0.040 C 
ENDROOT
BRANCH   1   2
ATOM      2  C   UNL     1      41.641 -30.563  10.055  1.00  0.00    -0.047 A 
ATOM      3  C   UNL     1      41.779 -31.911  10.425  1.00  0.00     0.007 A 
ATOM      4  C   UNL     1      43.049 -32.485  10.538  1.00  0.00     0.046 A 
ATOM      5  C   UNL     1      44.193 -31.718  10.295  1.00  0.00     0.115 A 
ATOM      6  C   UNL     1      42.792 -29.792   9.825  1.00  0.00     0.007 A 
ATOM      7  C   UNL     1      44.062 -30.368   9.938  1.00  0.00     0.046 A 
BRANCH   5   8
ATOM      8  O   UNL     1      45.451 -32.303  10.411  1.00  0.00    -0.508 OA
ATOM      9  H   UNL     1      45.697 -32.876  11.210  1.00  0.00     0.293 HD
ENDBRANCH   5   8
ENDBRANCH   1   2
BRANCH   1  10
ATOM     10  C   UNL     1      39.202 -30.910  10.458  1.00  0.00     0.040 C 
BRANCH  10  11
ATOM     11  C   UNL     1      37.857 -30.543   9.893  1.00  0.00    -0.040 A 
ATOM     12  C   UNL     1      37.509 -30.924   8.587  1.00  0.00     0.050 A 
ATOM     13  C   UNL     1      36.917 -29.866  10.688  1.00  0.00     0.050 A 
ATOM     14  C   UNL     1      36.246 -30.613   8.072  1.00  0.00     0.119 A 
ATOM     15  C   UNL     1      35.653 -29.553  10.176  1.00  0.00     0.119 A 
ATOM     16  C   UNL     1      35.319 -29.925   8.866  1.00  0.00     0.092 A 
BRANCH  14  17
ATOM     17  O   UNL     1      35.922 -30.993   6.772  1.00  0.00    -0.508 OA
ATOM     18  H   UNL     1      35.108 -31.563   6.574  1.00  0.00     0.293 HD
ENDBRANCH  14  17
BRANCH  15  19
ATOM     19  O   UNL     1      34.736 -28.875  10.977  1.00  0.00    -0.508 OA
ATOM     20  H   UNL     1      33.858 -28.534  10.604  1.00  0.00     0.293 HD
ENDBRANCH  15  19
ENDBRANCH  10  11
ENDBRANCH   1  10
TORSDOF 6
ENDMDL
MODEL 7
REMARK VINA RESULT:    -3.785      1.379      6.833
REMARK INTER + INTRA:          -5.308
REMARK INTER:                  -4.845
REMARK INTRA:                  -0.463
REMARK UNBOUND:                -0.527
REMARK SMILES Oc1ccc(CCc2cc(O)cc(O)c2)cc1
REMARK SMILES IDX 6 1 5 2 4 3 3 4 2 5 16 6 17 7 1 8 7 10 8 11 15 12 9 13 13 14
REMARK SMILES IDX 10 15 12 16 14 17 11 19
REMARK H PARENT 1 9 14 18 11 20
REMARK Flexibility Score: inf
ROOT
ATOM      1  C   UNL     1      41.051 -31.858  10.157  1.00  0.00     0.040 C 
ENDROOT
BRANCH   1   2
ATOM      2  C   UNL     1      42.382 -31.669  10.832  1.00  0.00    -0.047 A 
ATOM      3  C   UNL     1      43.450 -32.536  10.550  1.00  0.00     0.007 A 
ATOM      4  C   UNL     1      44.676 -32.380  11.203  1.00  0.00     0.046 A 
ATOM      5  C   UNL     1      44.846 -31.365  12.150  1.00  0.00     0.115 A 
ATOM      6  C   UNL     1      42.552 -30.659  11.794  1.00  0.00     0.007 A 
ATOM      7  C   UNL     1      43.780 -30.504  12.445  1.00  0.00     0.046 A 
BRANCH   5   8
ATOM      8  O   UNL     1      46.074 -31.222  12.791  1.00  0.00    -0.508 OA
ATOM      9  H   UNL     1      46.134 -31.071  13.792  1.00  0.00     0.293 HD
ENDBRANCH   5   8
ENDBRANCH   1   2
BRANCH   1  10
ATOM     10  C   UNL     1      39.967 -32.190  11.186  1.00  0.00     0.040 C 
BRANCH  10  11
ATOM     11  C   UNL     1      38.730 -31.371  10.935  1.00  0.00    -0.040 A 
ATOM     12  C   UNL     1      38.460 -30.869   9.652  1.00  0.00     0.050 A 
ATOM     13  C   UNL     1      37.805 -31.152  11.970  1.00  0.00     0.050 A 
ATOM     14  C   UNL     1      37.294 -30.136   9.410  1.00  0.00     0.119 A 
ATOM     15  C   UNL     1      36.638 -30.418  11.732  1.00  0.00     0.119 A 
ATOM     16  C   UNL     1      36.385 -29.908  10.451  1.00  0.00     0.092 A 
BRANCH  14  17
ATOM     17  O   UNL     1      37.048 -29.639   8.132  1.00  0.00    -0.508 OA
ATOM     18  H   UNL     1      37.673 -29.834   7.358  1.00  0.00     0.293 HD
ENDBRANCH  14  17
BRANCH  15  19
ATOM     19  O   UNL     1      35.736 -30.205  12.772  1.00  0.00    -0.508 OA
ATOM     20  H   UNL     1      36.018 -29.752  13.633  1.00  0.00     0.293 HD
ENDBRANCH  15  19
ENDBRANCH  10  11
ENDBRANCH   1  10
TORSDOF 6
ENDMDL
MODEL 8
REMARK VINA RESULT:    -3.769      1.366      7.024
REMARK INTER + INTRA:          -5.287
REMARK INTER:                  -4.824
REMARK INTRA:                  -0.462
REMARK UNBOUND:                -0.527
REMARK SMILES Oc1ccc(CCc2cc(O)cc(O)c2)cc1
REMARK SMILES IDX 6 1 5 2 4 3 3 4 2 5 16 6 17 7 1 8 7 10 8 11 15 12 9 13 13 14
REMARK SMILES IDX 10 15 12 16 14 17 11 19
REMARK H PARENT 1 9 14 18 11 20
REMARK Flexibility Score: inf
ROOT
ATOM      1  C   UNL     1      41.037 -31.857  10.242  1.00  0.00     0.040 C 
ENDROOT
BRANCH   1   2
ATOM      2  C   UNL     1      42.366 -31.709  10.931  1.00  0.00    -0.047 A 
ATOM      3  C   UNL     1      42.537 -30.750  11.943  1.00  0.00     0.007 A 
ATOM      4  C   UNL     1      43.781 -30.591  12.560  1.00  0.00     0.046 A 
ATOM      5  C   UNL     1      44.869 -31.378  12.167  1.00  0.00     0.115 A 
ATOM      6  C   UNL     1      43.463 -32.488  10.529  1.00  0.00     0.007 A 
ATOM      7  C   UNL     1      44.707 -32.328  11.149  1.00  0.00     0.046 A 
BRANCH   5   8
ATOM      8  O   UNL     1      46.102 -31.209  12.791  1.00  0.00    -0.508 OA
ATOM      9  H   UNL     1      46.317 -31.662  13.672  1.00  0.00     0.293 HD
ENDBRANCH   5   8
ENDBRANCH   1   2
BRANCH   1  10
ATOM     10  C   UNL     1      39.938 -32.192  11.254  1.00  0.00     0.040 C 
BRANCH  10  11
ATOM     11  C   UNL     1      38.695 -31.393  10.971  1.00  0.00    -0.040 A 
ATOM     12  C   UNL     1      37.751 -31.169  11.985  1.00  0.00     0.050 A 
ATOM     13  C   UNL     1      38.498 -30.816   9.705  1.00  0.00     0.050 A 
ATOM     14  C   UNL     1      36.611 -30.398  11.734  1.00  0.00     0.119 A 
ATOM     15  C   UNL     1      37.359 -30.046   9.450  1.00  0.00     0.119 A 
ATOM     16  C   UNL     1      36.414 -29.839  10.464  1.00  0.00     0.092 A 
BRANCH  14  17
ATOM     17  O   UNL     1      35.681 -30.194  12.751  1.00  0.00    -0.508 OA
ATOM     18  H   UNL     1      35.969 -30.064  13.713  1.00  0.00     0.293 HD
ENDBRANCH  14  17
BRANCH  15  19
ATOM     19  O   UNL     1      37.177 -29.487   8.186  1.00  0.00    -0.508 OA
ATOM     20  H   UNL     1      37.955 -29.111   7.656  1.00  0.00     0.293 HD
ENDBRANCH  15  19
ENDBRANCH  10  11
ENDBRANCH   1  10
TORSDOF 6
ENDMDL
