MODEL 1
REMARK VINA RESULT:    -6.141      0.000      0.000
REMARK INTER + INTRA:          -6.141
REMARK INTER:                  -6.141
REMARK INTRA:                   0.000
REMARK UNBOUND:                 0.000
REMARK SMILES CC(C)=C1CC[C@@H](C)CC1=O
REMARK SMILES IDX 8 1 7 2 6 3 5 4 4 5 2 6 1 7 3 8 10 9 11 10 9 11
REMARK H PARENT
REMARK Flexibility Score: inf
ROOT
ATOM      1  C   UNL     1       0.485  25.508  28.101  1.00  0.00     0.008 C 
ATOM      2  C   UNL     1      -0.351  26.734  28.487  1.00  0.00    -0.006 C 
ATOM      3  C   UNL     1      -0.591  26.771  30.004  1.00  0.00     0.008 C 
ATOM      4  C   UNL     1      -1.338  28.045  30.420  1.00  0.00     0.039 C 
ATOM      5  C   UNL     1      -2.617  28.259  29.620  1.00  0.00    -0.006 C 
ATOM      6  C   UNL     1      -3.705  28.871  30.174  1.00  0.00    -0.070 C 
ATOM      7  C   UNL     1      -3.680  29.378  31.597  1.00  0.00     0.039 C 
ATOM      8  C   UNL     1      -4.999  29.038  29.408  1.00  0.00     0.039 C 
ATOM      9  C   UNL     1      -2.563  27.869  28.180  1.00  0.00     0.159 C 
ATOM     10  O   UNL     1      -3.230  28.487  27.309  1.00  0.00    -0.295 OA
ATOM     11  C   UNL     1      -1.696  26.724  27.743  1.00  0.00     0.084 C 
ENDROOT
TORSDOF 0
ENDMDL
MODEL 2
REMARK VINA RESULT:    -6.079      1.722      2.750
REMARK INTER + INTRA:          -6.079
REMARK INTER:                  -6.079
REMARK INTRA:                   0.000
REMARK UNBOUND:                 0.000
REMARK SMILES CC(C)=C1CC[C@@H](C)CC1=O
REMARK SMILES IDX 8 1 7 2 6 3 5 4 4 5 2 6 1 7 3 8 10 9 11 10 9 11
REMARK H PARENT
REMARK Flexibility Score: inf
ROOT
ATOM      1  C   UNL     1      -0.514  26.749  28.586  1.00  0.00     0.008 C 
ATOM      2  C   UNL     1      -1.964  27.234  28.481  1.00  0.00    -0.006 C 
ATOM      3  C   UNL     1      -2.021  28.639  27.861  1.00  0.00     0.008 C 
ATOM      4  C   UNL     1      -3.471  29.099  27.653  1.00  0.00     0.039 C 
ATOM      5  C   UNL     1      -4.307  28.984  28.921  1.00  0.00    -0.006 C 
ATOM      6  C   UNL     1      -5.325  29.857  29.180  1.00  0.00    -0.070 C 
ATOM      7  C   UNL     1      -5.677  30.961  28.209  1.00  0.00     0.039 C 
ATOM      8  C   UNL     1      -6.125  29.789  30.461  1.00  0.00     0.039 C 
ATOM      9  C   UNL     1      -4.021  27.805  29.791  1.00  0.00     0.159 C 
ATOM     10  O   UNL     1      -4.930  27.257  30.470  1.00  0.00    -0.295 OA
ATOM     11  C   UNL     1      -2.631  27.245  29.865  1.00  0.00     0.084 C 
ENDROOT
TORSDOF 0
ENDMDL
MODEL 3
REMARK VINA RESULT:    -5.413      1.267      4.166
REMARK INTER + INTRA:          -5.413
REMARK INTER:                  -5.413
REMARK INTRA:                   0.000
REMARK UNBOUND:                 0.000
REMARK SMILES CC(C)=C1CC[C@@H](C)CC1=O
REMARK SMILES IDX 8 1 7 2 6 3 5 4 4 5 2 6 1 7 3 8 10 9 11 10 9 11
REMARK H PARENT
REMARK Flexibility Score: inf
ROOT
ATOM      1  C   UNL     1      -6.125  30.712  28.631  1.00  0.00     0.008 C 
ATOM      2  C   UNL     1      -5.158  29.539  28.828  1.00  0.00    -0.006 C 
ATOM      3  C   UNL     1      -4.688  29.465  30.289  1.00  0.00     0.008 C 
ATOM      4  C   UNL     1      -3.801  28.235  30.528  1.00  0.00     0.039 C 
ATOM      5  C   UNL     1      -2.647  28.148  29.538  1.00  0.00    -0.006 C 
ATOM      6  C   UNL     1      -1.448  27.599  29.893  1.00  0.00    -0.070 C 
ATOM      7  C   UNL     1      -1.222  27.039  31.279  1.00  0.00     0.039 C 
ATOM      8  C   UNL     1      -0.277  27.558  28.937  1.00  0.00     0.039 C 
ATOM      9  C   UNL     1      -2.946  28.586  28.142  1.00  0.00     0.159 C 
ATOM     10  O   UNL     1      -2.378  28.053  27.152  1.00  0.00    -0.295 OA
ATOM     11  C   UNL     1      -3.946  29.678  27.894  1.00  0.00     0.084 C 
ENDROOT
TORSDOF 0
ENDMDL
MODEL 4
REMARK VINA RESULT:    -5.256      1.299      1.938
REMARK INTER + INTRA:          -5.256
REMARK INTER:                  -5.256
REMARK INTRA:                   0.000
REMARK UNBOUND:                 0.000
REMARK SMILES CC(C)=C1CC[C@@H](C)CC1=O
REMARK SMILES IDX 8 1 7 2 6 3 5 4 4 5 2 6 1 7 3 8 10 9 11 10 9 11
REMARK H PARENT
REMARK Flexibility Score: inf
ROOT
ATOM      1  C   UNL     1      -0.498  26.757  28.910  1.00  0.00     0.008 C 
ATOM      2  C   UNL     1      -1.497  27.883  29.199  1.00  0.00    -0.006 C 
ATOM      3  C   UNL     1      -2.481  27.464  30.302  1.00  0.00     0.008 C 
ATOM      4  C   UNL     1      -3.424  28.616  30.676  1.00  0.00     0.039 C 
ATOM      5  C   UNL     1      -4.125  29.214  29.463  1.00  0.00    -0.006 C 
ATOM      6  C   UNL     1      -5.383  29.736  29.558  1.00  0.00    -0.070 C 
ATOM      7  C   UNL     1      -6.125  29.760  30.875  1.00  0.00     0.039 C 
ATOM      8  C   UNL     1      -6.112  30.280  28.349  1.00  0.00     0.039 C 
ATOM      9  C   UNL     1      -3.315  29.295  28.212  1.00  0.00     0.159 C 
ATOM     10  O   UNL     1      -3.484  30.228  27.382  1.00  0.00    -0.295 OA
ATOM     11  C   UNL     1      -2.268  28.259  27.924  1.00  0.00     0.084 C 
ENDROOT
TORSDOF 0
ENDMDL
MODEL 5
REMARK VINA RESULT:    -5.122      1.571      4.641
REMARK INTER + INTRA:          -5.122
REMARK INTER:                  -5.122
REMARK INTRA:                   0.000
REMARK UNBOUND:                 0.000
REMARK SMILES CC(C)=C1CC[C@@H](C)CC1=O
REMARK SMILES IDX 8 1 7 2 6 3 5 4 4 5 2 6 1 7 3 8 10 9 11 10 9 11
REMARK H PARENT
REMARK Flexibility Score: inf
ROOT
ATOM      1  C   UNL     1      -5.339  29.722  30.662  1.00  0.00     0.008 C 
ATOM      2  C   UNL     1      -4.056  29.325  29.925  1.00  0.00    -0.006 C 
ATOM      3  C   UNL     1      -4.389  28.649  28.585  1.00  0.00     0.008 C 
ATOM      4  C   UNL     1      -3.116  28.336  27.786  1.00  0.00     0.039 C 
ATOM      5  C   UNL     1      -2.094  27.552  28.600  1.00  0.00    -0.006 C 
ATOM      6  C   UNL     1      -1.255  26.653  28.006  1.00  0.00    -0.070 C 
ATOM      7  C   UNL     1      -1.292  26.413  26.514  1.00  0.00     0.039 C 
ATOM      8  C   UNL     1      -0.276  25.828  28.810  1.00  0.00     0.039 C 
ATOM      9  C   UNL     1      -1.993  27.910  30.046  1.00  0.00     0.159 C 
ATOM     10  O   UNL     1      -0.898  27.832  30.664  1.00  0.00    -0.295 OA
ATOM     11  C   UNL     1      -3.207  28.382  30.791  1.00  0.00     0.084 C 
ENDROOT
TORSDOF 0
ENDMDL
MODEL 6
REMARK VINA RESULT:    -5.109      1.510      2.328
REMARK INTER + INTRA:          -5.109
REMARK INTER:                  -5.109
REMARK INTRA:                   0.000
REMARK UNBOUND:                 0.000
REMARK SMILES CC(C)=C1CC[C@@H](C)CC1=O
REMARK SMILES IDX 8 1 7 2 6 3 5 4 4 5 2 6 1 7 3 8 10 9 11 10 9 11
REMARK H PARENT
REMARK Flexibility Score: inf
ROOT
ATOM      1  C   UNL     1       0.589  25.856  27.829  1.00  0.00     0.008 C 
ATOM      2  C   UNL     1      -0.663  26.214  28.637  1.00  0.00    -0.006 C 
ATOM      3  C   UNL     1      -1.871  26.407  27.707  1.00  0.00     0.008 C 
ATOM      4  C   UNL     1      -3.156  26.665  28.506  1.00  0.00     0.039 C 
ATOM      5  C   UNL     1      -3.001  27.802  29.508  1.00  0.00    -0.006 C 
ATOM      6  C   UNL     1      -4.055  28.607  29.835  1.00  0.00    -0.070 C 
ATOM      7  C   UNL     1      -5.423  28.390  29.232  1.00  0.00     0.039 C 
ATOM      8  C   UNL     1      -3.900  29.774  30.785  1.00  0.00     0.039 C 
ATOM      9  C   UNL     1      -1.674  27.904  30.185  1.00  0.00     0.159 C 
ATOM     10  O   UNL     1      -1.572  28.330  31.366  1.00  0.00    -0.295 OA
ATOM     11  C   UNL     1      -0.426  27.489  29.460  1.00  0.00     0.084 C 
ENDROOT
TORSDOF 0
ENDMDL
MODEL 7
REMARK VINA RESULT:    -5.045      2.446      4.972
REMARK INTER + INTRA:          -5.045
REMARK INTER:                  -5.045
REMARK INTRA:                   0.000
REMARK UNBOUND:                 0.000
REMARK SMILES CC(C)=C1CC[C@@H](C)CC1=O
REMARK SMILES IDX 8 1 7 2 6 3 5 4 4 5 2 6 1 7 3 8 10 9 11 10 9 11
REMARK H PARENT
REMARK Flexibility Score: inf
ROOT
ATOM      1  C   UNL     1      -5.367  33.099  26.900  1.00  0.00     0.008 C 
ATOM      2  C   UNL     1      -5.122  31.615  27.194  1.00  0.00    -0.006 C 
ATOM      3  C   UNL     1      -6.010  31.138  28.353  1.00  0.00     0.008 C 
ATOM      4  C   UNL     1      -5.853  29.630  28.594  1.00  0.00     0.039 C 
ATOM      5  C   UNL     1      -4.397  29.216  28.764  1.00  0.00    -0.006 C 
ATOM      6  C   UNL     1      -4.047  28.172  29.572  1.00  0.00    -0.070 C 
ATOM      7  C   UNL     1      -5.091  27.372  30.316  1.00  0.00     0.039 C 
ATOM      8  C   UNL     1      -2.601  27.787  29.793  1.00  0.00     0.039 C 
ATOM      9  C   UNL     1      -3.405  29.938  27.912  1.00  0.00     0.159 C 
ATOM     10  O   UNL     1      -2.363  29.367  27.493  1.00  0.00    -0.295 OA
ATOM     11  C   UNL     1      -3.643  31.371  27.532  1.00  0.00     0.084 C 
ENDROOT
TORSDOF 0
ENDMDL
MODEL 8
REMARK VINA RESULT:    -5.030      2.666      5.054
REMARK INTER + INTRA:          -5.030
REMARK INTER:                  -5.030
REMARK INTRA:                   0.000
REMARK UNBOUND:                 0.000
REMARK SMILES CC(C)=C1CC[C@@H](C)CC1=O
REMARK SMILES IDX 8 1 7 2 6 3 5 4 4 5 2 6 1 7 3 8 10 9 11 10 9 11
REMARK H PARENT
REMARK Flexibility Score: inf
ROOT
ATOM      1  C   UNL     1      -5.754  32.755  26.892  1.00  0.00     0.008 C 
ATOM      2  C   UNL     1      -5.083  31.784  27.871  1.00  0.00    -0.006 C 
ATOM      3  C   UNL     1      -3.944  31.019  27.181  1.00  0.00     0.008 C 
ATOM      4  C   UNL     1      -3.195  30.119  28.172  1.00  0.00     0.039 C 
ATOM      5  C   UNL     1      -4.130  29.200  28.947  1.00  0.00    -0.006 C 
ATOM      6  C   UNL     1      -3.728  27.961  29.356  1.00  0.00    -0.070 C 
ATOM      7  C   UNL     1      -2.332  27.457  29.074  1.00  0.00     0.039 C 
ATOM      8  C   UNL     1      -4.666  27.017  30.076  1.00  0.00     0.039 C 
ATOM      9  C   UNL     1      -5.454  29.779  29.325  1.00  0.00     0.159 C 
ATOM     10  O   UNL     1      -6.037  29.439  30.389  1.00  0.00    -0.295 OA
ATOM     11  C   UNL     1      -6.113  30.793  28.437  1.00  0.00     0.084 C 
ENDROOT
TORSDOF 0
ENDMDL
MODEL 9
REMARK VINA RESULT:    -4.976      1.718      4.622
REMARK INTER + INTRA:          -4.976
REMARK INTER:                  -4.976
REMARK INTRA:                   0.000
REMARK UNBOUND:                 0.000
REMARK SMILES CC(C)=C1CC[C@@H](C)CC1=O
REMARK SMILES IDX 8 1 7 2 6 3 5 4 4 5 2 6 1 7 3 8 10 9 11 10 9 11
REMARK H PARENT
REMARK Flexibility Score: inf
ROOT
ATOM      1  C   UNL     1      -6.125  30.422  28.692  1.00  0.00     0.008 C 
ATOM      2  C   UNL     1      -4.658  30.043  28.925  1.00  0.00    -0.006 C 
ATOM      3  C   UNL     1      -4.162  29.096  27.821  1.00  0.00     0.008 C 
ATOM      4  C   UNL     1      -2.666  28.788  27.982  1.00  0.00     0.039 C 
ATOM      5  C   UNL     1      -2.320  28.291  29.379  1.00  0.00    -0.006 C 
ATOM      6  C   UNL     1      -1.306  27.399  29.583  1.00  0.00    -0.070 C 
ATOM      7  C   UNL     1      -0.473  26.882  28.432  1.00  0.00     0.039 C 
ATOM      8  C   UNL     1      -0.989  26.856  30.958  1.00  0.00     0.039 C 
ATOM      9  C   UNL     1      -3.071  28.922  30.505  1.00  0.00     0.159 C 
ATOM     10  O   UNL     1      -2.540  29.086  31.635  1.00  0.00    -0.295 OA
ATOM     11  C   UNL     1      -4.485  29.382  30.301  1.00  0.00     0.084 C 
ENDROOT
TORSDOF 0
ENDMDL
