MODEL 1
REMARK VINA RESULT:    -3.593      0.000      0.000
REMARK INTER + INTRA:          -5.254
REMARK INTER:                  -4.853
REMARK INTRA:                  -0.401
REMARK UNBOUND:                -0.401
REMARK SMILES CCCCCCC=CC(=O)[O-]
REMARK SMILES IDX 5 1 6 2 7 3 8 4 9 5 10 6 11 7 4 8 3 9 2 10 1 11
REMARK H PARENT
REMARK Flexibility Score: inf
ROOT
ATOM      1  C   UNL     1     -16.908 -22.812   5.468  1.00  0.00     0.004 C 
ENDROOT
BRANCH   1   2
ATOM      2  C   UNL     1     -17.274 -22.053   6.750  1.00  0.00     0.027 C 
BRANCH   2   3
ATOM      3  C   UNL     1     -16.073 -21.367   7.336  1.00  0.00    -0.025 C 
ATOM      4  C   UNL     1     -16.021 -20.036   7.461  1.00  0.00     0.020 C 
BRANCH   4   5
ATOM      5  C   UNL     1     -14.862 -19.344   8.046  1.00  0.00     0.064 C 
ATOM      6  O   UNL     1     -14.545 -18.181   7.678  1.00  0.00    -0.545 OA
ATOM      7  O   UNL     1     -14.106 -19.982   9.020  1.00  0.00    -0.545 OA
ENDBRANCH   4   5
ENDBRANCH   2   3
ENDBRANCH   1   2
BRANCH   1   8
ATOM      8  C   UNL     1     -17.772 -22.348   4.289  1.00  0.00     0.000 C 
BRANCH   8   9
ATOM      9  C   UNL     1     -16.899 -21.887   3.115  1.00  0.00    -0.000 C 
BRANCH   9  10
ATOM     10  C   UNL     1     -16.500 -20.416   3.271  1.00  0.00    -0.003 C 
ATOM     11  C   UNL     1     -15.617 -19.958   2.114  1.00  0.00     0.004 C 
ENDBRANCH   9  10
ENDBRANCH   8   9
ENDBRANCH   1   8
TORSDOF 6
ENDMDL
MODEL 2
REMARK VINA RESULT:    -3.479      3.080      5.138
REMARK INTER + INTRA:          -5.101
REMARK INTER:                  -4.759
REMARK INTRA:                  -0.342
REMARK UNBOUND:                -0.401
REMARK SMILES CCCCCCC=CC(=O)[O-]
REMARK SMILES IDX 5 1 6 2 7 3 8 4 9 5 10 6 11 7 4 8 3 9 2 10 1 11
REMARK H PARENT
REMARK Flexibility Score: inf
ROOT
ATOM      1  C   UNL     1     -16.965 -22.995   5.453  1.00  0.00     0.004 C 
ENDROOT
BRANCH   1   2
ATOM      2  C   UNL     1     -17.807 -22.481   4.278  1.00  0.00     0.027 C 
BRANCH   2   3
ATOM      3  C   UNL     1     -17.002 -21.581   3.385  1.00  0.00    -0.025 C 
ATOM      4  C   UNL     1     -16.190 -22.075   2.444  1.00  0.00     0.020 C 
BRANCH   4   5
ATOM      5  C   UNL     1     -15.403 -21.213   1.549  1.00  0.00     0.064 C 
ATOM      6  O   UNL     1     -14.820 -21.685   0.536  1.00  0.00    -0.545 OA
ATOM      7  O   UNL     1     -15.302 -19.855   1.823  1.00  0.00    -0.545 OA
ENDBRANCH   4   5
ENDBRANCH   2   3
ENDBRANCH   1   2
BRANCH   1   8
ATOM      8  C   UNL     1     -17.246 -22.186   6.725  1.00  0.00     0.000 C 
BRANCH   8   9
ATOM      9  C   UNL     1     -15.971 -21.508   7.239  1.00  0.00    -0.000 C 
BRANCH   9  10
ATOM     10  C   UNL     1     -16.096 -19.981   7.177  1.00  0.00    -0.003 C 
ATOM     11  C   UNL     1     -15.001 -19.304   7.996  1.00  0.00     0.004 C 
ENDBRANCH   9  10
ENDBRANCH   8   9
ENDBRANCH   1   8
TORSDOF 6
ENDMDL
MODEL 3
REMARK VINA RESULT:    -3.415      3.441      5.522
REMARK INTER + INTRA:          -5.014
REMARK INTER:                  -4.674
REMARK INTRA:                  -0.341
REMARK UNBOUND:                -0.401
REMARK SMILES CCCCCCC=CC(=O)[O-]
REMARK SMILES IDX 5 1 6 2 7 3 8 4 9 5 10 6 11 7 4 8 3 9 2 10 1 11
REMARK H PARENT
REMARK Flexibility Score: inf
ROOT
ATOM      1  C   UNL     1     -17.647 -22.074   4.358  1.00  0.00     0.004 C 
ENDROOT
BRANCH   1   2
ATOM      2  C   UNL     1     -17.388 -23.240   3.396  1.00  0.00     0.027 C 
BRANCH   2   3
ATOM      3  C   UNL     1     -16.401 -22.857   2.331  1.00  0.00    -0.025 C 
ATOM      4  C   UNL     1     -15.928 -21.610   2.232  1.00  0.00     0.020 C 
BRANCH   4   5
ATOM      5  C   UNL     1     -14.950 -21.216   1.207  1.00  0.00     0.064 C 
ATOM      6  O   UNL     1     -14.249 -20.177   1.340  1.00  0.00    -0.545 OA
ATOM      7  O   UNL     1     -14.794 -22.003   0.073  1.00  0.00    -0.545 OA
ENDBRANCH   4   5
ENDBRANCH   2   3
ENDBRANCH   1   2
BRANCH   1   8
ATOM      8  C   UNL     1     -17.093 -22.380   5.755  1.00  0.00     0.000 C 
BRANCH   8   9
ATOM      9  C   UNL     1     -16.531 -21.114   6.414  1.00  0.00    -0.000 C 
BRANCH   9  10
ATOM     10  C   UNL     1     -16.926 -21.042   7.893  1.00  0.00    -0.003 C 
ATOM     11  C   UNL     1     -17.826 -22.212   8.281  1.00  0.00     0.004 C 
ENDBRANCH   9  10
ENDBRANCH   8   9
ENDBRANCH   1   8
TORSDOF 6
ENDMDL
MODEL 4
REMARK VINA RESULT:    -3.413      1.282      1.857
REMARK INTER + INTRA:          -5.011
REMARK INTER:                  -4.313
REMARK INTRA:                  -0.698
REMARK UNBOUND:                -0.401
REMARK SMILES CCCCCCC=CC(=O)[O-]
REMARK SMILES IDX 5 1 6 2 7 3 8 4 9 5 10 6 11 7 4 8 3 9 2 10 1 11
REMARK H PARENT
REMARK Flexibility Score: inf
ROOT
ATOM      1  C   UNL     1     -16.499 -23.701   6.811  1.00  0.00     0.004 C 
ENDROOT
BRANCH   1   2
ATOM      2  C   UNL     1     -17.417 -22.999   7.820  1.00  0.00     0.027 C 
BRANCH   2   3
ATOM      3  C   UNL     1     -17.066 -21.545   7.953  1.00  0.00    -0.025 C 
ATOM      4  C   UNL     1     -16.166 -20.966   7.150  1.00  0.00     0.020 C 
BRANCH   4   5
ATOM      5  C   UNL     1     -15.819 -19.541   7.252  1.00  0.00     0.064 C 
ATOM      6  O   UNL     1     -16.223 -18.709   6.396  1.00  0.00    -0.545 OA
ATOM      7  O   UNL     1     -15.032 -19.103   8.309  1.00  0.00    -0.545 OA
ENDBRANCH   4   5
ENDBRANCH   2   3
ENDBRANCH   1   2
BRANCH   1   8
ATOM      8  C   UNL     1     -17.309 -24.289   5.649  1.00  0.00     0.000 C 
BRANCH   8   9
ATOM      9  C   UNL     1     -16.931 -23.621   4.321  1.00  0.00    -0.000 C 
BRANCH   9  10
ATOM     10  C   UNL     1     -17.826 -22.409   4.041  1.00  0.00    -0.003 C 
ATOM     11  C   UNL     1     -17.001 -21.207   3.590  1.00  0.00     0.004 C 
ENDBRANCH   9  10
ENDBRANCH   8   9
ENDBRANCH   1   8
TORSDOF 6
ENDMDL
MODEL 5
REMARK VINA RESULT:    -3.407      1.233      1.709
REMARK INTER + INTRA:          -5.003
REMARK INTER:                  -4.612
REMARK INTRA:                  -0.392
REMARK UNBOUND:                -0.401
REMARK SMILES CCCCCCC=CC(=O)[O-]
REMARK SMILES IDX 5 1 6 2 7 3 8 4 9 5 10 6 11 7 4 8 3 9 2 10 1 11
REMARK H PARENT
REMARK Flexibility Score: inf
ROOT
ATOM      1  C   UNL     1     -17.290 -23.261   3.885  1.00  0.00     0.004 C 
ENDROOT
BRANCH   1   2
ATOM      2  C   UNL     1     -17.345 -22.904   5.376  1.00  0.00     0.027 C 
BRANCH   2   3
ATOM      3  C   UNL     1     -16.814 -21.520   5.623  1.00  0.00    -0.025 C 
ATOM      4  C   UNL     1     -16.488 -21.106   6.852  1.00  0.00     0.020 C 
BRANCH   4   5
ATOM      5  C   UNL     1     -15.953 -19.761   7.115  1.00  0.00     0.064 C 
ATOM      6  O   UNL     1     -16.224 -18.793   6.356  1.00  0.00    -0.545 OA
ATOM      7  O   UNL     1     -15.136 -19.555   8.218  1.00  0.00    -0.545 OA
ENDBRANCH   4   5
ENDBRANCH   2   3
ENDBRANCH   1   2
BRANCH   1   8
ATOM      8  C   UNL     1     -16.804 -22.069   3.052  1.00  0.00     0.000 C 
BRANCH   8   9
ATOM      9  C   UNL     1     -15.999 -22.540   1.835  1.00  0.00    -0.000 C 
BRANCH   9  10
ATOM     10  C   UNL     1     -15.070 -21.432   1.328  1.00  0.00    -0.003 C 
ATOM     11  C   UNL     1     -15.445 -20.079   1.926  1.00  0.00     0.004 C 
ENDBRANCH   9  10
ENDBRANCH   8   9
ENDBRANCH   1   8
TORSDOF 6
ENDMDL
MODEL 6
REMARK VINA RESULT:    -3.154      3.384      5.150
REMARK INTER + INTRA:          -4.662
REMARK INTER:                  -4.227
REMARK INTRA:                  -0.434
REMARK UNBOUND:                -0.401
REMARK SMILES CCCCCCC=CC(=O)[O-]
REMARK SMILES IDX 5 1 6 2 7 3 8 4 9 5 10 6 11 7 4 8 3 9 2 10 1 11
REMARK H PARENT
REMARK Flexibility Score: inf
ROOT
ATOM      1  C   UNL     1     -15.755 -22.432   7.852  1.00  0.00     0.004 C 
ENDROOT
BRANCH   1   2
ATOM      2  C   UNL     1     -17.158 -22.302   7.247  1.00  0.00     0.027 C 
BRANCH   2   3
ATOM      3  C   UNL     1     -17.221 -22.925   5.882  1.00  0.00    -0.025 C 
ATOM      4  C   UNL     1     -17.248 -22.179   4.773  1.00  0.00     0.020 C 
BRANCH   4   5
ATOM      5  C   UNL     1     -17.294 -22.768   3.426  1.00  0.00     0.064 C 
ATOM      6  O   UNL     1     -18.030 -23.760   3.174  1.00  0.00    -0.545 OA
ATOM      7  O   UNL     1     -16.515 -22.222   2.414  1.00  0.00    -0.545 OA
ENDBRANCH   4   5
ENDBRANCH   2   3
ENDBRANCH   1   2
BRANCH   1   8
ATOM      8  C   UNL     1     -15.123 -21.053   8.077  1.00  0.00     0.000 C 
BRANCH   8   9
ATOM      9  C   UNL     1     -16.117 -19.932   7.748  1.00  0.00    -0.000 C 
BRANCH   9  10
ATOM     10  C   UNL     1     -15.396 -18.715   7.158  1.00  0.00    -0.003 C 
ATOM     11  C   UNL     1     -14.231 -18.281   8.043  1.00  0.00     0.004 C 
ENDBRANCH   9  10
ENDBRANCH   8   9
ENDBRANCH   1   8
TORSDOF 6
ENDMDL
MODEL 7
REMARK VINA RESULT:    -3.125      2.225      2.924
REMARK INTER + INTRA:          -4.622
REMARK INTER:                  -4.269
REMARK INTRA:                  -0.353
REMARK UNBOUND:                -0.401
REMARK SMILES CCCCCCC=CC(=O)[O-]
REMARK SMILES IDX 5 1 6 2 7 3 8 4 9 5 10 6 11 7 4 8 3 9 2 10 1 11
REMARK H PARENT
REMARK Flexibility Score: inf
ROOT
ATOM      1  C   UNL     1     -18.049 -23.617   3.613  1.00  0.00     0.004 C 
ENDROOT
BRANCH   1   2
ATOM      2  C   UNL     1     -17.652 -22.184   3.988  1.00  0.00     0.027 C 
BRANCH   2   3
ATOM      3  C   UNL     1     -17.241 -22.094   5.430  1.00  0.00    -0.025 C 
ATOM      4  C   UNL     1     -16.575 -21.035   5.902  1.00  0.00     0.020 C 
BRANCH   4   5
ATOM      5  C   UNL     1     -16.175 -20.919   7.313  1.00  0.00     0.064 C 
ATOM      6  O   UNL     1     -16.665 -20.028   8.057  1.00  0.00    -0.545 OA
ATOM      7  O   UNL     1     -15.243 -21.806   7.834  1.00  0.00    -0.545 OA
ENDBRANCH   4   5
ENDBRANCH   2   3
ENDBRANCH   1   2
BRANCH   1   8
ATOM      8  C   UNL     1     -17.116 -24.181   2.535  1.00  0.00     0.000 C 
BRANCH   8   9
ATOM      9  C   UNL     1     -16.163 -23.100   2.010  1.00  0.00    -0.000 C 
BRANCH   9  10
ATOM     10  C   UNL     1     -15.851 -23.316   0.525  1.00  0.00    -0.003 C 
ATOM     11  C   UNL     1     -16.625 -24.506  -0.034  1.00  0.00     0.004 C 
ENDBRANCH   9  10
ENDBRANCH   8   9
ENDBRANCH   1   8
TORSDOF 6
ENDMDL
MODEL 8
REMARK VINA RESULT:    -3.113      4.463      6.496
REMARK INTER + INTRA:          -4.606
REMARK INTER:                  -4.426
REMARK INTRA:                  -0.179
REMARK UNBOUND:                -0.401
REMARK SMILES CCCCCCC=CC(=O)[O-]
REMARK SMILES IDX 5 1 6 2 7 3 8 4 9 5 10 6 11 7 4 8 3 9 2 10 1 11
REMARK H PARENT
REMARK Flexibility Score: inf
ROOT
ATOM      1  C   UNL     1     -17.301 -21.778   4.064  1.00  0.00     0.004 C 
ENDROOT
BRANCH   1   2
ATOM      2  C   UNL     1     -16.897 -22.963   3.178  1.00  0.00     0.027 C 
BRANCH   2   3
ATOM      3  C   UNL     1     -16.093 -22.507   1.995  1.00  0.00    -0.025 C 
ATOM      4  C   UNL     1     -15.930 -23.285   0.919  1.00  0.00     0.020 C 
BRANCH   4   5
ATOM      5  C   UNL     1     -15.160 -22.854  -0.257  1.00  0.00     0.064 C 
ATOM      6  O   UNL     1     -14.179 -22.071  -0.143  1.00  0.00    -0.545 OA
ATOM      7  O   UNL     1     -15.518 -23.318  -1.516  1.00  0.00    -0.545 OA
ENDBRANCH   4   5
ENDBRANCH   2   3
ENDBRANCH   1   2
BRANCH   1   8
ATOM      8  C   UNL     1     -17.218 -22.149   5.550  1.00  0.00     0.000 C 
BRANCH   8   9
ATOM      9  C   UNL     1     -16.489 -21.062   6.349  1.00  0.00    -0.000 C 
BRANCH   9  10
ATOM     10  C   UNL     1     -16.495 -21.385   7.848  1.00  0.00    -0.003 C 
ATOM     11  C   UNL     1     -17.821 -22.009   8.273  1.00  0.00     0.004 C 
ENDBRANCH   9  10
ENDBRANCH   8   9
ENDBRANCH   1   8
TORSDOF 6
ENDMDL
MODEL 9
REMARK VINA RESULT:    -2.802      3.613      5.696
REMARK INTER + INTRA:          -4.185
REMARK INTER:                  -3.756
REMARK INTRA:                  -0.429
REMARK UNBOUND:                -0.401
REMARK SMILES CCCCCCC=CC(=O)[O-]
REMARK SMILES IDX 5 1 6 2 7 3 8 4 9 5 10 6 11 7 4 8 3 9 2 10 1 11
REMARK H PARENT
REMARK Flexibility Score: inf
ROOT
ATOM      1  C   UNL     1     -16.427 -20.532   7.633  1.00  0.00     0.004 C 
ENDROOT
BRANCH   1   2
ATOM      2  C   UNL     1     -16.502 -20.691   6.109  1.00  0.00     0.027 C 
BRANCH   2   3
ATOM      3  C   UNL     1     -16.869 -22.096   5.726  1.00  0.00    -0.025 C 
ATOM      4  C   UNL     1     -17.466 -22.369   4.562  1.00  0.00     0.020 C 
BRANCH   4   5
ATOM      5  C   UNL     1     -17.821 -23.739   4.159  1.00  0.00     0.064 C 
ATOM      6  O   UNL     1     -18.023 -24.638   5.019  1.00  0.00    -0.545 OA
ATOM      7  O   UNL     1     -17.937 -24.046   2.810  1.00  0.00    -0.545 OA
ENDBRANCH   4   5
ENDBRANCH   2   3
ENDBRANCH   1   2
BRANCH   1   8
ATOM      8  C   UNL     1     -15.248 -19.637   8.035  1.00  0.00     0.000 C 
BRANCH   8   9
ATOM      9  C   UNL     1     -14.010 -20.477   8.371  1.00  0.00    -0.000 C 
BRANCH   9  10
ATOM     10  C   UNL     1     -14.409 -21.861   8.895  1.00  0.00    -0.003 C 
ATOM     11  C   UNL     1     -13.875 -22.968   7.991  1.00  0.00     0.004 C 
ENDBRANCH   9  10
ENDBRANCH   8   9
ENDBRANCH   1   8
TORSDOF 6
ENDMDL
