MODEL 1
REMARK VINA RESULT:    -7.166      0.000      0.000
REMARK INTER + INTRA:         -14.017
REMARK INTER:                 -11.774
REMARK INTRA:                  -2.243
REMARK UNBOUND:                -2.243
REMARK SMILES C[C@H]1O[C@@H](OC[C@H]2O[C@H](Oc3c(-c4ccc(O)c(O)c4)oc4cc(O)cc(O)c4c3=O)[C@@H](O)[C@H](O)[C@@H]2O)[C@@H](O)[C@@H](O)[C@@H]1O
REMARK SMILES IDX 7 1 36 2 34 3 32 4 9 5 8 6 6 7 5 8 4 9 1 10 2 11 42 12 3 13
REMARK SMILES IDX 40 14 38 15 43 16 41 18 39 20 37 22 35 24 10 26 11 27 12 28
REMARK SMILES IDX 30 29 21 30 29 31 31 32 22 33 27 34 23 35 26 36 24 37 13 38
REMARK SMILES IDX 20 39 14 40 18 41 15 42 16 43 19 44 17 46 28 48 25 50 33 52
REMARK H PARENT 43 17 41 19 39 21 37 23 35 25 19 45 17 47 28 49 25 51 33 53
REMARK Flexibility Score: inf
ROOT
ATOM      1  C   UNL     1      53.834   5.646  82.112  1.00  0.00     0.180 C 
ATOM      2  C   UNL     1      52.997   4.561  82.836  1.00  0.00     0.177 C 
ATOM      3  C   UNL     1      53.563   3.149  82.568  1.00  0.00     0.180 C 
ATOM      4  C   UNL     1      55.093   3.114  82.734  1.00  0.00     0.214 C 
ATOM      5  C   UNL     1      55.794   4.341  82.108  1.00  0.00     0.339 C 
ATOM      6  O   UNL     1      55.198   5.570  82.505  1.00  0.00    -0.332 OA
ENDROOT
BRANCH   1   7
ATOM      7  C   UNL     1      53.290   7.047  82.456  1.00  0.00     0.198 C 
BRANCH   7   8
ATOM      8  O   UNL     1      53.261   7.880  81.305  1.00  0.00    -0.347 OA
BRANCH   8   9
ATOM      9  C   UNL     1      54.557   8.114  80.771  1.00  0.00     0.281 C 
ATOM     10  C   UNL     1      53.924  10.287  82.928  1.00  0.00     0.041 C 
ATOM     11  C   UNL     1      55.125  10.097  81.996  1.00  0.00     0.150 C 
ATOM     12  C   UNL     1      55.050  10.979  80.728  1.00  0.00     0.174 C 
ATOM     13  O   UNL     1      55.407   8.724  81.734  1.00  0.00    -0.344 OA
ATOM     14  C   UNL     1      54.121  10.370  79.667  1.00  0.00     0.179 C 
ATOM     15  C   UNL     1      54.485   8.900  79.448  1.00  0.00     0.202 C 
BRANCH  12  16
ATOM     16  O   UNL     1      56.337  11.125  80.178  1.00  0.00    -0.388 OA
ATOM     17  H   UNL     1      56.957  11.272  80.940  1.00  0.00     0.211 HD
ENDBRANCH  12  16
BRANCH  14  18
ATOM     18  O   UNL     1      52.770  10.480  80.046  1.00  0.00    -0.387 OA
ATOM     19  H   UNL     1      52.306   9.677  79.695  1.00  0.00     0.211 HD
ENDBRANCH  14  18
BRANCH  15  20
ATOM     20  O   UNL     1      53.568   8.291  78.578  1.00  0.00    -0.385 OA
ATOM     21  H   UNL     1      53.264   8.993  77.947  1.00  0.00     0.211 HD
ENDBRANCH  15  20
ENDBRANCH   8   9
ENDBRANCH   7   8
ENDBRANCH   1   7
BRANCH   2  22
ATOM     22  O   UNL     1      51.660   4.611  82.400  1.00  0.00    -0.387 OA
ATOM     23  H   UNL     1      51.332   5.538  82.549  1.00  0.00     0.211 HD
ENDBRANCH   2  22
BRANCH   3  24
ATOM     24  O   UNL     1      53.185   2.652  81.302  1.00  0.00    -0.387 OA
ATOM     25  H   UNL     1      53.728   3.105  80.609  1.00  0.00     0.211 HD
ENDBRANCH   3  24
BRANCH   5  26
ATOM     26  O   UNL     1      55.835   4.211  80.682  1.00  0.00    -0.454 OA
BRANCH  26  27
ATOM     27  C   UNL     1      56.220   5.207  79.765  1.00  0.00     0.214 A 
ATOM     28  C   UNL     1      55.452   5.373  78.596  1.00  0.00     0.180 A 
ATOM     29  C   UNL     1      57.342   6.043  79.951  1.00  0.00     0.239 A 
ATOM     30  O   UNL     1      55.830   6.244  77.667  1.00  0.00    -0.452 OA
ATOM     31  C   UNL     1      57.704   6.964  78.946  1.00  0.00     0.111 A 
ATOM     32  O   UNL     1      58.001   5.992  81.024  1.00  0.00    -0.285 OA
ATOM     33  C   UNL     1      56.898   7.019  77.783  1.00  0.00     0.146 A 
ATOM     34  C   UNL     1      58.826   7.823  79.046  1.00  0.00     0.134 A 
ATOM     35  C   UNL     1      57.220   7.894  76.743  1.00  0.00     0.094 A 
ATOM     36  C   UNL     1      59.132   8.696  77.991  1.00  0.00     0.093 A 
ATOM     37  C   UNL     1      58.338   8.731  76.843  1.00  0.00     0.123 A 
BRANCH  28  38
ATOM     38  C   UNL     1      54.229   4.579  78.347  1.00  0.00     0.025 A 
ATOM     39  C   UNL     1      52.970   5.158  78.567  1.00  0.00     0.062 A 
ATOM     40  C   UNL     1      54.306   3.233  77.944  1.00  0.00     0.016 A 
ATOM     41  C   UNL     1      51.799   4.421  78.356  1.00  0.00     0.158 A 
ATOM     42  C   UNL     1      53.138   2.492  77.739  1.00  0.00     0.051 A 
ATOM     43  C   UNL     1      51.883   3.081  77.938  1.00  0.00     0.157 A 
BRANCH  41  44
ATOM     44  O   UNL     1      50.567   5.036  78.566  1.00  0.00    -0.504 OA
ATOM     45  H   UNL     1      50.471   6.044  78.616  1.00  0.00     0.293 HD
ENDBRANCH  41  44
BRANCH  43  46
ATOM     46  O   UNL     1      50.719   2.340  77.729  1.00  0.00    -0.504 OA
ATOM     47  H   UNL     1      50.471   1.560  78.324  1.00  0.00     0.293 HD
ENDBRANCH  43  46
ENDBRANCH  28  38
BRANCH  34  48
ATOM     48  O   UNL     1      59.643   7.816  80.179  1.00  0.00    -0.507 OA
ATOM     49  H   UNL     1      59.654   8.593  80.831  1.00  0.00     0.293 HD
ENDBRANCH  34  48
BRANCH  37  50
ATOM     50  O   UNL     1      58.667   9.605  75.806  1.00  0.00    -0.508 OA
ATOM     51  H   UNL     1      58.045   9.757  75.018  1.00  0.00     0.293 HD
ENDBRANCH  37  50
ENDBRANCH  26  27
ENDBRANCH   5  26
BRANCH   4  52
ATOM     52  O   UNL     1      55.442   2.976  84.091  1.00  0.00    -0.384 OA
ATOM     53  H   UNL     1      56.300   3.457  84.231  1.00  0.00     0.211 HD
ENDBRANCH   4  52
TORSDOF 16
ENDMDL
MODEL 2
REMARK VINA RESULT:    -6.378      2.395      5.410
REMARK INTER + INTRA:         -12.723
REMARK INTER:                 -10.270
REMARK INTRA:                  -2.453
REMARK UNBOUND:                -2.243
REMARK SMILES C[C@H]1O[C@@H](OC[C@H]2O[C@H](Oc3c(-c4ccc(O)c(O)c4)oc4cc(O)cc(O)c4c3=O)[C@@H](O)[C@H](O)[C@@H]2O)[C@@H](O)[C@@H](O)[C@@H]1O
REMARK SMILES IDX 7 1 36 2 34 3 32 4 9 5 8 6 6 7 5 8 4 9 1 10 2 11 42 12 3 13
REMARK SMILES IDX 40 14 38 15 43 16 41 18 39 20 37 22 35 24 10 26 11 27 12 28
REMARK SMILES IDX 30 29 21 30 29 31 31 32 22 33 27 34 23 35 26 36 24 37 13 38
REMARK SMILES IDX 20 39 14 40 18 41 15 42 16 43 19 44 17 46 28 48 25 50 33 52
REMARK H PARENT 43 17 41 19 39 21 37 23 35 25 19 45 17 47 28 49 25 51 33 53
REMARK Flexibility Score: inf
ROOT
ATOM      1  C   UNL     1      53.911   4.688  79.192  1.00  0.00     0.180 C 
ATOM      2  C   UNL     1      53.292   3.270  79.120  1.00  0.00     0.177 C 
ATOM      3  C   UNL     1      51.760   3.337  78.942  1.00  0.00     0.180 C 
ATOM      4  C   UNL     1      51.362   4.355  77.858  1.00  0.00     0.214 C 
ATOM      5  C   UNL     1      52.173   5.669  77.941  1.00  0.00     0.339 C 
ATOM      6  O   UNL     1      53.574   5.440  78.032  1.00  0.00    -0.332 OA
ENDROOT
BRANCH   1   7
ATOM      7  C   UNL     1      55.445   4.590  79.296  1.00  0.00     0.198 C 
BRANCH   7   8
ATOM      8  O   UNL     1      56.044   5.878  79.248  1.00  0.00    -0.347 OA
BRANCH   8   9
ATOM      9  C   UNL     1      57.121   5.941  78.324  1.00  0.00     0.281 C 
ATOM     10  C   UNL     1      57.822   7.657  80.841  1.00  0.00     0.041 C 
ATOM     11  C   UNL     1      58.571   7.427  79.526  1.00  0.00     0.150 C 
ATOM     12  C   UNL     1      58.356   8.567  78.502  1.00  0.00     0.174 C 
ATOM     13  O   UNL     1      58.362   6.122  78.993  1.00  0.00    -0.344 OA
ATOM     14  C   UNL     1      57.012   8.427  77.771  1.00  0.00     0.179 C 
ATOM     15  C   UNL     1      56.865   7.002  77.235  1.00  0.00     0.202 C 
BRANCH  12  16
ATOM     16  O   UNL     1      59.396   8.552  77.554  1.00  0.00    -0.388 OA
ATOM     17  H   UNL     1      59.467   7.618  77.224  1.00  0.00     0.211 HD
ENDBRANCH  12  16
BRANCH  14  18
ATOM     18  O   UNL     1      55.934   8.738  78.618  1.00  0.00    -0.387 OA
ATOM     19  H   UNL     1      56.301   8.814  79.537  1.00  0.00     0.211 HD
ENDBRANCH  14  18
BRANCH  15  20
ATOM     20  O   UNL     1      55.592   6.816  76.676  1.00  0.00    -0.385 OA
ATOM     21  H   UNL     1      55.669   7.036  75.712  1.00  0.00     0.211 HD
ENDBRANCH  15  20
ENDBRANCH   8   9
ENDBRANCH   7   8
ENDBRANCH   1   7
BRANCH   2  22
ATOM     22  O   UNL     1      53.587   2.554  80.296  1.00  0.00    -0.387 OA
ATOM     23  H   UNL     1      53.588   1.587  80.063  1.00  0.00     0.211 HD
ENDBRANCH   2  22
BRANCH   3  24
ATOM     24  O   UNL     1      51.090   3.611  80.154  1.00  0.00    -0.387 OA
ATOM     25  H   UNL     1      51.757   3.632  80.886  1.00  0.00     0.211 HD
ENDBRANCH   3  24
BRANCH   5  26
ATOM     26  O   UNL     1      51.697   6.473  79.026  1.00  0.00    -0.454 OA
BRANCH  26  27
ATOM     27  C   UNL     1      52.473   7.330  79.830  1.00  0.00     0.214 A 
ATOM     28  C   UNL     1      52.713   8.640  79.372  1.00  0.00     0.180 A 
ATOM     29  C   UNL     1      53.031   6.942  81.067  1.00  0.00     0.239 A 
ATOM     30  O   UNL     1      53.510   9.452  80.059  1.00  0.00    -0.452 OA
ATOM     31  C   UNL     1      53.862   7.838  81.772  1.00  0.00     0.111 A 
ATOM     32  O   UNL     1      52.764   5.813  81.558  1.00  0.00    -0.285 OA
ATOM     33  C   UNL     1      54.086   9.114  81.203  1.00  0.00     0.146 A 
ATOM     34  C   UNL     1      54.477   7.519  83.008  1.00  0.00     0.134 A 
ATOM     35  C   UNL     1      54.919  10.036  81.842  1.00  0.00     0.094 A 
ATOM     36  C   UNL     1      55.308   8.458  83.636  1.00  0.00     0.093 A 
ATOM     37  C   UNL     1      55.533   9.710  83.057  1.00  0.00     0.123 A 
BRANCH  28  38
ATOM     38  C   UNL     1      52.123   9.147  78.114  1.00  0.00     0.025 A 
ATOM     39  C   UNL     1      50.800   9.617  78.111  1.00  0.00     0.062 A 
ATOM     40  C   UNL     1      52.844   9.117  76.907  1.00  0.00     0.016 A 
ATOM     41  C   UNL     1      50.213  10.086  76.930  1.00  0.00     0.158 A 
ATOM     42  C   UNL     1      52.257   9.577  75.724  1.00  0.00     0.051 A 
ATOM     43  C   UNL     1      50.945  10.067  75.730  1.00  0.00     0.157 A 
BRANCH  41  44
ATOM     44  O   UNL     1      48.904  10.563  76.970  1.00  0.00    -0.504 OA
ATOM     45  H   UNL     1      48.160  10.055  77.435  1.00  0.00     0.293 HD
ENDBRANCH  41  44
BRANCH  43  46
ATOM     46  O   UNL     1      50.363  10.529  74.549  1.00  0.00    -0.504 OA
ATOM     47  H   UNL     1      49.700   9.969  74.028  1.00  0.00     0.293 HD
ENDBRANCH  43  46
ENDBRANCH  28  38
BRANCH  34  48
ATOM     48  O   UNL     1      54.274   6.279  83.617  1.00  0.00    -0.507 OA
ATOM     49  H   UNL     1      54.991   5.842  84.187  1.00  0.00     0.293 HD
ENDBRANCH  34  48
BRANCH  37  50
ATOM     50  O   UNL     1      56.368  10.624  83.700  1.00  0.00    -0.508 OA
ATOM     51  H   UNL     1      56.667  10.490  84.661  1.00  0.00     0.293 HD
ENDBRANCH  37  50
ENDBRANCH  26  27
ENDBRANCH   5  26
BRANCH   4  52
ATOM     52  O   UNL     1      51.467   3.782  76.576  1.00  0.00    -0.384 OA
ATOM     53  H   UNL     1      52.353   4.035  76.205  1.00  0.00     0.211 HD
ENDBRANCH   4  52
TORSDOF 16
ENDMDL
MODEL 3
REMARK VINA RESULT:    -6.180      1.973      2.728
REMARK INTER + INTRA:         -12.398
REMARK INTER:                 -10.132
REMARK INTRA:                  -2.266
REMARK UNBOUND:                -2.243
REMARK SMILES C[C@H]1O[C@@H](OC[C@H]2O[C@H](Oc3c(-c4ccc(O)c(O)c4)oc4cc(O)cc(O)c4c3=O)[C@@H](O)[C@H](O)[C@@H]2O)[C@@H](O)[C@@H](O)[C@@H]1O
REMARK SMILES IDX 7 1 36 2 34 3 32 4 9 5 8 6 6 7 5 8 4 9 1 10 2 11 42 12 3 13
REMARK SMILES IDX 40 14 38 15 43 16 41 18 39 20 37 22 35 24 10 26 11 27 12 28
REMARK SMILES IDX 30 29 21 30 29 31 31 32 22 33 27 34 23 35 26 36 24 37 13 38
REMARK SMILES IDX 20 39 14 40 18 41 15 42 16 43 19 44 17 46 28 48 25 50 33 52
REMARK H PARENT 43 17 41 19 39 21 37 23 35 25 19 45 17 47 28 49 25 51 33 53
REMARK Flexibility Score: inf
ROOT
ATOM      1  C   UNL     1      54.155   6.157  82.050  1.00  0.00     0.180 C 
ATOM      2  C   UNL     1      53.720   4.979  82.957  1.00  0.00     0.177 C 
ATOM      3  C   UNL     1      54.077   3.620  82.316  1.00  0.00     0.180 C 
ATOM      4  C   UNL     1      55.515   3.617  81.765  1.00  0.00     0.214 C 
ATOM      5  C   UNL     1      55.876   4.923  81.022  1.00  0.00     0.339 C 
ATOM      6  O   UNL     1      55.548   6.086  81.771  1.00  0.00    -0.332 OA
ENDROOT
BRANCH   1   7
ATOM      7  C   UNL     1      53.852   7.498  82.747  1.00  0.00     0.198 C 
BRANCH   7   8
ATOM      8  O   UNL     1      54.828   8.478  82.417  1.00  0.00    -0.347 OA
BRANCH   8   9
ATOM      9  C   UNL     1      55.325   9.156  83.561  1.00  0.00     0.281 C 
ATOM     10  C   UNL     1      56.060  10.787  80.998  1.00  0.00     0.041 C 
ATOM     11  C   UNL     1      56.399  11.006  82.475  1.00  0.00     0.150 C 
ATOM     12  C   UNL     1      57.808  10.493  82.853  1.00  0.00     0.174 C 
ATOM     13  O   UNL     1      55.365  10.561  83.349  1.00  0.00    -0.344 OA
ATOM     14  C   UNL     1      57.820   8.972  83.068  1.00  0.00     0.179 C 
ATOM     15  C   UNL     1      56.682   8.578  84.011  1.00  0.00     0.202 C 
BRANCH  12  16
ATOM     16  O   UNL     1      58.239  11.124  84.034  1.00  0.00    -0.388 OA
ATOM     17  H   UNL     1      58.259  10.425  84.740  1.00  0.00     0.211 HD
ENDBRANCH  12  16
BRANCH  14  18
ATOM     18  O   UNL     1      57.696   8.282  81.848  1.00  0.00    -0.387 OA
ATOM     19  H   UNL     1      57.173   8.864  81.239  1.00  0.00     0.211 HD
ENDBRANCH  14  18
BRANCH  15  20
ATOM     20  O   UNL     1      56.594   7.181  84.119  1.00  0.00    -0.385 OA
ATOM     21  H   UNL     1      56.168   6.989  84.995  1.00  0.00     0.211 HD
ENDBRANCH  15  20
ENDBRANCH   8   9
ENDBRANCH   7   8
ENDBRANCH   1   7
BRANCH   2  22
ATOM     22  O   UNL     1      52.332   5.030  83.182  1.00  0.00    -0.387 OA
ATOM     23  H   UNL     1      52.191   5.430  84.082  1.00  0.00     0.211 HD
ENDBRANCH   2  22
BRANCH   3  24
ATOM     24  O   UNL     1      53.157   3.241  81.315  1.00  0.00    -0.387 OA
ATOM     25  H   UNL     1      52.323   2.934  81.751  1.00  0.00     0.211 HD
ENDBRANCH   3  24
BRANCH   5  26
ATOM     26  O   UNL     1      55.263   4.938  79.727  1.00  0.00    -0.454 OA
BRANCH  26  27
ATOM     27  C   UNL     1      55.108   6.062  78.892  1.00  0.00     0.214 A 
ATOM     28  C   UNL     1      53.895   6.212  78.193  1.00  0.00     0.180 A 
ATOM     29  C   UNL     1      56.109   7.040  78.712  1.00  0.00     0.239 A 
ATOM     30  O   UNL     1      53.740   7.212  77.331  1.00  0.00    -0.452 OA
ATOM     31  C   UNL     1      55.902   8.093  77.797  1.00  0.00     0.111 A 
ATOM     32  O   UNL     1      57.171   6.994  79.389  1.00  0.00    -0.285 OA
ATOM     33  C   UNL     1      54.669   8.128  77.102  1.00  0.00     0.146 A 
ATOM     34  C   UNL     1      56.863   9.103  77.542  1.00  0.00     0.134 A 
ATOM     35  C   UNL     1      54.415   9.133  76.165  1.00  0.00     0.094 A 
ATOM     36  C   UNL     1      56.589  10.104  76.600  1.00  0.00     0.093 A 
ATOM     37  C   UNL     1      55.374  10.120  75.910  1.00  0.00     0.123 A 
BRANCH  28  38
ATOM     38  C   UNL     1      52.772   5.264  78.365  1.00  0.00     0.025 A 
ATOM     39  C   UNL     1      51.892   5.422  79.446  1.00  0.00     0.062 A 
ATOM     40  C   UNL     1      52.603   4.172  77.494  1.00  0.00     0.016 A 
ATOM     41  C   UNL     1      50.833   4.527  79.641  1.00  0.00     0.158 A 
ATOM     42  C   UNL     1      51.550   3.272  77.690  1.00  0.00     0.051 A 
ATOM     43  C   UNL     1      50.659   3.447  78.757  1.00  0.00     0.157 A 
BRANCH  41  44
ATOM     44  O   UNL     1      49.968   4.729  80.714  1.00  0.00    -0.504 OA
ATOM     45  H   UNL     1      50.296   4.749  81.673  1.00  0.00     0.293 HD
ENDBRANCH  41  44
BRANCH  43  46
ATOM     46  O   UNL     1      49.608   2.550  78.948  1.00  0.00    -0.504 OA
ATOM     47  H   UNL     1      49.618   1.624  78.540  1.00  0.00     0.293 HD
ENDBRANCH  43  46
ENDBRANCH  28  38
BRANCH  34  48
ATOM     48  O   UNL     1      58.088   9.119  78.213  1.00  0.00    -0.507 OA
ATOM     49  H   UNL     1      58.678   8.296  78.263  1.00  0.00     0.293 HD
ENDBRANCH  34  48
BRANCH  37  50
ATOM     50  O   UNL     1      55.129  11.125  74.973  1.00  0.00    -0.508 OA
ATOM     51  H   UNL     1      54.185  11.401  74.722  1.00  0.00     0.293 HD
ENDBRANCH  37  50
ENDBRANCH  26  27
ENDBRANCH   5  26
BRANCH   4  52
ATOM     52  O   UNL     1      56.440   3.353  82.794  1.00  0.00    -0.384 OA
ATOM     53  H   UNL     1      57.215   2.884  82.387  1.00  0.00     0.211 HD
ENDBRANCH   4  52
TORSDOF 16
ENDMDL
MODEL 4
REMARK VINA RESULT:    -6.173      2.770      5.129
REMARK INTER + INTRA:         -12.386
REMARK INTER:                 -10.089
REMARK INTRA:                  -2.297
REMARK UNBOUND:                -2.243
REMARK SMILES C[C@H]1O[C@@H](OC[C@H]2O[C@H](Oc3c(-c4ccc(O)c(O)c4)oc4cc(O)cc(O)c4c3=O)[C@@H](O)[C@H](O)[C@@H]2O)[C@@H](O)[C@@H](O)[C@@H]1O
REMARK SMILES IDX 7 1 36 2 34 3 32 4 9 5 8 6 6 7 5 8 4 9 1 10 2 11 42 12 3 13
REMARK SMILES IDX 40 14 38 15 43 16 41 18 39 20 37 22 35 24 10 26 11 27 12 28
REMARK SMILES IDX 30 29 21 30 29 31 31 32 22 33 27 34 23 35 26 36 24 37 13 38
REMARK SMILES IDX 20 39 14 40 18 41 15 42 16 43 19 44 17 46 28 48 25 50 33 52
REMARK H PARENT 43 17 41 19 39 21 37 23 35 25 19 45 17 47 28 49 25 51 33 53
REMARK Flexibility Score: inf
ROOT
ATOM      1  C   UNL     1      57.337   5.874  79.277  1.00  0.00     0.180 C 
ATOM      2  C   UNL     1      57.262   4.505  79.999  1.00  0.00     0.177 C 
ATOM      3  C   UNL     1      55.814   3.971  80.034  1.00  0.00     0.180 C 
ATOM      4  C   UNL     1      55.130   4.102  78.661  1.00  0.00     0.214 C 
ATOM      5  C   UNL     1      55.421   5.456  77.973  1.00  0.00     0.339 C 
ATOM      6  O   UNL     1      56.807   5.775  77.961  1.00  0.00    -0.332 OA
ENDROOT
BRANCH   1   7
ATOM      7  C   UNL     1      58.801   6.347  79.194  1.00  0.00     0.198 C 
BRANCH   7   8
ATOM      8  O   UNL     1      58.965   7.614  79.816  1.00  0.00    -0.347 OA
BRANCH   8   9
ATOM      9  C   UNL     1      57.778   8.062  80.455  1.00  0.00     0.281 C 
ATOM     10  C   UNL     1      59.193  10.492  79.090  1.00  0.00     0.041 C 
ATOM     11  C   UNL     1      57.938  10.405  79.963  1.00  0.00     0.150 C 
ATOM     12  C   UNL     1      58.207  10.763  81.444  1.00  0.00     0.174 C 
ATOM     13  O   UNL     1      57.224   9.185  79.781  1.00  0.00    -0.344 OA
ATOM     14  C   UNL     1      58.831   9.585  82.208  1.00  0.00     0.179 C 
ATOM     15  C   UNL     1      58.011   8.318  81.957  1.00  0.00     0.202 C 
BRANCH  12  16
ATOM     16  O   UNL     1      57.000  11.125  82.069  1.00  0.00    -0.388 OA
ATOM     17  H   UNL     1      56.971  10.640  82.935  1.00  0.00     0.211 HD
ENDBRANCH  12  16
BRANCH  14  18
ATOM     18  O   UNL     1      60.168   9.377  81.824  1.00  0.00    -0.387 OA
ATOM     19  H   UNL     1      60.294   9.838  80.955  1.00  0.00     0.211 HD
ENDBRANCH  14  18
BRANCH  15  20
ATOM     20  O   UNL     1      58.635   7.205  82.541  1.00  0.00    -0.385 OA
ATOM     21  H   UNL     1      58.728   7.405  83.508  1.00  0.00     0.211 HD
ENDBRANCH  15  20
ENDBRANCH   8   9
ENDBRANCH   7   8
ENDBRANCH   1   7
BRANCH   2  22
ATOM     22  O   UNL     1      57.739   4.628  81.318  1.00  0.00    -0.387 OA
ATOM     23  H   UNL     1      58.730   4.554  81.284  1.00  0.00     0.211 HD
ENDBRANCH   2  22
BRANCH   3  24
ATOM     24  O   UNL     1      55.039   4.588  81.040  1.00  0.00    -0.387 OA
ATOM     25  H   UNL     1      55.465   5.447  81.286  1.00  0.00     0.211 HD
ENDBRANCH   3  24
BRANCH   5  26
ATOM     26  O   UNL     1      54.645   6.495  78.582  1.00  0.00    -0.454 OA
BRANCH  26  27
ATOM     27  C   UNL     1      53.701   7.316  77.937  1.00  0.00     0.214 A 
ATOM     28  C   UNL     1      52.334   7.039  78.126  1.00  0.00     0.180 A 
ATOM     29  C   UNL     1      54.054   8.399  77.102  1.00  0.00     0.239 A 
ATOM     30  O   UNL     1      51.413   7.736  77.469  1.00  0.00    -0.452 OA
ATOM     31  C   UNL     1      53.046   9.122  76.431  1.00  0.00     0.111 A 
ATOM     32  O   UNL     1      55.261   8.739  76.980  1.00  0.00    -0.285 OA
ATOM     33  C   UNL     1      51.703   8.733  76.645  1.00  0.00     0.146 A 
ATOM     34  C   UNL     1      53.317  10.207  75.560  1.00  0.00     0.134 A 
ATOM     35  C   UNL     1      50.662   9.396  75.990  1.00  0.00     0.094 A 
ATOM     36  C   UNL     1      52.259  10.862  74.913  1.00  0.00     0.093 A 
ATOM     37  C   UNL     1      50.938  10.459  75.121  1.00  0.00     0.123 A 
BRANCH  28  38
ATOM     38  C   UNL     1      51.874   5.959  79.027  1.00  0.00     0.025 A 
ATOM     39  C   UNL     1      51.058   4.935  78.520  1.00  0.00     0.062 A 
ATOM     40  C   UNL     1      52.195   5.968  80.396  1.00  0.00     0.016 A 
ATOM     41  C   UNL     1      50.596   3.913  79.357  1.00  0.00     0.158 A 
ATOM     42  C   UNL     1      51.728   4.952  81.236  1.00  0.00     0.051 A 
ATOM     43  C   UNL     1      50.933   3.919  80.722  1.00  0.00     0.157 A 
BRANCH  41  44
ATOM     44  O   UNL     1      49.804   2.903  78.813  1.00  0.00    -0.504 OA
ATOM     45  H   UNL     1      49.195   2.330  79.386  1.00  0.00     0.293 HD
ENDBRANCH  41  44
BRANCH  43  46
ATOM     46  O   UNL     1      50.472   2.904  81.561  1.00  0.00    -0.504 OA
ATOM     47  H   UNL     1      49.916   3.105  82.383  1.00  0.00     0.293 HD
ENDBRANCH  43  46
ENDBRANCH  28  38
BRANCH  34  48
ATOM     48  O   UNL     1      54.625  10.638  75.328  1.00  0.00    -0.507 OA
ATOM     49  H   UNL     1      54.825  11.573  74.989  1.00  0.00     0.293 HD
ENDBRANCH  34  48
BRANCH  37  50
ATOM     50  O   UNL     1      49.904  11.124  74.461  1.00  0.00    -0.508 OA
ATOM     51  H   UNL     1      49.497  11.978  74.830  1.00  0.00     0.293 HD
ENDBRANCH  37  50
ENDBRANCH  26  27
ENDBRANCH   5  26
BRANCH   4  52
ATOM     52  O   UNL     1      55.487   3.028  77.824  1.00  0.00    -0.384 OA
ATOM     53  H   UNL     1      54.798   2.961  77.111  1.00  0.00     0.211 HD
ENDBRANCH   4  52
TORSDOF 16
ENDMDL
MODEL 5
REMARK VINA RESULT:    -6.170      2.000      4.618
REMARK INTER + INTRA:         -12.381
REMARK INTER:                 -10.971
REMARK INTRA:                  -1.409
REMARK UNBOUND:                -2.243
REMARK SMILES C[C@H]1O[C@@H](OC[C@H]2O[C@H](Oc3c(-c4ccc(O)c(O)c4)oc4cc(O)cc(O)c4c3=O)[C@@H](O)[C@H](O)[C@@H]2O)[C@@H](O)[C@@H](O)[C@@H]1O
REMARK SMILES IDX 7 1 36 2 34 3 32 4 9 5 8 6 6 7 5 8 4 9 1 10 2 11 42 12 3 13
REMARK SMILES IDX 40 14 38 15 43 16 41 18 39 20 37 22 35 24 10 26 11 27 12 28
REMARK SMILES IDX 30 29 21 30 29 31 31 32 22 33 27 34 23 35 26 36 24 37 13 38
REMARK SMILES IDX 20 39 14 40 18 41 15 42 16 43 19 44 17 46 28 48 25 50 33 52
REMARK H PARENT 43 17 41 19 39 21 37 23 35 25 19 45 17 47 28 49 25 51 33 53
REMARK Flexibility Score: inf
ROOT
ATOM      1  C   UNL     1      55.752   4.764  83.014  1.00  0.00     0.180 C 
ATOM      2  C   UNL     1      57.285   4.543  83.036  1.00  0.00     0.177 C 
ATOM      3  C   UNL     1      58.012   5.583  82.158  1.00  0.00     0.180 C 
ATOM      4  C   UNL     1      57.483   7.006  82.413  1.00  0.00     0.214 C 
ATOM      5  C   UNL     1      55.943   7.062  82.533  1.00  0.00     0.339 C 
ATOM      6  O   UNL     1      55.431   6.085  83.432  1.00  0.00    -0.332 OA
ENDROOT
BRANCH   1   7
ATOM      7  C   UNL     1      55.060   3.759  83.955  1.00  0.00     0.198 C 
BRANCH   7   8
ATOM      8  O   UNL     1      53.649   3.796  83.794  1.00  0.00    -0.347 OA
BRANCH   8   9
ATOM      9  C   UNL     1      53.257   3.754  82.430  1.00  0.00     0.281 C 
ATOM     10  C   UNL     1      50.997   5.113  84.108  1.00  0.00     0.041 C 
ATOM     11  C   UNL     1      51.080   4.745  82.624  1.00  0.00     0.150 C 
ATOM     12  C   UNL     1      50.372   3.409  82.292  1.00  0.00     0.174 C 
ATOM     13  O   UNL     1      52.404   4.844  82.105  1.00  0.00    -0.344 OA
ATOM     14  C   UNL     1      51.248   2.199  82.651  1.00  0.00     0.179 C 
ATOM     15  C   UNL     1      52.648   2.386  82.063  1.00  0.00     0.202 C 
BRANCH  12  16
ATOM     16  O   UNL     1      50.070   3.364  80.919  1.00  0.00    -0.388 OA
ATOM     17  H   UNL     1      49.111   3.607  80.831  1.00  0.00     0.211 HD
ENDBRANCH  12  16
BRANCH  14  18
ATOM     18  O   UNL     1      51.330   2.021  84.044  1.00  0.00    -0.387 OA
ATOM     19  H   UNL     1      50.433   1.730  84.351  1.00  0.00     0.211 HD
ENDBRANCH  14  18
BRANCH  15  20
ATOM     20  O   UNL     1      53.500   1.354  82.485  1.00  0.00    -0.385 OA
ATOM     21  H   UNL     1      52.931   0.684  82.945  1.00  0.00     0.211 HD
ENDBRANCH  15  20
ENDBRANCH   8   9
ENDBRANCH   7   8
ENDBRANCH   1   7
BRANCH   2  22
ATOM     22  O   UNL     1      57.594   3.251  82.570  1.00  0.00    -0.387 OA
ATOM     23  H   UNL     1      57.322   3.207  81.614  1.00  0.00     0.211 HD
ENDBRANCH   2  22
BRANCH   3  24
ATOM     24  O   UNL     1      57.947   5.264  80.784  1.00  0.00    -0.387 OA
ATOM     25  H   UNL     1      58.183   6.071  80.260  1.00  0.00     0.211 HD
ENDBRANCH   3  24
BRANCH   5  26
ATOM     26  O   UNL     1      55.343   6.952  81.237  1.00  0.00    -0.454 OA
BRANCH  26  27
ATOM     27  C   UNL     1      55.715   7.670  80.084  1.00  0.00     0.214 A 
ATOM     28  C   UNL     1      55.227   7.230  78.838  1.00  0.00     0.180 A 
ATOM     29  C   UNL     1      56.558   8.801  80.110  1.00  0.00     0.239 A 
ATOM     30  O   UNL     1      55.622   7.828  77.718  1.00  0.00    -0.452 OA
ATOM     31  C   UNL     1      56.945   9.415  78.901  1.00  0.00     0.111 A 
ATOM     32  O   UNL     1      56.939   9.283  81.211  1.00  0.00    -0.285 OA
ATOM     33  C   UNL     1      56.444   8.866  77.695  1.00  0.00     0.146 A 
ATOM     34  C   UNL     1      57.804  10.540  78.839  1.00  0.00     0.134 A 
ATOM     35  C   UNL     1      56.811   9.416  76.465  1.00  0.00     0.094 A 
ATOM     36  C   UNL     1      58.159  11.078  77.594  1.00  0.00     0.093 A 
ATOM     37  C   UNL     1      57.670  10.520  76.411  1.00  0.00     0.123 A 
BRANCH  28  38
ATOM     38  C   UNL     1      54.295   6.088  78.723  1.00  0.00     0.025 A 
ATOM     39  C   UNL     1      52.917   6.300  78.886  1.00  0.00     0.062 A 
ATOM     40  C   UNL     1      54.769   4.781  78.508  1.00  0.00     0.016 A 
ATOM     41  C   UNL     1      52.017   5.232  78.801  1.00  0.00     0.158 A 
ATOM     42  C   UNL     1      53.872   3.711  78.429  1.00  0.00     0.051 A 
ATOM     43  C   UNL     1      52.495   3.930  78.569  1.00  0.00     0.157 A 
BRANCH  41  44
ATOM     44  O   UNL     1      50.654   5.484  78.948  1.00  0.00    -0.504 OA
ATOM     45  H   UNL     1      50.043   4.858  79.459  1.00  0.00     0.293 HD
ENDBRANCH  41  44
BRANCH  43  46
ATOM     46  O   UNL     1      51.603   2.861  78.487  1.00  0.00    -0.504 OA
ATOM     47  H   UNL     1      51.355   2.442  77.600  1.00  0.00     0.293 HD
ENDBRANCH  43  46
ENDBRANCH  28  38
BRANCH  34  48
ATOM     48  O   UNL     1      58.311  11.125  80.001  1.00  0.00    -0.507 OA
ATOM     49  H   UNL     1      59.269  10.972  80.300  1.00  0.00     0.293 HD
ENDBRANCH  34  48
BRANCH  37  50
ATOM     50  O   UNL     1      58.043  11.072  75.185  1.00  0.00    -0.508 OA
ATOM     51  H   UNL     1      59.014  11.121  74.894  1.00  0.00     0.293 HD
ENDBRANCH  37  50
ENDBRANCH  26  27
ENDBRANCH   5  26
BRANCH   4  52
ATOM     52  O   UNL     1      58.095   7.567  83.550  1.00  0.00    -0.384 OA
ATOM     53  H   UNL     1      57.374   7.827  84.182  1.00  0.00     0.211 HD
ENDBRANCH   4  52
TORSDOF 16
ENDMDL
MODEL 6
REMARK VINA RESULT:    -5.778      8.980     13.670
REMARK INTER + INTRA:         -11.737
REMARK INTER:                 -11.193
REMARK INTRA:                  -0.543
REMARK UNBOUND:                -2.243
REMARK SMILES C[C@H]1O[C@@H](OC[C@H]2O[C@H](Oc3c(-c4ccc(O)c(O)c4)oc4cc(O)cc(O)c4c3=O)[C@@H](O)[C@H](O)[C@@H]2O)[C@@H](O)[C@@H](O)[C@@H]1O
REMARK SMILES IDX 7 1 36 2 34 3 32 4 9 5 8 6 6 7 5 8 4 9 1 10 2 11 42 12 3 13
REMARK SMILES IDX 40 14 38 15 43 16 41 18 39 20 37 22 35 24 10 26 11 27 12 28
REMARK SMILES IDX 30 29 21 30 29 31 31 32 22 33 27 34 23 35 26 36 24 37 13 38
REMARK SMILES IDX 20 39 14 40 18 41 15 42 16 43 19 44 17 46 28 48 25 50 33 52
REMARK H PARENT 43 17 41 19 39 21 37 23 35 25 19 45 17 47 28 49 25 51 33 53
REMARK Flexibility Score: inf
ROOT
ATOM      1  C   UNL     1      48.808  -5.328  80.922  1.00  0.00     0.180 C 
ATOM      2  C   UNL     1      48.310  -6.778  81.141  1.00  0.00     0.177 C 
ATOM      3  C   UNL     1      49.417  -7.662  81.756  1.00  0.00     0.180 C 
ATOM      4  C   UNL     1      50.118  -6.952  82.929  1.00  0.00     0.214 C 
ATOM      5  C   UNL     1      50.411  -5.462  82.641  1.00  0.00     0.339 C 
ATOM      6  O   UNL     1      49.273  -4.769  82.144  1.00  0.00    -0.332 OA
ENDROOT
BRANCH   1   7
ATOM      7  C   UNL     1      47.661  -4.454  80.376  1.00  0.00     0.198 C 
BRANCH   7   8
ATOM      8  O   UNL     1      47.170  -4.968  79.146  1.00  0.00    -0.347 OA
BRANCH   8   9
ATOM      9  C   UNL     1      47.571  -4.184  78.031  1.00  0.00     0.281 C 
ATOM     10  C   UNL     1      44.680  -5.266  77.540  1.00  0.00     0.041 C 
ATOM     11  C   UNL     1      45.621  -4.441  76.657  1.00  0.00     0.150 C 
ATOM     12  C   UNL     1      46.386  -5.301  75.622  1.00  0.00     0.174 C 
ATOM     13  O   UNL     1      46.453  -3.562  77.410  1.00  0.00    -0.344 OA
ATOM     14  C   UNL     1      47.591  -6.013  76.256  1.00  0.00     0.179 C 
ATOM     15  C   UNL     1      48.426  -5.005  77.046  1.00  0.00     0.202 C 
BRANCH  12  16
ATOM     16  O   UNL     1      46.840  -4.482  74.572  1.00  0.00    -0.388 OA
ATOM     17  H   UNL     1      47.398  -3.772  74.986  1.00  0.00     0.211 HD
ENDBRANCH  12  16
BRANCH  14  18
ATOM     18  O   UNL     1      47.180  -7.063  77.097  1.00  0.00    -0.387 OA
ATOM     19  H   UNL     1      46.301  -6.803  77.476  1.00  0.00     0.211 HD
ENDBRANCH  14  18
BRANCH  15  20
ATOM     20  O   UNL     1      49.459  -5.657  77.738  1.00  0.00    -0.385 OA
ATOM     21  H   UNL     1      50.058  -4.948  78.089  1.00  0.00     0.211 HD
ENDBRANCH  15  20
ENDBRANCH   8   9
ENDBRANCH   7   8
ENDBRANCH   1   7
BRANCH   2  22
ATOM     22  O   UNL     1      47.902  -7.340  79.916  1.00  0.00    -0.387 OA
ATOM     23  H   UNL     1      47.222  -8.036  80.120  1.00  0.00     0.211 HD
ENDBRANCH   2  22
BRANCH   3  24
ATOM     24  O   UNL     1      50.359  -8.088  80.795  1.00  0.00    -0.387 OA
ATOM     25  H   UNL     1      50.430  -9.075  80.836  1.00  0.00     0.211 HD
ENDBRANCH   3  24
BRANCH   5  26
ATOM     26  O   UNL     1      51.531  -5.342  81.756  1.00  0.00    -0.454 OA
BRANCH  26  27
ATOM     27  C   UNL     1      52.888  -5.475  82.106  1.00  0.00     0.214 A 
ATOM     28  C   UNL     1      53.579  -4.329  82.547  1.00  0.00     0.180 A 
ATOM     29  C   UNL     1      53.596  -6.694  82.031  1.00  0.00     0.239 A 
ATOM     30  O   UNL     1      54.881  -4.393  82.807  1.00  0.00    -0.452 OA
ATOM     31  C   UNL     1      54.974  -6.722  82.327  1.00  0.00     0.111 A 
ATOM     32  O   UNL     1      52.993  -7.759  81.733  1.00  0.00    -0.285 OA
ATOM     33  C   UNL     1      55.591  -5.507  82.709  1.00  0.00     0.146 A 
ATOM     34  C   UNL     1      55.760  -7.899  82.255  1.00  0.00     0.134 A 
ATOM     35  C   UNL     1      56.958  -5.468  82.991  1.00  0.00     0.094 A 
ATOM     36  C   UNL     1      57.131  -7.840  82.543  1.00  0.00     0.093 A 
ATOM     37  C   UNL     1      57.732  -6.632  82.906  1.00  0.00     0.123 A 
BRANCH  28  38
ATOM     38  C   UNL     1      52.902  -3.023  82.708  1.00  0.00     0.025 A 
ATOM     39  C   UNL     1      53.586  -1.960  83.318  1.00  0.00     0.062 A 
ATOM     40  C   UNL     1      51.566  -2.843  82.310  1.00  0.00     0.016 A 
ATOM     41  C   UNL     1      52.961  -0.721  83.499  1.00  0.00     0.158 A 
ATOM     42  C   UNL     1      50.936  -1.608  82.496  1.00  0.00     0.051 A 
ATOM     43  C   UNL     1      51.630  -0.542  83.084  1.00  0.00     0.157 A 
BRANCH  41  44
ATOM     44  O   UNL     1      53.679   0.317  84.090  1.00  0.00    -0.504 OA
ATOM     45  H   UNL     1      53.239   0.993  84.704  1.00  0.00     0.293 HD
ENDBRANCH  41  44
BRANCH  43  46
ATOM     46  O   UNL     1      51.000   0.690  83.265  1.00  0.00    -0.504 OA
ATOM     47  H   UNL     1      50.056   0.858  82.942  1.00  0.00     0.293 HD
ENDBRANCH  43  46
ENDBRANCH  28  38
BRANCH  34  48
ATOM     48  O   UNL     1      55.195  -9.125  81.897  1.00  0.00    -0.507 OA
ATOM     49  H   UNL     1      54.998  -9.842  82.587  1.00  0.00     0.293 HD
ENDBRANCH  34  48
BRANCH  37  50
ATOM     50  O   UNL     1      59.099  -6.599  83.183  1.00  0.00    -0.508 OA
ATOM     51  H   UNL     1      59.785  -6.964  82.530  1.00  0.00     0.293 HD
ENDBRANCH  37  50
ENDBRANCH  26  27
ENDBRANCH   5  26
BRANCH   4  52
ATOM     52  O   UNL     1      49.372  -7.096  84.114  1.00  0.00    -0.384 OA
ATOM     53  H   UNL     1      49.491  -6.267  84.647  1.00  0.00     0.211 HD
ENDBRANCH   4  52
TORSDOF 16
ENDMDL
MODEL 7
REMARK VINA RESULT:    -5.724      2.705      6.255
REMARK INTER + INTRA:         -11.649
REMARK INTER:                  -9.738
REMARK INTRA:                  -1.911
REMARK UNBOUND:                -2.243
REMARK SMILES C[C@H]1O[C@@H](OC[C@H]2O[C@H](Oc3c(-c4ccc(O)c(O)c4)oc4cc(O)cc(O)c4c3=O)[C@@H](O)[C@H](O)[C@@H]2O)[C@@H](O)[C@@H](O)[C@@H]1O
REMARK SMILES IDX 7 1 36 2 34 3 32 4 9 5 8 6 6 7 5 8 4 9 1 10 2 11 42 12 3 13
REMARK SMILES IDX 40 14 38 15 43 16 41 18 39 20 37 22 35 24 10 26 11 27 12 28
REMARK SMILES IDX 30 29 21 30 29 31 31 32 22 33 27 34 23 35 26 36 24 37 13 38
REMARK SMILES IDX 20 39 14 40 18 41 15 42 16 43 19 44 17 46 28 48 25 50 33 52
REMARK H PARENT 43 17 41 19 39 21 37 23 35 25 19 45 17 47 28 49 25 51 33 53
REMARK Flexibility Score: inf
ROOT
ATOM      1  C   UNL     1      54.375   6.587  79.896  1.00  0.00     0.180 C 
ATOM      2  C   UNL     1      54.626   5.736  78.625  1.00  0.00     0.177 C 
ATOM      3  C   UNL     1      56.090   5.859  78.151  1.00  0.00     0.180 C 
ATOM      4  C   UNL     1      57.077   5.716  79.324  1.00  0.00     0.214 C 
ATOM      5  C   UNL     1      56.623   6.483  80.587  1.00  0.00     0.339 C 
ATOM      6  O   UNL     1      55.271   6.212  80.934  1.00  0.00    -0.332 OA
ENDROOT
BRANCH   1   7
ATOM      7  C   UNL     1      52.928   6.388  80.386  1.00  0.00     0.198 C 
BRANCH   7   8
ATOM      8  O   UNL     1      52.878   5.473  81.472  1.00  0.00    -0.347 OA
BRANCH   8   9
ATOM      9  C   UNL     1      52.442   4.181  81.074  1.00  0.00     0.281 C 
ATOM     10  C   UNL     1      51.014   4.973  83.740  1.00  0.00     0.041 C 
ATOM     11  C   UNL     1      50.978   3.687  82.909  1.00  0.00     0.150 C 
ATOM     12  C   UNL     1      51.925   2.590  83.452  1.00  0.00     0.174 C 
ATOM     13  O   UNL     1      51.112   3.930  81.511  1.00  0.00    -0.344 OA
ATOM     14  C   UNL     1      53.380   2.835  83.025  1.00  0.00     0.179 C 
ATOM     15  C   UNL     1      53.436   3.091  81.518  1.00  0.00     0.202 C 
BRANCH  12  16
ATOM     16  O   UNL     1      51.513   1.333  82.975  1.00  0.00    -0.388 OA
ATOM     17  H   UNL     1      50.766   1.037  83.559  1.00  0.00     0.211 HD
ENDBRANCH  12  16
BRANCH  14  18
ATOM     18  O   UNL     1      53.942   3.922  83.720  1.00  0.00    -0.387 OA
ATOM     19  H   UNL     1      53.625   3.859  84.658  1.00  0.00     0.211 HD
ENDBRANCH  14  18
BRANCH  15  20
ATOM     20  O   UNL     1      54.738   3.443  81.127  1.00  0.00    -0.385 OA
ATOM     21  H   UNL     1      55.276   3.509  81.958  1.00  0.00     0.211 HD
ENDBRANCH  15  20
ENDBRANCH   8   9
ENDBRANCH   7   8
ENDBRANCH   1   7
BRANCH   2  22
ATOM     22  O   UNL     1      53.771   6.153  77.588  1.00  0.00    -0.387 OA
ATOM     23  H   UNL     1      54.281   6.085  76.737  1.00  0.00     0.211 HD
ENDBRANCH   2  22
BRANCH   3  24
ATOM     24  O   UNL     1      56.326   7.057  77.443  1.00  0.00    -0.387 OA
ATOM     25  H   UNL     1      56.574   7.764  78.090  1.00  0.00     0.211 HD
ENDBRANCH   3  24
BRANCH   5  26
ATOM     26  O   UNL     1      56.854   7.887  80.420  1.00  0.00    -0.454 OA
BRANCH  26  27
ATOM     27  C   UNL     1      58.046   8.576  80.716  1.00  0.00     0.214 A 
ATOM     28  C   UNL     1      58.473   9.583  79.828  1.00  0.00     0.180 A 
ATOM     29  C   UNL     1      58.841   8.305  81.850  1.00  0.00     0.239 A 
ATOM     30  O   UNL     1      59.634  10.198  80.025  1.00  0.00    -0.452 OA
ATOM     31  C   UNL     1      60.061   8.988  82.030  1.00  0.00     0.111 A 
ATOM     32  O   UNL     1      58.447   7.479  82.717  1.00  0.00    -0.285 OA
ATOM     33  C   UNL     1      60.430   9.945  81.054  1.00  0.00     0.146 A 
ATOM     34  C   UNL     1      60.926   8.759  83.129  1.00  0.00     0.134 A 
ATOM     35  C   UNL     1      61.638  10.636  81.165  1.00  0.00     0.094 A 
ATOM     36  C   UNL     1      62.134   9.465  83.224  1.00  0.00     0.093 A 
ATOM     37  C   UNL     1      62.494  10.397  82.247  1.00  0.00     0.123 A 
BRANCH  28  38
ATOM     38  C   UNL     1      57.675   9.970  78.644  1.00  0.00     0.025 A 
ATOM     39  C   UNL     1      56.338  10.365  78.811  1.00  0.00     0.062 A 
ATOM     40  C   UNL     1      58.214   9.898  77.348  1.00  0.00     0.016 A 
ATOM     41  C   UNL     1      55.557  10.719  77.705  1.00  0.00     0.158 A 
ATOM     42  C   UNL     1      57.433  10.243  76.240  1.00  0.00     0.051 A 
ATOM     43  C   UNL     1      56.107  10.660  76.412  1.00  0.00     0.157 A 
BRANCH  41  44
ATOM     44  O   UNL     1      54.240  11.125  77.911  1.00  0.00    -0.504 OA
ATOM     45  H   UNL     1      53.529  10.490  78.257  1.00  0.00     0.293 HD
ENDBRANCH  41  44
BRANCH  43  46
ATOM     46  O   UNL     1      55.331  11.007  75.306  1.00  0.00    -0.504 OA
ATOM     47  H   UNL     1      54.734  11.824  75.310  1.00  0.00     0.293 HD
ENDBRANCH  43  46
ENDBRANCH  28  38
BRANCH  34  48
ATOM     48  O   UNL     1      60.599   7.836  84.125  1.00  0.00    -0.507 OA
ATOM     49  H   UNL     1      60.062   7.000  83.920  1.00  0.00     0.293 HD
ENDBRANCH  34  48
BRANCH  37  50
ATOM     50  O   UNL     1      63.704  11.081  82.363  1.00  0.00    -0.508 OA
ATOM     51  H   UNL     1      64.441  10.983  81.672  1.00  0.00     0.293 HD
ENDBRANCH  37  50
ENDBRANCH  26  27
ENDBRANCH   5  26
BRANCH   4  52
ATOM     52  O   UNL     1      57.306   4.358  79.618  1.00  0.00    -0.384 OA
ATOM     53  H   UNL     1      56.492   3.853  79.356  1.00  0.00     0.211 HD
ENDBRANCH   4  52
TORSDOF 16
ENDMDL
MODEL 8
REMARK VINA RESULT:    -5.688      2.441      6.437
REMARK INTER + INTRA:         -11.589
REMARK INTER:                  -9.412
REMARK INTRA:                  -2.177
REMARK UNBOUND:                -2.243
REMARK SMILES C[C@H]1O[C@@H](OC[C@H]2O[C@H](Oc3c(-c4ccc(O)c(O)c4)oc4cc(O)cc(O)c4c3=O)[C@@H](O)[C@H](O)[C@@H]2O)[C@@H](O)[C@@H](O)[C@@H]1O
REMARK SMILES IDX 7 1 36 2 34 3 32 4 9 5 8 6 6 7 5 8 4 9 1 10 2 11 42 12 3 13
REMARK SMILES IDX 40 14 38 15 43 16 41 18 39 20 37 22 35 24 10 26 11 27 12 28
REMARK SMILES IDX 30 29 21 30 29 31 31 32 22 33 27 34 23 35 26 36 24 37 13 38
REMARK SMILES IDX 20 39 14 40 18 41 15 42 16 43 19 44 17 46 28 48 25 50 33 52
REMARK H PARENT 43 17 41 19 39 21 37 23 35 25 19 45 17 47 28 49 25 51 33 53
REMARK Flexibility Score: inf
ROOT
ATOM      1  C   UNL     1      56.213   8.623  81.314  1.00  0.00     0.180 C 
ATOM      2  C   UNL     1      56.057   9.061  82.791  1.00  0.00     0.177 C 
ATOM      3  C   UNL     1      54.847   8.367  83.454  1.00  0.00     0.180 C 
ATOM      4  C   UNL     1      54.818   6.860  83.139  1.00  0.00     0.214 C 
ATOM      5  C   UNL     1      55.154   6.549  81.663  1.00  0.00     0.339 C 
ATOM      6  O   UNL     1      56.334   7.209  81.222  1.00  0.00    -0.332 OA
ENDROOT
BRANCH   1   7
ATOM      7  C   UNL     1      57.469   9.274  80.702  1.00  0.00     0.198 C 
BRANCH   7   8
ATOM      8  O   UNL     1      58.472   9.476  81.688  1.00  0.00    -0.347 OA
BRANCH   8   9
ATOM      9  C   UNL     1      59.461   8.457  81.673  1.00  0.00     0.281 C 
ATOM     10  C   UNL     1      60.075  10.453  83.999  1.00  0.00     0.041 C 
ATOM     11  C   UNL     1      60.835   9.229  83.482  1.00  0.00     0.150 C 
ATOM     12  C   UNL     1      61.996   9.597  82.528  1.00  0.00     0.174 C 
ATOM     13  O   UNL     1      59.969   8.215  82.979  1.00  0.00    -0.344 OA
ATOM     14  C   UNL     1      61.490   9.892  81.107  1.00  0.00     0.179 C 
ATOM     15  C   UNL     1      60.568   8.763  80.645  1.00  0.00     0.202 C 
BRANCH  12  16
ATOM     16  O   UNL     1      62.916   8.535  82.473  1.00  0.00    -0.388 OA
ATOM     17  H   UNL     1      62.438   7.764  82.069  1.00  0.00     0.211 HD
ENDBRANCH  12  16
BRANCH  14  18
ATOM     18  O   UNL     1      60.811  11.123  81.052  1.00  0.00    -0.387 OA
ATOM     19  H   UNL     1      60.192  11.146  81.826  1.00  0.00     0.211 HD
ENDBRANCH  14  18
BRANCH  15  20
ATOM     20  O   UNL     1      59.994   9.074  79.403  1.00  0.00    -0.385 OA
ATOM     21  H   UNL     1      59.961  10.064  79.345  1.00  0.00     0.211 HD
ENDBRANCH  15  20
ENDBRANCH   8   9
ENDBRANCH   7   8
ENDBRANCH   1   7
BRANCH   2  22
ATOM     22  O   UNL     1      55.884  10.456  82.866  1.00  0.00    -0.387 OA
ATOM     23  H   UNL     1      55.302  10.642  83.651  1.00  0.00     0.211 HD
ENDBRANCH   2  22
BRANCH   3  24
ATOM     24  O   UNL     1      53.622   8.974  83.103  1.00  0.00    -0.387 OA
ATOM     25  H   UNL     1      53.812   9.840  82.662  1.00  0.00     0.211 HD
ENDBRANCH   3  24
BRANCH   5  26
ATOM     26  O   UNL     1      54.033   6.857  80.827  1.00  0.00    -0.454 OA
BRANCH  26  27
ATOM     27  C   UNL     1      53.375   5.968  79.955  1.00  0.00     0.214 A 
ATOM     28  C   UNL     1      53.862   5.839  78.640  1.00  0.00     0.180 A 
ATOM     29  C   UNL     1      52.247   5.206  80.327  1.00  0.00     0.239 A 
ATOM     30  O   UNL     1      53.220   5.076  77.762  1.00  0.00    -0.452 OA
ATOM     31  C   UNL     1      51.600   4.398  79.369  1.00  0.00     0.111 A 
ATOM     32  O   UNL     1      51.836   5.220  81.519  1.00  0.00    -0.285 OA
ATOM     33  C   UNL     1      52.135   4.376  78.058  1.00  0.00     0.146 A 
ATOM     34  C   UNL     1      50.451   3.619  79.655  1.00  0.00     0.134 A 
ATOM     35  C   UNL     1      51.524   3.614  77.060  1.00  0.00     0.094 A 
ATOM     36  C   UNL     1      49.854   2.859  78.640  1.00  0.00     0.093 A 
ATOM     37  C   UNL     1      50.382   2.857  77.347  1.00  0.00     0.123 A 
BRANCH  28  38
ATOM     38  C   UNL     1      55.071   6.558  78.182  1.00  0.00     0.025 A 
ATOM     39  C   UNL     1      54.950   7.858  77.669  1.00  0.00     0.062 A 
ATOM     40  C   UNL     1      56.335   5.941  78.200  1.00  0.00     0.016 A 
ATOM     41  C   UNL     1      56.077   8.552  77.212  1.00  0.00     0.158 A 
ATOM     42  C   UNL     1      57.461   6.629  77.737  1.00  0.00     0.051 A 
ATOM     43  C   UNL     1      57.340   7.936  77.248  1.00  0.00     0.157 A 
BRANCH  41  44
ATOM     44  O   UNL     1      55.920   9.850  76.728  1.00  0.00    -0.504 OA
ATOM     45  H   UNL     1      55.011  10.228  76.489  1.00  0.00     0.293 HD
ENDBRANCH  41  44
BRANCH  43  46
ATOM     46  O   UNL     1      58.466   8.621  76.790  1.00  0.00    -0.504 OA
ATOM     47  H   UNL     1      58.971   9.269  77.381  1.00  0.00     0.293 HD
ENDBRANCH  43  46
ENDBRANCH  28  38
BRANCH  34  48
ATOM     48  O   UNL     1      49.896   3.597  80.936  1.00  0.00    -0.507 OA
ATOM     49  H   UNL     1      50.132   2.872  81.606  1.00  0.00     0.293 HD
ENDBRANCH  34  48
BRANCH  37  50
ATOM     50  O   UNL     1      49.765   2.096  76.353  1.00  0.00    -0.508 OA
ATOM     51  H   UNL     1      50.027   2.179  75.376  1.00  0.00     0.293 HD
ENDBRANCH  37  50
ENDBRANCH  26  27
ENDBRANCH   5  26
BRANCH   4  52
ATOM     52  O   UNL     1      55.674   6.156  84.007  1.00  0.00    -0.384 OA
ATOM     53  H   UNL     1      56.562   6.599  83.980  1.00  0.00     0.211 HD
ENDBRANCH   4  52
TORSDOF 16
ENDMDL
MODEL 9
REMARK VINA RESULT:    -5.684      2.466      6.684
REMARK INTER + INTRA:         -11.582
REMARK INTER:                  -9.569
REMARK INTRA:                  -2.013
REMARK UNBOUND:                -2.243
REMARK SMILES C[C@H]1O[C@@H](OC[C@H]2O[C@H](Oc3c(-c4ccc(O)c(O)c4)oc4cc(O)cc(O)c4c3=O)[C@@H](O)[C@H](O)[C@@H]2O)[C@@H](O)[C@@H](O)[C@@H]1O
REMARK SMILES IDX 7 1 36 2 34 3 32 4 9 5 8 6 6 7 5 8 4 9 1 10 2 11 42 12 3 13
REMARK SMILES IDX 40 14 38 15 43 16 41 18 39 20 37 22 35 24 10 26 11 27 12 28
REMARK SMILES IDX 30 29 21 30 29 31 31 32 22 33 27 34 23 35 26 36 24 37 13 38
REMARK SMILES IDX 20 39 14 40 18 41 15 42 16 43 19 44 17 46 28 48 25 50 33 52
REMARK H PARENT 43 17 41 19 39 21 37 23 35 25 19 45 17 47 28 49 25 51 33 53
REMARK Flexibility Score: inf
ROOT
ATOM      1  C   UNL     1      54.911   7.053  81.331  1.00  0.00     0.180 C 
ATOM      2  C   UNL     1      55.830   7.213  82.568  1.00  0.00     0.177 C 
ATOM      3  C   UNL     1      56.166   8.699  82.824  1.00  0.00     0.180 C 
ATOM      4  C   UNL     1      54.910   9.585  82.735  1.00  0.00     0.214 C 
ATOM      5  C   UNL     1      53.993   9.210  81.548  1.00  0.00     0.339 C 
ATOM      6  O   UNL     1      53.721   7.816  81.489  1.00  0.00    -0.332 OA
ENDROOT
BRANCH   1   7
ATOM      7  C   UNL     1      54.534   5.570  81.144  1.00  0.00     0.198 C 
BRANCH   7   8
ATOM      8  O   UNL     1      53.244   5.440  80.562  1.00  0.00    -0.347 OA
BRANCH   8   9
ATOM      9  C   UNL     1      52.891   4.086  80.321  1.00  0.00     0.281 C 
ATOM     10  C   UNL     1      53.845   5.392  77.647  1.00  0.00     0.041 C 
ATOM     11  C   UNL     1      53.289   4.000  77.957  1.00  0.00     0.150 C 
ATOM     12  C   UNL     1      51.780   3.869  77.643  1.00  0.00     0.174 C 
ATOM     13  O   UNL     1      53.654   3.537  79.255  1.00  0.00    -0.344 OA
ATOM     14  C   UNL     1      50.913   4.472  78.758  1.00  0.00     0.179 C 
ATOM     15  C   UNL     1      51.371   3.930  80.114  1.00  0.00     0.202 C 
BRANCH  12  16
ATOM     16  O   UNL     1      51.446   2.511  77.489  1.00  0.00    -0.388 OA
ATOM     17  H   UNL     1      51.636   2.070  78.359  1.00  0.00     0.211 HD
ENDBRANCH  12  16
BRANCH  14  18
ATOM     18  O   UNL     1      50.979   5.877  78.754  1.00  0.00    -0.387 OA
ATOM     19  H   UNL     1      51.100   6.158  77.810  1.00  0.00     0.211 HD
ENDBRANCH  14  18
BRANCH  15  20
ATOM     20  O   UNL     1      50.678   4.566  81.156  1.00  0.00    -0.385 OA
ATOM     21  H   UNL     1      50.931   4.097  81.994  1.00  0.00     0.211 HD
ENDBRANCH  15  20
ENDBRANCH   8   9
ENDBRANCH   7   8
ENDBRANCH   1   7
BRANCH   2  22
ATOM     22  O   UNL     1      57.026   6.498  82.378  1.00  0.00    -0.387 OA
ATOM     23  H   UNL     1      57.697   6.866  83.013  1.00  0.00     0.211 HD
ENDBRANCH   2  22
BRANCH   3  24
ATOM     24  O   UNL     1      57.177   9.176  81.962  1.00  0.00    -0.387 OA
ATOM     25  H   UNL     1      58.051   9.087  82.419  1.00  0.00     0.211 HD
ENDBRANCH   3  24
BRANCH   5  26
ATOM     26  O   UNL     1      54.555   9.692  80.321  1.00  0.00    -0.454 OA
BRANCH  26  27
ATOM     27  C   UNL     1      53.880   9.826  79.093  1.00  0.00     0.214 A 
ATOM     28  C   UNL     1      54.585   9.537  77.908  1.00  0.00     0.180 A 
ATOM     29  C   UNL     1      52.535  10.244  78.986  1.00  0.00     0.239 A 
ATOM     30  O   UNL     1      54.011   9.732  76.726  1.00  0.00    -0.452 OA
ATOM     31  C   UNL     1      51.959  10.428  77.712  1.00  0.00     0.111 A 
ATOM     32  O   UNL     1      51.842  10.421  80.023  1.00  0.00    -0.285 OA
ATOM     33  C   UNL     1      52.766  10.162  76.580  1.00  0.00     0.146 A 
ATOM     34  C   UNL     1      50.625  10.864  77.518  1.00  0.00     0.134 A 
ATOM     35  C   UNL     1      52.258  10.349  75.292  1.00  0.00     0.094 A 
ATOM     36  C   UNL     1      50.133  11.044  76.217  1.00  0.00     0.093 A 
ATOM     37  C   UNL     1      50.943  10.792  75.107  1.00  0.00     0.123 A 
BRANCH  28  38
ATOM     38  C   UNL     1      55.978   9.041  77.930  1.00  0.00     0.025 A 
ATOM     39  C   UNL     1      56.281   7.861  78.627  1.00  0.00     0.062 A 
ATOM     40  C   UNL     1      57.016   9.760  77.311  1.00  0.00     0.016 A 
ATOM     41  C   UNL     1      57.595   7.381  78.678  1.00  0.00     0.158 A 
ATOM     42  C   UNL     1      58.331   9.287  77.367  1.00  0.00     0.051 A 
ATOM     43  C   UNL     1      58.626   8.096  78.043  1.00  0.00     0.157 A 
BRANCH  41  44
ATOM     44  O   UNL     1      57.854   6.195  79.362  1.00  0.00    -0.504 OA
ATOM     45  H   UNL     1      58.544   6.141  80.102  1.00  0.00     0.293 HD
ENDBRANCH  41  44
BRANCH  43  46
ATOM     46  O   UNL     1      59.938   7.625  78.094  1.00  0.00    -0.504 OA
ATOM     47  H   UNL     1      60.662   8.001  77.496  1.00  0.00     0.293 HD
ENDBRANCH  43  46
ENDBRANCH  28  38
BRANCH  34  48
ATOM     48  O   UNL     1      49.786  11.125  78.603  1.00  0.00    -0.507 OA
ATOM     49  H   UNL     1      49.886  10.632  79.484  1.00  0.00     0.293 HD
ENDBRANCH  34  48
BRANCH  37  50
ATOM     50  O   UNL     1      50.431  10.984  73.824  1.00  0.00    -0.508 OA
ATOM     51  H   UNL     1      50.943  11.500  73.116  1.00  0.00     0.293 HD
ENDBRANCH  37  50
ENDBRANCH  26  27
ENDBRANCH   5  26
BRANCH   4  52
ATOM     52  O   UNL     1      54.196   9.557  83.948  1.00  0.00    -0.384 OA
ATOM     53  H   UNL     1      53.900   8.621  84.101  1.00  0.00     0.211 HD
ENDBRANCH   4  52
TORSDOF 16
ENDMDL
