MODEL 1
REMARK VINA RESULT:    -3.647      0.000      0.000
REMARK INTER + INTRA:          -4.645
REMARK INTER:                  -4.394
REMARK INTRA:                  -0.251
REMARK UNBOUND:                -0.251
REMARK SMILES NC(=O)C[C@H]([NH3+])C(=O)[O-]
REMARK SMILES IDX 4 1 5 2 6 3 7 7 8 8 9 9 2 10 3 11 1 12
REMARK H PARENT 6 4 6 5 6 6 1 13 1 14
REMARK Flexibility Score: inf
ROOT
ATOM      1  C   UNL     1      12.230  13.756  24.382  1.00  0.00     0.171 C 
ENDROOT
BRANCH   1   2
ATOM      2  C   UNL     1      10.935  14.390  24.925  1.00  0.00     0.237 C 
BRANCH   2   3
ATOM      3  N   UNL     1      10.944  15.841  24.707  1.00  0.00    -0.350 N 
ATOM      4  H   UNL     1       9.976  16.173  24.489  1.00  0.00     0.345 HD
ATOM      5  H   UNL     1      11.559  16.074  23.894  1.00  0.00     0.345 HD
ATOM      6  H   UNL     1      11.296  16.341  25.557  1.00  0.00     0.345 HD
ENDBRANCH   2   3
BRANCH   2   7
ATOM      7  C   UNL     1      10.763  14.089  26.392  1.00  0.00     0.100 C 
ATOM      8  O   UNL     1      10.219  13.015  26.758  1.00  0.00    -0.544 OA
ATOM      9  O   UNL     1      11.214  14.990  27.350  1.00  0.00    -0.544 OA
ENDBRANCH   2   7
ENDBRANCH   1   2
BRANCH   1  10
ATOM     10  C   UNL     1      12.273  13.783  22.881  1.00  0.00     0.223 C 
ATOM     11  O   UNL     1      11.342  14.338  22.237  1.00  0.00    -0.275 OA
ATOM     12  N   UNL     1      13.380  13.217  22.179  1.00  0.00    -0.369 N 
ATOM     13  H   UNL     1      14.166  12.768  22.700  1.00  0.00     0.159 HD
ATOM     14  H   UNL     1      13.414  13.249  21.136  1.00  0.00     0.159 HD
ENDBRANCH   1  10
TORSDOF 4
ENDMDL
MODEL 2
REMARK VINA RESULT:    -3.611     11.030     11.568
REMARK INTER + INTRA:          -4.601
REMARK INTER:                  -4.348
REMARK INTRA:                  -0.253
REMARK UNBOUND:                -0.251
REMARK SMILES NC(=O)C[C@H]([NH3+])C(=O)[O-]
REMARK SMILES IDX 4 1 5 2 6 3 7 7 8 8 9 9 2 10 3 11 1 12
REMARK H PARENT 6 4 6 5 6 6 1 13 1 14
REMARK Flexibility Score: inf
ROOT
ATOM      1  C   UNL     1      14.213  25.521  25.357  1.00  0.00     0.171 C 
ENDROOT
BRANCH   1   2
ATOM      2  C   UNL     1      13.050  25.181  24.404  1.00  0.00     0.237 C 
BRANCH   2   3
ATOM      3  N   UNL     1      12.308  26.396  24.046  1.00  0.00    -0.350 N 
ATOM      4  H   UNL     1      11.326  26.330  24.401  1.00  0.00     0.345 HD
ATOM      5  H   UNL     1      12.273  26.496  23.006  1.00  0.00     0.345 HD
ATOM      6  H   UNL     1      12.767  27.243  24.457  1.00  0.00     0.345 HD
ENDBRANCH   2   3
BRANCH   2   7
ATOM      7  C   UNL     1      12.119  24.174  25.029  1.00  0.00     0.100 C 
ATOM      8  O   UNL     1      11.499  23.352  24.305  1.00  0.00    -0.544 OA
ATOM      9  O   UNL     1      11.948  24.137  26.408  1.00  0.00    -0.544 OA
ENDBRANCH   2   7
ENDBRANCH   1   2
BRANCH   1  10
ATOM     10  C   UNL     1      15.351  26.177  24.630  1.00  0.00     0.223 C 
ATOM     11  O   UNL     1      15.154  27.245  23.992  1.00  0.00    -0.275 OA
ATOM     12  N   UNL     1      16.663  25.617  24.687  1.00  0.00    -0.369 N 
ATOM     13  H   UNL     1      16.844  24.740  25.225  1.00  0.00     0.159 HD
ATOM     14  H   UNL     1      17.456  26.082  24.192  1.00  0.00     0.159 HD
ENDBRANCH   1  10
TORSDOF 4
ENDMDL
MODEL 3
REMARK VINA RESULT:    -3.608      2.048      2.233
REMARK INTER + INTRA:          -4.598
REMARK INTER:                  -4.306
REMARK INTRA:                  -0.291
REMARK UNBOUND:                -0.251
REMARK SMILES NC(=O)C[C@H]([NH3+])C(=O)[O-]
REMARK SMILES IDX 4 1 5 2 6 3 7 7 8 8 9 9 2 10 3 11 1 12
REMARK H PARENT 6 4 6 5 6 6 1 13 1 14
REMARK Flexibility Score: inf
ROOT
ATOM      1  C   UNL     1      11.649  12.446  23.317  1.00  0.00     0.171 C 
ENDROOT
BRANCH   1   2
ATOM      2  C   UNL     1      10.894  13.790  23.326  1.00  0.00     0.237 C 
BRANCH   2   3
ATOM      3  N   UNL     1      11.279  14.602  22.166  1.00  0.00    -0.350 N 
ATOM      4  H   UNL     1      10.523  14.570  21.444  1.00  0.00     0.345 HD
ATOM      5  H   UNL     1      12.154  14.219  21.740  1.00  0.00     0.345 HD
ATOM      6  H   UNL     1      11.443  15.597  22.450  1.00  0.00     0.345 HD
ENDBRANCH   2   3
BRANCH   2   7
ATOM      7  C   UNL     1      11.162  14.549  24.600  1.00  0.00     0.100 C 
ATOM      8  O   UNL     1      11.796  14.002  25.541  1.00  0.00    -0.544 OA
ATOM      9  O   UNL     1      10.723  15.860  24.741  1.00  0.00    -0.544 OA
ENDBRANCH   2   7
ENDBRANCH   1   2
BRANCH   1  10
ATOM     10  C   UNL     1      12.785  12.455  22.335  1.00  0.00     0.223 C 
ATOM     11  O   UNL     1      13.869  13.022  22.636  1.00  0.00    -0.275 OA
ATOM     12  N   UNL     1      12.657  11.794  21.076  1.00  0.00    -0.369 N 
ATOM     13  H   UNL     1      11.770  11.307  20.819  1.00  0.00     0.159 HD
ATOM     14  H   UNL     1      13.453  11.790  20.400  1.00  0.00     0.159 HD
ENDBRANCH   1  10
TORSDOF 4
ENDMDL
MODEL 4
REMARK VINA RESULT:    -3.576     14.020     14.548
REMARK INTER + INTRA:          -4.559
REMARK INTER:                  -4.221
REMARK INTRA:                  -0.338
REMARK UNBOUND:                -0.251
REMARK SMILES NC(=O)C[C@H]([NH3+])C(=O)[O-]
REMARK SMILES IDX 4 1 5 2 6 3 7 7 8 8 9 9 2 10 3 11 1 12
REMARK H PARENT 6 4 6 5 6 6 1 13 1 14
REMARK Flexibility Score: inf
ROOT
ATOM      1  C   UNL     1      16.938  28.473  24.209  1.00  0.00     0.171 C 
ENDROOT
BRANCH   1   2
ATOM      2  C   UNL     1      17.520  27.228  24.906  1.00  0.00     0.237 C 
BRANCH   2   3
ATOM      3  N   UNL     1      16.835  26.015  24.445  1.00  0.00    -0.350 N 
ATOM      4  H   UNL     1      16.491  25.467  25.267  1.00  0.00     0.345 HD
ATOM      5  H   UNL     1      17.501  25.413  23.908  1.00  0.00     0.345 HD
ATOM      6  H   UNL     1      16.023  26.260  23.830  1.00  0.00     0.345 HD
ENDBRANCH   2   3
BRANCH   2   7
ATOM      7  C   UNL     1      17.406  27.347  26.404  1.00  0.00     0.100 C 
ATOM      8  O   UNL     1      18.405  27.691  27.089  1.00  0.00    -0.544 OA
ATOM      9  O   UNL     1      16.196  27.090  27.038  1.00  0.00    -0.544 OA
ENDBRANCH   2   7
ENDBRANCH   1   2
BRANCH   1  10
ATOM     10  C   UNL     1      15.679  28.150  23.457  1.00  0.00     0.223 C 
ATOM     11  O   UNL     1      14.659  27.757  24.084  1.00  0.00    -0.275 OA
ATOM     12  N   UNL     1      15.619  28.321  22.041  1.00  0.00    -0.369 N 
ATOM     13  H   UNL     1      16.452  28.660  21.511  1.00  0.00     0.159 HD
ATOM     14  H   UNL     1      14.738  28.108  21.522  1.00  0.00     0.159 HD
ENDBRANCH   1  10
TORSDOF 4
ENDMDL
MODEL 5
REMARK VINA RESULT:    -3.562     13.408     13.893
REMARK INTER + INTRA:          -4.542
REMARK INTER:                  -4.113
REMARK INTRA:                  -0.428
REMARK UNBOUND:                -0.251
REMARK SMILES NC(=O)C[C@H]([NH3+])C(=O)[O-]
REMARK SMILES IDX 4 1 5 2 6 3 7 7 8 8 9 9 2 10 3 11 1 12
REMARK H PARENT 6 4 6 5 6 6 1 13 1 14
REMARK Flexibility Score: inf
ROOT
ATOM      1  C   UNL     1      15.796  28.225  24.716  1.00  0.00     0.171 C 
ENDROOT
BRANCH   1   2
ATOM      2  C   UNL     1      15.521  26.733  24.988  1.00  0.00     0.237 C 
BRANCH   2   3
ATOM      3  N   UNL     1      16.568  25.900  24.384  1.00  0.00    -0.350 N 
ATOM      4  H   UNL     1      16.837  26.290  23.451  1.00  0.00     0.345 HD
ATOM      5  H   UNL     1      16.209  24.929  24.240  1.00  0.00     0.345 HD
ATOM      6  H   UNL     1      17.414  25.865  25.000  1.00  0.00     0.345 HD
ENDBRANCH   2   3
BRANCH   2   7
ATOM      7  C   UNL     1      14.170  26.329  24.459  1.00  0.00     0.100 C 
ATOM      8  O   UNL     1      13.887  25.111  24.311  1.00  0.00    -0.544 OA
ATOM      9  O   UNL     1      13.223  27.296  24.140  1.00  0.00    -0.544 OA
ENDBRANCH   2   7
ENDBRANCH   1   2
BRANCH   1  10
ATOM     10  C   UNL     1      16.381  28.440  23.349  1.00  0.00     0.223 C 
ATOM     11  O   UNL     1      17.627  28.559  23.213  1.00  0.00    -0.275 OA
ATOM     12  N   UNL     1      15.535  28.475  22.199  1.00  0.00    -0.369 N 
ATOM     13  H   UNL     1      14.501  28.362  22.296  1.00  0.00     0.159 HD
ATOM     14  H   UNL     1      15.945  28.611  21.248  1.00  0.00     0.159 HD
ENDBRANCH   1  10
TORSDOF 4
ENDMDL
MODEL 6
REMARK VINA RESULT:    -3.557      2.158      3.954
REMARK INTER + INTRA:          -4.536
REMARK INTER:                  -4.288
REMARK INTRA:                  -0.249
REMARK UNBOUND:                -0.251
REMARK SMILES NC(=O)C[C@H]([NH3+])C(=O)[O-]
REMARK SMILES IDX 4 1 5 2 6 3 7 7 8 8 9 9 2 10 3 11 1 12
REMARK H PARENT 6 4 6 5 6 6 1 13 1 14
REMARK Flexibility Score: inf
ROOT
ATOM      1  C   UNL     1      11.401  13.601  24.642  1.00  0.00     0.171 C 
ENDROOT
BRANCH   1   2
ATOM      2  C   UNL     1      12.242  13.981  23.408  1.00  0.00     0.237 C 
BRANCH   2   3
ATOM      3  N   UNL     1      11.379  14.487  22.334  1.00  0.00    -0.350 N 
ATOM      4  H   UNL     1      11.868  14.398  21.414  1.00  0.00     0.345 HD
ATOM      5  H   UNL     1      11.169  15.499  22.495  1.00  0.00     0.345 HD
ATOM      6  H   UNL     1      10.480  13.951  22.300  1.00  0.00     0.345 HD
ENDBRANCH   2   3
BRANCH   2   7
ATOM      7  C   UNL     1      13.041  12.801  22.917  1.00  0.00     0.100 C 
ATOM      8  O   UNL     1      12.787  12.288  21.795  1.00  0.00    -0.544 OA
ATOM      9  O   UNL     1      14.069  12.278  23.692  1.00  0.00    -0.544 OA
ENDBRANCH   2   7
ENDBRANCH   1   2
BRANCH   1  10
ATOM     10  C   UNL     1      11.182  14.779  25.547  1.00  0.00     0.223 C 
ATOM     11  O   UNL     1      10.707  15.848  25.081  1.00  0.00    -0.275 OA
ATOM     12  N   UNL     1      11.475  14.682  26.941  1.00  0.00    -0.369 N 
ATOM     13  H   UNL     1      11.855  13.797  27.345  1.00  0.00     0.159 HD
ATOM     14  H   UNL     1      11.309  15.498  27.572  1.00  0.00     0.159 HD
ENDBRANCH   1  10
TORSDOF 4
ENDMDL
MODEL 7
REMARK VINA RESULT:    -3.455     14.614     15.199
REMARK INTER + INTRA:          -4.413
REMARK INTER:                  -3.925
REMARK INTRA:                  -0.488
REMARK UNBOUND:                -0.251
REMARK SMILES NC(=O)C[C@H]([NH3+])C(=O)[O-]
REMARK SMILES IDX 4 1 5 2 6 3 7 7 8 8 9 9 2 10 3 11 1 12
REMARK H PARENT 6 4 6 5 6 6 1 13 1 14
REMARK Flexibility Score: inf
ROOT
ATOM      1  C   UNL     1      15.767  28.196  24.828  1.00  0.00     0.171 C 
ENDROOT
BRANCH   1   2
ATOM      2  C   UNL     1      16.053  29.050  23.577  1.00  0.00     0.237 C 
BRANCH   2   3
ATOM      3  N   UNL     1      15.636  28.337  22.364  1.00  0.00    -0.350 N 
ATOM      4  H   UNL     1      16.185  28.682  21.543  1.00  0.00     0.345 HD
ATOM      5  H   UNL     1      14.623  28.518  22.177  1.00  0.00     0.345 HD
ATOM      6  H   UNL     1      15.786  27.307  22.470  1.00  0.00     0.345 HD
ENDBRANCH   2   3
BRANCH   2   7
ATOM      7  C   UNL     1      17.515  29.404  23.491  1.00  0.00     0.100 C 
ATOM      8  O   UNL     1      17.869  30.518  23.022  1.00  0.00    -0.544 OA
ATOM      9  O   UNL     1      18.482  28.510  23.938  1.00  0.00    -0.544 OA
ENDBRANCH   2   7
ENDBRANCH   1   2
BRANCH   1  10
ATOM     10  C   UNL     1      15.686  26.734  24.495  1.00  0.00     0.223 C 
ATOM     11  O   UNL     1      14.579  26.225  24.175  1.00  0.00    -0.275 OA
ATOM     12  N   UNL     1      16.862  25.926  24.504  1.00  0.00    -0.369 N 
ATOM     13  H   UNL     1      17.789  26.338  24.752  1.00  0.00     0.159 HD
ATOM     14  H   UNL     1      16.806  24.912  24.259  1.00  0.00     0.159 HD
ENDBRANCH   1  10
TORSDOF 4
ENDMDL
MODEL 8
REMARK VINA RESULT:    -3.405     10.445     11.539
REMARK INTER + INTRA:          -4.353
REMARK INTER:                  -4.105
REMARK INTRA:                  -0.248
REMARK UNBOUND:                -0.251
REMARK SMILES NC(=O)C[C@H]([NH3+])C(=O)[O-]
REMARK SMILES IDX 4 1 5 2 6 3 7 7 8 8 9 9 2 10 3 11 1 12
REMARK H PARENT 6 4 6 5 6 6 1 13 1 14
REMARK Flexibility Score: inf
ROOT
ATOM      1  C   UNL     1      13.303  24.718  27.065  1.00  0.00     0.171 C 
ENDROOT
BRANCH   1   2
ATOM      2  C   UNL     1      12.030  24.659  26.198  1.00  0.00     0.237 C 
BRANCH   2   3
ATOM      3  N   UNL     1      11.119  23.621  26.694  1.00  0.00    -0.350 N 
ATOM      4  H   UNL     1      10.632  23.162  25.889  1.00  0.00     0.345 HD
ATOM      5  H   UNL     1      10.393  24.052  27.311  1.00  0.00     0.345 HD
ATOM      6  H   UNL     1      11.644  22.896  27.237  1.00  0.00     0.345 HD
ENDBRANCH   2   3
BRANCH   2   7
ATOM      7  C   UNL     1      12.374  24.398  24.754  1.00  0.00     0.100 C 
ATOM      8  O   UNL     1      11.666  23.617  24.067  1.00  0.00    -0.544 OA
ATOM      9  O   UNL     1      13.468  25.025  24.169  1.00  0.00    -0.544 OA
ENDBRANCH   2   7
ENDBRANCH   1   2
BRANCH   1  10
ATOM     10  C   UNL     1      13.072  25.482  28.337  1.00  0.00     0.223 C 
ATOM     11  O   UNL     1      11.990  26.105  28.506  1.00  0.00    -0.275 OA
ATOM     12  N   UNL     1      14.055  25.476  29.372  1.00  0.00    -0.369 N 
ATOM     13  H   UNL     1      14.950  24.950  29.252  1.00  0.00     0.159 HD
ATOM     14  H   UNL     1      13.887  25.997  30.261  1.00  0.00     0.159 HD
ENDBRANCH   1  10
TORSDOF 4
ENDMDL
MODEL 9
REMARK VINA RESULT:    -3.371     14.174     14.816
REMARK INTER + INTRA:          -4.311
REMARK INTER:                  -3.870
REMARK INTRA:                  -0.442
REMARK UNBOUND:                -0.251
REMARK SMILES NC(=O)C[C@H]([NH3+])C(=O)[O-]
REMARK SMILES IDX 4 1 5 2 6 3 7 7 8 8 9 9 2 10 3 11 1 12
REMARK H PARENT 6 4 6 5 6 6 1 13 1 14
REMARK Flexibility Score: inf
ROOT
ATOM      1  C   UNL     1      14.761  28.918  24.398  1.00  0.00     0.171 C 
ENDROOT
BRANCH   1   2
ATOM      2  C   UNL     1      15.971  28.852  23.446  1.00  0.00     0.237 C 
BRANCH   2   3
ATOM      3  N   UNL     1      15.542  28.464  22.097  1.00  0.00    -0.350 N 
ATOM      4  H   UNL     1      14.663  27.899  22.153  1.00  0.00     0.345 HD
ATOM      5  H   UNL     1      16.280  27.876  21.645  1.00  0.00     0.345 HD
ATOM      6  H   UNL     1      15.369  29.311  21.507  1.00  0.00     0.345 HD
ENDBRANCH   2   3
BRANCH   2   7
ATOM      7  C   UNL     1      17.006  27.882  23.957  1.00  0.00     0.100 C 
ATOM      8  O   UNL     1      18.185  28.269  24.169  1.00  0.00    -0.544 OA
ATOM      9  O   UNL     1      16.663  26.559  24.208  1.00  0.00    -0.544 OA
ENDBRANCH   2   7
ENDBRANCH   1   2
BRANCH   1  10
ATOM     10  C   UNL     1      13.596  28.132  23.870  1.00  0.00     0.223 C 
ATOM     11  O   UNL     1      12.669  28.722  23.255  1.00  0.00    -0.275 OA
ATOM     12  N   UNL     1      13.551  26.714  24.028  1.00  0.00    -0.369 N 
ATOM     13  H   UNL     1      14.321  26.209  24.523  1.00  0.00     0.159 HD
ATOM     14  H   UNL     1      12.747  26.167  23.649  1.00  0.00     0.159 HD
ENDBRANCH   1  10
TORSDOF 4
ENDMDL
