MODEL 1
REMARK VINA RESULT:    -3.454      0.000      0.000
REMARK INTER + INTRA:          -8.743
REMARK INTER:                  -6.685
REMARK INTRA:                  -2.058
REMARK UNBOUND:                -2.058
REMARK SMILES CCCCCCCCCCCCCCCCCC(=O)[O-]
REMARK SMILES IDX 10 1 11 2 12 3 13 4 14 5 15 6 16 7 17 8 18 9 19 10 20 11
REMARK SMILES IDX 9 12 8 13 7 14 6 15 5 16 4 17 3 18 2 19 1 20
REMARK H PARENT
REMARK Flexibility Score: inf
ROOT
ATOM      1  C   UNL     1     137.507 150.663 120.602  1.00  0.00     0.000 C 
ENDROOT
BRANCH   1   2
ATOM      2  C   UNL     1     138.797 151.219 119.961  1.00  0.00     0.000 C 
BRANCH   2   3
ATOM      3  C   UNL     1     140.090 150.633 120.558  1.00  0.00     0.000 C 
BRANCH   3   4
ATOM      4  C   UNL     1     141.177 150.265 119.529  1.00  0.00     0.000 C 
BRANCH   4   5
ATOM      5  C   UNL     1     142.470 151.096 119.625  1.00  0.00     0.000 C 
BRANCH   5   6
ATOM      6  C   UNL     1     142.373 152.238 120.646  1.00  0.00     0.000 C 
BRANCH   6   7
ATOM      7  C   UNL     1     142.983 153.531 120.085  1.00  0.00     0.006 C 
BRANCH   7   8
ATOM      8  C   UNL     1     142.139 154.767 120.424  1.00  0.00     0.053 C 
BRANCH   8   9
ATOM      9  C   UNL     1     140.672 154.484 120.321  1.00  0.00     0.041 C 
ATOM     10  O   UNL     1     140.116 154.421 119.192  1.00  0.00    -0.550 OA
ATOM     11  O   UNL     1     139.925 154.255 121.469  1.00  0.00    -0.550 OA
ENDBRANCH   8   9
ENDBRANCH   7   8
ENDBRANCH   6   7
ENDBRANCH   5   6
ENDBRANCH   4   5
ENDBRANCH   3   4
ENDBRANCH   2   3
ENDBRANCH   1   2
BRANCH   1  12
ATOM     12  C   UNL     1     137.796 149.653 121.725  1.00  0.00     0.000 C 
BRANCH  12  13
ATOM     13  C   UNL     1     137.433 148.212 121.332  1.00  0.00    -0.000 C 
BRANCH  13  14
ATOM     14  C   UNL     1     137.015 148.089 119.860  1.00  0.00    -0.000 C 
BRANCH  14  15
ATOM     15  C   UNL     1     137.822 146.995 119.150  1.00  0.00    -0.000 C 
BRANCH  15  16
ATOM     16  C   UNL     1     139.281 146.991 119.623  1.00  0.00    -0.000 C 
BRANCH  16  17
ATOM     17  C   UNL     1     139.728 145.579 120.018  1.00  0.00    -0.000 C 
BRANCH  17  18
ATOM     18  C   UNL     1     138.547 144.597 119.976  1.00  0.00    -0.000 C 
BRANCH  18  19
ATOM     19  C   UNL     1     138.405 143.789 121.276  1.00  0.00    -0.003 C 
ATOM     20  C   UNL     1     137.981 144.652 122.464  1.00  0.00     0.004 C 
ENDBRANCH  18  19
ENDBRANCH  17  18
ENDBRANCH  16  17
ENDBRANCH  15  16
ENDBRANCH  14  15
ENDBRANCH  13  14
ENDBRANCH  12  13
ENDBRANCH   1  12
TORSDOF 16
ENDMDL
MODEL 2
REMARK VINA RESULT:    -3.370      3.399      7.532
REMARK INTER + INTRA:          -8.581
REMARK INTER:                  -6.366
REMARK INTRA:                  -2.215
REMARK UNBOUND:                -2.058
REMARK SMILES CCCCCCCCCCCCCCCCCC(=O)[O-]
REMARK SMILES IDX 10 1 11 2 12 3 13 4 14 5 15 6 16 7 17 8 18 9 19 10 20 11
REMARK SMILES IDX 9 12 8 13 7 14 6 15 5 16 4 17 3 18 2 19 1 20
REMARK H PARENT
REMARK Flexibility Score: inf
ROOT
ATOM      1  C   UNL     1     141.792 151.908 120.918  1.00  0.00     0.000 C 
ENDROOT
BRANCH   1   2
ATOM      2  C   UNL     1     142.514 151.226 119.737  1.00  0.00     0.000 C 
BRANCH   2   3
ATOM      3  C   UNL     1     141.664 150.160 119.020  1.00  0.00     0.000 C 
BRANCH   3   4
ATOM      4  C   UNL     1     140.151 150.448 118.979  1.00  0.00     0.000 C 
BRANCH   4   5
ATOM      5  C   UNL     1     139.250 149.204 119.080  1.00  0.00     0.000 C 
BRANCH   5   6
ATOM      6  C   UNL     1     140.020 147.940 119.487  1.00  0.00     0.000 C 
BRANCH   6   7
ATOM      7  C   UNL     1     139.123 146.695 119.394  1.00  0.00     0.006 C 
BRANCH   7   8
ATOM      8  C   UNL     1     139.706 145.500 120.160  1.00  0.00     0.053 C 
BRANCH   8   9
ATOM      9  C   UNL     1     138.671 144.821 121.002  1.00  0.00     0.041 C 
ATOM     10  O   UNL     1     137.883 143.984 120.485  1.00  0.00    -0.550 OA
ATOM     11  O   UNL     1     138.599 145.084 122.364  1.00  0.00    -0.550 OA
ENDBRANCH   8   9
ENDBRANCH   7   8
ENDBRANCH   6   7
ENDBRANCH   5   6
ENDBRANCH   4   5
ENDBRANCH   3   4
ENDBRANCH   2   3
ENDBRANCH   1   2
BRANCH   1  12
ATOM     12  C   UNL     1     142.282 153.347 121.157  1.00  0.00     0.000 C 
BRANCH  12  13
ATOM     13  C   UNL     1     142.751 154.033 119.864  1.00  0.00    -0.000 C 
BRANCH  13  14
ATOM     14  C   UNL     1     141.792 155.139 119.400  1.00  0.00    -0.000 C 
BRANCH  14  15
ATOM     15  C   UNL     1     140.756 155.458 120.484  1.00  0.00    -0.000 C 
BRANCH  15  16
ATOM     16  C   UNL     1     139.330 155.367 119.926  1.00  0.00    -0.000 C 
BRANCH  16  17
ATOM     17  C   UNL     1     139.065 153.986 119.315  1.00  0.00    -0.000 C 
BRANCH  17  18
ATOM     18  C   UNL     1     137.916 153.274 120.044  1.00  0.00    -0.000 C 
BRANCH  18  19
ATOM     19  C   UNL     1     138.270 152.917 121.497  1.00  0.00    -0.003 C 
ATOM     20  C   UNL     1     138.011 151.446 121.823  1.00  0.00     0.004 C 
ENDBRANCH  18  19
ENDBRANCH  17  18
ENDBRANCH  16  17
ENDBRANCH  15  16
ENDBRANCH  14  15
ENDBRANCH  13  14
ENDBRANCH  12  13
ENDBRANCH   1  12
TORSDOF 16
ENDMDL
MODEL 3
REMARK VINA RESULT:    -3.333      1.653      2.566
REMARK INTER + INTRA:          -8.509
REMARK INTER:                  -6.880
REMARK INTRA:                  -1.630
REMARK UNBOUND:                -2.058
REMARK SMILES CCCCCCCCCCCCCCCCCC(=O)[O-]
REMARK SMILES IDX 10 1 11 2 12 3 13 4 14 5 15 6 16 7 17 8 18 9 19 10 20 11
REMARK SMILES IDX 9 12 8 13 7 14 6 15 5 16 4 17 3 18 2 19 1 20
REMARK H PARENT
REMARK Flexibility Score: inf
ROOT
ATOM      1  C   UNL     1     138.014 150.071 122.263  1.00  0.00     0.000 C 
ENDROOT
BRANCH   1   2
ATOM      2  C   UNL     1     137.116 151.269 122.641  1.00  0.00     0.000 C 
BRANCH   2   3
ATOM      3  C   UNL     1     137.542 152.597 121.986  1.00  0.00     0.000 C 
BRANCH   3   4
ATOM      4  C   UNL     1     138.860 152.541 121.190  1.00  0.00     0.000 C 
BRANCH   4   5
ATOM      5  C   UNL     1     138.724 152.849 119.687  1.00  0.00     0.000 C 
BRANCH   5   6
ATOM      6  C   UNL     1     139.472 154.123 119.269  1.00  0.00     0.000 C 
BRANCH   6   7
ATOM      7  C   UNL     1     140.516 154.520 120.324  1.00  0.00     0.006 C 
BRANCH   7   8
ATOM      8  C   UNL     1     141.894 154.789 119.706  1.00  0.00     0.053 C 
BRANCH   8   9
ATOM      9  C   UNL     1     142.882 153.722 120.063  1.00  0.00     0.041 C 
ATOM     10  O   UNL     1     142.482 152.603 120.484  1.00  0.00    -0.550 OA
ATOM     11  O   UNL     1     144.243 153.949 119.899  1.00  0.00    -0.550 OA
ENDBRANCH   8   9
ENDBRANCH   7   8
ENDBRANCH   6   7
ENDBRANCH   5   6
ENDBRANCH   4   5
ENDBRANCH   3   4
ENDBRANCH   2   3
ENDBRANCH   1   2
BRANCH   1  12
ATOM     12  C   UNL     1     137.286 149.045 121.377  1.00  0.00     0.000 C 
BRANCH  12  13
ATOM     13  C   UNL     1     137.860 148.981 119.953  1.00  0.00    -0.000 C 
BRANCH  13  14
ATOM     14  C   UNL     1     139.386 149.145 119.922  1.00  0.00    -0.000 C 
BRANCH  14  15
ATOM     15  C   UNL     1     140.073 147.826 119.550  1.00  0.00    -0.000 C 
BRANCH  15  16
ATOM     16  C   UNL     1     139.040 146.725 119.277  1.00  0.00    -0.000 C 
BRANCH  16  17
ATOM     17  C   UNL     1     139.576 145.352 119.698  1.00  0.00    -0.000 C 
BRANCH  17  18
ATOM     18  C   UNL     1     138.428 144.351 119.896  1.00  0.00    -0.000 C 
BRANCH  18  19
ATOM     19  C   UNL     1     138.375 143.789 121.326  1.00  0.00    -0.003 C 
ATOM     20  C   UNL     1     138.143 144.873 122.378  1.00  0.00     0.004 C 
ENDBRANCH  18  19
ENDBRANCH  17  18
ENDBRANCH  16  17
ENDBRANCH  15  16
ENDBRANCH  14  15
ENDBRANCH  13  14
ENDBRANCH  12  13
ENDBRANCH   1  12
TORSDOF 16
ENDMDL
MODEL 4
REMARK VINA RESULT:    -3.276      3.597      8.156
REMARK INTER + INTRA:          -8.398
REMARK INTER:                  -6.942
REMARK INTRA:                  -1.456
REMARK UNBOUND:                -2.058
REMARK SMILES CCCCCCCCCCCCCCCCCC(=O)[O-]
REMARK SMILES IDX 10 1 11 2 12 3 13 4 14 5 15 6 16 7 17 8 18 9 19 10 20 11
REMARK SMILES IDX 9 12 8 13 7 14 6 15 5 16 4 17 3 18 2 19 1 20
REMARK H PARENT
REMARK Flexibility Score: inf
ROOT
ATOM      1  C   UNL     1     139.454 152.061 119.866  1.00  0.00     0.000 C 
ENDROOT
BRANCH   1   2
ATOM      2  C   UNL     1     140.409 150.959 120.374  1.00  0.00     0.000 C 
BRANCH   2   3
ATOM      3  C   UNL     1     141.015 150.095 119.252  1.00  0.00     0.000 C 
BRANCH   3   4
ATOM      4  C   UNL     1     140.554 148.625 119.238  1.00  0.00     0.000 C 
BRANCH   4   5
ATOM      5  C   UNL     1     139.177 148.369 119.878  1.00  0.00     0.000 C 
BRANCH   5   6
ATOM      6  C   UNL     1     138.366 147.293 119.141  1.00  0.00     0.000 C 
BRANCH   6   7
ATOM      7  C   UNL     1     137.786 146.269 120.129  1.00  0.00     0.006 C 
BRANCH   7   8
ATOM      8  C   UNL     1     138.882 145.489 120.867  1.00  0.00     0.053 C 
BRANCH   8   9
ATOM      9  C   UNL     1     138.306 144.480 121.813  1.00  0.00     0.041 C 
ATOM     10  O   UNL     1     137.621 144.857 122.801  1.00  0.00    -0.550 OA
ATOM     11  O   UNL     1     138.496 143.123 121.584  1.00  0.00    -0.550 OA
ENDBRANCH   8   9
ENDBRANCH   7   8
ENDBRANCH   6   7
ENDBRANCH   5   6
ENDBRANCH   4   5
ENDBRANCH   3   4
ENDBRANCH   2   3
ENDBRANCH   1   2
BRANCH   1  12
ATOM     12  C   UNL     1     138.368 152.420 120.894  1.00  0.00     0.000 C 
BRANCH  12  13
ATOM     13  C   UNL     1     138.110 153.933 120.978  1.00  0.00    -0.000 C 
BRANCH  13  14
ATOM     14  C   UNL     1     139.211 154.679 121.744  1.00  0.00    -0.000 C 
BRANCH  14  15
ATOM     15  C   UNL     1     139.486 156.050 121.115  1.00  0.00    -0.000 C 
BRANCH  15  16
ATOM     16  C   UNL     1     140.988 156.260 120.886  1.00  0.00    -0.000 C 
BRANCH  16  17
ATOM     17  C   UNL     1     141.572 155.144 120.010  1.00  0.00    -0.000 C 
BRANCH  17  18
ATOM     18  C   UNL     1     142.741 154.445 120.718  1.00  0.00    -0.000 C 
BRANCH  18  19
ATOM     19  C   UNL     1     143.298 153.262 119.910  1.00  0.00    -0.003 C 
ATOM     20  C   UNL     1     144.603 153.601 119.189  1.00  0.00     0.004 C 
ENDBRANCH  18  19
ENDBRANCH  17  18
ENDBRANCH  16  17
ENDBRANCH  15  16
ENDBRANCH  14  15
ENDBRANCH  13  14
ENDBRANCH  12  13
ENDBRANCH   1  12
TORSDOF 16
ENDMDL
MODEL 5
REMARK VINA RESULT:    -3.236      1.829      3.069
REMARK INTER + INTRA:          -8.321
REMARK INTER:                  -6.778
REMARK INTRA:                  -1.543
REMARK UNBOUND:                -2.058
REMARK SMILES CCCCCCCCCCCCCCCCCC(=O)[O-]
REMARK SMILES IDX 10 1 11 2 12 3 13 4 14 5 15 6 16 7 17 8 18 9 19 10 20 11
REMARK SMILES IDX 9 12 8 13 7 14 6 15 5 16 4 17 3 18 2 19 1 20
REMARK H PARENT
REMARK Flexibility Score: inf
ROOT
ATOM      1  C   UNL     1     139.378 152.249 120.244  1.00  0.00     0.000 C 
ENDROOT
BRANCH   1   2
ATOM      2  C   UNL     1     139.175 152.958 118.887  1.00  0.00     0.000 C 
BRANCH   2   3
ATOM      3  C   UNL     1     138.578 154.373 119.008  1.00  0.00     0.000 C 
BRANCH   3   4
ATOM      4  C   UNL     1     138.762 155.046 120.382  1.00  0.00     0.000 C 
BRANCH   4   5
ATOM      5  C   UNL     1     140.113 155.759 120.580  1.00  0.00     0.000 C 
BRANCH   5   6
ATOM      6  C   UNL     1     140.805 155.373 121.895  1.00  0.00     0.000 C 
BRANCH   6   7
ATOM      7  C   UNL     1     142.116 154.618 121.627  1.00  0.00     0.006 C 
BRANCH   7   8
ATOM      8  C   UNL     1     142.440 154.531 120.130  1.00  0.00     0.053 C 
BRANCH   8   9
ATOM      9  C   UNL     1     143.317 153.358 119.818  1.00  0.00     0.041 C 
ATOM     10  O   UNL     1     142.889 152.184 119.988  1.00  0.00    -0.550 OA
ATOM     11  O   UNL     1     144.593 153.557 119.307  1.00  0.00    -0.550 OA
ENDBRANCH   8   9
ENDBRANCH   7   8
ENDBRANCH   6   7
ENDBRANCH   5   6
ENDBRANCH   4   5
ENDBRANCH   3   4
ENDBRANCH   2   3
ENDBRANCH   1   2
BRANCH   1  12
ATOM     12  C   UNL     1     138.184 151.357 120.626  1.00  0.00     0.000 C 
BRANCH  12  13
ATOM     13  C   UNL     1     138.453 149.866 120.364  1.00  0.00    -0.000 C 
BRANCH  13  14
ATOM     14  C   UNL     1     139.919 149.584 120.006  1.00  0.00    -0.000 C 
BRANCH  14  15
ATOM     15  C   UNL     1     140.082 148.171 119.435  1.00  0.00    -0.000 C 
BRANCH  15  16
ATOM     16  C   UNL     1     138.725 147.467 119.309  1.00  0.00    -0.000 C 
BRANCH  16  17
ATOM     17  C   UNL     1     138.905 145.971 119.026  1.00  0.00    -0.000 C 
BRANCH  17  18
ATOM     18  C   UNL     1     139.578 145.264 120.212  1.00  0.00    -0.000 C 
BRANCH  18  19
ATOM     19  C   UNL     1     138.576 144.867 121.308  1.00  0.00    -0.003 C 
ATOM     20  C   UNL     1     138.378 143.354 121.407  1.00  0.00     0.004 C 
ENDBRANCH  18  19
ENDBRANCH  17  18
ENDBRANCH  16  17
ENDBRANCH  15  16
ENDBRANCH  14  15
ENDBRANCH  13  14
ENDBRANCH  12  13
ENDBRANCH   1  12
TORSDOF 16
ENDMDL
MODEL 6
REMARK VINA RESULT:    -3.219      2.120      3.890
REMARK INTER + INTRA:          -8.288
REMARK INTER:                  -6.917
REMARK INTRA:                  -1.371
REMARK UNBOUND:                -2.058
REMARK SMILES CCCCCCCCCCCCCCCCCC(=O)[O-]
REMARK SMILES IDX 10 1 11 2 12 3 13 4 14 5 15 6 16 7 17 8 18 9 19 10 20 11
REMARK SMILES IDX 9 12 8 13 7 14 6 15 5 16 4 17 3 18 2 19 1 20
REMARK H PARENT
REMARK Flexibility Score: inf
ROOT
ATOM      1  C   UNL     1     142.152 152.012 120.635  1.00  0.00     0.000 C 
ENDROOT
BRANCH   1   2
ATOM      2  C   UNL     1     142.784 153.379 120.296  1.00  0.00     0.000 C 
BRANCH   2   3
ATOM      3  C   UNL     1     141.753 154.485 120.002  1.00  0.00     0.000 C 
BRANCH   3   4
ATOM      4  C   UNL     1     140.287 154.016 119.947  1.00  0.00     0.000 C 
BRANCH   4   5
ATOM      5  C   UNL     1     139.472 154.278 121.227  1.00  0.00     0.000 C 
BRANCH   5   6
ATOM      6  C   UNL     1     139.869 155.584 121.931  1.00  0.00     0.000 C 
BRANCH   6   7
ATOM      7  C   UNL     1     139.056 156.770 121.390  1.00  0.00     0.006 C 
BRANCH   7   8
ATOM      8  C   UNL     1     139.726 158.118 121.688  1.00  0.00     0.053 C 
BRANCH   8   9
ATOM      9  C   UNL     1     141.083 158.215 121.061  1.00  0.00     0.041 C 
ATOM     10  O   UNL     1     142.104 158.379 121.782  1.00  0.00    -0.550 OA
ATOM     11  O   UNL     1     141.226 158.090 119.685  1.00  0.00    -0.550 OA
ENDBRANCH   8   9
ENDBRANCH   7   8
ENDBRANCH   6   7
ENDBRANCH   5   6
ENDBRANCH   4   5
ENDBRANCH   3   4
ENDBRANCH   2   3
ENDBRANCH   1   2
BRANCH   1  12
ATOM     12  C   UNL     1     142.510 150.926 119.606  1.00  0.00     0.000 C 
BRANCH  12  13
ATOM     13  C   UNL     1     141.278 150.146 119.117  1.00  0.00    -0.000 C 
BRANCH  13  14
ATOM     14  C   UNL     1     140.104 150.217 120.104  1.00  0.00    -0.000 C 
BRANCH  14  15
ATOM     15  C   UNL     1     139.159 149.024 119.919  1.00  0.00    -0.000 C 
BRANCH  15  16
ATOM     16  C   UNL     1     139.932 147.770 119.490  1.00  0.00    -0.000 C 
BRANCH  16  17
ATOM     17  C   UNL     1     138.995 146.564 119.356  1.00  0.00    -0.000 C 
BRANCH  17  18
ATOM     18  C   UNL     1     139.577 145.334 120.068  1.00  0.00    -0.000 C 
BRANCH  18  19
ATOM     19  C   UNL     1     138.505 144.515 120.803  1.00  0.00    -0.003 C 
ATOM     20  C   UNL     1     138.320 144.953 122.256  1.00  0.00     0.004 C 
ENDBRANCH  18  19
ENDBRANCH  17  18
ENDBRANCH  16  17
ENDBRANCH  15  16
ENDBRANCH  14  15
ENDBRANCH  13  14
ENDBRANCH  12  13
ENDBRANCH   1  12
TORSDOF 16
ENDMDL
MODEL 7
REMARK VINA RESULT:    -3.172      1.667      3.110
REMARK INTER + INTRA:          -8.197
REMARK INTER:                  -6.217
REMARK INTRA:                  -1.980
REMARK UNBOUND:                -2.058
REMARK SMILES CCCCCCCCCCCCCCCCCC(=O)[O-]
REMARK SMILES IDX 10 1 11 2 12 3 13 4 14 5 15 6 16 7 17 8 18 9 19 10 20 11
REMARK SMILES IDX 9 12 8 13 7 14 6 15 5 16 4 17 3 18 2 19 1 20
REMARK H PARENT
REMARK Flexibility Score: inf
ROOT
ATOM      1  C   UNL     1     141.564 150.785 119.810  1.00  0.00     0.000 C 
ENDROOT
BRANCH   1   2
ATOM      2  C   UNL     1     140.412 151.710 120.259  1.00  0.00     0.000 C 
BRANCH   2   3
ATOM      3  C   UNL     1     139.447 152.099 119.122  1.00  0.00     0.000 C 
BRANCH   3   4
ATOM      4  C   UNL     1     138.356 153.115 119.509  1.00  0.00     0.000 C 
BRANCH   4   5
ATOM      5  C   UNL     1     138.748 154.593 119.319  1.00  0.00     0.000 C 
BRANCH   5   6
ATOM      6  C   UNL     1     139.309 155.231 120.597  1.00  0.00     0.000 C 
BRANCH   6   7
ATOM      7  C   UNL     1     140.628 155.966 120.312  1.00  0.00     0.006 C 
BRANCH   7   8
ATOM      8  C   UNL     1     141.636 155.082 119.566  1.00  0.00     0.053 C 
BRANCH   8   9
ATOM      9  C   UNL     1     142.740 154.617 120.465  1.00  0.00     0.041 C 
ATOM     10  O   UNL     1     143.603 153.802 120.040  1.00  0.00    -0.550 OA
ATOM     11  O   UNL     1     142.838 155.109 121.760  1.00  0.00    -0.550 OA
ENDBRANCH   8   9
ENDBRANCH   7   8
ENDBRANCH   6   7
ENDBRANCH   5   6
ENDBRANCH   4   5
ENDBRANCH   3   4
ENDBRANCH   2   3
ENDBRANCH   1   2
BRANCH   1  12
ATOM     12  C   UNL     1     141.085 149.660 118.876  1.00  0.00     0.000 C 
BRANCH  12  13
ATOM     13  C   UNL     1     140.259 148.592 119.612  1.00  0.00    -0.000 C 
BRANCH  13  14
ATOM     14  C   UNL     1     138.875 148.378 118.983  1.00  0.00    -0.000 C 
BRANCH  14  15
ATOM     15  C   UNL     1     137.768 148.923 119.892  1.00  0.00    -0.000 C 
BRANCH  15  16
ATOM     16  C   UNL     1     137.622 148.066 121.156  1.00  0.00    -0.000 C 
BRANCH  16  17
ATOM     17  C   UNL     1     137.292 146.612 120.800  1.00  0.00    -0.000 C 
BRANCH  17  18
ATOM     18  C   UNL     1     138.261 145.643 121.492  1.00  0.00    -0.000 C 
BRANCH  18  19
ATOM     19  C   UNL     1     138.651 144.456 120.597  1.00  0.00    -0.003 C 
ATOM     20  C   UNL     1     139.508 144.875 119.401  1.00  0.00     0.004 C 
ENDBRANCH  18  19
ENDBRANCH  17  18
ENDBRANCH  16  17
ENDBRANCH  15  16
ENDBRANCH  14  15
ENDBRANCH  13  14
ENDBRANCH  12  13
ENDBRANCH   1  12
TORSDOF 16
ENDMDL
MODEL 8
REMARK VINA RESULT:    -3.167      3.629      8.192
REMARK INTER + INTRA:          -8.187
REMARK INTER:                  -6.600
REMARK INTRA:                  -1.587
REMARK UNBOUND:                -2.058
REMARK SMILES CCCCCCCCCCCCCCCCCC(=O)[O-]
REMARK SMILES IDX 10 1 11 2 12 3 13 4 14 5 15 6 16 7 17 8 18 9 19 10 20 11
REMARK SMILES IDX 9 12 8 13 7 14 6 15 5 16 4 17 3 18 2 19 1 20
REMARK H PARENT
REMARK Flexibility Score: inf
ROOT
ATOM      1  C   UNL     1     141.923 150.805 119.599  1.00  0.00     0.000 C 
ENDROOT
BRANCH   1   2
ATOM      2  C   UNL     1     140.799 149.878 119.090  1.00  0.00     0.000 C 
BRANCH   2   3
ATOM      3  C   UNL     1     139.474 150.024 119.863  1.00  0.00     0.000 C 
BRANCH   3   4
ATOM      4  C   UNL     1     138.646 148.731 119.994  1.00  0.00     0.000 C 
BRANCH   4   5
ATOM      5  C   UNL     1     139.146 147.551 119.141  1.00  0.00     0.000 C 
BRANCH   5   6
ATOM      6  C   UNL     1     139.905 146.499 119.962  1.00  0.00     0.000 C 
BRANCH   6   7
ATOM      7  C   UNL     1     139.521 145.077 119.524  1.00  0.00     0.006 C 
BRANCH   7   8
ATOM      8  C   UNL     1     138.163 144.642 120.091  1.00  0.00     0.053 C 
BRANCH   8   9
ATOM      9  C   UNL     1     138.298 144.024 121.448  1.00  0.00     0.041 C 
ATOM     10  O   UNL     1     138.181 144.735 122.482  1.00  0.00    -0.550 OA
ATOM     11  O   UNL     1     138.518 142.658 121.573  1.00  0.00    -0.550 OA
ENDBRANCH   8   9
ENDBRANCH   7   8
ENDBRANCH   6   7
ENDBRANCH   5   6
ENDBRANCH   4   5
ENDBRANCH   3   4
ENDBRANCH   2   3
ENDBRANCH   1   2
BRANCH   1  12
ATOM     12  C   UNL     1     141.378 152.075 120.275  1.00  0.00     0.000 C 
BRANCH  12  13
ATOM     13  C   UNL     1     142.483 152.910 120.942  1.00  0.00    -0.000 C 
BRANCH  13  14
ATOM     14  C   UNL     1     142.663 154.286 120.285  1.00  0.00    -0.000 C 
BRANCH  14  15
ATOM     15  C   UNL     1     142.064 155.394 121.159  1.00  0.00    -0.000 C 
BRANCH  15  16
ATOM     16  C   UNL     1     140.795 155.974 120.521  1.00  0.00    -0.000 C 
BRANCH  16  17
ATOM     17  C   UNL     1     139.541 155.270 121.054  1.00  0.00    -0.000 C 
BRANCH  17  18
ATOM     18  C   UNL     1     138.695 154.708 119.902  1.00  0.00    -0.000 C 
BRANCH  18  19
ATOM     19  C   UNL     1     137.899 153.457 120.309  1.00  0.00    -0.003 C 
ATOM     20  C   UNL     1     138.164 153.034 121.754  1.00  0.00     0.004 C 
ENDBRANCH  18  19
ENDBRANCH  17  18
ENDBRANCH  16  17
ENDBRANCH  15  16
ENDBRANCH  14  15
ENDBRANCH  13  14
ENDBRANCH  12  13
ENDBRANCH   1  12
TORSDOF 16
ENDMDL
MODEL 9
REMARK VINA RESULT:    -3.129      3.465      8.141
REMARK INTER + INTRA:          -8.115
REMARK INTER:                  -6.148
REMARK INTRA:                  -1.967
REMARK UNBOUND:                -2.058
REMARK SMILES CCCCCCCCCCCCCCCCCC(=O)[O-]
REMARK SMILES IDX 10 1 11 2 12 3 13 4 14 5 15 6 16 7 17 8 18 9 19 10 20 11
REMARK SMILES IDX 9 12 8 13 7 14 6 15 5 16 4 17 3 18 2 19 1 20
REMARK H PARENT
REMARK Flexibility Score: inf
ROOT
ATOM      1  C   UNL     1     142.149 151.825 120.174  1.00  0.00     0.000 C 
ENDROOT
BRANCH   1   2
ATOM      2  C   UNL     1     142.066 150.488 119.405  1.00  0.00     0.000 C 
BRANCH   2   3
ATOM      3  C   UNL     1     140.648 149.888 119.352  1.00  0.00     0.000 C 
BRANCH   3   4
ATOM      4  C   UNL     1     139.754 150.214 120.564  1.00  0.00     0.000 C 
BRANCH   4   5
ATOM      5  C   UNL     1     138.506 149.324 120.709  1.00  0.00     0.000 C 
BRANCH   5   6
ATOM      6  C   UNL     1     138.323 148.356 119.531  1.00  0.00     0.000 C 
BRANCH   6   7
ATOM      7  C   UNL     1     137.517 147.119 119.956  1.00  0.00     0.006 C 
BRANCH   7   8
ATOM      8  C   UNL     1     138.330 146.174 120.850  1.00  0.00     0.053 C 
BRANCH   8   9
ATOM      9  C   UNL     1     138.732 144.928 120.123  1.00  0.00     0.041 C 
ATOM     10  O   UNL     1     139.842 144.869 119.530  1.00  0.00    -0.550 OA
ATOM     11  O   UNL     1     137.896 143.818 120.128  1.00  0.00    -0.550 OA
ENDBRANCH   8   9
ENDBRANCH   7   8
ENDBRANCH   6   7
ENDBRANCH   5   6
ENDBRANCH   4   5
ENDBRANCH   3   4
ENDBRANCH   2   3
ENDBRANCH   1   2
BRANCH   1  12
ATOM     12  C   UNL     1     143.260 152.744 119.638  1.00  0.00     0.000 C 
BRANCH  12  13
ATOM     13  C   UNL     1     143.047 154.216 120.024  1.00  0.00    -0.000 C 
BRANCH  13  14
ATOM     14  C   UNL     1     142.402 154.377 121.409  1.00  0.00    -0.000 C 
BRANCH  14  15
ATOM     15  C   UNL     1     141.620 155.692 121.501  1.00  0.00    -0.000 C 
BRANCH  15  16
ATOM     16  C   UNL     1     141.215 156.191 120.109  1.00  0.00    -0.000 C 
BRANCH  16  17
ATOM     17  C   UNL     1     139.702 156.057 119.895  1.00  0.00    -0.000 C 
BRANCH  17  18
ATOM     18  C   UNL     1     139.388 154.953 118.875  1.00  0.00    -0.000 C 
BRANCH  18  19
ATOM     19  C   UNL     1     139.119 153.593 119.541  1.00  0.00    -0.003 C 
ATOM     20  C   UNL     1     138.563 153.729 120.958  1.00  0.00     0.004 C 
ENDBRANCH  18  19
ENDBRANCH  17  18
ENDBRANCH  16  17
ENDBRANCH  15  16
ENDBRANCH  14  15
ENDBRANCH  13  14
ENDBRANCH  12  13
ENDBRANCH   1  12
TORSDOF 16
ENDMDL
