MODEL 1
REMARK VINA RESULT:    -4.318      0.000      0.000
REMARK INTER + INTRA:          -6.149
REMARK INTER:                  -5.580
REMARK INTRA:                  -0.569
REMARK UNBOUND:                -0.569
REMARK SMILES C=CC(=O)CCCCC
REMARK SMILES IDX 6 1 7 2 8 3 9 4 5 5 3 6 4 7 2 8 1 9
REMARK H PARENT
REMARK Flexibility Score: inf
ROOT
ATOM      1  C   UNL     1      -4.072 -15.193  -8.931  1.00  0.00     0.008 C 
ENDROOT
BRANCH   1   2
ATOM      2  C   UNL     1      -2.982 -14.112  -8.997  1.00  0.00     0.000 C 
BRANCH   2   3
ATOM      3  C   UNL     1      -1.869 -14.393  -7.979  1.00  0.00    -0.003 C 
ATOM      4  C   UNL     1      -1.969 -13.454  -6.781  1.00  0.00     0.004 C 
ENDBRANCH   2   3
ENDBRANCH   1   2
BRANCH   1   5
ATOM      5  C   UNL     1      -5.446 -14.609  -8.562  1.00  0.00     0.080 C 
BRANCH   5   6
ATOM      6  C   UNL     1      -5.485 -13.965  -7.192  1.00  0.00     0.155 C 
ATOM      7  O   UNL     1      -5.246 -14.658  -6.167  1.00  0.00    -0.295 OA
BRANCH   6   8
ATOM      8  C   UNL     1      -5.742 -12.521  -7.010  1.00  0.00     0.039 C 
ATOM      9  C   UNL     1      -5.664 -11.627  -7.995  1.00  0.00     0.012 C 
ENDBRANCH   6   8
ENDBRANCH   5   6
ENDBRANCH   1   5
TORSDOF 5
ENDMDL
MODEL 2
REMARK VINA RESULT:    -4.175      1.113      3.199
REMARK INTER + INTRA:          -5.964
REMARK INTER:                  -5.452
REMARK INTRA:                  -0.512
REMARK UNBOUND:                -0.569
REMARK SMILES C=CC(=O)CCCCC
REMARK SMILES IDX 6 1 7 2 8 3 9 4 5 5 3 6 4 7 2 8 1 9
REMARK H PARENT
REMARK Flexibility Score: inf
ROOT
ATOM      1  C   UNL     1      -5.542 -14.543  -9.084  1.00  0.00     0.008 C 
ENDROOT
BRANCH   1   2
ATOM      2  C   UNL     1      -5.032 -13.094  -9.078  1.00  0.00     0.000 C 
BRANCH   2   3
ATOM      3  C   UNL     1      -6.069 -12.150  -8.455  1.00  0.00    -0.003 C 
ATOM      4  C   UNL     1      -5.643 -11.710  -7.058  1.00  0.00     0.004 C 
ENDBRANCH   2   3
ENDBRANCH   1   2
BRANCH   1   5
ATOM      5  C   UNL     1      -4.492 -15.528  -8.544  1.00  0.00     0.080 C 
BRANCH   5   6
ATOM      6  C   UNL     1      -3.961 -15.162  -7.175  1.00  0.00     0.155 C 
ATOM      7  O   UNL     1      -4.750 -15.095  -6.193  1.00  0.00    -0.295 OA
BRANCH   6   8
ATOM      8  C   UNL     1      -2.523 -14.930  -6.926  1.00  0.00     0.039 C 
ATOM      9  C   UNL     1      -1.722 -14.282  -7.771  1.00  0.00     0.012 C 
ENDBRANCH   6   8
ENDBRANCH   5   6
ENDBRANCH   1   5
TORSDOF 5
ENDMDL
MODEL 3
REMARK VINA RESULT:    -3.979      1.549      3.344
REMARK INTER + INTRA:          -5.710
REMARK INTER:                  -5.113
REMARK INTRA:                  -0.597
REMARK UNBOUND:                -0.569
REMARK SMILES C=CC(=O)CCCCC
REMARK SMILES IDX 6 1 7 2 8 3 9 4 5 5 3 6 4 7 2 8 1 9
REMARK H PARENT
REMARK Flexibility Score: inf
ROOT
ATOM      1  C   UNL     1      -2.818 -12.178  -7.249  1.00  0.00     0.008 C 
ENDROOT
BRANCH   1   2
ATOM      2  C   UNL     1      -3.076 -11.967  -8.749  1.00  0.00     0.000 C 
BRANCH   2   3
ATOM      3  C   UNL     1      -4.559 -11.682  -9.015  1.00  0.00    -0.003 C 
ATOM      4  C   UNL     1      -5.356 -11.652  -7.714  1.00  0.00     0.004 C 
ENDBRANCH   2   3
ENDBRANCH   1   2
BRANCH   1   5
ATOM      5  C   UNL     1      -2.286 -13.589  -6.946  1.00  0.00     0.080 C 
BRANCH   5   6
ATOM      6  C   UNL     1      -3.294 -14.484  -6.258  1.00  0.00     0.155 C 
ATOM      7  O   UNL     1      -3.338 -14.528  -4.999  1.00  0.00    -0.295 OA
BRANCH   6   8
ATOM      8  C   UNL     1      -4.283 -15.280  -7.015  1.00  0.00     0.039 C 
ATOM      9  C   UNL     1      -4.228 -15.467  -8.333  1.00  0.00     0.012 C 
ENDBRANCH   6   8
ENDBRANCH   5   6
ENDBRANCH   1   5
TORSDOF 5
ENDMDL
MODEL 4
REMARK VINA RESULT:    -3.976      1.225      1.543
REMARK INTER + INTRA:          -5.706
REMARK INTER:                  -5.242
REMARK INTRA:                  -0.464
REMARK UNBOUND:                -0.569
REMARK SMILES C=CC(=O)CCCCC
REMARK SMILES IDX 6 1 7 2 8 3 9 4 5 5 3 6 4 7 2 8 1 9
REMARK H PARENT
REMARK Flexibility Score: inf
ROOT
ATOM      1  C   UNL     1      -4.275 -15.106  -8.655  1.00  0.00     0.008 C 
ENDROOT
BRANCH   1   2
ATOM      2  C   UNL     1      -3.845 -15.820  -7.364  1.00  0.00     0.000 C 
BRANCH   2   3
ATOM      3  C   UNL     1      -2.592 -15.168  -6.767  1.00  0.00    -0.003 C 
ATOM      4  C   UNL     1      -1.856 -14.333  -7.811  1.00  0.00     0.004 C 
ENDBRANCH   2   3
ENDBRANCH   1   2
BRANCH   1   5
ATOM      5  C   UNL     1      -5.632 -14.400  -8.501  1.00  0.00     0.080 C 
BRANCH   5   6
ATOM      6  C   UNL     1      -5.550 -13.075  -7.774  1.00  0.00     0.155 C 
ATOM      7  O   UNL     1      -5.650 -13.042  -6.518  1.00  0.00    -0.295 OA
BRANCH   6   8
ATOM      8  C   UNL     1      -5.296 -11.803  -8.483  1.00  0.00     0.039 C 
ATOM      9  C   UNL     1      -4.157 -11.525  -9.116  1.00  0.00     0.012 C 
ENDBRANCH   6   8
ENDBRANCH   5   6
ENDBRANCH   1   5
TORSDOF 5
ENDMDL
MODEL 5
REMARK VINA RESULT:    -3.960      1.539      3.159
REMARK INTER + INTRA:          -5.686
REMARK INTER:                  -5.267
REMARK INTRA:                  -0.419
REMARK UNBOUND:                -0.569
REMARK SMILES C=CC(=O)CCCCC
REMARK SMILES IDX 6 1 7 2 8 3 9 4 5 5 3 6 4 7 2 8 1 9
REMARK H PARENT
REMARK Flexibility Score: inf
ROOT
ATOM      1  C   UNL     1      -3.387 -14.138  -9.113  1.00  0.00     0.008 C 
ENDROOT
BRANCH   1   2
ATOM      2  C   UNL     1      -3.399 -12.778  -8.398  1.00  0.00     0.000 C 
BRANCH   2   3
ATOM      3  C   UNL     1      -4.499 -11.872  -8.964  1.00  0.00    -0.003 C 
ATOM      4  C   UNL     1      -5.597 -11.630  -7.933  1.00  0.00     0.004 C 
ENDBRANCH   2   3
ENDBRANCH   1   2
BRANCH   1   5
ATOM      5  C   UNL     1      -4.424 -15.110  -8.526  1.00  0.00     0.080 C 
BRANCH   5   6
ATOM      6  C   UNL     1      -4.355 -15.237  -7.019  1.00  0.00     0.155 C 
ATOM      7  O   UNL     1      -5.283 -14.765  -6.307  1.00  0.00    -0.295 OA
BRANCH   6   8
ATOM      8  C   UNL     1      -3.254 -15.952  -6.339  1.00  0.00     0.039 C 
ATOM      9  C   UNL     1      -2.519 -15.419  -5.364  1.00  0.00     0.012 C 
ENDBRANCH   6   8
ENDBRANCH   5   6
ENDBRANCH   1   5
TORSDOF 5
ENDMDL
MODEL 6
REMARK VINA RESULT:    -3.956      2.025      2.580
REMARK INTER + INTRA:          -5.681
REMARK INTER:                  -5.141
REMARK INTRA:                  -0.541
REMARK UNBOUND:                -0.569
REMARK SMILES C=CC(=O)CCCCC
REMARK SMILES IDX 6 1 7 2 8 3 9 4 5 5 3 6 4 7 2 8 1 9
REMARK H PARENT
REMARK Flexibility Score: inf
ROOT
ATOM      1  C   UNL     1      -2.363 -14.371  -8.422  1.00  0.00     0.008 C 
ENDROOT
BRANCH   1   2
ATOM      2  C   UNL     1      -3.652 -15.182  -8.222  1.00  0.00     0.000 C 
BRANCH   2   3
ATOM      3  C   UNL     1      -3.757 -15.698  -6.782  1.00  0.00    -0.003 C 
ATOM      4  C   UNL     1      -3.014 -14.783  -5.814  1.00  0.00     0.004 C 
ENDBRANCH   2   3
ENDBRANCH   1   2
BRANCH   1   5
ATOM      5  C   UNL     1      -2.628 -13.024  -9.117  1.00  0.00     0.080 C 
BRANCH   5   6
ATOM      6  C   UNL     1      -3.328 -12.012  -8.236  1.00  0.00     0.155 C 
ATOM      7  O   UNL     1      -2.662 -11.341  -7.401  1.00  0.00    -0.295 OA
BRANCH   6   8
ATOM      8  C   UNL     1      -4.774 -11.734  -8.354  1.00  0.00     0.039 C 
ATOM      9  C   UNL     1      -5.652 -11.956  -7.376  1.00  0.00     0.012 C 
ENDBRANCH   6   8
ENDBRANCH   5   6
ENDBRANCH   1   5
TORSDOF 5
ENDMDL
MODEL 7
REMARK VINA RESULT:    -3.923      1.543      1.963
REMARK INTER + INTRA:          -5.638
REMARK INTER:                  -5.239
REMARK INTRA:                  -0.399
REMARK UNBOUND:                -0.569
REMARK SMILES C=CC(=O)CCCCC
REMARK SMILES IDX 6 1 7 2 8 3 9 4 5 5 3 6 4 7 2 8 1 9
REMARK H PARENT
REMARK Flexibility Score: inf
ROOT
ATOM      1  C   UNL     1      -2.646 -13.907  -8.855  1.00  0.00     0.008 C 
ENDROOT
BRANCH   1   2
ATOM      2  C   UNL     1      -1.877 -14.382  -7.613  1.00  0.00     0.000 C 
BRANCH   2   3
ATOM      3  C   UNL     1      -2.672 -15.451  -6.851  1.00  0.00    -0.003 C 
ATOM      4  C   UNL     1      -2.987 -14.994  -5.430  1.00  0.00     0.004 C 
ENDBRANCH   2   3
ENDBRANCH   1   2
BRANCH   1   5
ATOM      5  C   UNL     1      -3.968 -14.671  -9.046  1.00  0.00     0.080 C 
BRANCH   5   6
ATOM      6  C   UNL     1      -5.194 -13.786  -8.999  1.00  0.00     0.155 C 
ATOM      7  O   UNL     1      -6.341 -14.296  -9.123  1.00  0.00    -0.295 OA
BRANCH   6   8
ATOM      8  C   UNL     1      -5.105 -12.331  -8.752  1.00  0.00     0.039 C 
ATOM      9  C   UNL     1      -5.531 -11.744  -7.634  1.00  0.00     0.012 C 
ENDBRANCH   6   8
ENDBRANCH   5   6
ENDBRANCH   1   5
TORSDOF 5
ENDMDL
MODEL 8
REMARK VINA RESULT:    -3.921      1.970      3.715
REMARK INTER + INTRA:          -5.636
REMARK INTER:                  -5.263
REMARK INTRA:                  -0.373
REMARK UNBOUND:                -0.569
REMARK SMILES C=CC(=O)CCCCC
REMARK SMILES IDX 6 1 7 2 8 3 9 4 5 5 3 6 4 7 2 8 1 9
REMARK H PARENT
REMARK Flexibility Score: inf
ROOT
ATOM      1  C   UNL     1      -5.307 -14.408  -7.953  1.00  0.00     0.008 C 
ENDROOT
BRANCH   1   2
ATOM      2  C   UNL     1      -5.915 -13.230  -8.730  1.00  0.00     0.000 C 
BRANCH   2   3
ATOM      3  C   UNL     1      -5.339 -11.895  -8.242  1.00  0.00    -0.003 C 
ATOM      4  C   UNL     1      -4.181 -11.440  -9.125  1.00  0.00     0.004 C 
ENDBRANCH   2   3
ENDBRANCH   1   2
BRANCH   1   5
ATOM      5  C   UNL     1      -4.164 -15.085  -8.728  1.00  0.00     0.080 C 
BRANCH   5   6
ATOM      6  C   UNL     1      -2.785 -14.711  -8.230  1.00  0.00     0.155 C 
ATOM      7  O   UNL     1      -1.933 -14.245  -9.033  1.00  0.00    -0.295 OA
BRANCH   6   8
ATOM      8  C   UNL     1      -2.408 -14.820  -6.805  1.00  0.00     0.039 C 
ATOM      9  C   UNL     1      -2.499 -15.948  -6.101  1.00  0.00     0.012 C 
ENDBRANCH   6   8
ENDBRANCH   5   6
ENDBRANCH   1   5
TORSDOF 5
ENDMDL
