MODEL 1
REMARK VINA RESULT:    -3.955      0.000      0.000
REMARK INTER + INTRA:          -6.786
REMARK INTER:                  -6.036
REMARK INTRA:                  -0.750
REMARK UNBOUND:                -0.750
REMARK SMILES O=C([O-])CCCCCCCCC(=O)[O-]
REMARK SMILES IDX 7 1 6 2 5 3 4 4 2 5 1 6 3 7 8 8 9 9 10 10 11 11 12 12 13 13
REMARK SMILES IDX 14 14
REMARK H PARENT
REMARK Flexibility Score: inf
ROOT
ATOM      1  C   UNL     1      26.538  58.675  25.287  1.00  0.00     0.000 C 
ENDROOT
BRANCH   1   2
ATOM      2  C   UNL     1      26.941  59.744  26.314  1.00  0.00     0.000 C 
BRANCH   2   3
ATOM      3  C   UNL     1      25.788  60.706  26.651  1.00  0.00     0.006 C 
BRANCH   3   4
ATOM      4  C   UNL     1      24.414  60.082  26.372  1.00  0.00     0.053 C 
BRANCH   4   5
ATOM      5  C   UNL     1      23.581  59.989  27.613  1.00  0.00     0.041 C 
ATOM      6  O   UNL     1      24.001  60.476  28.696  1.00  0.00    -0.550 OA
ATOM      7  O   UNL     1      22.354  59.338  27.581  1.00  0.00    -0.550 OA
ENDBRANCH   4   5
ENDBRANCH   3   4
ENDBRANCH   2   3
ENDBRANCH   1   2
BRANCH   1   8
ATOM      8  C   UNL     1      27.223  57.322  25.538  1.00  0.00     0.000 C 
BRANCH   8   9
ATOM      9  C   UNL     1      26.209  56.173  25.473  1.00  0.00     0.000 C 
BRANCH   9  10
ATOM     10  C   UNL     1      24.873  56.650  24.894  1.00  0.00     0.006 C 
BRANCH  10  11
ATOM     11  C   UNL     1      23.710  56.282  25.821  1.00  0.00     0.053 C 
BRANCH  11  12
ATOM     12  C   UNL     1      22.673  55.501  25.077  1.00  0.00     0.041 C 
ATOM     13  O   UNL     1      21.870  54.759  25.702  1.00  0.00    -0.550 OA
ATOM     14  O   UNL     1      22.560  55.632  23.699  1.00  0.00    -0.550 OA
ENDBRANCH  11  12
ENDBRANCH  10  11
ENDBRANCH   9  10
ENDBRANCH   8   9
ENDBRANCH   1   8
TORSDOF 9
ENDMDL
MODEL 2
REMARK VINA RESULT:    -3.950      1.707      2.826
REMARK INTER + INTRA:          -6.778
REMARK INTER:                  -6.130
REMARK INTRA:                  -0.647
REMARK UNBOUND:                -0.750
REMARK SMILES O=C([O-])CCCCCCCCC(=O)[O-]
REMARK SMILES IDX 7 1 6 2 5 3 4 4 2 5 1 6 3 7 8 8 9 9 10 10 11 11 12 12 13 13
REMARK SMILES IDX 14 14
REMARK H PARENT
REMARK Flexibility Score: inf
ROOT
ATOM      1  C   UNL     1      25.626  56.602  24.014  1.00  0.00     0.000 C 
ENDROOT
BRANCH   1   2
ATOM      2  C   UNL     1      26.528  56.356  25.233  1.00  0.00     0.000 C 
BRANCH   2   3
ATOM      3  C   UNL     1      27.270  57.625  25.687  1.00  0.00     0.006 C 
BRANCH   3   4
ATOM      4  C   UNL     1      26.601  58.904  25.165  1.00  0.00     0.053 C 
BRANCH   4   5
ATOM      5  C   UNL     1      25.834  59.611  26.239  1.00  0.00     0.041 C 
ATOM      6  O   UNL     1      26.433  60.343  27.069  1.00  0.00    -0.550 OA
ATOM      7  O   UNL     1      24.459  59.436  26.343  1.00  0.00    -0.550 OA
ENDBRANCH   4   5
ENDBRANCH   3   4
ENDBRANCH   2   3
ENDBRANCH   1   2
BRANCH   1   8
ATOM      8  C   UNL     1      24.131  56.499  24.352  1.00  0.00     0.000 C 
BRANCH   8   9
ATOM      9  C   UNL     1      23.923  55.874  25.737  1.00  0.00     0.000 C 
BRANCH   9  10
ATOM     10  C   UNL     1      22.433  55.660  26.027  1.00  0.00     0.006 C 
BRANCH  10  11
ATOM     11  C   UNL     1      21.638  55.497  24.728  1.00  0.00     0.053 C 
BRANCH  11  12
ATOM     12  C   UNL     1      20.629  54.401  24.865  1.00  0.00     0.041 C 
ATOM     13  O   UNL     1      20.729  53.561  25.798  1.00  0.00    -0.550 OA
ATOM     14  O   UNL     1      19.550  54.338  23.994  1.00  0.00    -0.550 OA
ENDBRANCH  11  12
ENDBRANCH  10  11
ENDBRANCH   9  10
ENDBRANCH   8   9
ENDBRANCH   1   8
TORSDOF 9
ENDMDL
MODEL 3
REMARK VINA RESULT:    -3.941     18.210     20.315
REMARK INTER + INTRA:          -6.764
REMARK INTER:                  -5.870
REMARK INTRA:                  -0.894
REMARK UNBOUND:                -0.750
REMARK SMILES O=C([O-])CCCCCCCCC(=O)[O-]
REMARK SMILES IDX 7 1 6 2 5 3 4 4 2 5 1 6 3 7 8 8 9 9 10 10 11 11 12 12 13 13
REMARK SMILES IDX 14 14
REMARK H PARENT
REMARK Flexibility Score: inf
ROOT
ATOM      1  C   UNL     1       9.813  56.060  42.003  1.00  0.00     0.000 C 
ENDROOT
BRANCH   1   2
ATOM      2  C   UNL     1       8.979  57.351  42.003  1.00  0.00     0.000 C 
BRANCH   2   3
ATOM      3  C   UNL     1       9.795  58.582  42.435  1.00  0.00     0.006 C 
BRANCH   3   4
ATOM      4  C   UNL     1       9.533  59.795  41.532  1.00  0.00     0.053 C 
BRANCH   4   5
ATOM      5  C   UNL     1      10.797  60.526  41.198  1.00  0.00     0.041 C 
ATOM      6  O   UNL     1      11.548  60.946  42.117  1.00  0.00    -0.550 OA
ATOM      7  O   UNL     1      11.130  60.771  39.872  1.00  0.00    -0.550 OA
ENDBRANCH   4   5
ENDBRANCH   3   4
ENDBRANCH   2   3
ENDBRANCH   1   2
BRANCH   1   8
ATOM      8  C   UNL     1      11.284  56.304  42.372  1.00  0.00     0.000 C 
BRANCH   8   9
ATOM      9  C   UNL     1      12.219  55.501  41.458  1.00  0.00     0.000 C 
BRANCH   9  10
ATOM     10  C   UNL     1      13.473  56.310  41.106  1.00  0.00     0.006 C 
BRANCH  10  11
ATOM     11  C   UNL     1      13.344  57.759  41.585  1.00  0.00     0.053 C 
BRANCH  11  12
ATOM     12  C   UNL     1      13.921  58.700  40.573  1.00  0.00     0.041 C 
ATOM     13  O   UNL     1      13.709  58.515  39.346  1.00  0.00    -0.550 OA
ATOM     14  O   UNL     1      14.649  59.806  40.989  1.00  0.00    -0.550 OA
ENDBRANCH  11  12
ENDBRANCH  10  11
ENDBRANCH   9  10
ENDBRANCH   8   9
ENDBRANCH   1   8
TORSDOF 9
ENDMDL
MODEL 4
REMARK VINA RESULT:    -3.911      2.293      3.583
REMARK INTER + INTRA:          -6.719
REMARK INTER:                  -5.814
REMARK INTRA:                  -0.904
REMARK UNBOUND:                -0.750
REMARK SMILES O=C([O-])CCCCCCCCC(=O)[O-]
REMARK SMILES IDX 7 1 6 2 5 3 4 4 2 5 1 6 3 7 8 8 9 9 10 10 11 11 12 12 13 13
REMARK SMILES IDX 14 14
REMARK H PARENT
REMARK Flexibility Score: inf
ROOT
ATOM      1  C   UNL     1      24.993  60.370  27.068  1.00  0.00     0.000 C 
ENDROOT
BRANCH   1   2
ATOM      2  C   UNL     1      26.252  60.442  26.190  1.00  0.00     0.000 C 
BRANCH   2   3
ATOM      3  C   UNL     1      26.297  59.330  25.127  1.00  0.00     0.006 C 
BRANCH   3   4
ATOM      4  C   UNL     1      26.912  58.033  25.672  1.00  0.00     0.053 C 
BRANCH   4   5
ATOM      5  C   UNL     1      26.305  56.819  25.041  1.00  0.00     0.041 C 
ATOM      6  O   UNL     1      25.808  56.886  23.886  1.00  0.00    -0.550 OA
ATOM      7  O   UNL     1      26.258  55.619  25.741  1.00  0.00    -0.550 OA
ENDBRANCH   4   5
ENDBRANCH   3   4
ENDBRANCH   2   3
ENDBRANCH   1   2
BRANCH   1   8
ATOM      8  C   UNL     1      23.716  60.110  26.253  1.00  0.00     0.000 C 
BRANCH   8   9
ATOM      9  C   UNL     1      22.941  58.911  26.816  1.00  0.00     0.000 C 
BRANCH   9  10
ATOM     10  C   UNL     1      22.652  57.879  25.720  1.00  0.00     0.006 C 
BRANCH  10  11
ATOM     11  C   UNL     1      22.809  56.452  26.254  1.00  0.00     0.053 C 
BRANCH  11  12
ATOM     12  C   UNL     1      22.398  55.456  25.216  1.00  0.00     0.041 C 
ATOM     13  O   UNL     1      22.800  55.576  24.029  1.00  0.00    -0.550 OA
ATOM     14  O   UNL     1      21.612  54.367  25.570  1.00  0.00    -0.550 OA
ENDBRANCH  11  12
ENDBRANCH  10  11
ENDBRANCH   9  10
ENDBRANCH   8   9
ENDBRANCH   1   8
TORSDOF 9
ENDMDL
MODEL 5
REMARK VINA RESULT:    -3.881      2.706      4.799
REMARK INTER + INTRA:          -6.672
REMARK INTER:                  -5.719
REMARK INTRA:                  -0.954
REMARK UNBOUND:                -0.750
REMARK SMILES O=C([O-])CCCCCCCCC(=O)[O-]
REMARK SMILES IDX 7 1 6 2 5 3 4 4 2 5 1 6 3 7 8 8 9 9 10 10 11 11 12 12 13 13
REMARK SMILES IDX 14 14
REMARK H PARENT
REMARK Flexibility Score: inf
ROOT
ATOM      1  C   UNL     1      23.955  56.002  25.650  1.00  0.00     0.000 C 
ENDROOT
BRANCH   1   2
ATOM      2  C   UNL     1      24.302  56.555  24.259  1.00  0.00     0.000 C 
BRANCH   2   3
ATOM      3  C   UNL     1      25.760  57.036  24.160  1.00  0.00     0.006 C 
BRANCH   3   4
ATOM      4  C   UNL     1      25.928  58.479  24.658  1.00  0.00     0.053 C 
BRANCH   4   5
ATOM      5  C   UNL     1      26.969  58.582  25.729  1.00  0.00     0.041 C 
ATOM      6  O   UNL     1      27.767  57.629  25.932  1.00  0.00    -0.550 OA
ATOM      7  O   UNL     1      27.040  59.719  26.524  1.00  0.00    -0.550 OA
ENDBRANCH   4   5
ENDBRANCH   3   4
ENDBRANCH   2   3
ENDBRANCH   1   2
BRANCH   1   8
ATOM      8  C   UNL     1      22.848  56.807  26.348  1.00  0.00     0.000 C 
BRANCH   8   9
ATOM      9  C   UNL     1      22.229  57.834  25.391  1.00  0.00     0.000 C 
BRANCH   9  10
ATOM     10  C   UNL     1      22.509  59.265  25.862  1.00  0.00     0.006 C 
BRANCH  10  11
ATOM     11  C   UNL     1      23.066  59.275  27.288  1.00  0.00     0.053 C 
BRANCH  11  12
ATOM     12  C   UNL     1      23.903  60.494  27.516  1.00  0.00     0.041 C 
ATOM     13  O   UNL     1      24.337  60.758  28.669  1.00  0.00    -0.550 OA
ATOM     14  O   UNL     1      24.245  61.312  26.448  1.00  0.00    -0.550 OA
ENDBRANCH  11  12
ENDBRANCH  10  11
ENDBRANCH   9  10
ENDBRANCH   8   9
ENDBRANCH   1   8
TORSDOF 9
ENDMDL
MODEL 6
REMARK VINA RESULT:    -3.875      1.303      5.262
REMARK INTER + INTRA:          -6.664
REMARK INTER:                  -6.067
REMARK INTRA:                  -0.597
REMARK UNBOUND:                -0.750
REMARK SMILES O=C([O-])CCCCCCCCC(=O)[O-]
REMARK SMILES IDX 7 1 6 2 5 3 4 4 2 5 1 6 3 7 8 8 9 9 10 10 11 11 12 12 13 13
REMARK SMILES IDX 14 14
REMARK H PARENT
REMARK Flexibility Score: inf
ROOT
ATOM      1  C   UNL     1      24.833  56.708  24.713  1.00  0.00     0.000 C 
ENDROOT
BRANCH   1   2
ATOM      2  C   UNL     1      24.154  55.966  25.875  1.00  0.00     0.000 C 
BRANCH   2   3
ATOM      3  C   UNL     1      22.654  56.288  25.987  1.00  0.00     0.006 C 
BRANCH   3   4
ATOM      4  C   UNL     1      21.775  55.118  25.525  1.00  0.00     0.053 C 
BRANCH   4   5
ATOM      5  C   UNL     1      21.042  55.436  24.258  1.00  0.00     0.041 C 
ATOM      6  O   UNL     1      19.865  55.024  24.086  1.00  0.00    -0.550 OA
ATOM      7  O   UNL     1      21.671  56.162  23.254  1.00  0.00    -0.550 OA
ENDBRANCH   4   5
ENDBRANCH   3   4
ENDBRANCH   2   3
ENDBRANCH   1   2
BRANCH   1   8
ATOM      8  C   UNL     1      26.356  56.511  24.693  1.00  0.00     0.000 C 
BRANCH   8   9
ATOM      9  C   UNL     1      27.066  57.641  25.450  1.00  0.00     0.000 C 
BRANCH   9  10
ATOM     10  C   UNL     1      26.378  58.988  25.200  1.00  0.00     0.006 C 
BRANCH  10  11
ATOM     11  C   UNL     1      26.622  59.954  26.363  1.00  0.00     0.053 C 
BRANCH  11  12
ATOM     12  C   UNL     1      25.324  60.390  26.965  1.00  0.00     0.041 C 
ATOM     13  O   UNL     1      24.251  59.819  26.637  1.00  0.00    -0.550 OA
ATOM     14  O   UNL     1      25.305  61.393  27.925  1.00  0.00    -0.550 OA
ENDBRANCH  11  12
ENDBRANCH  10  11
ENDBRANCH   9  10
ENDBRANCH   8   9
ENDBRANCH   1   8
TORSDOF 9
ENDMDL
MODEL 7
REMARK VINA RESULT:    -3.865      2.242      4.609
REMARK INTER + INTRA:          -6.648
REMARK INTER:                  -5.823
REMARK INTRA:                  -0.825
REMARK UNBOUND:                -0.750
REMARK SMILES O=C([O-])CCCCCCCCC(=O)[O-]
REMARK SMILES IDX 7 1 6 2 5 3 4 4 2 5 1 6 3 7 8 8 9 9 10 10 11 11 12 12 13 13
REMARK SMILES IDX 14 14
REMARK H PARENT
REMARK Flexibility Score: inf
ROOT
ATOM      1  C   UNL     1      24.860  56.846  24.843  1.00  0.00     0.000 C 
ENDROOT
BRANCH   1   2
ATOM      2  C   UNL     1      23.765  55.989  25.496  1.00  0.00     0.000 C 
BRANCH   2   3
ATOM      3  C   UNL     1      22.865  56.801  26.444  1.00  0.00     0.006 C 
BRANCH   3   4
ATOM      4  C   UNL     1      22.708  58.257  25.986  1.00  0.00     0.053 C 
BRANCH   4   5
ATOM      5  C   UNL     1      22.685  59.206  27.144  1.00  0.00     0.041 C 
ATOM      6  O   UNL     1      22.967  60.422  26.974  1.00  0.00    -0.550 OA
ATOM      7  O   UNL     1      22.383  58.743  28.419  1.00  0.00    -0.550 OA
ENDBRANCH   4   5
ENDBRANCH   3   4
ENDBRANCH   2   3
ENDBRANCH   1   2
BRANCH   1   8
ATOM      8  C   UNL     1      26.269  56.493  25.345  1.00  0.00     0.000 C 
BRANCH   8   9
ATOM      9  C   UNL     1      27.106  57.759  25.567  1.00  0.00     0.000 C 
BRANCH   9  10
ATOM     10  C   UNL     1      26.238  59.019  25.464  1.00  0.00     0.006 C 
BRANCH  10  11
ATOM     11  C   UNL     1      26.551  59.996  26.601  1.00  0.00     0.053 C 
BRANCH  11  12
ATOM     12  C   UNL     1      26.724  61.383  26.068  1.00  0.00     0.041 C 
ATOM     13  O   UNL     1      27.877  61.875  25.946  1.00  0.00    -0.550 OA
ATOM     14  O   UNL     1      25.617  62.114  25.658  1.00  0.00    -0.550 OA
ENDBRANCH  11  12
ENDBRANCH  10  11
ENDBRANCH   9  10
ENDBRANCH   8   9
ENDBRANCH   1   8
TORSDOF 9
ENDMDL
MODEL 8
REMARK VINA RESULT:    -3.834     18.195     20.175
REMARK INTER + INTRA:          -6.600
REMARK INTER:                  -5.821
REMARK INTRA:                  -0.779
REMARK UNBOUND:                -0.750
REMARK SMILES O=C([O-])CCCCCCCCC(=O)[O-]
REMARK SMILES IDX 7 1 6 2 5 3 4 4 2 5 1 6 3 7 8 8 9 9 10 10 11 11 12 12 13 13
REMARK SMILES IDX 14 14
REMARK H PARENT
REMARK Flexibility Score: inf
ROOT
ATOM      1  C   UNL     1       9.314  58.440  41.974  1.00  0.00     0.000 C 
ENDROOT
BRANCH   1   2
ATOM      2  C   UNL     1      10.412  59.187  42.748  1.00  0.00     0.000 C 
BRANCH   2   3
ATOM      3  C   UNL     1      11.223  60.140  41.852  1.00  0.00     0.006 C 
BRANCH   3   4
ATOM      4  C   UNL     1      12.550  59.516  41.397  1.00  0.00     0.053 C 
BRANCH   4   5
ATOM      5  C   UNL     1      12.727  59.606  39.912  1.00  0.00     0.041 C 
ATOM      6  O   UNL     1      12.003  60.379  39.233  1.00  0.00    -0.550 OA
ATOM      7  O   UNL     1      13.672  58.810  39.275  1.00  0.00    -0.550 OA
ENDBRANCH   4   5
ENDBRANCH   3   4
ENDBRANCH   2   3
ENDBRANCH   1   2
BRANCH   1   8
ATOM      8  C   UNL     1       9.392  56.916  42.157  1.00  0.00     0.000 C 
BRANCH   8   9
ATOM      9  C   UNL     1      10.808  56.483  42.560  1.00  0.00     0.000 C 
BRANCH   9  10
ATOM     10  C   UNL     1      11.373  55.459  41.570  1.00  0.00     0.006 C 
BRANCH  10  11
ATOM     11  C   UNL     1      12.734  55.908  41.030  1.00  0.00     0.053 C 
BRANCH  11  12
ATOM     12  C   UNL     1      13.843  55.262  41.799  1.00  0.00     0.041 C 
ATOM     13  O   UNL     1      14.487  55.922  42.656  1.00  0.00    -0.550 OA
ATOM     14  O   UNL     1      14.132  53.918  41.604  1.00  0.00    -0.550 OA
ENDBRANCH  11  12
ENDBRANCH  10  11
ENDBRANCH   9  10
ENDBRANCH   8   9
ENDBRANCH   1   8
TORSDOF 9
ENDMDL
MODEL 9
REMARK VINA RESULT:    -3.824      1.423      5.004
REMARK INTER + INTRA:          -6.585
REMARK INTER:                  -5.560
REMARK INTRA:                  -1.025
REMARK UNBOUND:                -0.750
REMARK SMILES O=C([O-])CCCCCCCCC(=O)[O-]
REMARK SMILES IDX 7 1 6 2 5 3 4 4 2 5 1 6 3 7 8 8 9 9 10 10 11 11 12 12 13 13
REMARK SMILES IDX 14 14
REMARK H PARENT
REMARK Flexibility Score: inf
ROOT
ATOM      1  C   UNL     1      26.643  58.807  25.827  1.00  0.00     0.000 C 
ENDROOT
BRANCH   1   2
ATOM      2  C   UNL     1      27.284  57.437  25.558  1.00  0.00     0.000 C 
BRANCH   2   3
ATOM      3  C   UNL     1      26.328  56.465  24.845  1.00  0.00     0.006 C 
BRANCH   3   4
ATOM      4  C   UNL     1      25.285  55.873  25.803  1.00  0.00     0.053 C 
BRANCH   4   5
ATOM      5  C   UNL     1      23.888  56.093  25.312  1.00  0.00     0.041 C 
ATOM      6  O   UNL     1      23.683  56.446  24.120  1.00  0.00    -0.550 OA
ATOM      7  O   UNL     1      22.813  55.939  26.178  1.00  0.00    -0.550 OA
ENDBRANCH   4   5
ENDBRANCH   3   4
ENDBRANCH   2   3
ENDBRANCH   1   2
BRANCH   1   8
ATOM      8  C   UNL     1      25.947  59.390  24.587  1.00  0.00     0.000 C 
BRANCH   8   9
ATOM      9  C   UNL     1      24.534  59.878  24.929  1.00  0.00     0.000 C 
BRANCH   9  10
ATOM     10  C   UNL     1      24.176  59.553  26.383  1.00  0.00     0.006 C 
BRANCH  10  11
ATOM     11  C   UNL     1      23.732  60.811  27.135  1.00  0.00     0.053 C 
BRANCH  11  12
ATOM     12  C   UNL     1      24.859  61.359  27.952  1.00  0.00     0.041 C 
ATOM     13  O   UNL     1      24.937  61.094  29.181  1.00  0.00    -0.550 OA
ATOM     14  O   UNL     1      25.849  62.122  27.348  1.00  0.00    -0.550 OA
ENDBRANCH  11  12
ENDBRANCH  10  11
ENDBRANCH   9  10
ENDBRANCH   8   9
ENDBRANCH   1   8
TORSDOF 9
ENDMDL
