MODEL 1
REMARK VINA RESULT:     4.163      0.000      0.000
REMARK INTER + INTRA:           5.224
REMARK INTER:                   6.354
REMARK INTRA:                  -1.130
REMARK UNBOUND:                -1.130
REMARK SMILES COc1ccc([C@H]2CC(=O)c3c(O)cc(O[C@@H]4O[C@@H](CO[C@@H]5O[C@@H](C)[C@H](O)[C@H](O)[C@H]5O)[C@@H](O)[C@H](O)[C@H]4O)cc3O2)cc1O
REMARK SMILES IDX 19 1 32 2 34 3 36 4 17 5 18 6 20 7 21 8 22 9 25 10 24 11
REMARK SMILES IDX 26 12 23 13 28 14 30 15 27 16 29 18 31 20 33 22 35 24 16 26
REMARK SMILES IDX 15 27 14 28 38 29 12 30 39 31 11 32 40 33 9 34 7 35 10 36
REMARK SMILES IDX 8 37 13 38 6 40 41 41 5 42 42 43 4 44 3 45 43 46 2 48 1 49
REMARK SMILES IDX 37 50
REMARK H PARENT 27 17 29 19 31 21 33 23 35 25 13 39 43 47 37 51
REMARK Flexibility Score: inf
ROOT
ATOM      1  C   UNL     1       9.696  -1.266  18.502  1.00  0.00     0.180 C 
ATOM      2  C   UNL     1       8.069  -0.751  18.300  1.00  0.00     0.177 C 
ATOM      3  C   UNL     1       7.215  -1.902  17.335  1.00  0.00     0.180 C 
ATOM      4  C   UNL     1       8.357  -2.587  16.374  1.00  0.00     0.214 C 
ATOM      5  C   UNL     1       9.410  -1.541  15.990  1.00  0.00     0.339 C 
ATOM      6  O   UNL     1      10.265  -1.380  17.113  1.00  0.00    -0.332 OA
ENDROOT
BRANCH   1   7
ATOM      7  C   UNL     1      10.946  -1.014  19.694  1.00  0.00     0.198 C 
BRANCH   7   8
ATOM      8  O   UNL     1      12.369  -0.816  20.112  1.00  0.00    -0.347 OA
BRANCH   8   9
ATOM      9  C   UNL     1      13.283  -1.855  20.012  1.00  0.00     0.281 C 
ATOM     10  C   UNL     1      16.448  -2.629  20.122  1.00  0.00     0.041 C 
ATOM     11  C   UNL     1      15.415  -2.277  19.012  1.00  0.00     0.150 C 
ATOM     12  C   UNL     1      14.814  -3.516  18.258  1.00  0.00     0.174 C 
ATOM     13  O   UNL     1      14.440  -1.330  19.455  1.00  0.00    -0.344 OA
ATOM     14  C   UNL     1      13.810  -4.096  19.299  1.00  0.00     0.179 C 
ATOM     15  C   UNL     1      12.643  -3.161  19.410  1.00  0.00     0.202 C 
BRANCH  12  16
ATOM     16  O   UNL     1      14.188  -2.916  17.132  1.00  0.00    -0.388 OA
ATOM     17  H   UNL     1      13.449  -3.411  16.647  1.00  0.00     0.211 HD
ENDBRANCH  12  16
BRANCH  14  18
ATOM     18  O   UNL     1      13.475  -5.476  19.227  1.00  0.00    -0.387 OA
ATOM     19  H   UNL     1      13.316  -5.765  18.258  1.00  0.00     0.211 HD
ENDBRANCH  14  18
BRANCH  15  20
ATOM     20  O   UNL     1      11.541  -3.886  20.123  1.00  0.00    -0.385 OA
ATOM     21  H   UNL     1      11.335  -3.364  20.949  1.00  0.00     0.211 HD
ENDBRANCH  15  20
ENDBRANCH   8   9
ENDBRANCH   7   8
ENDBRANCH   1   7
BRANCH   2  22
ATOM     22  O   UNL     1       8.062   0.496  17.592  1.00  0.00    -0.387 OA
ATOM     23  H   UNL     1       7.497   1.110  18.134  1.00  0.00     0.211 HD
ENDBRANCH   2  22
BRANCH   3  24
ATOM     24  O   UNL     1       6.856  -2.927  18.114  1.00  0.00    -0.387 OA
ATOM     25  H   UNL     1       5.990  -2.745  18.512  1.00  0.00     0.211 HD
ENDBRANCH   3  24
BRANCH   5  26
ATOM     26  O   UNL     1      10.168  -1.534  14.658  1.00  0.00    -0.462 OA
BRANCH  26  27
ATOM     27  C   UNL     1       9.727  -1.244  13.345  1.00  0.00     0.130 A 
ATOM     28  C   UNL     1      10.193  -1.929  12.172  1.00  0.00     0.093 A 
ATOM     29  C   UNL     1       8.683  -0.269  13.066  1.00  0.00     0.094 A 
ATOM     30  C   UNL     1      10.328  -1.151  10.979  1.00  0.00     0.133 A 
ATOM     31  C   UNL     1       8.705   0.237  11.806  1.00  0.00     0.138 A 
ATOM     32  C   UNL     1       9.806   0.087  11.005  1.00  0.00     0.102 A 
ATOM     33  O   UNL     1       7.995   1.344  11.355  1.00  0.00    -0.484 OA
ATOM     34  C   UNL     1      10.704   1.286  11.321  1.00  0.00     0.174 C 
ATOM     35  C   UNL     1       8.623   2.532  10.795  1.00  0.00     0.211 C 
ATOM     36  O   UNL     1      11.941   1.185  11.083  1.00  0.00    -0.294 OA
ATOM     37  C   UNL     1       9.991   2.680  11.596  1.00  0.00     0.131 C 
BRANCH  30  38
ATOM     38  O   UNL     1      10.923  -1.752   9.845  1.00  0.00    -0.507 OA
ATOM     39  H   UNL     1      10.463  -2.592   9.503  1.00  0.00     0.293 HD
ENDBRANCH  30  38
BRANCH  35  40
ATOM     40  C   UNL     1       7.357   3.389  10.610  1.00  0.00    -0.003 A 
ATOM     41  C   UNL     1       7.090   3.971   9.364  1.00  0.00     0.057 A 
ATOM     42  C   UNL     1       7.062   4.186  11.783  1.00  0.00     0.011 A 
ATOM     43  C   UNL     1       6.764   5.387   9.287  1.00  0.00     0.158 A 
ATOM     44  C   UNL     1       6.800   5.561  11.675  1.00  0.00     0.051 A 
ATOM     45  C   UNL     1       6.693   6.187  10.433  1.00  0.00     0.160 A 
BRANCH  43  46
ATOM     46  O   UNL     1       6.537   6.004   8.073  1.00  0.00    -0.504 OA
ATOM     47  H   UNL     1       6.538   6.995   7.962  1.00  0.00     0.293 HD
ENDBRANCH  43  46
BRANCH  45  48
ATOM     48  O   UNL     1       6.608   7.620  10.268  1.00  0.00    -0.493 OA
ATOM     49  C   UNL     1       7.439   8.579  10.897  1.00  0.00     0.278 C 
ENDBRANCH  45  48
ENDBRANCH  35  40
ENDBRANCH  26  27
ENDBRANCH   5  26
BRANCH   4  50
ATOM     50  O   UNL     1       8.133  -3.632  15.415  1.00  0.00    -0.384 OA
ATOM     51  H   UNL     1       8.412  -3.232  14.484  1.00  0.00     0.211 HD
ENDBRANCH   4  50
TORSDOF 15
ENDMDL
MODEL 2
REMARK VINA RESULT:     5.421      1.643     10.967
REMARK INTER + INTRA:           7.144
REMARK INTER:                   8.093
REMARK INTRA:                  -0.949
REMARK UNBOUND:                -1.130
REMARK SMILES COc1ccc([C@H]2CC(=O)c3c(O)cc(O[C@@H]4O[C@@H](CO[C@@H]5O[C@@H](C)[C@H](O)[C@H](O)[C@H]5O)[C@@H](O)[C@H](O)[C@H]4O)cc3O2)cc1O
REMARK SMILES IDX 19 1 32 2 34 3 36 4 17 5 18 6 20 7 21 8 22 9 25 10 24 11
REMARK SMILES IDX 26 12 23 13 28 14 30 15 27 16 29 18 31 20 33 22 35 24 16 26
REMARK SMILES IDX 15 27 14 28 38 29 12 30 39 31 11 32 40 33 9 34 7 35 10 36
REMARK SMILES IDX 8 37 13 38 6 40 41 41 5 42 42 43 4 44 3 45 43 46 2 48 1 49
REMARK SMILES IDX 37 50
REMARK H PARENT 27 17 29 19 31 21 33 23 35 25 13 39 43 47 37 51
REMARK Flexibility Score: inf
ROOT
ATOM      1  C   UNL     1       9.638   0.434   9.948  1.00  0.00     0.180 C 
ATOM      2  C   UNL     1      11.287   0.044   9.663  1.00  0.00     0.177 C 
ATOM      3  C   UNL     1      11.605  -1.559  10.225  1.00  0.00     0.180 C 
ATOM      4  C   UNL     1      10.534  -1.806  11.445  1.00  0.00     0.214 C 
ATOM      5  C   UNL     1      10.312  -0.499  12.215  1.00  0.00     0.339 C 
ATOM      6  O   UNL     1       9.436   0.301  11.434  1.00  0.00    -0.332 OA
ENDROOT
BRANCH   1   7
ATOM      7  C   UNL     1       8.470   1.517   9.232  1.00  0.00     0.198 C 
BRANCH   7   8
ATOM      8  O   UNL     1       7.198   2.304   9.247  1.00  0.00    -0.347 OA
BRANCH   8   9
ATOM      9  C   UNL     1       7.062   3.405  10.082  1.00  0.00     0.281 C 
ATOM     10  C   UNL     1       5.875   6.432  10.314  1.00  0.00     0.041 C 
ATOM     11  C   UNL     1       7.244   5.787   9.952  1.00  0.00     0.150 C 
ATOM     12  C   UNL     1       8.290   5.768  11.123  1.00  0.00     0.174 C 
ATOM     13  O   UNL     1       7.096   4.534   9.278  1.00  0.00    -0.344 OA
ATOM     14  C   UNL     1       7.759   4.625  12.039  1.00  0.00     0.179 C 
ATOM     15  C   UNL     1       7.989   3.314  11.351  1.00  0.00     0.202 C 
BRANCH  12  16
ATOM     16  O   UNL     1       9.499   5.445  10.449  1.00  0.00    -0.388 OA
ATOM     17  H   UNL     1      10.214   6.154  10.335  1.00  0.00     0.211 HD
ENDBRANCH  12  16
BRANCH  14  18
ATOM     18  O   UNL     1       8.090   4.650  13.422  1.00  0.00    -0.387 OA
ATOM     19  H   UNL     1       8.827   3.971  13.634  1.00  0.00     0.211 HD
ENDBRANCH  14  18
BRANCH  15  20
ATOM     20  O   UNL     1       7.811   2.225  12.366  1.00  0.00    -0.385 OA
ATOM     21  H   UNL     1       8.330   2.494  13.177  1.00  0.00     0.211 HD
ENDBRANCH  15  20
ENDBRANCH   8   9
ENDBRANCH   7   8
ENDBRANCH   1   7
BRANCH   2  22
ATOM     22  O   UNL     1      12.112   0.939  10.420  1.00  0.00    -0.387 OA
ATOM     23  H   UNL     1      12.854   1.201   9.811  1.00  0.00     0.211 HD
ENDBRANCH   2  22
BRANCH   3  24
ATOM     24  O   UNL     1      11.179  -2.426   9.302  1.00  0.00    -0.387 OA
ATOM     25  H   UNL     1      10.658  -3.125   9.728  1.00  0.00     0.211 HD
ENDBRANCH   3  24
BRANCH   5  26
ATOM     26  O   UNL     1      10.006  -0.427  13.715  1.00  0.00    -0.462 OA
BRANCH  26  27
ATOM     27  C   UNL     1       9.773  -1.453  14.662  1.00  0.00     0.130 A 
ATOM     28  C   UNL     1       8.600  -2.281  14.677  1.00  0.00     0.093 A 
ATOM     29  C   UNL     1      10.754  -1.825  15.671  1.00  0.00     0.094 A 
ATOM     30  C   UNL     1       8.101  -2.674  15.959  1.00  0.00     0.133 A 
ATOM     31  C   UNL     1      10.235  -2.448  16.760  1.00  0.00     0.138 A 
ATOM     32  C   UNL     1       8.890  -2.417  17.016  1.00  0.00     0.102 A 
ATOM     33  O   UNL     1      10.894  -2.684  17.961  1.00  0.00    -0.484 OA
ATOM     34  C   UNL     1       8.665  -1.149  17.845  1.00  0.00     0.174 C 
ATOM     35  C   UNL     1      10.437  -2.177  19.246  1.00  0.00     0.211 C 
ATOM     36  O   UNL     1       7.511  -0.633  17.845  1.00  0.00    -0.294 OA
ATOM     37  C   UNL     1       9.780  -0.766  18.911  1.00  0.00     0.131 C 
BRANCH  30  38
ATOM     38  O   UNL     1       6.868  -3.363  16.021  1.00  0.00    -0.507 OA
ATOM     39  H   UNL     1       6.045  -2.810  15.796  1.00  0.00     0.293 HD
ENDBRANCH  30  38
BRANCH  35  40
ATOM     40  C   UNL     1      11.612  -2.667  20.112  1.00  0.00    -0.003 A 
ATOM     41  C   UNL     1      12.813  -1.946  20.123  1.00  0.00     0.057 A 
ATOM     42  C   UNL     1      11.714  -4.112  20.125  1.00  0.00     0.011 A 
ATOM     43  C   UNL     1      14.073  -2.644  19.913  1.00  0.00     0.158 A 
ATOM     44  C   UNL     1      12.938  -4.752  19.869  1.00  0.00     0.051 A 
ATOM     45  C   UNL     1      14.121  -4.029  19.716  1.00  0.00     0.160 A 
BRANCH  43  46
ATOM     46  O   UNL     1      15.272  -1.961  19.875  1.00  0.00    -0.504 OA
ATOM     47  H   UNL     1      16.155  -2.422  19.838  1.00  0.00     0.293 HD
ENDBRANCH  43  46
BRANCH  45  48
ATOM     48  O   UNL     1      15.363  -4.619  19.273  1.00  0.00    -0.493 OA
ATOM     49  C   UNL     1      16.516  -4.823  20.071  1.00  0.00     0.278 C 
ENDBRANCH  45  48
ENDBRANCH  35  40
ENDBRANCH  26  27
ENDBRANCH   5  26
BRANCH   4  50
ATOM     50  O   UNL     1      10.392  -3.015  12.208  1.00  0.00    -0.384 OA
ATOM     51  H   UNL     1       9.959  -3.716  11.555  1.00  0.00     0.211 HD
ENDBRANCH   4  50
TORSDOF 15
ENDMDL
MODEL 3
REMARK VINA RESULT:     5.929      2.450     11.442
REMARK INTER + INTRA:           7.919
REMARK INTER:                   9.331
REMARK INTRA:                  -1.412
REMARK UNBOUND:                -1.130
REMARK SMILES COc1ccc([C@H]2CC(=O)c3c(O)cc(O[C@@H]4O[C@@H](CO[C@@H]5O[C@@H](C)[C@H](O)[C@H](O)[C@H]5O)[C@@H](O)[C@H](O)[C@H]4O)cc3O2)cc1O
REMARK SMILES IDX 19 1 32 2 34 3 36 4 17 5 18 6 20 7 21 8 22 9 25 10 24 11
REMARK SMILES IDX 26 12 23 13 28 14 30 15 27 16 29 18 31 20 33 22 35 24 16 26
REMARK SMILES IDX 15 27 14 28 38 29 12 30 39 31 11 32 40 33 9 34 7 35 10 36
REMARK SMILES IDX 8 37 13 38 6 40 41 41 5 42 42 43 4 44 3 45 43 46 2 48 1 49
REMARK SMILES IDX 37 50
REMARK H PARENT 27 17 29 19 31 21 33 23 35 25 13 39 43 47 37 51
REMARK Flexibility Score: inf
ROOT
ATOM      1  C   UNL     1       8.906  -1.904  14.978  1.00  0.00     0.180 C 
ATOM      2  C   UNL     1       7.522  -2.903  14.782  1.00  0.00     0.177 C 
ATOM      3  C   UNL     1       6.625  -2.941  16.258  1.00  0.00     0.180 C 
ATOM      4  C   UNL     1       7.736  -2.693  17.442  1.00  0.00     0.214 C 
ATOM      5  C   UNL     1       9.063  -3.358  17.058  1.00  0.00     0.339 C 
ATOM      6  O   UNL     1       9.693  -2.511  16.109  1.00  0.00    -0.332 OA
ENDROOT
BRANCH   1   7
ATOM      7  C   UNL     1       9.922  -0.956  13.920  1.00  0.00     0.198 C 
BRANCH   7   8
ATOM      8  O   UNL     1      10.390  -0.507  12.572  1.00  0.00    -0.347 OA
BRANCH   8   9
ATOM      9  C   UNL     1       9.894   0.660  12.007  1.00  0.00     0.281 C 
ATOM     10  C   UNL     1       8.236   3.402  12.603  1.00  0.00     0.041 C 
ATOM     11  C   UNL     1       7.898   1.978  12.076  1.00  0.00     0.150 C 
ATOM     12  C   UNL     1       7.775   1.868  10.515  1.00  0.00     0.174 C 
ATOM     13  O   UNL     1       8.717   0.968  12.673  1.00  0.00    -0.344 OA
ATOM     14  C   UNL     1       9.261   1.913  10.049  1.00  0.00     0.179 C 
ATOM     15  C   UNL     1       9.923   0.625  10.434  1.00  0.00     0.202 C 
BRANCH  12  16
ATOM     16  O   UNL     1       7.161   0.597  10.344  1.00  0.00    -0.388 OA
ATOM     17  H   UNL     1       7.702  -0.245  10.503  1.00  0.00     0.211 HD
ENDBRANCH  12  16
BRANCH  14  18
ATOM     18  O   UNL     1       9.550   2.374   8.735  1.00  0.00    -0.387 OA
ATOM     19  H   UNL     1      10.194   3.170   8.759  1.00  0.00     0.211 HD
ENDBRANCH  14  18
BRANCH  15  20
ATOM     20  O   UNL     1      11.217   0.532   9.682  1.00  0.00    -0.385 OA
ATOM     21  H   UNL     1      11.417  -0.440   9.565  1.00  0.00     0.211 HD
ENDBRANCH  15  20
ENDBRANCH   8   9
ENDBRANCH   7   8
ENDBRANCH   1   7
BRANCH   2  22
ATOM     22  O   UNL     1       7.953  -4.242  14.504  1.00  0.00    -0.387 OA
ATOM     23  H   UNL     1       7.135  -4.805  14.560  1.00  0.00     0.211 HD
ENDBRANCH   2  22
BRANCH   3  24
ATOM     24  O   UNL     1       5.885  -1.830  16.335  1.00  0.00    -0.387 OA
ATOM     25  H   UNL     1       6.212  -1.270  17.057  1.00  0.00     0.211 HD
ENDBRANCH   3  24
BRANCH   5  26
ATOM     26  O   UNL     1      10.047  -3.959  18.068  1.00  0.00    -0.462 OA
BRANCH  26  27
ATOM     27  C   UNL     1      10.974  -3.337  18.938  1.00  0.00     0.130 A 
ATOM     28  C   UNL     1      10.805  -2.018  19.481  1.00  0.00     0.093 A 
ATOM     29  C   UNL     1      12.158  -4.019  19.438  1.00  0.00     0.094 A 
ATOM     30  C   UNL     1      11.988  -1.232  19.651  1.00  0.00     0.133 A 
ATOM     31  C   UNL     1      13.157  -3.193  19.843  1.00  0.00     0.138 A 
ATOM     32  C   UNL     1      13.161  -1.869  19.493  1.00  0.00     0.102 A 
ATOM     33  O   UNL     1      14.465  -3.567  20.124  1.00  0.00    -0.484 OA
ATOM     34  C   UNL     1      13.886  -1.808  18.146  1.00  0.00     0.174 C 
ATOM     35  C   UNL     1      15.625  -3.029  19.428  1.00  0.00     0.211 C 
ATOM     36  O   UNL     1      13.655  -0.823  17.388  1.00  0.00    -0.294 OA
ATOM     37  C   UNL     1      15.122  -2.785  17.938  1.00  0.00     0.131 C 
BRANCH  30  38
ATOM     38  O   UNL     1      11.851   0.119  20.042  1.00  0.00    -0.507 OA
ATOM     39  H   UNL     1      12.699   0.565  20.384  1.00  0.00     0.293 HD
ENDBRANCH  30  38
BRANCH  35  40
ATOM     40  C   UNL     1      16.710  -3.894  20.097  1.00  0.00    -0.003 A 
ATOM     41  C   UNL     1      18.062  -3.592  19.892  1.00  0.00     0.057 A 
ATOM     42  C   UNL     1      16.348  -5.297  20.124  1.00  0.00     0.011 A 
ATOM     43  C   UNL     1      18.982  -4.646  19.491  1.00  0.00     0.158 A 
ATOM     44  C   UNL     1      17.245  -6.283  19.683  1.00  0.00     0.051 A 
ATOM     45  C   UNL     1      18.554  -5.967  19.318  1.00  0.00     0.160 A 
BRANCH  43  46
ATOM     46  O   UNL     1      20.312  -4.377  19.238  1.00  0.00    -0.504 OA
ATOM     47  H   UNL     1      21.033  -4.548  19.904  1.00  0.00     0.293 HD
ENDBRANCH  43  46
BRANCH  45  48
ATOM     48  O   UNL     1      19.453  -6.905  18.688  1.00  0.00    -0.493 OA
ATOM     49  C   UNL     1      19.082  -8.124  18.068  1.00  0.00     0.278 C 
ENDBRANCH  45  48
ENDBRANCH  35  40
ENDBRANCH  26  27
ENDBRANCH   5  26
BRANCH   4  50
ATOM     50  O   UNL     1       7.461  -2.609  18.849  1.00  0.00    -0.384 OA
ATOM     51  H   UNL     1       6.475  -2.253  18.927  1.00  0.00     0.211 HD
ENDBRANCH   4  50
TORSDOF 15
ENDMDL
MODEL 4
REMARK VINA RESULT:     6.600      2.033      2.938
REMARK INTER + INTRA:           8.943
REMARK INTER:                   9.618
REMARK INTRA:                  -0.675
REMARK UNBOUND:                -1.130
REMARK SMILES COc1ccc([C@H]2CC(=O)c3c(O)cc(O[C@@H]4O[C@@H](CO[C@@H]5O[C@@H](C)[C@H](O)[C@H](O)[C@H]5O)[C@@H](O)[C@H](O)[C@H]4O)cc3O2)cc1O
REMARK SMILES IDX 19 1 32 2 34 3 36 4 17 5 18 6 20 7 21 8 22 9 25 10 24 11
REMARK SMILES IDX 26 12 23 13 28 14 30 15 27 16 29 18 31 20 33 22 35 24 16 26
REMARK SMILES IDX 15 27 14 28 38 29 12 30 39 31 11 32 40 33 9 34 7 35 10 36
REMARK SMILES IDX 8 37 13 38 6 40 41 41 5 42 42 43 4 44 3 45 43 46 2 48 1 49
REMARK SMILES IDX 37 50
REMARK H PARENT 27 17 29 19 31 21 33 23 35 25 13 39 43 47 37 51
REMARK Flexibility Score: inf
ROOT
ATOM      1  C   UNL     1      12.474  -3.090  18.724  1.00  0.00     0.180 C 
ATOM      2  C   UNL     1      11.210  -2.766  19.843  1.00  0.00     0.177 C 
ATOM      3  C   UNL     1       9.692  -3.184  19.133  1.00  0.00     0.180 C 
ATOM      4  C   UNL     1       9.906  -2.991  17.516  1.00  0.00     0.214 C 
ATOM      5  C   UNL     1      10.844  -1.808  17.253  1.00  0.00     0.339 C 
ATOM      6  O   UNL     1      12.166  -2.260  17.507  1.00  0.00    -0.332 OA
ENDROOT
BRANCH   1   7
ATOM      7  C   UNL     1      14.176  -3.465  18.837  1.00  0.00     0.198 C 
BRANCH   7   8
ATOM      8  O   UNL     1      15.368  -4.054  19.523  1.00  0.00    -0.347 OA
BRANCH   8   9
ATOM      9  C   UNL     1      16.535  -3.315  19.663  1.00  0.00     0.281 C 
ATOM     10  C   UNL     1      17.750  -0.314  20.040  1.00  0.00     0.041 C 
ATOM     11  C   UNL     1      17.472  -1.271  18.846  1.00  0.00     0.150 C 
ATOM     12  C   UNL     1      18.728  -2.057  18.327  1.00  0.00     0.174 C 
ATOM     13  O   UNL     1      16.316  -2.086  19.058  1.00  0.00    -0.344 OA
ATOM     14  C   UNL     1      18.927  -3.146  19.423  1.00  0.00     0.179 C 
ATOM     15  C   UNL     1      17.820  -4.151  19.305  1.00  0.00     0.202 C 
BRANCH  12  16
ATOM     16  O   UNL     1      18.276  -2.573  17.083  1.00  0.00    -0.388 OA
ATOM     17  H   UNL     1      17.976  -3.539  17.021  1.00  0.00     0.211 HD
ENDBRANCH  12  16
BRANCH  14  18
ATOM     18  O   UNL     1      20.225  -3.695  19.611  1.00  0.00    -0.387 OA
ATOM     19  H   UNL     1      20.521  -4.228  18.788  1.00  0.00     0.211 HD
ENDBRANCH  14  18
BRANCH  15  20
ATOM     20  O   UNL     1      18.209  -5.358  20.104  1.00  0.00    -0.385 OA
ATOM     21  H   UNL     1      18.533  -5.030  20.991  1.00  0.00     0.211 HD
ENDBRANCH  15  20
ENDBRANCH   8   9
ENDBRANCH   7   8
ENDBRANCH   1   7
BRANCH   2  22
ATOM     22  O   UNL     1      11.186  -1.360  20.120  1.00  0.00    -0.387 OA
ATOM     23  H   UNL     1      11.052  -0.916  19.240  1.00  0.00     0.211 HD
ENDBRANCH   2  22
BRANCH   3  24
ATOM     24  O   UNL     1       9.523  -4.506  19.235  1.00  0.00    -0.387 OA
ATOM     25  H   UNL     1       8.752  -4.694  19.794  1.00  0.00     0.211 HD
ENDBRANCH   3  24
BRANCH   5  26
ATOM     26  O   UNL     1      10.751  -0.894  16.026  1.00  0.00    -0.462 OA
BRANCH  26  27
ATOM     27  C   UNL     1      10.102  -1.079  14.783  1.00  0.00     0.130 A 
ATOM     28  C   UNL     1      10.319  -2.209  13.923  1.00  0.00     0.093 A 
ATOM     29  C   UNL     1       9.077  -0.171  14.292  1.00  0.00     0.094 A 
ATOM     30  C   UNL     1      10.281  -1.968  12.514  1.00  0.00     0.133 A 
ATOM     31  C   UNL     1       8.902  -0.190  12.945  1.00  0.00     0.138 A 
ATOM     32  C   UNL     1       9.836  -0.762  12.122  1.00  0.00     0.102 A 
ATOM     33  O   UNL     1       8.182   0.735  12.199  1.00  0.00    -0.484 OA
ATOM     34  C   UNL     1      10.835   0.354  11.807  1.00  0.00     0.174 C 
ATOM     35  C   UNL     1       8.761   1.537  11.132  1.00  0.00     0.211 C 
ATOM     36  O   UNL     1      12.005   0.027  11.455  1.00  0.00    -0.294 OA
ATOM     37  C   UNL     1      10.254   1.820  11.606  1.00  0.00     0.131 C 
BRANCH  30  38
ATOM     38  O   UNL     1      10.635  -3.020  11.639  1.00  0.00    -0.507 OA
ATOM     39  H   UNL     1      10.677  -3.945  12.061  1.00  0.00     0.293 HD
ENDBRANCH  30  38
BRANCH  35  40
ATOM     40  C   UNL     1       7.527   2.399  10.804  1.00  0.00    -0.003 A 
ATOM     41  C   UNL     1       7.321   2.844   9.491  1.00  0.00     0.057 A 
ATOM     42  C   UNL     1       7.215   3.331  11.869  1.00  0.00     0.011 A 
ATOM     43  C   UNL     1       7.039   4.250   9.244  1.00  0.00     0.158 A 
ATOM     44  C   UNL     1       6.997   4.691  11.597  1.00  0.00     0.051 A 
ATOM     45  C   UNL     1       6.951   5.176  10.290  1.00  0.00     0.160 A 
BRANCH  43  46
ATOM     46  O   UNL     1       6.873   4.732   7.962  1.00  0.00    -0.504 OA
ATOM     47  H   UNL     1       7.054   4.182   7.150  1.00  0.00     0.293 HD
ENDBRANCH  43  46
BRANCH  45  48
ATOM     48  O   UNL     1       6.914   6.582   9.963  1.00  0.00    -0.493 OA
ATOM     49  C   UNL     1       7.293   7.645  10.821  1.00  0.00     0.278 C 
ENDBRANCH  45  48
ENDBRANCH  35  40
ENDBRANCH  26  27
ENDBRANCH   5  26
BRANCH   4  50
ATOM     50  O   UNL     1       8.924  -3.251  16.501  1.00  0.00    -0.384 OA
ATOM     51  H   UNL     1       8.216  -2.479  16.583  1.00  0.00     0.211 HD
ENDBRANCH   4  50
TORSDOF 15
ENDMDL
