MODEL 1
REMARK VINA RESULT:    -5.341      0.000      0.000
REMARK INTER + INTRA:          -6.072
REMARK INTER:                  -5.965
REMARK INTRA:                  -0.107
REMARK UNBOUND:                -0.107
REMARK SMILES CCc1ccc(O)cc1O
REMARK SMILES IDX 3 1 9 2 8 3 6 4 5 5 4 6 2 7 1 8 10 9 7 11
REMARK H PARENT 10 10 7 12
REMARK Flexibility Score: inf
ROOT
ATOM      1  C   UNL     1      59.423 153.308   2.614  1.00  0.00    -0.006 A 
ATOM      2  C   UNL     1      60.719 152.895   2.245  1.00  0.00     0.122 A 
ATOM      3  C   UNL     1      61.243 153.270   0.999  1.00  0.00     0.092 A 
ATOM      4  C   UNL     1      60.493 154.063   0.125  1.00  0.00     0.119 A 
ATOM      5  C   UNL     1      59.211 154.486   0.496  1.00  0.00     0.047 A 
ATOM      6  C   UNL     1      58.682 154.116   1.735  1.00  0.00     0.011 A 
ENDROOT
BRANCH   1   7
ATOM      7  C   UNL     1      58.846 152.944   3.959  1.00  0.00     0.036 C 
ATOM      8  C   UNL     1      58.941 154.121   4.924  1.00  0.00     0.009 C 
ENDBRANCH   1   7
BRANCH   2   9
ATOM      9  O   UNL     1      61.481 152.115   3.114  1.00  0.00    -0.508 OA
ATOM     10  H   UNL     1      61.853 152.491   3.979  1.00  0.00     0.293 HD
ENDBRANCH   2   9
BRANCH   4  11
ATOM     11  O   UNL     1      61.031 154.426  -1.107  1.00  0.00    -0.508 OA
ATOM     12  H   UNL     1      60.524 154.276  -1.972  1.00  0.00     0.293 HD
ENDBRANCH   4  11
TORSDOF 3
ENDMDL
MODEL 2
REMARK VINA RESULT:    -5.150      4.329      6.144
REMARK INTER + INTRA:          -5.859
REMARK INTER:                  -5.768
REMARK INTRA:                  -0.092
REMARK UNBOUND:                -0.107
REMARK SMILES CCc1ccc(O)cc1O
REMARK SMILES IDX 3 1 9 2 8 3 6 4 5 5 4 6 2 7 1 8 10 9 7 11
REMARK H PARENT 10 10 7 12
REMARK Flexibility Score: inf
ROOT
ATOM      1  C   UNL     1      62.515 151.108   4.176  1.00  0.00    -0.006 A 
ATOM      2  C   UNL     1      62.258 150.024   5.039  1.00  0.00     0.122 A 
ATOM      3  C   UNL     1      63.325 149.278   5.561  1.00  0.00     0.092 A 
ATOM      4  C   UNL     1      64.644 149.611   5.239  1.00  0.00     0.119 A 
ATOM      5  C   UNL     1      64.902 150.696   4.393  1.00  0.00     0.047 A 
ATOM      6  C   UNL     1      63.845 151.443   3.870  1.00  0.00     0.011 A 
ENDROOT
BRANCH   1   7
ATOM      7  C   UNL     1      61.389 151.945   3.625  1.00  0.00     0.036 C 
ATOM      8  C   UNL     1      61.427 151.969   2.101  1.00  0.00     0.009 C 
ENDBRANCH   1   7
BRANCH   2   9
ATOM      9  O   UNL     1      60.946 149.692   5.378  1.00  0.00    -0.508 OA
ATOM     10  H   UNL     1      60.609 149.762   6.331  1.00  0.00     0.293 HD
ENDBRANCH   2   9
BRANCH   4  11
ATOM     11  O   UNL     1      65.691 148.858   5.768  1.00  0.00    -0.508 OA
ATOM     12  H   UNL     1      65.852 148.803   6.767  1.00  0.00     0.293 HD
ENDBRANCH   4  11
TORSDOF 3
ENDMDL
MODEL 3
REMARK VINA RESULT:    -5.019      5.197      6.963
REMARK INTER + INTRA:          -5.713
REMARK INTER:                  -5.607
REMARK INTRA:                  -0.107
REMARK UNBOUND:                -0.107
REMARK SMILES CCc1ccc(O)cc1O
REMARK SMILES IDX 3 1 9 2 8 3 6 4 5 5 4 6 2 7 1 8 10 9 7 11
REMARK H PARENT 10 10 7 12
REMARK Flexibility Score: inf
ROOT
ATOM      1  C   UNL     1      64.258 150.995   4.800  1.00  0.00    -0.006 A 
ATOM      2  C   UNL     1      62.856 151.029   4.945  1.00  0.00     0.122 A 
ATOM      3  C   UNL     1      62.164 149.866   5.314  1.00  0.00     0.092 A 
ATOM      4  C   UNL     1      62.856 148.676   5.551  1.00  0.00     0.119 A 
ATOM      5  C   UNL     1      64.250 148.644   5.423  1.00  0.00     0.047 A 
ATOM      6  C   UNL     1      64.947 149.797   5.055  1.00  0.00     0.011 A 
ENDROOT
BRANCH   1   7
ATOM      7  C   UNL     1      65.030 152.237   4.434  1.00  0.00     0.036 C 
ATOM      8  C   UNL     1      65.713 152.831   5.662  1.00  0.00     0.009 C 
ENDBRANCH   1   7
BRANCH   2   9
ATOM      9  O   UNL     1      62.156 152.215   4.724  1.00  0.00    -0.508 OA
ATOM     10  H   UNL     1      61.149 152.265   4.827  1.00  0.00     0.293 HD
ENDBRANCH   2   9
BRANCH   4  11
ATOM     11  O   UNL     1      62.151 147.531   5.918  1.00  0.00    -0.508 OA
ATOM     12  H   UNL     1      61.169 147.571   6.164  1.00  0.00     0.293 HD
ENDBRANCH   4  11
TORSDOF 3
ENDMDL
MODEL 4
REMARK VINA RESULT:    -5.010      3.962      5.332
REMARK INTER + INTRA:          -5.703
REMARK INTER:                  -5.607
REMARK INTRA:                  -0.096
REMARK UNBOUND:                -0.107
REMARK SMILES CCc1ccc(O)cc1O
REMARK SMILES IDX 3 1 9 2 8 3 6 4 5 5 4 6 2 7 1 8 10 9 7 11
REMARK H PARENT 10 10 7 12
REMARK Flexibility Score: inf
ROOT
ATOM      1  C   UNL     1      63.702 151.241   4.759  1.00  0.00    -0.006 A 
ATOM      2  C   UNL     1      62.537 151.272   5.552  1.00  0.00     0.122 A 
ATOM      3  C   UNL     1      61.299 151.572   4.965  1.00  0.00     0.092 A 
ATOM      4  C   UNL     1      61.211 151.829   3.594  1.00  0.00     0.119 A 
ATOM      5  C   UNL     1      62.365 151.785   2.801  1.00  0.00     0.047 A 
ATOM      6  C   UNL     1      63.601 151.488   3.379  1.00  0.00     0.011 A 
ENDROOT
BRANCH   1   7
ATOM      7  C   UNL     1      65.041 150.892   5.359  1.00  0.00     0.036 C 
ATOM      8  C   UNL     1      65.270 149.385   5.329  1.00  0.00     0.009 C 
ENDBRANCH   1   7
BRANCH   2   9
ATOM      9  O   UNL     1      62.612 151.003   6.919  1.00  0.00    -0.508 OA
ATOM     10  H   UNL     1      62.383 151.705   7.612  1.00  0.00     0.293 HD
ENDBRANCH   2   9
BRANCH   4  11
ATOM     11  O   UNL     1      59.972 152.124   3.028  1.00  0.00    -0.508 OA
ATOM     12  H   UNL     1      59.214 151.452   3.034  1.00  0.00     0.293 HD
ENDBRANCH   4  11
TORSDOF 3
ENDMDL
MODEL 5
REMARK VINA RESULT:    -4.983      1.872      2.832
REMARK INTER + INTRA:          -5.673
REMARK INTER:                  -5.588
REMARK INTRA:                  -0.085
REMARK UNBOUND:                -0.107
REMARK SMILES CCc1ccc(O)cc1O
REMARK SMILES IDX 3 1 9 2 8 3 6 4 5 5 4 6 2 7 1 8 10 9 7 11
REMARK H PARENT 10 10 7 12
REMARK Flexibility Score: inf
ROOT
ATOM      1  C   UNL     1      60.939 152.277   2.979  1.00  0.00    -0.006 A 
ATOM      2  C   UNL     1      59.608 152.667   3.230  1.00  0.00     0.122 A 
ATOM      3  C   UNL     1      58.923 153.454   2.293  1.00  0.00     0.092 A 
ATOM      4  C   UNL     1      59.548 153.845   1.105  1.00  0.00     0.119 A 
ATOM      5  C   UNL     1      60.865 153.446   0.847  1.00  0.00     0.047 A 
ATOM      6  C   UNL     1      61.554 152.663   1.776  1.00  0.00     0.011 A 
ENDROOT
BRANCH   1   7
ATOM      7  C   UNL     1      61.690 151.406   3.954  1.00  0.00     0.036 C 
ATOM      8  C   UNL     1      63.195 151.523   3.738  1.00  0.00     0.009 C 
ENDBRANCH   1   7
BRANCH   2   9
ATOM      9  O   UNL     1      58.971 152.271   4.406  1.00  0.00    -0.508 OA
ATOM     10  H   UNL     1      59.467 152.217   5.287  1.00  0.00     0.293 HD
ENDBRANCH   2   9
BRANCH   4  11
ATOM     11  O   UNL     1      58.850 154.626   0.187  1.00  0.00    -0.508 OA
ATOM     12  H   UNL     1      57.894 154.918   0.357  1.00  0.00     0.293 HD
ENDBRANCH   4  11
TORSDOF 3
ENDMDL
MODEL 6
REMARK VINA RESULT:    -4.881      5.877      7.082
REMARK INTER + INTRA:          -5.559
REMARK INTER:                  -5.457
REMARK INTRA:                  -0.102
REMARK UNBOUND:                -0.107
REMARK SMILES CCc1ccc(O)cc1O
REMARK SMILES IDX 3 1 9 2 8 3 6 4 5 5 4 6 2 7 1 8 10 9 7 11
REMARK H PARENT 10 10 7 12
REMARK Flexibility Score: inf
ROOT
ATOM      1  C   UNL     1      63.558 149.519   5.720  1.00  0.00    -0.006 A 
ATOM      2  C   UNL     1      62.611 148.475   5.729  1.00  0.00     0.122 A 
ATOM      3  C   UNL     1      61.264 148.757   6.001  1.00  0.00     0.092 A 
ATOM      4  C   UNL     1      60.852 150.069   6.251  1.00  0.00     0.119 A 
ATOM      5  C   UNL     1      61.788 151.109   6.228  1.00  0.00     0.047 A 
ATOM      6  C   UNL     1      63.132 150.837   5.958  1.00  0.00     0.011 A 
ENDROOT
BRANCH   1   7
ATOM      7  C   UNL     1      65.007 149.250   5.401  1.00  0.00     0.036 C 
ATOM      8  C   UNL     1      65.263 149.375   3.903  1.00  0.00     0.009 C 
ENDBRANCH   1   7
BRANCH   2   9
ATOM      9  O   UNL     1      63.009 147.164   5.467  1.00  0.00    -0.508 OA
ATOM     10  H   UNL     1      63.303 146.540   6.208  1.00  0.00     0.293 HD
ENDBRANCH   2   9
BRANCH   4  11
ATOM     11  O   UNL     1      59.509 150.328   6.518  1.00  0.00    -0.508 OA
ATOM     12  H   UNL     1      59.153 150.352   7.467  1.00  0.00     0.293 HD
ENDBRANCH   4  11
TORSDOF 3
ENDMDL
MODEL 7
REMARK VINA RESULT:    -4.864     19.031     20.613
REMARK INTER + INTRA:          -5.540
REMARK INTER:                  -5.454
REMARK INTRA:                  -0.086
REMARK UNBOUND:                -0.107
REMARK SMILES CCc1ccc(O)cc1O
REMARK SMILES IDX 3 1 9 2 8 3 6 4 5 5 4 6 2 7 1 8 10 9 7 11
REMARK H PARENT 10 10 7 12
REMARK Flexibility Score: inf
ROOT
ATOM      1  C   UNL     1      70.449 138.873  -8.034  1.00  0.00    -0.006 A 
ATOM      2  C   UNL     1      69.582 139.683  -7.273  1.00  0.00     0.122 A 
ATOM      3  C   UNL     1      69.074 139.209  -6.054  1.00  0.00     0.092 A 
ATOM      4  C   UNL     1      69.431 137.942  -5.584  1.00  0.00     0.119 A 
ATOM      5  C   UNL     1      70.304 137.142  -6.332  1.00  0.00     0.047 A 
ATOM      6  C   UNL     1      70.813 137.607  -7.546  1.00  0.00     0.011 A 
ENDROOT
BRANCH   1   7
ATOM      7  C   UNL     1      71.034 139.369  -9.332  1.00  0.00     0.036 C 
ATOM      8  C   UNL     1      72.288 138.582  -9.697  1.00  0.00     0.009 C 
ENDBRANCH   1   7
BRANCH   2   9
ATOM      9  O   UNL     1      69.230 140.954  -7.726  1.00  0.00    -0.508 OA
ATOM     10  H   UNL     1      68.432 141.451  -7.348  1.00  0.00     0.293 HD
ENDBRANCH   2   9
BRANCH   4  11
ATOM     11  O   UNL     1      68.916 137.489  -4.371  1.00  0.00    -0.508 OA
ATOM     12  H   UNL     1      68.145 137.961  -3.913  1.00  0.00     0.293 HD
ENDBRANCH   4  11
TORSDOF 3
ENDMDL
MODEL 8
REMARK VINA RESULT:    -4.846      5.406      6.665
REMARK INTER + INTRA:          -5.520
REMARK INTER:                  -5.417
REMARK INTRA:                  -0.103
REMARK UNBOUND:                -0.107
REMARK SMILES CCc1ccc(O)cc1O
REMARK SMILES IDX 3 1 9 2 8 3 6 4 5 5 4 6 2 7 1 8 10 9 7 11
REMARK H PARENT 10 10 7 12
REMARK Flexibility Score: inf
ROOT
ATOM      1  C   UNL     1      64.011 150.728   4.844  1.00  0.00    -0.006 A 
ATOM      2  C   UNL     1      64.133 149.439   5.400  1.00  0.00     0.122 A 
ATOM      3  C   UNL     1      62.981 148.707   5.725  1.00  0.00     0.092 A 
ATOM      4  C   UNL     1      61.712 149.243   5.489  1.00  0.00     0.119 A 
ATOM      5  C   UNL     1      61.589 150.518   4.923  1.00  0.00     0.047 A 
ATOM      6  C   UNL     1      62.732 151.253   4.597  1.00  0.00     0.011 A 
ENDROOT
BRANCH   1   7
ATOM      7  C   UNL     1      65.232 151.525   4.457  1.00  0.00     0.036 C 
ATOM      8  C   UNL     1      65.539 152.588   5.507  1.00  0.00     0.009 C 
ENDBRANCH   1   7
BRANCH   2   9
ATOM      9  O   UNL     1      65.394 148.888   5.627  1.00  0.00    -0.508 OA
ATOM     10  H   UNL     1      65.638 148.465   6.515  1.00  0.00     0.293 HD
ENDBRANCH   2   9
BRANCH   4  11
ATOM     11  O   UNL     1      60.580 148.501   5.818  1.00  0.00    -0.508 OA
ATOM     12  H   UNL     1      59.679 148.693   5.396  1.00  0.00     0.293 HD
ENDBRANCH   4  11
TORSDOF 3
ENDMDL
MODEL 9
REMARK VINA RESULT:    -4.796      5.056      6.436
REMARK INTER + INTRA:          -5.464
REMARK INTER:                  -5.368
REMARK INTRA:                  -0.096
REMARK UNBOUND:                -0.107
REMARK SMILES CCc1ccc(O)cc1O
REMARK SMILES IDX 3 1 9 2 8 3 6 4 5 5 4 6 2 7 1 8 10 9 7 11
REMARK H PARENT 10 10 7 12
REMARK Flexibility Score: inf
ROOT
ATOM      1  C   UNL     1      62.767 149.359   5.476  1.00  0.00    -0.006 A 
ATOM      2  C   UNL     1      62.296 150.546   4.880  1.00  0.00     0.122 A 
ATOM      3  C   UNL     1      63.205 151.550   4.512  1.00  0.00     0.092 A 
ATOM      4  C   UNL     1      64.575 151.376   4.723  1.00  0.00     0.119 A 
ATOM      5  C   UNL     1      65.045 150.191   5.302  1.00  0.00     0.047 A 
ATOM      6  C   UNL     1      64.147 149.186   5.670  1.00  0.00     0.011 A 
ENDROOT
BRANCH   1   7
ATOM      7  C   UNL     1      61.816 148.250   5.852  1.00  0.00     0.036 C 
ATOM      8  C   UNL     1      62.209 146.945   5.169  1.00  0.00     0.009 C 
ENDBRANCH   1   7
BRANCH   2   9
ATOM      9  O   UNL     1      60.932 150.725   4.652  1.00  0.00    -0.508 OA
ATOM     10  H   UNL     1      60.536 151.643   4.489  1.00  0.00     0.293 HD
ENDBRANCH   2   9
BRANCH   4  11
ATOM     11  O   UNL     1      65.461 152.384   4.351  1.00  0.00    -0.508 OA
ATOM     12  H   UNL     1      65.746 152.511   3.387  1.00  0.00     0.293 HD
ENDBRANCH   4  11
TORSDOF 3
ENDMDL
