MODEL 1
REMARK VINA RESULT:    -3.447      0.000      0.000
REMARK INTER + INTRA:          -4.230
REMARK INTER:                  -4.857
REMARK INTRA:                   0.628
REMARK UNBOUND:                 0.628
REMARK SMILES CC1=CCCC(C)=CCC(C)(C)C=CC1
REMARK SMILES IDX 2 1 3 2 1 3 4 4 5 5 6 6 7 7 8 8 15 10 14 11 13 12 10 13
REMARK SMILES IDX 11 14 12 15 9 16
REMARK H PARENT
REMARK Flexibility Score: 60.00
ROOT
ATOM      1  C   UNL     1     138.270 134.043 132.206  1.00  0.00    -0.074 C 
ATOM      2  C   UNL     1     137.999 134.139 133.535  1.00  0.00    -0.027 C 
ATOM      3  C   UNL     1     137.293 133.269 131.356  1.00  0.00     0.039 C 
ENDROOT
BRANCH   2   4
ATOM      4  C   UNL     1     138.804 134.874 134.586  1.00  0.00     0.032 C 
BRANCH   4   5
ATOM      5  C   UNL     1     138.283 136.318 134.772  1.00  0.00     0.034 C 
BRANCH   5   6
ATOM      6  C   UNL     1     139.389 137.353 134.641  1.00  0.00    -0.077 C 
ATOM      7  C   UNL     1     140.222 137.694 135.850  1.00  0.00     0.039 C 
ATOM      8  C   UNL     1     139.641 138.010 133.484  1.00  0.00    -0.027 CG0
ATOM      9  G   UNL     1     138.890 137.784 132.187  1.00  0.00     0.000 G0
ENDBRANCH   5   6
ENDBRANCH   4   5
ENDBRANCH   2   4
BRANCH   1  10
ATOM     10  C   UNL     1     139.520 134.592 131.533  1.00  0.00     0.057 C 
BRANCH  10  11
ATOM     11  C   UNL     1     139.208 135.328 130.248  1.00  0.00    -0.026 C 
ATOM     12  C   UNL     1     139.352 136.649 129.983  1.00  0.00    -0.024 C 
BRANCH  12  13
ATOM     13  C   UNL     1     139.825 137.769 130.921  1.00  0.00    -0.014 C 
ATOM     14  C   UNL     1     139.670 139.110 130.162  1.00  0.00     0.016 C 
ATOM     15  C   UNL     1     141.333 137.605 131.258  1.00  0.00     0.016 C 
BRANCH  13  16
ATOM     16  C   UNL     1     138.905 137.816 132.180  1.00  0.00     0.038 CG0
ATOM     17  G   UNL     1     139.651 138.011 133.484  1.00  0.00     0.000 G0
ENDBRANCH  13  16
ENDBRANCH  12  13
ENDBRANCH  10  11
ENDBRANCH   1  10
TORSDOF 0
ENDMDL
MODEL 2
REMARK VINA RESULT:    -3.398      2.440      3.329
REMARK INTER + INTRA:          -4.161
REMARK INTER:                  -4.888
REMARK INTRA:                   0.727
REMARK UNBOUND:                 0.628
REMARK SMILES CC1=CCCC(C)=CCC(C)(C)C=CC1
REMARK SMILES IDX 2 1 3 2 1 3 4 4 5 5 6 6 7 7 8 8 15 10 14 11 13 12 10 13
REMARK SMILES IDX 11 14 12 15 9 16
REMARK H PARENT
REMARK Flexibility Score: 60.00
ROOT
ATOM      1  C   UNL     1     137.151 133.347 132.051  1.00  0.00    -0.074 C 
ATOM      2  C   UNL     1     135.799 133.393 132.176  1.00  0.00    -0.027 C 
ATOM      3  C   UNL     1     137.732 132.207 131.250  1.00  0.00     0.039 C 
ENDROOT
BRANCH   2   4
ATOM      4  C   UNL     1     134.979 134.439 132.903  1.00  0.00     0.032 C 
BRANCH   4   5
ATOM      5  C   UNL     1     134.449 135.508 131.921  1.00  0.00     0.034 C 
BRANCH   5   6
ATOM      6  C   UNL     1     134.861 136.916 132.320  1.00  0.00    -0.077 C 
ATOM      7  C   UNL     1     133.949 137.725 133.206  1.00  0.00     0.039 C 
ATOM      8  C   UNL     1     136.009 137.491 131.888  1.00  0.00    -0.027 CG0
ATOM      9  G   UNL     1     137.024 136.813 130.991  1.00  0.00     0.000 G0
ENDBRANCH   5   6
ENDBRANCH   4   5
ENDBRANCH   2   4
BRANCH   1  10
ATOM     10  C   UNL     1     138.119 134.311 132.721  1.00  0.00     0.057 C 
BRANCH  10  11
ATOM     11  C   UNL     1     139.232 134.749 131.794  1.00  0.00    -0.026 C 
ATOM     12  C   UNL     1     139.414 135.963 131.218  1.00  0.00    -0.024 C 
BRANCH  12  13
ATOM     13  C   UNL     1     138.522 137.210 131.308  1.00  0.00    -0.014 C 
ATOM     14  C   UNL     1     139.003 138.205 130.223  1.00  0.00     0.016 C 
ATOM     15  C   UNL     1     138.695 137.912 132.683  1.00  0.00     0.016 C 
BRANCH  13  16
ATOM     16  C   UNL     1     137.047 136.818 130.986  1.00  0.00     0.038 CG0
ATOM     17  G   UNL     1     136.021 137.492 131.874  1.00  0.00     0.000 G0
ENDBRANCH  13  16
ENDBRANCH  12  13
ENDBRANCH  10  11
ENDBRANCH   1  10
TORSDOF 0
ENDMDL
MODEL 3
REMARK VINA RESULT:    -3.364      2.450      4.055
REMARK INTER + INTRA:          -4.113
REMARK INTER:                  -4.769
REMARK INTRA:                   0.656
REMARK UNBOUND:                 0.628
REMARK SMILES CC1=CCCC(C)=CCC(C)(C)C=CC1
REMARK SMILES IDX 2 1 3 2 1 3 4 4 5 5 6 6 7 7 8 8 15 10 14 11 13 12 10 13
REMARK SMILES IDX 11 14 12 15 9 16
REMARK H PARENT
REMARK Flexibility Score: 60.00
ROOT
ATOM      1  C   UNL     1     140.282 137.211 132.137  1.00  0.00    -0.074 C 
ATOM      2  C   UNL     1     140.187 135.865 132.301  1.00  0.00    -0.027 C 
ATOM      3  C   UNL     1     141.479 137.731 131.380  1.00  0.00     0.039 C 
ENDROOT
BRANCH   2   4
ATOM      4  C   UNL     1     139.080 135.100 132.997  1.00  0.00     0.032 C 
BRANCH   4   5
ATOM      5  C   UNL     1     137.772 135.150 132.176  1.00  0.00     0.034 C 
BRANCH   5   6
ATOM      6  C   UNL     1     136.589 135.633 133.000  1.00  0.00    -0.077 C 
ATOM      7  C   UNL     1     136.150 134.828 134.196  1.00  0.00     0.039 C 
ATOM      8  C   UNL     1     135.888 136.749 132.687  1.00  0.00    -0.027 CG0
ATOM      9  G   UNL     1     136.200 137.659 131.517  1.00  0.00     0.000 G0
ENDBRANCH   5   6
ENDBRANCH   4   5
ENDBRANCH   2   4
BRANCH   1  10
ATOM     10  C   UNL     1     139.315 138.227 132.725  1.00  0.00     0.057 C 
BRANCH  10  11
ATOM     11  C   UNL     1     138.924 139.297 131.727  1.00  0.00    -0.026 C 
ATOM     12  C   UNL     1     137.679 139.711 131.388  1.00  0.00    -0.024 C 
BRANCH  12  13
ATOM     13  C   UNL     1     136.324 139.184 131.884  1.00  0.00    -0.014 C 
ATOM     14  C   UNL     1     135.218 139.964 131.132  1.00  0.00     0.016 C 
ATOM     15  C   UNL     1     136.142 139.476 133.399  1.00  0.00     0.016 C 
BRANCH  13  16
ATOM     16  C   UNL     1     136.189 137.674 131.517  1.00  0.00     0.038 CG0
ATOM     17  G   UNL     1     135.889 136.776 132.700  1.00  0.00     0.000 G0
ENDBRANCH  13  16
ENDBRANCH  12  13
ENDBRANCH  10  11
ENDBRANCH   1  10
TORSDOF 0
ENDMDL
MODEL 4
REMARK VINA RESULT:    -3.356      3.235      4.390
REMARK INTER + INTRA:          -4.101
REMARK INTER:                  -4.721
REMARK INTRA:                   0.620
REMARK UNBOUND:                 0.628
REMARK SMILES CC1=CCCC(C)=CCC(C)(C)C=CC1
REMARK SMILES IDX 2 1 3 2 1 3 4 4 5 5 6 6 7 7 8 8 15 10 14 11 13 12 10 13
REMARK SMILES IDX 11 14 12 15 9 16
REMARK H PARENT
REMARK Flexibility Score: 60.00
ROOT
ATOM      1  C   UNL     1     139.653 138.269 132.465  1.00  0.00    -0.074 C 
ATOM      2  C   UNL     1     139.431 138.112 133.797  1.00  0.00    -0.027 C 
ATOM      3  C   UNL     1     140.499 137.225 131.778  1.00  0.00     0.039 C 
ENDROOT
BRANCH   2   4
ATOM      4  C   UNL     1     138.604 139.002 134.701  1.00  0.00     0.032 C 
BRANCH   4   5
ATOM      5  C   UNL     1     137.171 138.445 134.866  1.00  0.00     0.034 C 
BRANCH   5   6
ATOM      6  C   UNL     1     136.112 139.530 134.756  1.00  0.00    -0.077 C 
ATOM      7  C   UNL     1     135.779 140.358 135.971  1.00  0.00     0.039 C 
ATOM      8  C   UNL     1     135.428 139.769 133.612  1.00  0.00    -0.027 CG0
ATOM      9  G   UNL     1     135.642 139.023 132.311  1.00  0.00     0.000 G0
ENDBRANCH   5   6
ENDBRANCH   4   5
ENDBRANCH   2   4
BRANCH   1  10
ATOM     10  C   UNL     1     139.177 139.455 131.639  1.00  0.00     0.057 C 
BRANCH  10  11
ATOM     11  C   UNL     1     138.361 139.032 130.437  1.00  0.00    -0.026 C 
ATOM     12  C   UNL     1     137.046 139.255 130.196  1.00  0.00    -0.024 C 
BRANCH  12  13
ATOM     13  C   UNL     1     136.013 139.957 131.090  1.00  0.00    -0.014 C 
ATOM     14  C   UNL     1     134.729 140.159 130.248  1.00  0.00     0.016 C 
ATOM     15  C   UNL     1     136.513 141.367 131.508  1.00  0.00     0.016 C 
BRANCH  13  16
ATOM     16  C   UNL     1     135.661 139.035 132.298  1.00  0.00     0.038 CG0
ATOM     17  G   UNL     1     135.431 139.780 133.597  1.00  0.00     0.000 G0
ENDBRANCH  13  16
ENDBRANCH  12  13
ENDBRANCH  10  11
ENDBRANCH   1  10
TORSDOF 0
ENDMDL
MODEL 5
REMARK VINA RESULT:    -3.335      3.136      4.267
REMARK INTER + INTRA:          -4.072
REMARK INTER:                  -4.732
REMARK INTRA:                   0.659
REMARK UNBOUND:                 0.628
REMARK SMILES CC1=CCCC(C)=CCC(C)(C)C=CC1
REMARK SMILES IDX 2 1 3 2 1 3 4 4 5 5 6 6 7 7 8 8 15 10 14 11 13 12 10 13
REMARK SMILES IDX 11 14 12 15 9 16
REMARK H PARENT
REMARK Flexibility Score: 60.00
ROOT
ATOM      1  C   UNL     1     133.593 136.484 132.511  1.00  0.00    -0.074 C 
ATOM      2  C   UNL     1     133.641 137.821 132.751  1.00  0.00    -0.027 C 
ATOM      3  C   UNL     1     132.577 135.998 131.506  1.00  0.00     0.039 C 
ENDROOT
BRANCH   2   4
ATOM      4  C   UNL     1     134.579 138.552 133.689  1.00  0.00     0.032 C 
BRANCH   4   5
ATOM      5  C   UNL     1     135.797 139.118 132.923  1.00  0.00     0.034 C 
BRANCH   5   6
ATOM      6  C   UNL     1     137.118 138.674 133.529  1.00  0.00    -0.077 C 
ATOM      7  C   UNL     1     137.754 139.519 134.604  1.00  0.00     0.039 C 
ATOM      8  C   UNL     1     137.770 137.559 133.122  1.00  0.00    -0.027 CG0
ATOM      9  G   UNL     1     137.267 136.611 132.053  1.00  0.00     0.000 G0
ENDBRANCH   5   6
ENDBRANCH   4   5
ENDBRANCH   2   4
BRANCH   1  10
ATOM     10  C   UNL     1     134.432 135.441 133.235  1.00  0.00     0.057 C 
BRANCH  10  11
ATOM     11  C   UNL     1     135.021 134.415 132.290  1.00  0.00    -0.026 C 
ATOM     12  C   UNL     1     136.318 134.252 131.934  1.00  0.00    -0.024 C 
BRANCH  12  13
ATOM     13  C   UNL     1     137.539 135.085 132.351  1.00  0.00    -0.014 C 
ATOM     14  C   UNL     1     138.733 134.633 131.475  1.00  0.00     0.016 C 
ATOM     15  C   UNL     1     137.922 134.798 133.829  1.00  0.00     0.016 C 
BRANCH  13  16
ATOM     16  C   UNL     1     137.265 136.592 132.057  1.00  0.00     0.038 CG0
ATOM     17  G   UNL     1     137.780 137.534 133.126  1.00  0.00     0.000 G0
ENDBRANCH  13  16
ENDBRANCH  12  13
ENDBRANCH  10  11
ENDBRANCH   1  10
TORSDOF 0
ENDMDL
MODEL 6
REMARK VINA RESULT:    -3.322      2.090      4.201
REMARK INTER + INTRA:          -4.054
REMARK INTER:                  -4.706
REMARK INTRA:                   0.653
REMARK UNBOUND:                 0.628
REMARK SMILES CC1=CCCC(C)=CCC(C)(C)C=CC1
REMARK SMILES IDX 2 1 3 2 1 3 4 4 5 5 6 6 7 7 8 8 15 10 14 11 13 12 10 13
REMARK SMILES IDX 11 14 12 15 9 16
REMARK H PARENT
REMARK Flexibility Score: 60.00
ROOT
ATOM      1  C   UNL     1     139.955 138.818 130.703  1.00  0.00    -0.074 C 
ATOM      2  C   UNL     1     140.735 137.763 131.058  1.00  0.00    -0.027 C 
ATOM      3  C   UNL     1     139.997 139.253 129.259  1.00  0.00     0.039 C 
ENDROOT
BRANCH   2   4
ATOM      4  C   UNL     1     140.851 137.126 132.427  1.00  0.00     0.032 C 
BRANCH   4   5
ATOM      5  C   UNL     1     139.972 135.859 132.526  1.00  0.00     0.034 C 
BRANCH   5   6
ATOM      6  C   UNL     1     139.016 135.907 133.706  1.00  0.00    -0.077 C 
ATOM      7  C   UNL     1     139.448 135.321 135.026  1.00  0.00     0.039 C 
ATOM      8  C   UNL     1     137.771 136.433 133.617  1.00  0.00    -0.027 CG0
ATOM      9  G   UNL     1     137.188 137.053 132.363  1.00  0.00     0.000 G0
ENDBRANCH   5   6
ENDBRANCH   4   5
ENDBRANCH   2   4
BRANCH   1  10
ATOM     10  C   UNL     1     139.108 139.635 131.668  1.00  0.00     0.057 C 
BRANCH  10  11
ATOM     11  C   UNL     1     137.720 139.908 131.130  1.00  0.00    -0.026 C 
ATOM     12  C   UNL     1     136.542 139.383 131.545  1.00  0.00    -0.024 C 
BRANCH  12  13
ATOM     13  C   UNL     1     136.292 138.337 132.641  1.00  0.00    -0.014 C 
ATOM     14  C   UNL     1     134.803 137.920 132.557  1.00  0.00     0.016 C 
ATOM     15  C   UNL     1     136.516 138.951 134.050  1.00  0.00     0.016 C 
BRANCH  13  16
ATOM     16  C   UNL     1     137.165 137.074 132.363  1.00  0.00     0.038 CG0
ATOM     17  G   UNL     1     137.769 136.455 133.607  1.00  0.00     0.000 G0
ENDBRANCH  13  16
ENDBRANCH  12  13
ENDBRANCH  10  11
ENDBRANCH   1  10
TORSDOF 0
ENDMDL
MODEL 7
REMARK VINA RESULT:    -3.211      2.930      5.277
REMARK INTER + INTRA:          -3.897
REMARK INTER:                  -4.528
REMARK INTRA:                   0.631
REMARK UNBOUND:                 0.628
REMARK SMILES CC1=CCCC(C)=CCC(C)(C)C=CC1
REMARK SMILES IDX 2 1 3 2 1 3 4 4 5 5 6 6 7 7 8 8 15 10 14 11 13 12 10 13
REMARK SMILES IDX 11 14 12 15 9 16
REMARK H PARENT
REMARK Flexibility Score: 60.00
ROOT
ATOM      1  C   UNL     1     137.704 139.909 133.350  1.00  0.00    -0.074 C 
ATOM      2  C   UNL     1     136.462 140.341 133.004  1.00  0.00    -0.027 C 
ATOM      3  C   UNL     1     137.962 139.649 134.814  1.00  0.00     0.039 C 
ENDROOT
BRANCH   2   4
ATOM      4  C   UNL     1     135.950 140.647 131.612  1.00  0.00     0.032 C 
BRANCH   4   5
ATOM      5  C   UNL     1     135.213 139.427 131.012  1.00  0.00     0.034 C 
BRANCH   5   6
ATOM      6  C   UNL     1     135.664 139.119 129.594  1.00  0.00    -0.077 C 
ATOM      7  C   UNL     1     135.019 139.848 128.443  1.00  0.00     0.039 C 
ATOM      8  C   UNL     1     136.608 138.189 129.313  1.00  0.00    -0.027 CG0
ATOM      9  G   UNL     1     137.344 137.371 130.354  1.00  0.00     0.000 G0
ENDBRANCH   5   6
ENDBRANCH   4   5
ENDBRANCH   2   4
BRANCH   1  10
ATOM     10  C   UNL     1     138.867 139.747 132.382  1.00  0.00     0.057 C 
BRANCH  10  11
ATOM     11  C   UNL     1     139.526 138.389 132.495  1.00  0.00    -0.026 C 
ATOM     12  C   UNL     1     139.556 137.392 131.577  1.00  0.00    -0.024 C 
BRANCH  12  13
ATOM     13  C   UNL     1     138.893 137.344 130.192  1.00  0.00    -0.014 C 
ATOM     14  C   UNL     1     139.297 136.005 129.529  1.00  0.00     0.016 C 
ATOM     15  C   UNL     1     139.432 138.485 129.285  1.00  0.00     0.016 C 
BRANCH  13  16
ATOM     16  C   UNL     1     137.342 137.357 130.358  1.00  0.00     0.038 CG0
ATOM     17  G   UNL     1     136.617 138.187 129.319  1.00  0.00     0.000 G0
ENDBRANCH  13  16
ENDBRANCH  12  13
ENDBRANCH  10  11
ENDBRANCH   1  10
TORSDOF 0
ENDMDL
MODEL 8
REMARK VINA RESULT:    -3.207      2.936      4.898
REMARK INTER + INTRA:          -3.892
REMARK INTER:                  -4.838
REMARK INTRA:                   0.945
REMARK UNBOUND:                 0.628
REMARK SMILES CC1=CCCC(C)=CCC(C)(C)C=CC1
REMARK SMILES IDX 2 1 3 2 1 3 4 4 5 5 6 6 7 7 8 8 15 10 14 11 13 12 10 13
REMARK SMILES IDX 11 14 12 15 9 16
REMARK H PARENT
REMARK Flexibility Score: 60.00
ROOT
ATOM      1  C   UNL     1     135.764 140.199 131.649  1.00  0.00    -0.074 C 
ATOM      2  C   UNL     1     134.768 139.346 131.290  1.00  0.00    -0.027 C 
ATOM      3  C   UNL     1     135.876 141.492 130.880  1.00  0.00     0.039 C 
ENDROOT
BRANCH   2   4
ATOM      4  C   UNL     1     134.434 138.008 131.917  1.00  0.00     0.032 C 
BRANCH   4   5
ATOM      5  C   UNL     1     134.928 136.842 131.031  1.00  0.00     0.034 C 
BRANCH   5   6
ATOM      6  C   UNL     1     135.863 135.904 131.777  1.00  0.00    -0.077 C 
ATOM      7  C   UNL     1     135.286 134.711 132.496  1.00  0.00     0.039 C 
ATOM      8  C   UNL     1     137.200 136.110 131.850  1.00  0.00    -0.027 CG0
ATOM      9  G   UNL     1     137.928 137.262 131.188  1.00  0.00     0.000 G0
ENDBRANCH   5   6
ENDBRANCH   4   5
ENDBRANCH   2   4
BRANCH   1  10
ATOM     10  C   UNL     1     136.814 139.909 132.712  1.00  0.00     0.057 C 
BRANCH  10  11
ATOM     11  C   UNL     1     138.217 140.214 132.235  1.00  0.00    -0.026 C 
ATOM     12  C   UNL     1     139.199 139.340 131.904  1.00  0.00    -0.024 C 
BRANCH  12  13
ATOM     13  C   UNL     1     139.176 137.805 131.964  1.00  0.00    -0.014 C 
ATOM     14  C   UNL     1     139.022 137.399 133.450  1.00  0.00     0.016 C 
ATOM     15  C   UNL     1     140.523 137.215 131.465  1.00  0.00     0.016 C 
BRANCH  13  16
ATOM     16  C   UNL     1     137.933 137.274 131.185  1.00  0.00     0.038 CG0
ATOM     17  G   UNL     1     137.231 136.113 131.859  1.00  0.00     0.000 G0
ENDBRANCH  13  16
ENDBRANCH  12  13
ENDBRANCH  10  11
ENDBRANCH   1  10
TORSDOF 0
ENDMDL
MODEL 9
REMARK VINA RESULT:    -3.055      4.371      5.150
REMARK INTER + INTRA:          -3.677
REMARK INTER:                  -4.378
REMARK INTRA:                   0.701
REMARK UNBOUND:                 0.628
REMARK SMILES CC1=CCCC(C)=CCC(C)(C)C=CC1
REMARK SMILES IDX 2 1 3 2 1 3 4 4 5 5 6 6 7 7 8 8 15 10 14 11 13 12 10 13
REMARK SMILES IDX 11 14 12 15 9 16
REMARK H PARENT
REMARK Flexibility Score: 60.00
ROOT
ATOM      1  C   UNL     1     134.145 135.056 129.466  1.00  0.00    -0.074 C 
ATOM      2  C   UNL     1     133.097 134.930 130.323  1.00  0.00    -0.027 C 
ATOM      3  C   UNL     1     134.027 134.375 128.125  1.00  0.00     0.039 C 
ENDROOT
BRANCH   2   4
ATOM      4  C   UNL     1     132.963 135.533 131.705  1.00  0.00     0.032 C 
BRANCH   4   5
ATOM      5  C   UNL     1     132.682 137.051 131.623  1.00  0.00     0.034 C 
BRANCH   5   6
ATOM      6  C   UNL     1     133.680 137.868 132.428  1.00  0.00    -0.077 C 
ATOM      7  C   UNL     1     133.686 137.746 133.931  1.00  0.00     0.039 C 
ATOM      8  C   UNL     1     134.551 138.731 131.853  1.00  0.00    -0.027 CG0
ATOM      9  G   UNL     1     134.664 138.969 130.361  1.00  0.00     0.000 G0
ENDBRANCH   5   6
ENDBRANCH   4   5
ENDBRANCH   2   4
BRANCH   1  10
ATOM     10  C   UNL     1     135.452 135.765 129.791  1.00  0.00     0.057 C 
BRANCH  10  11
ATOM     11  C   UNL     1     135.941 136.629 128.649  1.00  0.00    -0.026 C 
ATOM     12  C   UNL     1     136.249 137.948 128.668  1.00  0.00    -0.024 C 
BRANCH  12  13
ATOM     13  C   UNL     1     136.146 138.940 129.836  1.00  0.00    -0.014 C 
ATOM     14  C   UNL     1     136.495 140.345 129.286  1.00  0.00     0.016 C 
ATOM     15  C   UNL     1     137.191 138.606 130.935  1.00  0.00     0.016 C 
BRANCH  13  16
ATOM     16  C   UNL     1     134.676 138.975 130.359  1.00  0.00     0.038 CG0
ATOM     17  G   UNL     1     134.546 138.739 131.850  1.00  0.00     0.000 G0
ENDBRANCH  13  16
ENDBRANCH  12  13
ENDBRANCH  10  11
ENDBRANCH   1  10
TORSDOF 0
ENDMDL
