MODEL 1
REMARK VINA RESULT:    -4.404      0.000      0.000
REMARK INTER + INTRA:          -6.854
REMARK INTER:                  -5.433
REMARK INTRA:                  -1.421
REMARK UNBOUND:                -1.421
REMARK SMILES CC(C)=CCC[C@@H](C)c1ccc(C)cc1
REMARK SMILES IDX 6 1 7 2 8 3 9 4 13 5 12 6 11 7 14 8 10 9 15 10 5 11 4 12
REMARK SMILES IDX 2 13 1 14 3 15
REMARK H PARENT
REMARK Flexibility Score: inf
ROOT
ATOM      1  C   UNL     1       2.749  22.368  27.125  1.00  0.00     0.012 C 
ENDROOT
BRANCH   1   2
ATOM      2  C   UNL     1       1.517  22.164  26.209  1.00  0.00     0.016 C 
ATOM      3  C   UNL     1       0.192  22.450  26.936  1.00  0.00     0.013 C 
BRANCH   2   4
ATOM      4  C   UNL     1       1.638  23.029  24.968  1.00  0.00    -0.045 A 
ATOM      5  C   UNL     1       1.914  25.515  21.446  1.00  0.00     0.044 C 
ATOM      6  C   UNL     1       1.848  24.653  22.672  1.00  0.00    -0.051 A 
ATOM      7  C   UNL     1       1.657  25.233  23.935  1.00  0.00     0.004 A 
ATOM      8  C   UNL     1       1.906  23.257  22.557  1.00  0.00     0.004 A 
ATOM      9  C   UNL     1       1.557  24.429  25.073  1.00  0.00     0.004 A 
ATOM     10  C   UNL     1       1.806  22.452  23.695  1.00  0.00     0.004 A 
ENDBRANCH   2   4
ENDBRANCH   1   2
BRANCH   1  11
ATOM     11  C   UNL     1       4.100  22.313  26.390  1.00  0.00     0.028 C 
BRANCH  11  12
ATOM     12  C   UNL     1       4.933  23.551  26.625  1.00  0.00    -0.028 C 
ATOM     13  C   UNL     1       5.478  24.307  25.646  1.00  0.00    -0.080 C 
ATOM     14  C   UNL     1       6.318  25.494  26.043  1.00  0.00     0.039 C 
ATOM     15  C   UNL     1       5.250  24.012  24.182  1.00  0.00     0.039 C 
ENDBRANCH  11  12
ENDBRANCH   1  11
TORSDOF 4
ENDMDL
MODEL 2
REMARK VINA RESULT:    -3.492      1.538      4.356
REMARK INTER + INTRA:          -5.729
REMARK INTER:                  -4.162
REMARK INTRA:                  -1.567
REMARK UNBOUND:                -1.421
REMARK SMILES CC(C)=CCC[C@@H](C)c1ccc(C)cc1
REMARK SMILES IDX 6 1 7 2 8 3 9 4 13 5 12 6 11 7 14 8 10 9 15 10 5 11 4 12
REMARK SMILES IDX 2 13 1 14 3 15
REMARK H PARENT
REMARK Flexibility Score: inf
ROOT
ATOM      1  C   UNL     1       0.810  25.276  26.243  1.00  0.00     0.012 C 
ENDROOT
BRANCH   1   2
ATOM      2  C   UNL     1       0.737  24.005  27.125  1.00  0.00     0.016 C 
ATOM      3  C   UNL     1      -0.413  23.071  26.713  1.00  0.00     0.013 C 
BRANCH   2   4
ATOM      4  C   UNL     1       2.062  23.265  27.086  1.00  0.00    -0.045 A 
ATOM      5  C   UNL     1       5.848  21.193  26.911  1.00  0.00     0.044 C 
ATOM      6  C   UNL     1       4.534  21.909  27.001  1.00  0.00    -0.051 A 
ATOM      7  C   UNL     1       4.496  23.309  27.079  1.00  0.00     0.004 A 
ATOM      8  C   UNL     1       3.332  21.191  26.939  1.00  0.00     0.004 A 
ATOM      9  C   UNL     1       3.271  23.981  27.125  1.00  0.00     0.004 A 
ATOM     10  C   UNL     1       2.106  21.862  26.984  1.00  0.00     0.004 A 
ENDBRANCH   2   4
ENDBRANCH   1   2
BRANCH   1  11
ATOM     11  C   UNL     1       0.501  25.033  24.755  1.00  0.00     0.028 C 
BRANCH  11  12
ATOM     12  C   UNL     1       1.749  25.002  23.906  1.00  0.00    -0.028 C 
ATOM     13  C   UNL     1       2.235  23.899  23.295  1.00  0.00    -0.080 C 
ATOM     14  C   UNL     1       3.517  24.021  22.510  1.00  0.00     0.039 C 
ATOM     15  C   UNL     1       1.523  22.568  23.354  1.00  0.00     0.039 C 
ENDBRANCH  11  12
ENDBRANCH   1  11
TORSDOF 4
ENDMDL
MODEL 3
REMARK VINA RESULT:    -3.364     13.626     15.854
REMARK INTER + INTRA:          -5.572
REMARK INTER:                  -4.212
REMARK INTRA:                  -1.360
REMARK UNBOUND:                -1.421
REMARK SMILES CC(C)=CCC[C@@H](C)c1ccc(C)cc1
REMARK SMILES IDX 6 1 7 2 8 3 9 4 13 5 12 6 11 7 14 8 10 9 15 10 5 11 4 12
REMARK SMILES IDX 2 13 1 14 3 15
REMARK H PARENT
REMARK Flexibility Score: inf
ROOT
ATOM      1  C   UNL     1      -9.302  14.524  22.250  1.00  0.00     0.012 C 
ENDROOT
BRANCH   1   2
ATOM      2  C   UNL     1      -8.525  14.519  23.589  1.00  0.00     0.016 C 
ATOM      3  C   UNL     1      -7.006  14.637  23.385  1.00  0.00     0.013 C 
BRANCH   2   4
ATOM      4  C   UNL     1      -9.028  15.631  24.491  1.00  0.00    -0.045 A 
ATOM      5  C   UNL     1     -10.528  18.772  27.049  1.00  0.00     0.044 C 
ATOM      6  C   UNL     1      -9.981  17.683  26.175  1.00  0.00    -0.051 A 
ATOM      7  C   UNL     1     -10.155  16.337  26.530  1.00  0.00     0.004 A 
ATOM      8  C   UNL     1      -9.352  17.999  24.963  1.00  0.00     0.004 A 
ATOM      9  C   UNL     1      -9.680  15.321  25.697  1.00  0.00     0.004 A 
ATOM     10  C   UNL     1      -8.876  16.983  24.129  1.00  0.00     0.004 A 
ENDBRANCH   2   4
ENDBRANCH   1   2
BRANCH   1  11
ATOM     11  C   UNL     1     -10.824  14.345  22.400  1.00  0.00     0.028 C 
BRANCH  11  12
ATOM     12  C   UNL     1     -11.604  15.311  21.540  1.00  0.00    -0.028 C 
ATOM     13  C   UNL     1     -12.377  16.312  22.017  1.00  0.00    -0.080 C 
ATOM     14  C   UNL     1     -13.125  17.171  21.030  1.00  0.00     0.039 C 
ATOM     15  C   UNL     1     -12.490  16.605  23.494  1.00  0.00     0.039 C 
ENDBRANCH  11  12
ENDBRANCH   1  11
TORSDOF 4
ENDMDL
MODEL 4
REMARK VINA RESULT:    -3.349      1.215      4.895
REMARK INTER + INTRA:          -5.552
REMARK INTER:                  -5.824
REMARK INTRA:                   0.271
REMARK UNBOUND:                -1.421
REMARK SMILES CC(C)=CCC[C@@H](C)c1ccc(C)cc1
REMARK SMILES IDX 6 1 7 2 8 3 9 4 13 5 12 6 11 7 14 8 10 9 15 10 5 11 4 12
REMARK SMILES IDX 2 13 1 14 3 15
REMARK H PARENT
REMARK Flexibility Score: inf
ROOT
ATOM      1  C   UNL     1       1.913  22.963  22.633  1.00  0.00     0.012 C 
ENDROOT
BRANCH   1   2
ATOM      2  C   UNL     1       2.875  24.153  22.392  1.00  0.00     0.016 C 
ATOM      3  C   UNL     1       2.142  25.504  22.366  1.00  0.00     0.013 C 
BRANCH   2   4
ATOM      4  C   UNL     1       3.969  24.163  23.445  1.00  0.00    -0.045 A 
ATOM      5  C   UNL     1       7.063  24.260  26.458  1.00  0.00     0.044 C 
ATOM      6  C   UNL     1       5.987  24.197  25.415  1.00  0.00    -0.051 A 
ATOM      7  C   UNL     1       4.643  24.374  25.774  1.00  0.00     0.004 A 
ATOM      8  C   UNL     1       6.321  24.029  24.064  1.00  0.00     0.004 A 
ATOM      9  C   UNL     1       3.643  24.354  24.799  1.00  0.00     0.004 A 
ATOM     10  C   UNL     1       5.322  24.008  23.087  1.00  0.00     0.004 A 
ENDBRANCH   2   4
ENDBRANCH   1   2
BRANCH   1  11
ATOM     11  C   UNL     1       1.845  22.490  24.095  1.00  0.00     0.028 C 
BRANCH  11  12
ATOM     12  C   UNL     1       0.699  23.119  24.850  1.00  0.00    -0.028 C 
ATOM     13  C   UNL     1       0.425  22.897  26.156  1.00  0.00    -0.080 C 
ATOM     14  C   UNL     1      -0.780  23.572  26.759  1.00  0.00     0.039 C 
ATOM     15  C   UNL     1       1.300  22.022  27.022  1.00  0.00     0.039 C 
ENDBRANCH  11  12
ENDBRANCH   1  11
TORSDOF 4
ENDMDL
MODEL 5
REMARK VINA RESULT:    -3.002      1.505      4.801
REMARK INTER + INTRA:          -5.125
REMARK INTER:                  -4.875
REMARK INTRA:                  -0.249
REMARK UNBOUND:                -1.421
REMARK SMILES CC(C)=CCC[C@@H](C)c1ccc(C)cc1
REMARK SMILES IDX 6 1 7 2 8 3 9 4 13 5 12 6 11 7 14 8 10 9 15 10 5 11 4 12
REMARK SMILES IDX 2 13 1 14 3 15
REMARK H PARENT
REMARK Flexibility Score: inf
ROOT
ATOM      1  C   UNL     1       0.591  24.186  25.996  1.00  0.00     0.012 C 
ENDROOT
BRANCH   1   2
ATOM      2  C   UNL     1       0.964  23.187  27.118  1.00  0.00     0.016 C 
ATOM      3  C   UNL     1       0.179  21.869  27.014  1.00  0.00     0.013 C 
BRANCH   2   4
ATOM      4  C   UNL     1       2.458  22.917  27.103  1.00  0.00    -0.045 A 
ATOM      5  C   UNL     1       6.703  22.116  27.125  1.00  0.00     0.044 C 
ATOM      6  C   UNL     1       5.230  22.395  27.088  1.00  0.00    -0.051 A 
ATOM      7  C   UNL     1       4.309  21.337  27.120  1.00  0.00     0.004 A 
ATOM      8  C   UNL     1       4.760  23.715  27.089  1.00  0.00     0.004 A 
ATOM      9  C   UNL     1       2.936  21.595  27.124  1.00  0.00     0.004 A 
ATOM     10  C   UNL     1       3.387  23.975  27.093  1.00  0.00     0.004 A 
ENDBRANCH   2   4
ENDBRANCH   1   2
BRANCH   1  11
ATOM     11  C   UNL     1       1.478  24.092  24.742  1.00  0.00     0.028 C 
BRANCH  11  12
ATOM     12  C   UNL     1       1.139  22.894  23.887  1.00  0.00    -0.028 C 
ATOM     13  C   UNL     1       1.602  22.689  22.633  1.00  0.00    -0.080 C 
ATOM     14  C   UNL     1       1.142  21.460  21.892  1.00  0.00     0.039 C 
ATOM     15  C   UNL     1       2.578  23.635  21.973  1.00  0.00     0.039 C 
ENDBRANCH  11  12
ENDBRANCH   1  11
TORSDOF 4
ENDMDL
MODEL 6
REMARK VINA RESULT:    -3.001      1.532      5.109
REMARK INTER + INTRA:          -5.124
REMARK INTER:                  -4.491
REMARK INTRA:                  -0.632
REMARK UNBOUND:                -1.421
REMARK SMILES CC(C)=CCC[C@@H](C)c1ccc(C)cc1
REMARK SMILES IDX 6 1 7 2 8 3 9 4 13 5 12 6 11 7 14 8 10 9 15 10 5 11 4 12
REMARK SMILES IDX 2 13 1 14 3 15
REMARK H PARENT
REMARK Flexibility Score: inf
ROOT
ATOM      1  C   UNL     1       1.875  25.474  22.854  1.00  0.00     0.012 C 
ENDROOT
BRANCH   1   2
ATOM      2  C   UNL     1       2.344  24.012  23.057  1.00  0.00     0.016 C 
ATOM      3  C   UNL     1       2.587  23.285  21.724  1.00  0.00     0.013 C 
BRANCH   2   4
ATOM      4  C   UNL     1       3.595  23.978  23.916  1.00  0.00    -0.045 A 
ATOM      5  C   UNL     1       7.125  23.933  26.405  1.00  0.00     0.044 C 
ATOM      6  C   UNL     1       5.905  23.920  25.533  1.00  0.00    -0.051 A 
ATOM      7  C   UNL     1       4.653  23.593  26.074  1.00  0.00     0.004 A 
ATOM      8  C   UNL     1       5.994  24.302  24.188  1.00  0.00     0.004 A 
ATOM      9  C   UNL     1       3.509  23.618  25.272  1.00  0.00     0.004 A 
ATOM     10  C   UNL     1       4.850  24.328  23.384  1.00  0.00     0.004 A 
ENDBRANCH   2   4
ENDBRANCH   1   2
BRANCH   1  11
ATOM     11  C   UNL     1       1.117  26.068  24.055  1.00  0.00     0.028 C 
BRANCH  11  12
ATOM     12  C   UNL     1       0.490  25.004  24.923  1.00  0.00    -0.028 C 
ATOM     13  C   UNL     1      -0.001  25.215  26.165  1.00  0.00    -0.080 C 
ATOM     14  C   UNL     1      -0.562  24.040  26.922  1.00  0.00     0.039 C 
ATOM     15  C   UNL     1      -0.024  26.587  26.796  1.00  0.00     0.039 C 
ENDBRANCH  11  12
ENDBRANCH   1  11
TORSDOF 4
ENDMDL
MODEL 7
REMARK VINA RESULT:    -2.884      2.496      6.200
REMARK INTER + INTRA:          -4.979
REMARK INTER:                  -4.475
REMARK INTRA:                  -0.504
REMARK UNBOUND:                -1.421
REMARK SMILES CC(C)=CCC[C@@H](C)c1ccc(C)cc1
REMARK SMILES IDX 6 1 7 2 8 3 9 4 13 5 12 6 11 7 14 8 10 9 15 10 5 11 4 12
REMARK SMILES IDX 2 13 1 14 3 15
REMARK H PARENT
REMARK Flexibility Score: inf
ROOT
ATOM      1  C   UNL     1       1.925  26.350  22.057  1.00  0.00     0.012 C 
ENDROOT
BRANCH   1   2
ATOM      2  C   UNL     1       1.671  24.880  22.472  1.00  0.00     0.016 C 
ATOM      3  C   UNL     1       1.926  23.894  21.321  1.00  0.00     0.013 C 
BRANCH   2   4
ATOM      4  C   UNL     1       2.523  24.522  23.677  1.00  0.00    -0.045 A 
ATOM      5  C   UNL     1       4.965  23.440  27.071  1.00  0.00     0.044 C 
ATOM      6  C   UNL     1       4.121  23.844  25.900  1.00  0.00    -0.051 A 
ATOM      7  C   UNL     1       4.704  24.027  24.637  1.00  0.00     0.004 A 
ATOM      8  C   UNL     1       2.732  23.976  26.042  1.00  0.00     0.004 A 
ATOM      9  C   UNL     1       3.913  24.366  23.537  1.00  0.00     0.004 A 
ATOM     10  C   UNL     1       1.940  24.315  24.942  1.00  0.00     0.004 A 
ENDBRANCH   2   4
ENDBRANCH   1   2
BRANCH   1  11
ATOM     11  C   UNL     1       0.773  27.312  22.396  1.00  0.00     0.028 C 
BRANCH  11  12
ATOM     12  C   UNL     1       0.828  28.584  21.584  1.00  0.00    -0.028 C 
ATOM     13  C   UNL     1      -0.176  29.041  20.801  1.00  0.00    -0.080 C 
ATOM     14  C   UNL     1       0.046  30.311  20.021  1.00  0.00     0.039 C 
ATOM     15  C   UNL     1      -1.507  28.333  20.710  1.00  0.00     0.039 C 
ENDBRANCH  11  12
ENDBRANCH   1  11
TORSDOF 4
ENDMDL
MODEL 8
REMARK VINA RESULT:    -2.797      1.199      4.556
REMARK INTER + INTRA:          -4.872
REMARK INTER:                  -3.525
REMARK INTRA:                  -1.346
REMARK UNBOUND:                -1.421
REMARK SMILES CC(C)=CCC[C@@H](C)c1ccc(C)cc1
REMARK SMILES IDX 6 1 7 2 8 3 9 4 13 5 12 6 11 7 14 8 10 9 15 10 5 11 4 12
REMARK SMILES IDX 2 13 1 14 3 15
REMARK H PARENT
REMARK Flexibility Score: inf
ROOT
ATOM      1  C   UNL     1       5.747  23.847  24.681  1.00  0.00     0.012 C 
ENDROOT
BRANCH   1   2
ATOM      2  C   UNL     1       5.469  23.643  26.191  1.00  0.00     0.016 C 
ATOM      3  C   UNL     1       5.919  24.845  27.038  1.00  0.00     0.013 C 
BRANCH   2   4
ATOM      4  C   UNL     1       3.995  23.356  26.418  1.00  0.00    -0.045 A 
ATOM      5  C   UNL     1      -0.205  22.529  26.991  1.00  0.00     0.044 C 
ATOM      6  C   UNL     1       1.259  22.807  26.820  1.00  0.00    -0.051 A 
ATOM      7  C   UNL     1       2.107  21.826  26.288  1.00  0.00     0.004 A 
ATOM      8  C   UNL     1       1.777  24.073  27.125  1.00  0.00     0.004 A 
ATOM      9  C   UNL     1       3.464  22.096  26.092  1.00  0.00     0.004 A 
ATOM     10  C   UNL     1       3.134  24.345  26.930  1.00  0.00     0.004 A 
ENDBRANCH   2   4
ENDBRANCH   1   2
BRANCH   1  11
ATOM     11  C   UNL     1       4.722  24.743  23.964  1.00  0.00     0.028 C 
BRANCH  11  12
ATOM     12  C   UNL     1       3.915  23.984  22.938  1.00  0.00    -0.028 C 
ATOM     13  C   UNL     1       2.569  24.044  22.821  1.00  0.00    -0.080 C 
ATOM     14  C   UNL     1       1.904  23.196  21.767  1.00  0.00     0.039 C 
ATOM     15  C   UNL     1       1.727  24.947  23.691  1.00  0.00     0.039 C 
ENDBRANCH  11  12
ENDBRANCH   1  11
TORSDOF 4
ENDMDL
