MODEL 1
REMARK VINA RESULT:    -3.737      0.000      0.000
REMARK INTER + INTRA:          -7.816
REMARK INTER:                  -6.796
REMARK INTRA:                  -1.020
REMARK UNBOUND:                -1.020
REMARK SMILES CCCCCCCCCCCCCCCC(=O)[O-]
REMARK SMILES IDX 9 1 10 2 11 3 12 4 13 5 14 6 15 7 16 8 17 9 18 10 8 11 7 12
REMARK SMILES IDX 6 13 5 14 4 15 3 16 2 17 1 18
REMARK H PARENT
REMARK Flexibility Score: inf
ROOT
ATOM      1  C   UNL     1      13.199 -18.014  -4.357  1.00  0.00     0.000 C 
ENDROOT
BRANCH   1   2
ATOM      2  C   UNL     1      14.490 -18.805  -4.641  1.00  0.00     0.000 C 
BRANCH   2   3
ATOM      3  C   UNL     1      15.750 -18.285  -3.922  1.00  0.00     0.000 C 
BRANCH   3   4
ATOM      4  C   UNL     1      16.993 -19.188  -4.036  1.00  0.00     0.000 C 
BRANCH   4   5
ATOM      5  C   UNL     1      17.460 -19.787  -2.692  1.00  0.00     0.000 C 
BRANCH   5   6
ATOM      6  C   UNL     1      17.767 -21.288  -2.785  1.00  0.00     0.006 C 
BRANCH   6   7
ATOM      7  C   UNL     1      16.981 -22.077  -1.733  1.00  0.00     0.053 C 
BRANCH   7   8
ATOM      8  C   UNL     1      16.222 -23.197  -2.375  1.00  0.00     0.041 C 
ATOM      9  O   UNL     1      15.241 -23.719  -1.783  1.00  0.00    -0.550 OA
ATOM     10  O   UNL     1      16.589 -23.655  -3.633  1.00  0.00    -0.550 OA
ENDBRANCH   7   8
ENDBRANCH   6   7
ENDBRANCH   5   6
ENDBRANCH   4   5
ENDBRANCH   3   4
ENDBRANCH   2   3
ENDBRANCH   1   2
BRANCH   1  11
ATOM     11  C   UNL     1      11.930 -18.764  -4.788  1.00  0.00     0.000 C 
BRANCH  11  12
ATOM     12  C   UNL     1      11.016 -19.038  -3.585  1.00  0.00    -0.000 C 
BRANCH  12  13
ATOM     13  C   UNL     1      10.412 -17.753  -2.999  1.00  0.00    -0.000 C 
BRANCH  13  14
ATOM     14  C   UNL     1       9.203 -17.247  -3.809  1.00  0.00    -0.000 C 
BRANCH  14  15
ATOM     15  C   UNL     1       9.353 -15.780  -4.240  1.00  0.00    -0.000 C 
BRANCH  15  16
ATOM     16  C   UNL     1      10.642 -15.137  -3.702  1.00  0.00    -0.000 C 
BRANCH  16  17
ATOM     17  C   UNL     1      11.570 -14.648  -4.824  1.00  0.00    -0.003 C 
ATOM     18  C   UNL     1      11.548 -13.129  -4.987  1.00  0.00     0.004 C 
ENDBRANCH  16  17
ENDBRANCH  15  16
ENDBRANCH  14  15
ENDBRANCH  13  14
ENDBRANCH  12  13
ENDBRANCH  11  12
ENDBRANCH   1  11
TORSDOF 14
ENDMDL
MODEL 2
REMARK VINA RESULT:    -3.662      3.688      8.531
REMARK INTER + INTRA:          -7.678
REMARK INTER:                  -6.860
REMARK INTRA:                  -0.818
REMARK UNBOUND:                -1.020
REMARK SMILES CCCCCCCCCCCCCCCC(=O)[O-]
REMARK SMILES IDX 9 1 10 2 11 3 12 4 13 5 14 6 15 7 16 8 17 9 18 10 8 11 7 12
REMARK SMILES IDX 6 13 5 14 4 15 3 16 2 17 1 18
REMARK H PARENT
REMARK Flexibility Score: inf
ROOT
ATOM      1  C   UNL     1      13.471 -18.007  -4.327  1.00  0.00     0.000 C 
ENDROOT
BRANCH   1   2
ATOM      2  C   UNL     1      12.175 -18.819  -4.512  1.00  0.00     0.000 C 
BRANCH   2   3
ATOM      3  C   UNL     1      11.419 -18.557  -5.829  1.00  0.00     0.000 C 
BRANCH   3   4
ATOM      4  C   UNL     1      10.336 -17.464  -5.760  1.00  0.00     0.000 C 
BRANCH   4   5
ATOM      5  C   UNL     1       9.668 -17.328  -4.375  1.00  0.00     0.000 C 
BRANCH   5   6
ATOM      6  C   UNL     1       9.664 -15.883  -3.857  1.00  0.00     0.006 C 
BRANCH   6   7
ATOM      7  C   UNL     1      10.062 -14.900  -4.964  1.00  0.00     0.053 C 
BRANCH   7   8
ATOM      8  C   UNL     1      11.359 -14.232  -4.631  1.00  0.00     0.041 C 
ATOM      9  O   UNL     1      12.266 -14.870  -4.033  1.00  0.00    -0.550 OA
ATOM     10  O   UNL     1      11.574 -12.909  -4.993  1.00  0.00    -0.550 OA
ENDBRANCH   7   8
ENDBRANCH   6   7
ENDBRANCH   5   6
ENDBRANCH   4   5
ENDBRANCH   3   4
ENDBRANCH   2   3
ENDBRANCH   1   2
BRANCH   1  11
ATOM     11  C   UNL     1      14.737 -18.819  -4.639  1.00  0.00     0.000 C 
BRANCH  11  12
ATOM     12  C   UNL     1      15.925 -18.332  -3.798  1.00  0.00    -0.000 C 
BRANCH  12  13
ATOM     13  C   UNL     1      17.135 -19.275  -3.886  1.00  0.00    -0.000 C 
BRANCH  13  14
ATOM     14  C   UNL     1      17.450 -19.957  -2.541  1.00  0.00    -0.000 C 
BRANCH  14  15
ATOM     15  C   UNL     1      17.683 -21.469  -2.685  1.00  0.00    -0.000 C 
BRANCH  15  16
ATOM     16  C   UNL     1      17.495 -22.223  -1.358  1.00  0.00    -0.000 C 
BRANCH  16  17
ATOM     17  C   UNL     1      16.801 -23.581  -1.544  1.00  0.00    -0.003 C 
ATOM     18  C   UNL     1      15.555 -23.491  -2.424  1.00  0.00     0.004 C 
ENDBRANCH  16  17
ENDBRANCH  15  16
ENDBRANCH  14  15
ENDBRANCH  13  14
ENDBRANCH  12  13
ENDBRANCH  11  12
ENDBRANCH   1  11
TORSDOF 14
ENDMDL
MODEL 3
REMARK VINA RESULT:    -3.631      1.136      1.538
REMARK INTER + INTRA:          -7.623
REMARK INTER:                  -6.764
REMARK INTRA:                  -0.859
REMARK UNBOUND:                -1.020
REMARK SMILES CCCCCCCCCCCCCCCC(=O)[O-]
REMARK SMILES IDX 9 1 10 2 11 3 12 4 13 5 14 6 15 7 16 8 17 9 18 10 8 11 7 12
REMARK SMILES IDX 6 13 5 14 4 15 3 16 2 17 1 18
REMARK H PARENT
REMARK Flexibility Score: inf
ROOT
ATOM      1  C   UNL     1      12.486 -18.868  -4.923  1.00  0.00     0.000 C 
ENDROOT
BRANCH   1   2
ATOM      2  C   UNL     1      13.736 -18.232  -4.284  1.00  0.00     0.000 C 
BRANCH   2   3
ATOM      3  C   UNL     1      15.075 -18.895  -4.662  1.00  0.00     0.000 C 
BRANCH   3   4
ATOM      4  C   UNL     1      16.278 -18.492  -3.788  1.00  0.00     0.000 C 
BRANCH   4   5
ATOM      5  C   UNL     1      17.399 -19.552  -3.734  1.00  0.00     0.000 C 
BRANCH   5   6
ATOM      6  C   UNL     1      17.391 -20.359  -2.429  1.00  0.00     0.006 C 
BRANCH   6   7
ATOM      7  C   UNL     1      17.930 -21.776  -2.654  1.00  0.00     0.053 C 
BRANCH   7   8
ATOM      8  C   UNL     1      16.944 -22.795  -2.176  1.00  0.00     0.041 C 
ATOM      9  O   UNL     1      17.215 -23.523  -1.184  1.00  0.00    -0.550 OA
ATOM     10  O   UNL     1      15.719 -22.933  -2.814  1.00  0.00    -0.550 OA
ENDBRANCH   7   8
ENDBRANCH   6   7
ENDBRANCH   5   6
ENDBRANCH   4   5
ENDBRANCH   3   4
ENDBRANCH   2   3
ENDBRANCH   1   2
BRANCH   1  11
ATOM     11  C   UNL     1      11.255 -18.819  -4.007  1.00  0.00     0.000 C 
BRANCH  11  12
ATOM     12  C   UNL     1      10.224 -17.805  -4.523  1.00  0.00    -0.000 C 
BRANCH  12  13
ATOM     13  C   UNL     1       9.604 -16.967  -3.394  1.00  0.00    -0.000 C 
BRANCH  13  14
ATOM     14  C   UNL     1       9.367 -15.503  -3.808  1.00  0.00    -0.000 C 
BRANCH  14  15
ATOM     15  C   UNL     1      10.272 -15.064  -4.970  1.00  0.00    -0.000 C 
BRANCH  15  16
ATOM     16  C   UNL     1      11.524 -14.310  -4.488  1.00  0.00    -0.000 C 
BRANCH  16  17
ATOM     17  C   UNL     1      12.724 -15.242  -4.266  1.00  0.00    -0.003 C 
ATOM     18  C   UNL     1      13.211 -15.243  -2.817  1.00  0.00     0.004 C 
ENDBRANCH  16  17
ENDBRANCH  15  16
ENDBRANCH  14  15
ENDBRANCH  13  14
ENDBRANCH  12  13
ENDBRANCH  11  12
ENDBRANCH   1  11
TORSDOF 14
ENDMDL
MODEL 4
REMARK VINA RESULT:    -3.556      1.170      2.750
REMARK INTER + INTRA:          -7.486
REMARK INTER:                  -6.192
REMARK INTRA:                  -1.294
REMARK UNBOUND:                -1.020
REMARK SMILES CCCCCCCCCCCCCCCC(=O)[O-]
REMARK SMILES IDX 9 1 10 2 11 3 12 4 13 5 14 6 15 7 16 8 17 9 18 10 8 11 7 12
REMARK SMILES IDX 6 13 5 14 4 15 3 16 2 17 1 18
REMARK H PARENT
REMARK Flexibility Score: inf
ROOT
ATOM      1  C   UNL     1      14.230 -16.517  -3.220  1.00  0.00     0.000 C 
ENDROOT
BRANCH   1   2
ATOM      2  C   UNL     1      13.939 -17.595  -4.282  1.00  0.00     0.000 C 
BRANCH   2   3
ATOM      3  C   UNL     1      15.060 -18.632  -4.488  1.00  0.00     0.000 C 
BRANCH   3   4
ATOM      4  C   UNL     1      16.259 -18.504  -3.528  1.00  0.00     0.000 C 
BRANCH   4   5
ATOM      5  C   UNL     1      17.291 -19.645  -3.657  1.00  0.00     0.000 C 
BRANCH   5   6
ATOM      6  C   UNL     1      17.372 -20.518  -2.397  1.00  0.00     0.006 C 
BRANCH   6   7
ATOM      7  C   UNL     1      17.680 -21.976  -2.756  1.00  0.00     0.053 C 
BRANCH   7   8
ATOM      8  C   UNL     1      16.683 -22.895  -2.123  1.00  0.00     0.041 C 
ATOM      9  O   UNL     1      15.612 -23.178  -2.722  1.00  0.00    -0.550 OA
ATOM     10  O   UNL     1      16.942 -23.452  -0.878  1.00  0.00    -0.550 OA
ENDBRANCH   7   8
ENDBRANCH   6   7
ENDBRANCH   5   6
ENDBRANCH   4   5
ENDBRANCH   3   4
ENDBRANCH   2   3
ENDBRANCH   1   2
BRANCH   1  11
ATOM     11  C   UNL     1      13.131 -15.448  -3.135  1.00  0.00     0.000 C 
BRANCH  11  12
ATOM     12  C   UNL     1      12.529 -15.165  -4.519  1.00  0.00    -0.000 C 
BRANCH  12  13
ATOM     13  C   UNL     1      11.343 -14.189  -4.457  1.00  0.00    -0.000 C 
BRANCH  13  14
ATOM     14  C   UNL     1      10.051 -14.795  -5.038  1.00  0.00    -0.000 C 
BRANCH  14  15
ATOM     15  C   UNL     1      10.090 -16.330  -5.088  1.00  0.00    -0.000 C 
BRANCH  15  16
ATOM     16  C   UNL     1       9.298 -16.977  -3.938  1.00  0.00    -0.000 C 
BRANCH  16  17
ATOM     17  C   UNL     1      10.207 -17.680  -2.919  1.00  0.00    -0.003 C 
ATOM     18  C   UNL     1      10.925 -18.894  -3.507  1.00  0.00     0.004 C 
ENDBRANCH  16  17
ENDBRANCH  15  16
ENDBRANCH  14  15
ENDBRANCH  13  14
ENDBRANCH  12  13
ENDBRANCH  11  12
ENDBRANCH   1  11
TORSDOF 14
ENDMDL
MODEL 5
REMARK VINA RESULT:    -3.523      3.293      8.089
REMARK INTER + INTRA:          -7.427
REMARK INTER:                  -6.642
REMARK INTRA:                  -0.785
REMARK UNBOUND:                -1.020
REMARK SMILES CCCCCCCCCCCCCCCC(=O)[O-]
REMARK SMILES IDX 9 1 10 2 11 3 12 4 13 5 14 6 15 7 16 8 17 9 18 10 8 11 7 12
REMARK SMILES IDX 6 13 5 14 4 15 3 16 2 17 1 18
REMARK H PARENT
REMARK Flexibility Score: inf
ROOT
ATOM      1  C   UNL     1      13.398 -17.702  -4.185  1.00  0.00     0.000 C 
ENDROOT
BRANCH   1   2
ATOM      2  C   UNL     1      13.844 -16.384  -3.524  1.00  0.00     0.000 C 
BRANCH   2   3
ATOM      3  C   UNL     1      12.742 -15.317  -3.379  1.00  0.00     0.000 C 
BRANCH   3   4
ATOM      4  C   UNL     1      12.300 -14.645  -4.693  1.00  0.00     0.000 C 
BRANCH   4   5
ATOM      5  C   UNL     1      10.827 -14.910  -5.070  1.00  0.00     0.000 C 
BRANCH   5   6
ATOM      6  C   UNL     1      10.668 -16.073  -6.060  1.00  0.00     0.006 C 
BRANCH   6   7
ATOM      7  C   UNL     1      10.306 -17.371  -5.332  1.00  0.00     0.053 C 
BRANCH   7   8
ATOM      8  C   UNL     1       9.442 -17.084  -4.144  1.00  0.00     0.041 C 
ATOM      9  O   UNL     1       8.257 -16.686  -4.303  1.00  0.00    -0.550 OA
ATOM     10  O   UNL     1       9.939 -17.268  -2.861  1.00  0.00    -0.550 OA
ENDBRANCH   7   8
ENDBRANCH   6   7
ENDBRANCH   5   6
ENDBRANCH   4   5
ENDBRANCH   3   4
ENDBRANCH   2   3
ENDBRANCH   1   2
BRANCH   1  11
ATOM     11  C   UNL     1      14.578 -18.590  -4.608  1.00  0.00     0.000 C 
BRANCH  11  12
ATOM     12  C   UNL     1      15.842 -18.244  -3.808  1.00  0.00    -0.000 C 
BRANCH  12  13
ATOM     13  C   UNL     1      16.939 -19.311  -3.949  1.00  0.00    -0.000 C 
BRANCH  13  14
ATOM     14  C   UNL     1      17.336 -19.930  -2.595  1.00  0.00    -0.000 C 
BRANCH  14  15
ATOM     15  C   UNL     1      17.927 -21.341  -2.743  1.00  0.00    -0.000 C 
BRANCH  15  16
ATOM     16  C   UNL     1      17.154 -22.392  -1.927  1.00  0.00    -0.000 C 
BRANCH  16  17
ATOM     17  C   UNL     1      16.047 -23.076  -2.745  1.00  0.00    -0.003 C 
ATOM     18  C   UNL     1      15.109 -23.916  -1.880  1.00  0.00     0.004 C 
ENDBRANCH  16  17
ENDBRANCH  15  16
ENDBRANCH  14  15
ENDBRANCH  13  14
ENDBRANCH  12  13
ENDBRANCH  11  12
ENDBRANCH   1  11
TORSDOF 14
ENDMDL
MODEL 6
REMARK VINA RESULT:    -3.521      1.255      2.463
REMARK INTER + INTRA:          -7.424
REMARK INTER:                  -6.198
REMARK INTRA:                  -1.225
REMARK UNBOUND:                -1.020
REMARK SMILES CCCCCCCCCCCCCCCC(=O)[O-]
REMARK SMILES IDX 9 1 10 2 11 3 12 4 13 5 14 6 15 7 16 8 17 9 18 10 8 11 7 12
REMARK SMILES IDX 6 13 5 14 4 15 3 16 2 17 1 18
REMARK H PARENT
REMARK Flexibility Score: inf
ROOT
ATOM      1  C   UNL     1      13.788 -17.962  -4.274  1.00  0.00     0.000 C 
ENDROOT
BRANCH   1   2
ATOM      2  C   UNL     1      15.067 -18.775  -4.548  1.00  0.00     0.000 C 
BRANCH   2   3
ATOM      3  C   UNL     1      16.201 -18.579  -3.523  1.00  0.00     0.000 C 
BRANCH   3   4
ATOM      4  C   UNL     1      17.332 -19.624  -3.586  1.00  0.00     0.000 C 
BRANCH   4   5
ATOM      5  C   UNL     1      17.557 -20.387  -2.263  1.00  0.00     0.000 C 
BRANCH   5   6
ATOM      6  C   UNL     1      17.684 -21.904  -2.467  1.00  0.00     0.006 C 
BRANCH   6   7
ATOM      7  C   UNL     1      16.317 -22.539  -2.740  1.00  0.00     0.053 C 
BRANCH   7   8
ATOM      8  C   UNL     1      15.996 -23.564  -1.698  1.00  0.00     0.041 C 
ATOM      9  O   UNL     1      16.871 -23.911  -0.860  1.00  0.00    -0.550 OA
ATOM     10  O   UNL     1      14.728 -24.125  -1.640  1.00  0.00    -0.550 OA
ENDBRANCH   7   8
ENDBRANCH   6   7
ENDBRANCH   5   6
ENDBRANCH   4   5
ENDBRANCH   3   4
ENDBRANCH   2   3
ENDBRANCH   1   2
BRANCH   1  11
ATOM     11  C   UNL     1      14.078 -16.530  -3.799  1.00  0.00     0.000 C 
BRANCH  11  12
ATOM     12  C   UNL     1      12.810 -15.866  -3.243  1.00  0.00    -0.000 C 
BRANCH  12  13
ATOM     13  C   UNL     1      12.335 -14.687  -4.108  1.00  0.00    -0.000 C 
BRANCH  13  14
ATOM     14  C   UNL     1      10.821 -14.732  -4.385  1.00  0.00    -0.000 C 
BRANCH  14  15
ATOM     15  C   UNL     1      10.088 -15.752  -3.499  1.00  0.00    -0.000 C 
BRANCH  15  16
ATOM     16  C   UNL     1       9.322 -16.802  -4.322  1.00  0.00    -0.000 C 
BRANCH  16  17
ATOM     17  C   UNL     1      10.191 -18.016  -4.685  1.00  0.00    -0.003 C 
ATOM     18  C   UNL     1      10.620 -18.016  -6.152  1.00  0.00     0.004 C 
ENDBRANCH  16  17
ENDBRANCH  15  16
ENDBRANCH  14  15
ENDBRANCH  13  14
ENDBRANCH  12  13
ENDBRANCH  11  12
ENDBRANCH   1  11
TORSDOF 14
ENDMDL
MODEL 7
REMARK VINA RESULT:    -3.408      3.165      8.225
REMARK INTER + INTRA:          -7.217
REMARK INTER:                  -6.196
REMARK INTRA:                  -1.021
REMARK UNBOUND:                -1.020
REMARK SMILES CCCCCCCCCCCCCCCC(=O)[O-]
REMARK SMILES IDX 9 1 10 2 11 3 12 4 13 5 14 6 15 7 16 8 17 9 18 10 8 11 7 12
REMARK SMILES IDX 6 13 5 14 4 15 3 16 2 17 1 18
REMARK H PARENT
REMARK Flexibility Score: inf
ROOT
ATOM      1  C   UNL     1      14.796 -18.648  -4.640  1.00  0.00     0.000 C 
ENDROOT
BRANCH   1   2
ATOM      2  C   UNL     1      13.593 -17.770  -4.245  1.00  0.00     0.000 C 
BRANCH   2   3
ATOM      3  C   UNL     1      13.946 -16.480  -3.479  1.00  0.00     0.000 C 
BRANCH   3   4
ATOM      4  C   UNL     1      12.888 -15.363  -3.550  1.00  0.00     0.000 C 
BRANCH   4   5
ATOM      5  C   UNL     1      12.350 -15.096  -4.972  1.00  0.00     0.000 C 
BRANCH   5   6
ATOM      6  C   UNL     1      10.816 -15.096  -5.037  1.00  0.00     0.006 C 
BRANCH   6   7
ATOM      7  C   UNL     1      10.206 -15.262  -3.641  1.00  0.00     0.053 C 
BRANCH   7   8
ATOM      8  C   UNL     1       9.612 -16.626  -3.486  1.00  0.00     0.041 C 
ATOM      9  O   UNL     1      10.161 -17.476  -2.735  1.00  0.00    -0.550 OA
ATOM     10  O   UNL     1       8.443 -16.957  -4.159  1.00  0.00    -0.550 OA
ENDBRANCH   7   8
ENDBRANCH   6   7
ENDBRANCH   5   6
ENDBRANCH   4   5
ENDBRANCH   3   4
ENDBRANCH   2   3
ENDBRANCH   1   2
BRANCH   1  11
ATOM     11  C   UNL     1      16.017 -18.435  -3.735  1.00  0.00     0.000 C 
BRANCH  11  12
ATOM     12  C   UNL     1      17.311 -18.856  -4.446  1.00  0.00    -0.000 C 
BRANCH  12  13
ATOM     13  C   UNL     1      18.073 -19.952  -3.684  1.00  0.00    -0.000 C 
BRANCH  13  14
ATOM     14  C   UNL     1      17.354 -20.378  -2.390  1.00  0.00    -0.000 C 
BRANCH  14  15
ATOM     15  C   UNL     1      18.125 -21.458  -1.614  1.00  0.00    -0.000 C 
BRANCH  15  16
ATOM     16  C   UNL     1      17.246 -22.670  -1.261  1.00  0.00    -0.000 C 
BRANCH  16  17
ATOM     17  C   UNL     1      16.251 -23.023  -2.376  1.00  0.00    -0.003 C 
ATOM     18  C   UNL     1      16.867 -23.912  -3.456  1.00  0.00     0.004 C 
ENDBRANCH  16  17
ENDBRANCH  15  16
ENDBRANCH  14  15
ENDBRANCH  13  14
ENDBRANCH  12  13
ENDBRANCH  11  12
ENDBRANCH   1  11
TORSDOF 14
ENDMDL
MODEL 8
REMARK VINA RESULT:    -3.390      2.599      7.597
REMARK INTER + INTRA:          -7.185
REMARK INTER:                  -6.069
REMARK INTRA:                  -1.116
REMARK UNBOUND:                -1.020
REMARK SMILES CCCCCCCCCCCCCCCC(=O)[O-]
REMARK SMILES IDX 9 1 10 2 11 3 12 4 13 5 14 6 15 7 16 8 17 9 18 10 8 11 7 12
REMARK SMILES IDX 6 13 5 14 4 15 3 16 2 17 1 18
REMARK H PARENT
REMARK Flexibility Score: inf
ROOT
ATOM      1  C   UNL     1      13.270 -15.896  -3.365  1.00  0.00     0.000 C 
ENDROOT
BRANCH   1   2
ATOM      2  C   UNL     1      12.703 -15.415  -4.714  1.00  0.00     0.000 C 
BRANCH   2   3
ATOM      3  C   UNL     1      11.633 -14.310  -4.620  1.00  0.00     0.000 C 
BRANCH   3   4
ATOM      4  C   UNL     1      10.177 -14.789  -4.780  1.00  0.00     0.000 C 
BRANCH   4   5
ATOM      5  C   UNL     1       9.530 -15.282  -3.468  1.00  0.00     0.000 C 
BRANCH   5   6
ATOM      6  C   UNL     1       9.528 -16.812  -3.344  1.00  0.00     0.006 C 
BRANCH   6   7
ATOM      7  C   UNL     1       9.655 -17.476  -4.720  1.00  0.00     0.053 C 
BRANCH   7   8
ATOM      8  C   UNL     1      10.783 -18.459  -4.726  1.00  0.00     0.041 C 
ATOM      9  O   UNL     1      11.132 -19.030  -3.659  1.00  0.00    -0.550 OA
ATOM     10  O   UNL     1      11.439 -18.758  -5.912  1.00  0.00    -0.550 OA
ENDBRANCH   7   8
ENDBRANCH   6   7
ENDBRANCH   5   6
ENDBRANCH   4   5
ENDBRANCH   3   4
ENDBRANCH   2   3
ENDBRANCH   1   2
BRANCH   1  11
ATOM     11  C   UNL     1      14.560 -16.715  -3.515  1.00  0.00     0.000 C 
BRANCH  11  12
ATOM     12  C   UNL     1      14.298 -18.023  -4.275  1.00  0.00    -0.000 C 
BRANCH  12  13
ATOM     13  C   UNL     1      15.589 -18.802  -4.570  1.00  0.00    -0.000 C 
BRANCH  13  14
ATOM     14  C   UNL     1      16.606 -18.717  -3.417  1.00  0.00    -0.000 C 
BRANCH  14  15
ATOM     15  C   UNL     1      17.604 -19.885  -3.422  1.00  0.00    -0.000 C 
BRANCH  15  16
ATOM     16  C   UNL     1      17.625 -20.648  -2.086  1.00  0.00    -0.000 C 
BRANCH  16  17
ATOM     17  C   UNL     1      16.923 -22.011  -2.173  1.00  0.00    -0.003 C 
ATOM     18  C   UNL     1      17.643 -22.987  -3.103  1.00  0.00     0.004 C 
ENDBRANCH  16  17
ENDBRANCH  15  16
ENDBRANCH  14  15
ENDBRANCH  13  14
ENDBRANCH  12  13
ENDBRANCH  11  12
ENDBRANCH   1  11
TORSDOF 14
ENDMDL
MODEL 9
REMARK VINA RESULT:    -3.117      1.425      3.297
REMARK INTER + INTRA:          -6.689
REMARK INTER:                  -4.745
REMARK INTRA:                  -1.944
REMARK UNBOUND:                -1.020
REMARK SMILES CCCCCCCCCCCCCCCC(=O)[O-]
REMARK SMILES IDX 9 1 10 2 11 3 12 4 13 5 14 6 15 7 16 8 17 9 18 10 8 11 7 12
REMARK SMILES IDX 6 13 5 14 4 15 3 16 2 17 1 18
REMARK H PARENT
REMARK Flexibility Score: inf
ROOT
ATOM      1  C   UNL     1      12.785 -15.515  -4.553  1.00  0.00     0.000 C 
ENDROOT
BRANCH   1   2
ATOM      2  C   UNL     1      13.314 -15.730  -3.122  1.00  0.00     0.000 C 
BRANCH   2   3
ATOM      3  C   UNL     1      14.594 -16.581  -3.016  1.00  0.00     0.000 C 
BRANCH   3   4
ATOM      4  C   UNL     1      14.910 -17.451  -4.248  1.00  0.00     0.000 C 
BRANCH   4   5
ATOM      5  C   UNL     1      15.429 -18.863  -3.904  1.00  0.00     0.000 C 
BRANCH   5   6
ATOM      6  C   UNL     1      16.959 -18.967  -3.975  1.00  0.00     0.006 C 
BRANCH   6   7
ATOM      7  C   UNL     1      17.536 -19.496  -2.657  1.00  0.00     0.053 C 
BRANCH   7   8
ATOM      8  C   UNL     1      17.539 -20.993  -2.648  1.00  0.00     0.041 C 
ATOM      9  O   UNL     1      18.125 -21.631  -3.563  1.00  0.00    -0.550 OA
ATOM     10  O   UNL     1      16.909 -21.684  -1.623  1.00  0.00    -0.550 OA
ENDBRANCH   7   8
ENDBRANCH   6   7
ENDBRANCH   5   6
ENDBRANCH   4   5
ENDBRANCH   3   4
ENDBRANCH   2   3
ENDBRANCH   1   2
BRANCH   1  11
ATOM     11  C   UNL     1      11.704 -14.428  -4.636  1.00  0.00     0.000 C 
BRANCH  11  12
ATOM     12  C   UNL     1      10.337 -15.035  -4.983  1.00  0.00    -0.000 C 
BRANCH  12  13
ATOM     13  C   UNL     1       9.410 -15.135  -3.762  1.00  0.00    -0.000 C 
BRANCH  13  14
ATOM     14  C   UNL     1       9.473 -16.517  -3.085  1.00  0.00    -0.000 C 
BRANCH  14  15
ATOM     15  C   UNL     1       9.772 -17.649  -4.081  1.00  0.00    -0.000 C 
BRANCH  15  16
ATOM     16  C   UNL     1      10.946 -18.535  -3.630  1.00  0.00    -0.000 C 
BRANCH  16  17
ATOM     17  C   UNL     1      11.818 -19.003  -4.805  1.00  0.00    -0.003 C 
ATOM     18  C   UNL     1      11.318 -18.486  -6.153  1.00  0.00     0.004 C 
ENDBRANCH  16  17
ENDBRANCH  15  16
ENDBRANCH  14  15
ENDBRANCH  13  14
ENDBRANCH  12  13
ENDBRANCH  11  12
ENDBRANCH   1  11
TORSDOF 14
ENDMDL
