MODEL 1
REMARK VINA RESULT:    -5.406      0.000      0.000
REMARK INTER + INTRA:         -10.440
REMARK INTER:                  -8.409
REMARK INTRA:                  -2.032
REMARK UNBOUND:                -2.032
REMARK SMILES C[C@@]12C[C@@]3(O)O[C@@H](O1)[C@]1(COC(=O)c4ccccc4)[C@H]3C[C@@]12O[C@H]1O[C@@H](CO)[C@@H](O)[C@H](O)[C@H]1O
REMARK SMILES IDX 1 1 2 2 3 3 4 4 20 5 21 6 22 7 9 8 7 9 8 10 6 11 23 12 24 13
REMARK SMILES IDX 33 14 25 15 31 16 26 17 29 18 34 19 32 21 27 23 28 24 30 26
REMARK SMILES IDX 5 28 10 30 11 31 12 32 13 33 14 34 15 35 19 36 16 37 18 38
REMARK SMILES IDX 17 39
REMARK H PARENT 34 20 32 22 28 25 30 27 5 29
REMARK Flexibility Score: inf
ROOT
ATOM      1  C   UNL     1      -5.060  24.536  -5.916  1.00  0.00     0.046 C 
ATOM      2  C   UNL     1      -5.154  23.143  -6.540  1.00  0.00     0.104 C 
ATOM      3  C   UNL     1      -3.875  22.286  -6.221  1.00  0.00     0.104 C 
ATOM      4  C   UNL     1      -4.121  20.957  -7.016  1.00  0.00     0.175 C 
ATOM      5  C   UNL     1      -4.542  21.270  -8.489  1.00  0.00     0.070 C 
ATOM      6  C   UNL     1      -4.193  22.707  -8.921  1.00  0.00     0.050 C 
ATOM      7  C   UNL     1      -5.431  23.148  -8.093  1.00  0.00     0.115 C 
ATOM      8  C   UNL     1      -5.973  21.724  -8.213  1.00  0.00     0.096 C 
ATOM      9  C   UNL     1      -6.310  21.263  -6.805  1.00  0.00     0.267 C 
ATOM     10  O   UNL     1      -6.240  22.423  -5.992  1.00  0.00    -0.342 OA
ATOM     11  O   UNL     1      -5.269  20.371  -6.436  1.00  0.00    -0.320 OA
ENDROOT
BRANCH   7  12
ATOM     12  O   UNL     1      -6.352  24.162  -8.499  1.00  0.00    -0.339 OA
BRANCH  12  13
ATOM     13  C   UNL     1      -5.810  25.266  -9.209  1.00  0.00     0.282 C 
ATOM     14  C   UNL     1      -6.219  26.639  -8.591  1.00  0.00     0.202 C 
ATOM     15  O   UNL     1      -6.136  25.127 -10.589  1.00  0.00    -0.341 OA
ATOM     16  C   UNL     1      -6.452  27.692  -9.689  1.00  0.00     0.179 C 
ATOM     17  C   UNL     1      -7.404  25.651 -10.953  1.00  0.00     0.178 C 
ATOM     18  C   UNL     1      -7.479  27.191 -10.731  1.00  0.00     0.177 C 
BRANCH  14  19
ATOM     19  O   UNL     1      -7.367  26.506  -7.795  1.00  0.00    -0.385 OA
ATOM     20  H   UNL     1      -7.113  25.959  -7.006  1.00  0.00     0.211 HD
ENDBRANCH  14  19
BRANCH  16  21
ATOM     21  O   UNL     1      -5.234  27.969 -10.336  1.00  0.00    -0.387 OA
ATOM     22  H   UNL     1      -5.363  27.758 -11.298  1.00  0.00     0.211 HD
ENDBRANCH  16  21
BRANCH  17  23
ATOM     23  C   UNL     1      -8.577  24.832 -10.366  1.00  0.00     0.191 C 
BRANCH  23  24
ATOM     24  O   UNL     1      -9.048  23.903 -11.306  1.00  0.00    -0.394 OA
ATOM     25  H   UNL     1      -9.660  24.397 -11.913  1.00  0.00     0.210 HD
ENDBRANCH  23  24
ENDBRANCH  17  23
BRANCH  18  26
ATOM     26  O   UNL     1      -8.785  27.627 -10.436  1.00  0.00    -0.387 OA
ATOM     27  H   UNL     1      -9.276  27.739 -11.290  1.00  0.00     0.211 HD
ENDBRANCH  18  26
ENDBRANCH  12  13
ENDBRANCH   7  12
BRANCH   4  28
ATOM     28  O   UNL     1      -3.031  20.081  -6.943  1.00  0.00    -0.365 OA
ATOM     29  H   UNL     1      -3.115  19.457  -7.712  1.00  0.00     0.214 HD
ENDBRANCH   4  28
BRANCH   8  30
ATOM     30  C   UNL     1      -7.018  21.432  -9.310  1.00  0.00     0.249 C 
BRANCH  30  31
ATOM     31  O   UNL     1      -8.221  20.924  -8.736  1.00  0.00    -0.461 OA
BRANCH  31  32
ATOM     32  C   UNL     1      -9.388  21.680  -8.566  1.00  0.00     0.338 C 
ATOM     33  O   UNL     1     -10.217  21.790  -9.511  1.00  0.00    -0.246 OA
BRANCH  32  34
ATOM     34  C   UNL     1      -9.636  22.365  -7.279  1.00  0.00     0.060 A 
ATOM     35  C   UNL     1      -9.551  23.767  -7.195  1.00  0.00     0.015 A 
ATOM     36  C   UNL     1      -9.952  21.629  -6.121  1.00  0.00     0.015 A 
ATOM     37  C   UNL     1      -9.780  24.417  -5.977  1.00  0.00     0.001 A 
ATOM     38  C   UNL     1     -10.179  22.284  -4.907  1.00  0.00     0.001 A 
ATOM     39  C   UNL     1     -10.094  23.677  -4.835  1.00  0.00     0.000 A 
ENDBRANCH  32  34
ENDBRANCH  31  32
ENDBRANCH  30  31
ENDBRANCH   8  30
TORSDOF 12
ENDMDL
MODEL 2
REMARK VINA RESULT:    -5.295      2.169      6.037
REMARK INTER + INTRA:         -10.267
REMARK INTER:                  -8.538
REMARK INTRA:                  -1.730
REMARK UNBOUND:                -2.032
REMARK SMILES C[C@@]12C[C@@]3(O)O[C@@H](O1)[C@]1(COC(=O)c4ccccc4)[C@H]3C[C@@]12O[C@H]1O[C@@H](CO)[C@@H](O)[C@H](O)[C@H]1O
REMARK SMILES IDX 1 1 2 2 3 3 4 4 20 5 21 6 22 7 9 8 7 9 8 10 6 11 23 12 24 13
REMARK SMILES IDX 33 14 25 15 31 16 26 17 29 18 34 19 32 21 27 23 28 24 30 26
REMARK SMILES IDX 5 28 10 30 11 31 12 32 13 33 14 34 15 35 19 36 16 37 18 38
REMARK SMILES IDX 17 39
REMARK H PARENT 34 20 32 22 28 25 30 27 5 29
REMARK Flexibility Score: inf
ROOT
ATOM      1  C   UNL     1      -6.565  19.987  -9.501  1.00  0.00     0.046 C 
ATOM      2  C   UNL     1      -7.416  21.233  -9.253  1.00  0.00     0.104 C 
ATOM      3  C   UNL     1      -7.770  21.960 -10.600  1.00  0.00     0.104 C 
ATOM      4  C   UNL     1      -8.546  23.239 -10.128  1.00  0.00     0.175 C 
ATOM      5  C   UNL     1      -7.759  23.970  -8.993  1.00  0.00     0.070 C 
ATOM      6  C   UNL     1      -6.278  23.552  -8.924  1.00  0.00     0.050 C 
ATOM      7  C   UNL     1      -6.782  22.255  -8.233  1.00  0.00     0.115 C 
ATOM      8  C   UNL     1      -8.064  22.998  -7.857  1.00  0.00     0.096 C 
ATOM      9  C   UNL     1      -9.223  22.135  -8.325  1.00  0.00     0.267 C 
ATOM     10  O   UNL     1      -8.656  20.882  -8.672  1.00  0.00    -0.342 OA
ATOM     11  O   UNL     1      -9.718  22.764  -9.497  1.00  0.00    -0.320 OA
ENDROOT
BRANCH   7  12
ATOM     12  O   UNL     1      -6.126  21.622  -7.132  1.00  0.00    -0.339 OA
BRANCH  12  13
ATOM     13  C   UNL     1      -4.769  21.975  -6.912  1.00  0.00     0.282 C 
ATOM     14  C   UNL     1      -3.803  20.753  -7.019  1.00  0.00     0.202 C 
ATOM     15  O   UNL     1      -4.674  22.687  -5.682  1.00  0.00    -0.341 OA
ATOM     16  C   UNL     1      -2.660  20.861  -5.994  1.00  0.00     0.179 C 
ATOM     17  C   UNL     1      -4.537  21.865  -4.532  1.00  0.00     0.178 C 
ATOM     18  C   UNL     1      -3.213  21.046  -4.562  1.00  0.00     0.177 C 
BRANCH  14  19
ATOM     19  O   UNL     1      -4.502  19.550  -6.842  1.00  0.00    -0.385 OA
ATOM     20  H   UNL     1      -4.889  19.568  -5.928  1.00  0.00     0.211 HD
ENDBRANCH  14  19
BRANCH  16  21
ATOM     21  O   UNL     1      -1.843  21.959  -6.319  1.00  0.00    -0.387 OA
ATOM     22  H   UNL     1      -1.936  22.617  -5.581  1.00  0.00     0.211 HD
ENDBRANCH  16  21
BRANCH  17  23
ATOM     23  C   UNL     1      -5.819  21.057  -4.221  1.00  0.00     0.191 C 
BRANCH  23  24
ATOM     24  O   UNL     1      -6.903  21.920  -3.998  1.00  0.00    -0.394 OA
ATOM     25  H   UNL     1      -7.629  21.627  -4.609  1.00  0.00     0.210 HD
ENDBRANCH  23  24
ENDBRANCH  17  23
BRANCH  18  26
ATOM     26  O   UNL     1      -3.327  19.820  -3.878  1.00  0.00    -0.387 OA
ATOM     27  H   UNL     1      -4.103  19.876  -3.265  1.00  0.00     0.211 HD
ENDBRANCH  18  26
ENDBRANCH  12  13
ENDBRANCH   7  12
BRANCH   4  28
ATOM     28  O   UNL     1      -8.871  24.091 -11.192  1.00  0.00    -0.365 OA
ATOM     29  H   UNL     1      -9.694  24.578 -10.925  1.00  0.00     0.214 HD
ENDBRANCH   4  28
BRANCH   8  30
ATOM     30  C   UNL     1      -8.170  23.597  -6.439  1.00  0.00     0.249 C 
BRANCH  30  31
ATOM     31  O   UNL     1      -9.520  23.952  -6.143  1.00  0.00    -0.461 OA
BRANCH  31  32
ATOM     32  C   UNL     1      -9.987  25.271  -6.075  1.00  0.00     0.338 C 
ATOM     33  O   UNL     1     -10.633  25.665  -5.066  1.00  0.00    -0.246 OA
BRANCH  32  34
ATOM     34  C   UNL     1      -9.737  26.194  -7.203  1.00  0.00     0.060 A 
ATOM     35  C   UNL     1     -10.480  26.079  -8.392  1.00  0.00     0.015 A 
ATOM     36  C   UNL     1      -8.750  27.195  -7.109  1.00  0.00     0.015 A 
ATOM     37  C   UNL     1     -10.242  26.948  -9.462  1.00  0.00     0.001 A 
ATOM     38  C   UNL     1      -8.517  28.060  -8.181  1.00  0.00     0.001 A 
ATOM     39  C   UNL     1      -9.262  27.938  -9.357  1.00  0.00     0.000 A 
ENDBRANCH  32  34
ENDBRANCH  31  32
ENDBRANCH  30  31
ENDBRANCH   8  30
TORSDOF 12
ENDMDL
MODEL 3
REMARK VINA RESULT:    -5.287      2.294      7.023
REMARK INTER + INTRA:         -10.255
REMARK INTER:                  -8.734
REMARK INTRA:                  -1.521
REMARK UNBOUND:                -2.032
REMARK SMILES C[C@@]12C[C@@]3(O)O[C@@H](O1)[C@]1(COC(=O)c4ccccc4)[C@H]3C[C@@]12O[C@H]1O[C@@H](CO)[C@@H](O)[C@H](O)[C@H]1O
REMARK SMILES IDX 1 1 2 2 3 3 4 4 20 5 21 6 22 7 9 8 7 9 8 10 6 11 23 12 24 13
REMARK SMILES IDX 33 14 25 15 31 16 26 17 29 18 34 19 32 21 27 23 28 24 30 26
REMARK SMILES IDX 5 28 10 30 11 31 12 32 13 33 14 34 15 35 19 36 16 37 18 38
REMARK SMILES IDX 17 39
REMARK H PARENT 34 20 32 22 28 25 30 27 5 29
REMARK Flexibility Score: inf
ROOT
ATOM      1  C   UNL     1      -8.711  21.919  -7.231  1.00  0.00     0.046 C 
ATOM      2  C   UNL     1      -8.392  22.635  -8.543  1.00  0.00     0.104 C 
ATOM      3  C   UNL     1      -9.306  22.119  -9.713  1.00  0.00     0.104 C 
ATOM      4  C   UNL     1      -8.763  22.891 -10.965  1.00  0.00     0.175 C 
ATOM      5  C   UNL     1      -7.206  22.783 -11.044  1.00  0.00     0.070 C 
ATOM      6  C   UNL     1      -6.641  21.632 -10.190  1.00  0.00     0.050 C 
ATOM      7  C   UNL     1      -6.875  22.561  -8.967  1.00  0.00     0.115 C 
ATOM      8  C   UNL     1      -6.864  23.756  -9.919  1.00  0.00     0.096 C 
ATOM      9  C   UNL     1      -8.126  24.552  -9.636  1.00  0.00     0.267 C 
ATOM     10  O   UNL     1      -8.659  24.019  -8.434  1.00  0.00    -0.342 OA
ATOM     11  O   UNL     1      -9.011  24.259 -10.707  1.00  0.00    -0.320 OA
ENDROOT
BRANCH   7  12
ATOM     12  O   UNL     1      -5.974  22.682  -7.863  1.00  0.00    -0.339 OA
BRANCH  12  13
ATOM     13  C   UNL     1      -5.003  21.656  -7.719  1.00  0.00     0.282 C 
ATOM     14  C   UNL     1      -4.901  21.125  -6.255  1.00  0.00     0.202 C 
ATOM     15  O   UNL     1      -3.768  22.115  -8.261  1.00  0.00    -0.341 OA
ATOM     16  C   UNL     1      -3.444  20.784  -5.892  1.00  0.00     0.179 C 
ATOM     17  C   UNL     1      -2.964  22.856  -7.356  1.00  0.00     0.178 C 
ATOM     18  C   UNL     1      -2.512  21.991  -6.142  1.00  0.00     0.177 C 
BRANCH  14  19
ATOM     19  O   UNL     1      -5.421  22.060  -5.349  1.00  0.00    -0.385 OA
ATOM     20  H   UNL     1      -4.655  22.586  -5.000  1.00  0.00     0.211 HD
ENDBRANCH  14  19
BRANCH  16  21
ATOM     21  O   UNL     1      -3.011  19.696  -6.671  1.00  0.00    -0.387 OA
ATOM     22  H   UNL     1      -2.917  18.920  -6.057  1.00  0.00     0.211 HD
ENDBRANCH  16  21
BRANCH  17  23
ATOM     23  C   UNL     1      -3.576  24.233  -7.007  1.00  0.00     0.191 C 
BRANCH  23  24
ATOM     24  O   UNL     1      -2.573  25.209  -6.913  1.00  0.00    -0.394 OA
ATOM     25  H   UNL     1      -2.459  25.589  -7.823  1.00  0.00     0.210 HD
ENDBRANCH  23  24
ENDBRANCH  17  23
BRANCH  18  26
ATOM     26  O   UNL     1      -2.321  22.761  -4.978  1.00  0.00    -0.387 OA
ATOM     27  H   UNL     1      -2.870  22.369  -4.252  1.00  0.00     0.211 HD
ENDBRANCH  18  26
ENDBRANCH  12  13
ENDBRANCH   7  12
BRANCH   4  28
ATOM     28  O   UNL     1      -9.391  22.493 -12.153  1.00  0.00    -0.365 OA
ATOM     29  H   UNL     1      -9.418  23.292 -12.742  1.00  0.00     0.214 HD
ENDBRANCH   4  28
BRANCH   8  30
ATOM     30  C   UNL     1      -5.554  24.558 -10.069  1.00  0.00     0.249 C 
BRANCH  30  31
ATOM     31  O   UNL     1      -5.796  25.953  -9.894  1.00  0.00    -0.461 OA
BRANCH  31  32
ATOM     32  C   UNL     1      -4.786  26.912  -9.752  1.00  0.00     0.338 C 
ATOM     33  O   UNL     1      -4.275  27.135  -8.620  1.00  0.00    -0.246 OA
BRANCH  32  34
ATOM     34  C   UNL     1      -4.333  27.678 -10.933  1.00  0.00     0.060 A 
ATOM     35  C   UNL     1      -5.249  28.036 -11.940  1.00  0.00     0.015 A 
ATOM     36  C   UNL     1      -2.983  28.055 -11.073  1.00  0.00     0.015 A 
ATOM     37  C   UNL     1      -4.821  28.755 -13.061  1.00  0.00     0.001 A 
ATOM     38  C   UNL     1      -2.563  28.774 -12.196  1.00  0.00     0.001 A 
ATOM     39  C   UNL     1      -3.481  29.125 -13.189  1.00  0.00     0.000 A 
ENDBRANCH  32  34
ENDBRANCH  31  32
ENDBRANCH  30  31
ENDBRANCH   8  30
TORSDOF 12
ENDMDL
MODEL 4
REMARK VINA RESULT:    -5.227      2.186      3.745
REMARK INTER + INTRA:         -10.161
REMARK INTER:                  -8.427
REMARK INTRA:                  -1.734
REMARK UNBOUND:                -2.032
REMARK SMILES C[C@@]12C[C@@]3(O)O[C@@H](O1)[C@]1(COC(=O)c4ccccc4)[C@H]3C[C@@]12O[C@H]1O[C@@H](CO)[C@@H](O)[C@H](O)[C@H]1O
REMARK SMILES IDX 1 1 2 2 3 3 4 4 20 5 21 6 22 7 9 8 7 9 8 10 6 11 23 12 24 13
REMARK SMILES IDX 33 14 25 15 31 16 26 17 29 18 34 19 32 21 27 23 28 24 30 26
REMARK SMILES IDX 5 28 10 30 11 31 12 32 13 33 14 34 15 35 19 36 16 37 18 38
REMARK SMILES IDX 17 39
REMARK H PARENT 34 20 32 22 28 25 30 27 5 29
REMARK Flexibility Score: inf
ROOT
ATOM      1  C   UNL     1      -4.135  24.055  -8.335  1.00  0.00     0.046 C 
ATOM      2  C   UNL     1      -4.155  23.028  -7.201  1.00  0.00     0.104 C 
ATOM      3  C   UNL     1      -2.788  22.260  -7.102  1.00  0.00     0.104 C 
ATOM      4  C   UNL     1      -3.044  21.208  -5.968  1.00  0.00     0.175 C 
ATOM      5  C   UNL     1      -4.387  20.448  -6.218  1.00  0.00     0.070 C 
ATOM      6  C   UNL     1      -4.886  20.573  -7.670  1.00  0.00     0.050 C 
ATOM      7  C   UNL     1      -5.350  22.002  -7.279  1.00  0.00     0.115 C 
ATOM      8  C   UNL     1      -5.346  21.564  -5.815  1.00  0.00     0.096 C 
ATOM      9  C   UNL     1      -4.523  22.589  -5.053  1.00  0.00     0.267 C 
ATOM     10  O   UNL     1      -4.323  23.668  -5.952  1.00  0.00    -0.342 OA
ATOM     11  O   UNL     1      -3.277  21.961  -4.794  1.00  0.00    -0.320 OA
ENDROOT
BRANCH   7  12
ATOM     12  O   UNL     1      -6.577  22.597  -7.710  1.00  0.00    -0.339 OA
BRANCH  12  13
ATOM     13  C   UNL     1      -6.967  22.349  -9.052  1.00  0.00     0.282 C 
ATOM     14  C   UNL     1      -7.699  23.565  -9.702  1.00  0.00     0.202 C 
ATOM     15  O   UNL     1      -7.705  21.132  -9.098  1.00  0.00    -0.341 OA
ATOM     16  C   UNL     1      -8.824  23.095 -10.641  1.00  0.00     0.179 C 
ATOM     17  C   UNL     1      -9.093  21.271  -8.833  1.00  0.00     0.178 C 
ATOM     18  C   UNL     1      -9.802  22.148  -9.907  1.00  0.00     0.177 C 
BRANCH  14  19
ATOM     19  O   UNL     1      -8.214  24.420  -8.716  1.00  0.00    -0.385 OA
ATOM     20  H   UNL     1      -8.971  24.916  -9.126  1.00  0.00     0.211 HD
ENDBRANCH  14  19
BRANCH  16  21
ATOM     21  O   UNL     1      -8.264  22.420 -11.740  1.00  0.00    -0.387 OA
ATOM     22  H   UNL     1      -8.316  21.449 -11.540  1.00  0.00     0.211 HD
ENDBRANCH  16  21
BRANCH  17  23
ATOM     23  C   UNL     1      -9.382  21.650  -7.361  1.00  0.00     0.191 C 
BRANCH  23  24
ATOM     24  O   UNL     1     -10.474  20.918  -6.870  1.00  0.00    -0.394 OA
ATOM     25  H   UNL     1     -10.761  21.365  -6.031  1.00  0.00     0.210 HD
ENDBRANCH  23  24
ENDBRANCH  17  23
BRANCH  18  26
ATOM     26  O   UNL     1     -10.914  22.838  -9.387  1.00  0.00    -0.387 OA
ATOM     27  H   UNL     1     -11.384  22.238  -8.753  1.00  0.00     0.211 HD
ENDBRANCH  18  26
ENDBRANCH  12  13
ENDBRANCH   7  12
BRANCH   4  28
ATOM     28  O   UNL     1      -1.960  20.339  -5.788  1.00  0.00    -0.365 OA
ATOM     29  H   UNL     1      -1.457  20.671  -4.998  1.00  0.00     0.214 HD
ENDBRANCH   4  28
BRANCH   8  30
ATOM     30  C   UNL     1      -6.684  21.133  -5.179  1.00  0.00     0.249 C 
BRANCH  30  31
ATOM     31  O   UNL     1      -7.152  22.129  -4.270  1.00  0.00    -0.461 OA
BRANCH  31  32
ATOM     32  C   UNL     1      -8.436  22.686  -4.310  1.00  0.00     0.338 C 
ATOM     33  O   UNL     1      -9.431  22.018  -3.914  1.00  0.00    -0.246 OA
BRANCH  32  34
ATOM     34  C   UNL     1      -8.624  24.055  -4.837  1.00  0.00     0.060 A 
ATOM     35  C   UNL     1      -9.920  24.560  -5.051  1.00  0.00     0.015 A 
ATOM     36  C   UNL     1      -7.515  24.869  -5.138  1.00  0.00     0.015 A 
ATOM     37  C   UNL     1     -10.101  25.852  -5.555  1.00  0.00     0.001 A 
ATOM     38  C   UNL     1      -7.703  26.160  -5.641  1.00  0.00     0.001 A 
ATOM     39  C   UNL     1      -8.994  26.652  -5.849  1.00  0.00     0.000 A 
ENDBRANCH  32  34
ENDBRANCH  31  32
ENDBRANCH  30  31
ENDBRANCH   8  30
TORSDOF 12
ENDMDL
MODEL 5
REMARK VINA RESULT:    -5.184      1.963      6.070
REMARK INTER + INTRA:         -10.095
REMARK INTER:                  -8.414
REMARK INTRA:                  -1.682
REMARK UNBOUND:                -2.032
REMARK SMILES C[C@@]12C[C@@]3(O)O[C@@H](O1)[C@]1(COC(=O)c4ccccc4)[C@H]3C[C@@]12O[C@H]1O[C@@H](CO)[C@@H](O)[C@H](O)[C@H]1O
REMARK SMILES IDX 1 1 2 2 3 3 4 4 20 5 21 6 22 7 9 8 7 9 8 10 6 11 23 12 24 13
REMARK SMILES IDX 33 14 25 15 31 16 26 17 29 18 34 19 32 21 27 23 28 24 30 26
REMARK SMILES IDX 5 28 10 30 11 31 12 32 13 33 14 34 15 35 19 36 16 37 18 38
REMARK SMILES IDX 17 39
REMARK H PARENT 34 20 32 22 28 25 30 27 5 29
REMARK Flexibility Score: inf
ROOT
ATOM      1  C   UNL     1      -6.492  27.396  -7.255  1.00  0.00     0.046 C 
ATOM      2  C   UNL     1      -6.990  26.966  -8.636  1.00  0.00     0.104 C 
ATOM      3  C   UNL     1      -7.228  28.208  -9.569  1.00  0.00     0.104 C 
ATOM      4  C   UNL     1      -7.819  27.571 -10.876  1.00  0.00     0.175 C 
ATOM      5  C   UNL     1      -8.978  26.583 -10.528  1.00  0.00     0.070 C 
ATOM      6  C   UNL     1      -9.544  26.796  -9.111  1.00  0.00     0.050 C 
ATOM      7  C   UNL     1      -8.277  26.056  -8.603  1.00  0.00     0.115 C 
ATOM      8  C   UNL     1      -8.129  25.434  -9.991  1.00  0.00     0.096 C 
ATOM      9  C   UNL     1      -6.703  25.701 -10.441  1.00  0.00     0.267 C 
ATOM     10  O   UNL     1      -6.018  26.177  -9.293  1.00  0.00    -0.342 OA
ATOM     11  O   UNL     1      -6.794  26.748 -11.396  1.00  0.00    -0.320 OA
ENDROOT
BRANCH   7  12
ATOM     12  O   UNL     1      -8.272  25.109  -7.532  1.00  0.00    -0.339 OA
BRANCH  12  13
ATOM     13  C   UNL     1      -9.389  25.134  -6.656  1.00  0.00     0.282 C 
ATOM     14  C   UNL     1      -8.982  25.355  -5.166  1.00  0.00     0.202 C 
ATOM     15  O   UNL     1     -10.172  23.965  -6.880  1.00  0.00    -0.341 OA
ATOM     16  C   UNL     1      -9.884  24.542  -4.221  1.00  0.00     0.179 C 
ATOM     17  C   UNL     1      -9.755  22.824  -6.144  1.00  0.00     0.178 C 
ATOM     18  C   UNL     1      -9.890  23.045  -4.609  1.00  0.00     0.177 C 
BRANCH  14  19
ATOM     19  O   UNL     1      -7.635  25.018  -4.962  1.00  0.00    -0.385 OA
ATOM     20  H   UNL     1      -7.107  25.851  -5.071  1.00  0.00     0.211 HD
ENDBRANCH  14  19
BRANCH  16  21
ATOM     21  O   UNL     1     -11.197  25.041  -4.283  1.00  0.00    -0.387 OA
ATOM     22  H   UNL     1     -11.218  25.868  -3.733  1.00  0.00     0.211 HD
ENDBRANCH  16  21
BRANCH  17  23
ATOM     23  C   UNL     1      -8.393  22.272  -6.625  1.00  0.00     0.191 C 
BRANCH  23  24
ATOM     24  O   UNL     1      -8.374  20.871  -6.550  1.00  0.00    -0.394 OA
ATOM     25  H   UNL     1      -8.851  20.624  -5.715  1.00  0.00     0.210 HD
ENDBRANCH  23  24
ENDBRANCH  17  23
BRANCH  18  26
ATOM     26  O   UNL     1      -8.942  22.306  -3.876  1.00  0.00    -0.387 OA
ATOM     27  H   UNL     1      -8.772  22.777  -3.021  1.00  0.00     0.211 HD
ENDBRANCH  18  26
ENDBRANCH  12  13
ENDBRANCH   7  12
BRANCH   4  28
ATOM     28  O   UNL     1      -8.199  28.537 -11.817  1.00  0.00    -0.365 OA
ATOM     29  H   UNL     1      -8.968  29.028 -11.425  1.00  0.00     0.214 HD
ENDBRANCH   4  28
BRANCH   8  30
ATOM     30  C   UNL     1      -8.672  24.006 -10.212  1.00  0.00     0.249 C 
BRANCH  30  31
ATOM     31  O   UNL     1      -7.600  23.085 -10.406  1.00  0.00    -0.461 OA
BRANCH  31  32
ATOM     32  C   UNL     1      -7.564  21.797  -9.856  1.00  0.00     0.338 C 
ATOM     33  O   UNL     1      -8.626  21.129  -9.732  1.00  0.00    -0.246 OA
BRANCH  32  34
ATOM     34  C   UNL     1      -6.275  21.231  -9.402  1.00  0.00     0.060 A 
ATOM     35  C   UNL     1      -5.212  22.083  -9.049  1.00  0.00     0.015 A 
ATOM     36  C   UNL     1      -6.089  19.837  -9.322  1.00  0.00     0.015 A 
ATOM     37  C   UNL     1      -3.990  21.550  -8.624  1.00  0.00     0.001 A 
ATOM     38  C   UNL     1      -4.865  19.312  -8.897  1.00  0.00     0.001 A 
ATOM     39  C   UNL     1      -3.817  20.166  -8.547  1.00  0.00     0.000 A 
ENDBRANCH  32  34
ENDBRANCH  31  32
ENDBRANCH  30  31
ENDBRANCH   8  30
TORSDOF 12
ENDMDL
MODEL 6
REMARK VINA RESULT:    -5.051      1.883      6.463
REMARK INTER + INTRA:          -9.888
REMARK INTER:                  -8.975
REMARK INTRA:                  -0.913
REMARK UNBOUND:                -2.032
REMARK SMILES C[C@@]12C[C@@]3(O)O[C@@H](O1)[C@]1(COC(=O)c4ccccc4)[C@H]3C[C@@]12O[C@H]1O[C@@H](CO)[C@@H](O)[C@H](O)[C@H]1O
REMARK SMILES IDX 1 1 2 2 3 3 4 4 20 5 21 6 22 7 9 8 7 9 8 10 6 11 23 12 24 13
REMARK SMILES IDX 33 14 25 15 31 16 26 17 29 18 34 19 32 21 27 23 28 24 30 26
REMARK SMILES IDX 5 28 10 30 11 31 12 32 13 33 14 34 15 35 19 36 16 37 18 38
REMARK SMILES IDX 17 39
REMARK H PARENT 34 20 32 22 28 25 30 27 5 29
REMARK Flexibility Score: inf
ROOT
ATOM      1  C   UNL     1      -9.158  21.721  -7.182  1.00  0.00     0.046 C 
ATOM      2  C   UNL     1      -8.737  22.483  -8.440  1.00  0.00     0.104 C 
ATOM      3  C   UNL     1      -9.529  21.982  -9.702  1.00  0.00     0.104 C 
ATOM      4  C   UNL     1      -8.892  22.803 -10.878  1.00  0.00     0.175 C 
ATOM      5  C   UNL     1      -7.333  22.729 -10.816  1.00  0.00     0.070 C 
ATOM      6  C   UNL     1      -6.821  21.565  -9.945  1.00  0.00     0.050 C 
ATOM      7  C   UNL     1      -7.186  22.452  -8.724  1.00  0.00     0.115 C 
ATOM      8  C   UNL     1      -7.117  23.675  -9.638  1.00  0.00     0.096 C 
ATOM      9  C   UNL     1      -8.418  24.436  -9.450  1.00  0.00     0.267 C 
ATOM     10  O   UNL     1      -9.045  23.857  -8.318  1.00  0.00    -0.342 OA
ATOM     11  O   UNL     1      -9.194  24.157 -10.606  1.00  0.00    -0.320 OA
ENDROOT
BRANCH   7  12
ATOM     12  O   UNL     1      -6.393  22.559  -7.540  1.00  0.00    -0.339 OA
BRANCH  12  13
ATOM     13  C   UNL     1      -6.105  21.349  -6.856  1.00  0.00     0.282 C 
ATOM     14  C   UNL     1      -5.881  21.560  -5.326  1.00  0.00     0.202 C 
ATOM     15  O   UNL     1      -5.026  20.695  -7.518  1.00  0.00    -0.341 OA
ATOM     16  C   UNL     1      -4.783  20.623  -4.794  1.00  0.00     0.179 C 
ATOM     17  C   UNL     1      -3.735  21.114  -7.102  1.00  0.00     0.178 C 
ATOM     18  C   UNL     1      -3.475  20.783  -5.603  1.00  0.00     0.177 C 
BRANCH  14  19
ATOM     19  O   UNL     1      -5.555  22.896  -5.050  1.00  0.00    -0.385 OA
ATOM     20  H   UNL     1      -6.143  23.193  -4.306  1.00  0.00     0.211 HD
ENDBRANCH  14  19
BRANCH  16  21
ATOM     21  O   UNL     1      -5.222  19.290  -4.884  1.00  0.00    -0.387 OA
ATOM     22  H   UNL     1      -4.604  18.743  -4.331  1.00  0.00     0.211 HD
ENDBRANCH  16  21
BRANCH  17  23
ATOM     23  C   UNL     1      -3.412  22.563  -7.534  1.00  0.00     0.191 C 
BRANCH  23  24
ATOM     24  O   UNL     1      -2.036  22.713  -7.767  1.00  0.00    -0.394 OA
ATOM     25  H   UNL     1      -1.615  22.883  -6.884  1.00  0.00     0.210 HD
ENDBRANCH  23  24
ENDBRANCH  17  23
BRANCH  18  26
ATOM     26  O   UNL     1      -2.589  21.695  -4.998  1.00  0.00    -0.387 OA
ATOM     27  H   UNL     1      -1.770  21.749  -5.554  1.00  0.00     0.211 HD
ENDBRANCH  18  26
ENDBRANCH  12  13
ENDBRANCH   7  12
BRANCH   4  28
ATOM     28  O   UNL     1      -9.400  22.427 -12.128  1.00  0.00    -0.365 OA
ATOM     29  H   UNL     1     -10.346  22.728 -12.154  1.00  0.00     0.214 HD
ENDBRANCH   4  28
BRANCH   8  30
ATOM     30  C   UNL     1      -5.818  24.508  -9.645  1.00  0.00     0.249 C 
BRANCH  30  31
ATOM     31  O   UNL     1      -5.843  25.470 -10.699  1.00  0.00    -0.461 OA
BRANCH  31  32
ATOM     32  C   UNL     1      -5.884  26.855 -10.495  1.00  0.00     0.338 C 
ATOM     33  O   UNL     1      -4.821  27.496 -10.271  1.00  0.00    -0.246 OA
BRANCH  32  34
ATOM     34  C   UNL     1      -7.183  27.560 -10.524  1.00  0.00     0.060 A 
ATOM     35  C   UNL     1      -8.070  27.370 -11.601  1.00  0.00     0.015 A 
ATOM     36  C   UNL     1      -7.551  28.436  -9.484  1.00  0.00     0.015 A 
ATOM     37  C   UNL     1      -9.297  28.040 -11.633  1.00  0.00     0.001 A 
ATOM     38  C   UNL     1      -8.778  29.103  -9.523  1.00  0.00     0.001 A 
ATOM     39  C   UNL     1      -9.652  28.905 -10.595  1.00  0.00     0.000 A 
ENDBRANCH  32  34
ENDBRANCH  31  32
ENDBRANCH  30  31
ENDBRANCH   8  30
TORSDOF 12
ENDMDL
MODEL 7
REMARK VINA RESULT:    -5.030      1.895      5.029
REMARK INTER + INTRA:          -9.855
REMARK INTER:                  -8.242
REMARK INTRA:                  -1.613
REMARK UNBOUND:                -2.032
REMARK SMILES C[C@@]12C[C@@]3(O)O[C@@H](O1)[C@]1(COC(=O)c4ccccc4)[C@H]3C[C@@]12O[C@H]1O[C@@H](CO)[C@@H](O)[C@H](O)[C@H]1O
REMARK SMILES IDX 1 1 2 2 3 3 4 4 20 5 21 6 22 7 9 8 7 9 8 10 6 11 23 12 24 13
REMARK SMILES IDX 33 14 25 15 31 16 26 17 29 18 34 19 32 21 27 23 28 24 30 26
REMARK SMILES IDX 5 28 10 30 11 31 12 32 13 33 14 34 15 35 19 36 16 37 18 38
REMARK SMILES IDX 17 39
REMARK H PARENT 34 20 32 22 28 25 30 27 5 29
REMARK Flexibility Score: inf
ROOT
ATOM      1  C   UNL     1      -4.930  19.934  -8.530  1.00  0.00     0.046 C 
ATOM      2  C   UNL     1      -4.327  21.266  -8.079  1.00  0.00     0.104 C 
ATOM      3  C   UNL     1      -3.205  21.049  -7.000  1.00  0.00     0.104 C 
ATOM      4  C   UNL     1      -2.794  22.510  -6.605  1.00  0.00     0.175 C 
ATOM      5  C   UNL     1      -4.061  23.371  -6.297  1.00  0.00     0.070 C 
ATOM      6  C   UNL     1      -5.314  22.519  -6.021  1.00  0.00     0.050 C 
ATOM      7  C   UNL     1      -5.387  22.311  -7.558  1.00  0.00     0.115 C 
ATOM      8  C   UNL     1      -4.541  23.572  -7.732  1.00  0.00     0.096 C 
ATOM      9  C   UNL     1      -3.378  23.197  -8.635  1.00  0.00     0.267 C 
ATOM     10  O   UNL     1      -3.693  21.918  -9.161  1.00  0.00    -0.342 OA
ATOM     11  O   UNL     1      -2.252  23.084  -7.778  1.00  0.00    -0.320 OA
ENDROOT
BRANCH   7  12
ATOM     12  O   UNL     1      -6.600  22.309  -8.314  1.00  0.00    -0.339 OA
BRANCH  12  13
ATOM     13  C   UNL     1      -7.811  22.359  -7.574  1.00  0.00     0.282 C 
ATOM     14  C   UNL     1      -8.673  21.069  -7.742  1.00  0.00     0.202 C 
ATOM     15  O   UNL     1      -8.496  23.565  -7.898  1.00  0.00    -0.341 OA
ATOM     16  C   UNL     1     -10.174  21.408  -7.767  1.00  0.00     0.179 C 
ATOM     17  C   UNL     1      -9.326  23.484  -9.047  1.00  0.00     0.178 C 
ATOM     18  C   UNL     1     -10.488  22.466  -8.850  1.00  0.00     0.177 C 
BRANCH  14  19
ATOM     19  O   UNL     1      -8.312  20.377  -8.907  1.00  0.00    -0.385 OA
ATOM     20  H   UNL     1      -9.123  19.900  -9.226  1.00  0.00     0.211 HD
ENDBRANCH  14  19
BRANCH  16  21
ATOM     21  O   UNL     1     -10.562  21.905  -6.510  1.00  0.00    -0.387 OA
ATOM     22  H   UNL     1      -9.961  22.668  -6.302  1.00  0.00     0.211 HD
ENDBRANCH  16  21
BRANCH  17  23
ATOM     23  C   UNL     1      -8.516  23.332 -10.356  1.00  0.00     0.191 C 
BRANCH  23  24
ATOM     24  O   UNL     1      -9.178  23.962 -11.421  1.00  0.00    -0.394 OA
ATOM     25  H   UNL     1     -10.011  24.352 -11.047  1.00  0.00     0.210 HD
ENDBRANCH  23  24
ENDBRANCH  17  23
BRANCH  18  26
ATOM     26  O   UNL     1     -10.893  21.875 -10.062  1.00  0.00    -0.387 OA
ATOM     27  H   UNL     1     -11.875  21.978 -10.146  1.00  0.00     0.211 HD
ENDBRANCH  18  26
ENDBRANCH  12  13
ENDBRANCH   7  12
BRANCH   4  28
ATOM     28  O   UNL     1      -1.857  22.539  -5.564  1.00  0.00    -0.365 OA
ATOM     29  H   UNL     1      -0.996  22.833  -5.964  1.00  0.00     0.214 HD
ENDBRANCH   4  28
BRANCH   8  30
ATOM     30  C   UNL     1      -5.265  24.898  -8.044  1.00  0.00     0.249 C 
BRANCH  30  31
ATOM     31  O   UNL     1      -5.360  25.100  -9.453  1.00  0.00    -0.461 OA
BRANCH  31  32
ATOM     32  C   UNL     1      -5.635  26.336 -10.052  1.00  0.00     0.338 C 
ATOM     33  O   UNL     1      -4.692  27.089 -10.419  1.00  0.00    -0.246 OA
BRANCH  32  34
ATOM     34  C   UNL     1      -7.039  26.764 -10.233  1.00  0.00     0.060 A 
ATOM     35  C   UNL     1      -7.899  26.861  -9.123  1.00  0.00     0.015 A 
ATOM     36  C   UNL     1      -7.538  27.074 -11.513  1.00  0.00     0.015 A 
ATOM     37  C   UNL     1      -9.229  27.261  -9.292  1.00  0.00     0.001 A 
ATOM     38  C   UNL     1      -8.868  27.473 -11.675  1.00  0.00     0.001 A 
ATOM     39  C   UNL     1      -9.713  27.567 -10.566  1.00  0.00     0.000 A 
ENDBRANCH  32  34
ENDBRANCH  31  32
ENDBRANCH  30  31
ENDBRANCH   8  30
TORSDOF 12
ENDMDL
MODEL 8
REMARK VINA RESULT:    -5.027      2.154      5.824
REMARK INTER + INTRA:          -9.851
REMARK INTER:                  -8.420
REMARK INTRA:                  -1.430
REMARK UNBOUND:                -2.032
REMARK SMILES C[C@@]12C[C@@]3(O)O[C@@H](O1)[C@]1(COC(=O)c4ccccc4)[C@H]3C[C@@]12O[C@H]1O[C@@H](CO)[C@@H](O)[C@H](O)[C@H]1O
REMARK SMILES IDX 1 1 2 2 3 3 4 4 20 5 21 6 22 7 9 8 7 9 8 10 6 11 23 12 24 13
REMARK SMILES IDX 33 14 25 15 31 16 26 17 29 18 34 19 32 21 27 23 28 24 30 26
REMARK SMILES IDX 5 28 10 30 11 31 12 32 13 33 14 34 15 35 19 36 16 37 18 38
REMARK SMILES IDX 17 39
REMARK H PARENT 34 20 32 22 28 25 30 27 5 29
REMARK Flexibility Score: inf
ROOT
ATOM      1  C   UNL     1      -4.664  20.180  -8.314  1.00  0.00     0.046 C 
ATOM      2  C   UNL     1      -4.185  21.604  -8.031  1.00  0.00     0.104 C 
ATOM      3  C   UNL     1      -3.025  21.617  -6.971  1.00  0.00     0.104 C 
ATOM      4  C   UNL     1      -2.751  23.146  -6.752  1.00  0.00     0.175 C 
ATOM      5  C   UNL     1      -4.089  23.912  -6.500  1.00  0.00     0.070 C 
ATOM      6  C   UNL     1      -5.246  22.981  -6.092  1.00  0.00     0.050 C 
ATOM      7  C   UNL     1      -5.331  22.595  -7.594  1.00  0.00     0.115 C 
ATOM      8  C   UNL     1      -4.617  23.904  -7.932  1.00  0.00     0.096 C 
ATOM      9  C   UNL     1      -3.442  23.543  -8.825  1.00  0.00     0.267 C 
ATOM     10  O   UNL     1      -3.641  22.189  -9.198  1.00  0.00    -0.342 OA
ATOM     11  O   UNL     1      -2.292  23.634  -7.997  1.00  0.00    -0.320 OA
ENDROOT
BRANCH   7  12
ATOM     12  O   UNL     1      -6.554  22.394  -8.306  1.00  0.00    -0.339 OA
BRANCH  12  13
ATOM     13  C   UNL     1      -7.752  22.474  -7.548  1.00  0.00     0.282 C 
ATOM     14  C   UNL     1      -8.619  21.180  -7.653  1.00  0.00     0.202 C 
ATOM     15  O   UNL     1      -8.441  23.668  -7.906  1.00  0.00    -0.341 OA
ATOM     16  C   UNL     1     -10.120  21.521  -7.666  1.00  0.00     0.179 C 
ATOM     17  C   UNL     1      -9.290  23.546  -9.037  1.00  0.00     0.178 C 
ATOM     18  C   UNL     1     -10.450  22.538  -8.783  1.00  0.00     0.177 C 
BRANCH  14  19
ATOM     19  O   UNL     1      -8.278  20.444  -8.798  1.00  0.00    -0.385 OA
ATOM     20  H   UNL     1      -8.478  21.017  -9.584  1.00  0.00     0.211 HD
ENDBRANCH  14  19
BRANCH  16  21
ATOM     21  O   UNL     1     -10.486  22.065  -6.422  1.00  0.00    -0.387 OA
ATOM     22  H   UNL     1     -10.920  21.337  -5.904  1.00  0.00     0.211 HD
ENDBRANCH  16  21
BRANCH  17  23
ATOM     23  C   UNL     1      -8.503  23.344 -10.353  1.00  0.00     0.191 C 
BRANCH  23  24
ATOM     24  O   UNL     1      -9.044  24.134 -11.378  1.00  0.00    -0.394 OA
ATOM     25  H   UNL     1      -9.312  23.513 -12.105  1.00  0.00     0.210 HD
ENDBRANCH  23  24
ENDBRANCH  17  23
BRANCH  18  26
ATOM     26  O   UNL     1     -10.876  21.903  -9.965  1.00  0.00    -0.387 OA
ATOM     27  H   UNL     1     -11.796  21.562  -9.822  1.00  0.00     0.211 HD
ENDBRANCH  18  26
ENDBRANCH  12  13
ENDBRANCH   7  12
BRANCH   4  28
ATOM     28  O   UNL     1      -1.799  23.381  -5.751  1.00  0.00    -0.365 OA
ATOM     29  H   UNL     1      -1.618  24.357  -5.755  1.00  0.00     0.214 HD
ENDBRANCH   4  28
BRANCH   8  30
ATOM     30  C   UNL     1      -5.474  25.112  -8.364  1.00  0.00     0.249 C 
BRANCH  30  31
ATOM     31  O   UNL     1      -5.484  25.239  -9.785  1.00  0.00    -0.461 OA
BRANCH  31  32
ATOM     32  C   UNL     1      -6.040  26.326 -10.471  1.00  0.00     0.338 C 
ATOM     33  O   UNL     1      -7.288  26.511 -10.465  1.00  0.00    -0.246 OA
BRANCH  32  34
ATOM     34  C   UNL     1      -5.159  27.247 -11.221  1.00  0.00     0.060 A 
ATOM     35  C   UNL     1      -3.903  27.610 -10.697  1.00  0.00     0.015 A 
ATOM     36  C   UNL     1      -5.561  27.779 -12.461  1.00  0.00     0.015 A 
ATOM     37  C   UNL     1      -3.070  28.485 -11.402  1.00  0.00     0.001 A 
ATOM     38  C   UNL     1      -4.723  28.653 -13.160  1.00  0.00     0.001 A 
ATOM     39  C   UNL     1      -3.479  29.005 -12.632  1.00  0.00     0.000 A 
ENDBRANCH  32  34
ENDBRANCH  31  32
ENDBRANCH  30  31
ENDBRANCH   8  30
TORSDOF 12
ENDMDL
MODEL 9
REMARK VINA RESULT:    -4.980      1.792      5.802
REMARK INTER + INTRA:          -9.778
REMARK INTER:                  -7.808
REMARK INTRA:                  -1.970
REMARK UNBOUND:                -2.032
REMARK SMILES C[C@@]12C[C@@]3(O)O[C@@H](O1)[C@]1(COC(=O)c4ccccc4)[C@H]3C[C@@]12O[C@H]1O[C@@H](CO)[C@@H](O)[C@H](O)[C@H]1O
REMARK SMILES IDX 1 1 2 2 3 3 4 4 20 5 21 6 22 7 9 8 7 9 8 10 6 11 23 12 24 13
REMARK SMILES IDX 33 14 25 15 31 16 26 17 29 18 34 19 32 21 27 23 28 24 30 26
REMARK SMILES IDX 5 28 10 30 11 31 12 32 13 33 14 34 15 35 19 36 16 37 18 38
REMARK SMILES IDX 17 39
REMARK H PARENT 34 20 32 22 28 25 30 27 5 29
REMARK Flexibility Score: inf
ROOT
ATOM      1  C   UNL     1      -6.199  25.621  -5.441  1.00  0.00     0.046 C 
ATOM      2  C   UNL     1      -7.628  25.236  -5.824  1.00  0.00     0.104 C 
ATOM      3  C   UNL     1      -8.649  25.634  -4.697  1.00  0.00     0.104 C 
ATOM      4  C   UNL     1     -10.014  25.075  -5.230  1.00  0.00     0.175 C 
ATOM      5  C   UNL     1      -9.855  23.592  -5.695  1.00  0.00     0.070 C 
ATOM      6  C   UNL     1      -8.590  22.918  -5.129  1.00  0.00     0.050 C 
ATOM      7  C   UNL     1      -7.807  23.716  -6.206  1.00  0.00     0.115 C 
ATOM      8  C   UNL     1      -9.107  23.851  -6.999  1.00  0.00     0.096 C 
ATOM      9  C   UNL     1      -9.278  25.328  -7.310  1.00  0.00     0.267 C 
ATOM     10  O   UNL     1      -8.042  25.940  -6.978  1.00  0.00    -0.342 OA
ATOM     11  O   UNL     1     -10.282  25.792  -6.419  1.00  0.00    -0.320 OA
ENDROOT
BRANCH   7  12
ATOM     12  O   UNL     1      -6.712  23.191  -6.961  1.00  0.00    -0.339 OA
BRANCH  12  13
ATOM     13  C   UNL     1      -6.007  22.103  -6.384  1.00  0.00     0.282 C 
ATOM     14  C   UNL     1      -4.470  22.359  -6.296  1.00  0.00     0.202 C 
ATOM     15  O   UNL     1      -6.360  20.910  -7.078  1.00  0.00    -0.341 OA
ATOM     16  C   UNL     1      -3.678  21.066  -6.559  1.00  0.00     0.179 C 
ATOM     17  C   UNL     1      -5.591  20.653  -8.244  1.00  0.00     0.178 C 
ATOM     18  C   UNL     1      -4.087  20.427  -7.906  1.00  0.00     0.177 C 
BRANCH  14  19
ATOM     19  O   UNL     1      -4.079  23.360  -7.198  1.00  0.00    -0.385 OA
ATOM     20  H   UNL     1      -3.780  22.903  -8.028  1.00  0.00     0.211 HD
ENDBRANCH  14  19
BRANCH  16  21
ATOM     21  O   UNL     1      -3.921  20.150  -5.520  1.00  0.00    -0.387 OA
ATOM     22  H   UNL     1      -4.841  20.326  -5.188  1.00  0.00     0.211 HD
ENDBRANCH  16  21
BRANCH  17  23
ATOM     23  C   UNL     1      -5.878  21.662  -9.380  1.00  0.00     0.191 C 
BRANCH  23  24
ATOM     24  O   UNL     1      -6.629  21.057 -10.399  1.00  0.00    -0.394 OA
ATOM     25  H   UNL     1      -6.173  20.202 -10.619  1.00  0.00     0.210 HD
ENDBRANCH  23  24
ENDBRANCH  17  23
BRANCH  18  26
ATOM     26  O   UNL     1      -3.237  20.822  -8.957  1.00  0.00    -0.387 OA
ATOM     27  H   UNL     1      -3.725  21.471  -9.525  1.00  0.00     0.211 HD
ENDBRANCH  18  26
ENDBRANCH  12  13
ENDBRANCH   7  12
BRANCH   4  28
ATOM     28  O   UNL     1     -11.057  25.243  -4.310  1.00  0.00    -0.365 OA
ATOM     29  H   UNL     1     -10.741  24.858  -3.450  1.00  0.00     0.214 HD
ENDBRANCH   4  28
BRANCH   8  30
ATOM     30  C   UNL     1      -9.362  22.862  -8.155  1.00  0.00     0.249 C 
BRANCH  30  31
ATOM     31  O   UNL     1      -9.722  23.562  -9.345  1.00  0.00    -0.461 OA
BRANCH  31  32
ATOM     32  C   UNL     1      -8.866  23.739 -10.440  1.00  0.00     0.338 C 
ATOM     33  O   UNL     1      -8.759  22.837 -11.316  1.00  0.00    -0.246 OA
BRANCH  32  34
ATOM     34  C   UNL     1      -8.072  24.981 -10.555  1.00  0.00     0.060 A 
ATOM     35  C   UNL     1      -6.720  24.997 -10.165  1.00  0.00     0.015 A 
ATOM     36  C   UNL     1      -8.655  26.166 -11.047  1.00  0.00     0.015 A 
ATOM     37  C   UNL     1      -5.968  26.172 -10.267  1.00  0.00     0.001 A 
ATOM     38  C   UNL     1      -7.898  27.337 -11.146  1.00  0.00     0.001 A 
ATOM     39  C   UNL     1      -6.556  27.340 -10.758  1.00  0.00     0.000 A 
ENDBRANCH  32  34
ENDBRANCH  31  32
ENDBRANCH  30  31
ENDBRANCH   8  30
TORSDOF 12
ENDMDL
