MODEL 1
REMARK VINA RESULT:    -3.457      0.000      0.000
REMARK INTER + INTRA:          -4.429
REMARK INTER:                  -4.266
REMARK INTRA:                  -0.163
REMARK UNBOUND:                -0.163
REMARK SMILES CCCCCC(=O)[O-]
REMARK SMILES IDX 4 1 5 2 6 3 7 4 8 5 3 6 2 7 1 8
REMARK H PARENT
REMARK Flexibility Score: inf
ROOT
ATOM      1  C   UNL     1      -7.526  14.775 -12.230  1.00  0.00     0.006 C 
ENDROOT
BRANCH   1   2
ATOM      2  C   UNL     1      -7.522  16.087 -13.027  1.00  0.00     0.053 C 
BRANCH   2   3
ATOM      3  C   UNL     1      -8.693  16.953 -12.678  1.00  0.00     0.041 C 
ATOM      4  O   UNL     1      -9.866  16.545 -12.886  1.00  0.00    -0.550 OA
ATOM      5  O   UNL     1      -8.488  18.223 -12.155  1.00  0.00    -0.550 OA
ENDBRANCH   2   3
ENDBRANCH   1   2
BRANCH   1   6
ATOM      6  C   UNL     1      -7.179  13.562 -13.107  1.00  0.00     0.000 C 
BRANCH   6   7
ATOM      7  C   UNL     1      -7.590  13.804 -14.564  1.00  0.00    -0.003 C 
ATOM      8  C   UNL     1      -8.706  12.852 -14.988  1.00  0.00     0.004 C 
ENDBRANCH   6   7
ENDBRANCH   1   6
TORSDOF 4
ENDMDL
MODEL 2
REMARK VINA RESULT:    -3.395      1.215      1.689
REMARK INTER + INTRA:          -4.352
REMARK INTER:                  -4.260
REMARK INTRA:                  -0.092
REMARK UNBOUND:                -0.163
REMARK SMILES CCCCCC(=O)[O-]
REMARK SMILES IDX 4 1 5 2 6 3 7 4 8 5 3 6 2 7 1 8
REMARK H PARENT
REMARK Flexibility Score: inf
ROOT
ATOM      1  C   UNL     1      -7.905  14.645 -13.760  1.00  0.00     0.006 C 
ENDROOT
BRANCH   1   2
ATOM      2  C   UNL     1      -7.863  15.357 -12.401  1.00  0.00     0.053 C 
BRANCH   2   3
ATOM      3  C   UNL     1      -8.767  16.551 -12.370  1.00  0.00     0.041 C 
ATOM      4  O   UNL     1      -9.889  16.511 -12.942  1.00  0.00    -0.550 OA
ATOM      5  O   UNL     1      -8.357  17.719 -11.740  1.00  0.00    -0.550 OA
ENDBRANCH   2   3
ENDBRANCH   1   2
BRANCH   1   6
ATOM      6  C   UNL     1      -7.489  13.170 -13.657  1.00  0.00     0.000 C 
BRANCH   6   7
ATOM      7  C   UNL     1      -6.224  12.899 -14.478  1.00  0.00    -0.003 C 
ATOM      8  C   UNL     1      -5.074  12.441 -13.584  1.00  0.00     0.004 C 
ENDBRANCH   6   7
ENDBRANCH   1   6
TORSDOF 4
ENDMDL
MODEL 3
REMARK VINA RESULT:    -3.212      1.548      2.259
REMARK INTER + INTRA:          -4.126
REMARK INTER:                  -3.987
REMARK INTRA:                  -0.139
REMARK UNBOUND:                -0.163
REMARK SMILES CCCCCC(=O)[O-]
REMARK SMILES IDX 4 1 5 2 6 3 7 4 8 5 3 6 2 7 1 8
REMARK H PARENT
REMARK Flexibility Score: inf
ROOT
ATOM      1  C   UNL     1      -8.280  14.084 -14.326  1.00  0.00     0.006 C 
ENDROOT
BRANCH   1   2
ATOM      2  C   UNL     1      -7.530  15.372 -13.959  1.00  0.00     0.053 C 
BRANCH   2   3
ATOM      3  C   UNL     1      -8.068  15.991 -12.706  1.00  0.00     0.041 C 
ATOM      4  O   UNL     1      -7.337  16.096 -11.686  1.00  0.00    -0.550 OA
ATOM      5  O   UNL     1      -9.389  16.420 -12.653  1.00  0.00    -0.550 OA
ENDBRANCH   2   3
ENDBRANCH   1   2
BRANCH   1   6
ATOM      6  C   UNL     1      -7.503  12.823 -13.918  1.00  0.00     0.000 C 
BRANCH   6   7
ATOM      7  C   UNL     1      -6.097  12.824 -14.529  1.00  0.00    -0.003 C 
ATOM      8  C   UNL     1      -5.042  12.474 -13.483  1.00  0.00     0.004 C 
ENDBRANCH   6   7
ENDBRANCH   1   6
TORSDOF 4
ENDMDL
MODEL 4
REMARK VINA RESULT:    -3.191      2.504      4.592
REMARK INTER + INTRA:          -4.101
REMARK INTER:                  -3.978
REMARK INTRA:                  -0.122
REMARK UNBOUND:                -0.163
REMARK SMILES CCCCCC(=O)[O-]
REMARK SMILES IDX 4 1 5 2 6 3 7 4 8 5 3 6 2 7 1 8
REMARK H PARENT
REMARK Flexibility Score: inf
ROOT
ATOM      1  C   UNL     1      -8.632  18.056 -12.549  1.00  0.00     0.006 C 
ENDROOT
BRANCH   1   2
ATOM      2  C   UNL     1      -9.130  16.607 -12.462  1.00  0.00     0.053 C 
BRANCH   2   3
ATOM      3  C   UNL     1      -7.995  15.635 -12.351  1.00  0.00     0.041 C 
ATOM      4  O   UNL     1      -7.150  15.751 -11.425  1.00  0.00    -0.550 OA
ATOM      5  O   UNL     1      -7.851  14.623 -13.292  1.00  0.00    -0.550 OA
ENDBRANCH   2   3
ENDBRANCH   1   2
BRANCH   1   6
ATOM      6  C   UNL     1      -7.848  18.325 -13.842  1.00  0.00     0.000 C 
BRANCH   6   7
ATOM      7  C   UNL     1      -7.777  19.827 -14.137  1.00  0.00    -0.003 C 
ATOM      8  C   UNL     1      -6.968  20.561 -13.070  1.00  0.00     0.004 C 
ENDBRANCH   6   7
ENDBRANCH   1   6
TORSDOF 4
ENDMDL
MODEL 5
REMARK VINA RESULT:    -3.180      0.988      1.840
REMARK INTER + INTRA:          -4.087
REMARK INTER:                  -3.975
REMARK INTRA:                  -0.112
REMARK UNBOUND:                -0.163
REMARK SMILES CCCCCC(=O)[O-]
REMARK SMILES IDX 4 1 5 2 6 3 7 4 8 5 3 6 2 7 1 8
REMARK H PARENT
REMARK Flexibility Score: inf
ROOT
ATOM      1  C   UNL     1      -7.573  14.719 -12.502  1.00  0.00     0.006 C 
ENDROOT
BRANCH   1   2
ATOM      2  C   UNL     1      -7.418  16.145 -13.049  1.00  0.00     0.053 C 
BRANCH   2   3
ATOM      3  C   UNL     1      -8.587  17.009 -12.687  1.00  0.00     0.041 C 
ATOM      4  O   UNL     1      -8.402  18.149 -12.187  1.00  0.00    -0.550 OA
ATOM      5  O   UNL     1      -9.882  16.540 -12.870  1.00  0.00    -0.550 OA
ENDBRANCH   2   3
ENDBRANCH   1   2
BRANCH   1   6
ATOM      6  C   UNL     1      -7.515  13.660 -13.615  1.00  0.00     0.000 C 
BRANCH   6   7
ATOM      7  C   UNL     1      -6.122  13.614 -14.254  1.00  0.00    -0.003 C 
ATOM      8  C   UNL     1      -5.263  12.520 -13.625  1.00  0.00     0.004 C 
ENDBRANCH   6   7
ENDBRANCH   1   6
TORSDOF 4
ENDMDL
MODEL 6
REMARK VINA RESULT:    -3.119      2.635      4.402
REMARK INTER + INTRA:          -4.012
REMARK INTER:                  -3.960
REMARK INTRA:                  -0.053
REMARK UNBOUND:                -0.163
REMARK SMILES CCCCCC(=O)[O-]
REMARK SMILES IDX 4 1 5 2 6 3 7 4 8 5 3 6 2 7 1 8
REMARK H PARENT
REMARK Flexibility Score: inf
ROOT
ATOM      1  C   UNL     1      -8.550  16.422 -12.665  1.00  0.00     0.006 C 
ENDROOT
BRANCH   1   2
ATOM      2  C   UNL     1      -8.228  15.043 -13.257  1.00  0.00     0.053 C 
BRANCH   2   3
ATOM      3  C   UNL     1      -7.214  14.308 -12.434  1.00  0.00     0.041 C 
ATOM      4  O   UNL     1      -6.343  13.591 -12.994  1.00  0.00    -0.550 OA
ATOM      5  O   UNL     1      -7.252  14.388 -11.048  1.00  0.00    -0.550 OA
ENDBRANCH   2   3
ENDBRANCH   1   2
BRANCH   1   6
ATOM      6  C   UNL     1      -8.080  17.568 -13.574  1.00  0.00     0.000 C 
BRANCH   6   7
ATOM      7  C   UNL     1      -8.278  18.925 -12.890  1.00  0.00    -0.003 C 
ATOM      8  C   UNL     1      -7.317  19.971 -13.450  1.00  0.00     0.004 C 
ENDBRANCH   6   7
ENDBRANCH   1   6
TORSDOF 4
ENDMDL
MODEL 7
REMARK VINA RESULT:    -3.062      2.328      3.366
REMARK INTER + INTRA:          -3.941
REMARK INTER:                  -3.840
REMARK INTRA:                  -0.101
REMARK UNBOUND:                -0.163
REMARK SMILES CCCCCC(=O)[O-]
REMARK SMILES IDX 4 1 5 2 6 3 7 4 8 5 3 6 2 7 1 8
REMARK H PARENT
REMARK Flexibility Score: inf
ROOT
ATOM      1  C   UNL     1      -8.667  17.878 -12.410  1.00  0.00     0.006 C 
ENDROOT
BRANCH   1   2
ATOM      2  C   UNL     1      -7.844  18.340 -13.621  1.00  0.00     0.053 C 
BRANCH   2   3
ATOM      3  C   UNL     1      -7.517  19.800 -13.547  1.00  0.00     0.041 C 
ATOM      4  O   UNL     1      -6.960  20.273 -12.521  1.00  0.00    -0.550 OA
ATOM      5  O   UNL     1      -7.857  20.643 -14.596  1.00  0.00    -0.550 OA
ENDBRANCH   2   3
ENDBRANCH   1   2
BRANCH   1   6
ATOM      6  C   UNL     1      -9.035  16.389 -12.491  1.00  0.00     0.000 C 
BRANCH   6   7
ATOM      7  C   UNL     1      -7.876  15.511 -12.007  1.00  0.00    -0.003 C 
ATOM      8  C   UNL     1      -7.479  14.488 -13.069  1.00  0.00     0.004 C 
ENDBRANCH   6   7
ENDBRANCH   1   6
TORSDOF 4
ENDMDL
MODEL 8
REMARK VINA RESULT:    -3.021      2.329      4.035
REMARK INTER + INTRA:          -3.890
REMARK INTER:                  -3.707
REMARK INTRA:                  -0.184
REMARK UNBOUND:                -0.163
REMARK SMILES CCCCCC(=O)[O-]
REMARK SMILES IDX 4 1 5 2 6 3 7 4 8 5 3 6 2 7 1 8
REMARK H PARENT
REMARK Flexibility Score: inf
ROOT
ATOM      1  C   UNL     1      -7.863  15.519 -12.095  1.00  0.00     0.006 C 
ENDROOT
BRANCH   1   2
ATOM      2  C   UNL     1      -7.256  15.048 -13.423  1.00  0.00     0.053 C 
BRANCH   2   3
ATOM      3  C   UNL     1      -7.908  13.793 -13.918  1.00  0.00     0.041 C 
ATOM      4  O   UNL     1      -8.941  13.857 -14.635  1.00  0.00    -0.550 OA
ATOM      5  O   UNL     1      -7.395  12.553 -13.559  1.00  0.00    -0.550 OA
ENDBRANCH   2   3
ENDBRANCH   1   2
BRANCH   1   6
ATOM      6  C   UNL     1      -8.990  16.544 -12.302  1.00  0.00     0.000 C 
BRANCH   6   7
ATOM      7  C   UNL     1      -8.652  17.505 -13.447  1.00  0.00    -0.003 C 
ATOM      8  C   UNL     1      -8.235  18.873 -12.913  1.00  0.00     0.004 C 
ENDBRANCH   6   7
ENDBRANCH   1   6
TORSDOF 4
ENDMDL
MODEL 9
REMARK VINA RESULT:    -2.997      2.790      4.797
REMARK INTER + INTRA:          -3.861
REMARK INTER:                  -3.705
REMARK INTRA:                  -0.156
REMARK UNBOUND:                -0.163
REMARK SMILES CCCCCC(=O)[O-]
REMARK SMILES IDX 4 1 5 2 6 3 7 4 8 5 3 6 2 7 1 8
REMARK H PARENT
REMARK Flexibility Score: inf
ROOT
ATOM      1  C   UNL     1      -6.991  18.401 -13.959  1.00  0.00     0.006 C 
ENDROOT
BRANCH   1   2
ATOM      2  C   UNL     1      -7.858  17.152 -14.169  1.00  0.00     0.053 C 
BRANCH   2   3
ATOM      3  C   UNL     1      -8.513  16.708 -12.897  1.00  0.00     0.041 C 
ATOM      4  O   UNL     1      -9.765  16.584 -12.839  1.00  0.00    -0.550 OA
ATOM      5  O   UNL     1      -7.743  16.467 -11.766  1.00  0.00    -0.550 OA
ENDBRANCH   2   3
ENDBRANCH   1   2
BRANCH   1   6
ATOM      6  C   UNL     1      -7.828  19.634 -13.588  1.00  0.00     0.000 C 
BRANCH   6   7
ATOM      7  C   UNL     1      -6.982  20.663 -12.831  1.00  0.00    -0.003 C 
ATOM      8  C   UNL     1      -5.521  20.607 -13.270  1.00  0.00     0.004 C 
ENDBRANCH   6   7
ENDBRANCH   1   6
TORSDOF 4
ENDMDL
