MODEL 1
REMARK VINA RESULT:     4.546      0.000      0.000
REMARK INTER + INTRA:           4.722
REMARK INTER:                   4.812
REMARK INTRA:                  -0.089
REMARK UNBOUND:                -0.089
REMARK SMILES C=C(C)[C@H]1CC=C(C)C(=O)C1
REMARK SMILES IDX 8 1 7 2 6 3 5 4 4 5 11 6 9 7 10 8 2 9 1 10 3 11
REMARK H PARENT
REMARK Flexibility Score: inf
ROOT
ATOM      1  C   UNL     1      89.749  18.425 120.289  1.00  0.00     0.048 C 
ATOM      2  C   UNL     1      91.115  17.799 120.241  1.00  0.00    -0.012 C 
ATOM      3  C   UNL     1      91.438  16.831 121.116  1.00  0.00    -0.019 C 
ATOM      4  C   UNL     1      92.797  16.182 121.124  1.00  0.00     0.036 C 
ATOM      5  C   UNL     1      93.387  16.113 119.702  1.00  0.00     0.025 C 
ATOM      6  C   UNL     1      93.412  17.516 119.066  1.00  0.00     0.089 C 
ATOM      7  C   UNL     1      92.057  18.161 119.152  1.00  0.00     0.158 C 
ATOM      8  O   UNL     1      91.742  19.043 118.310  1.00  0.00    -0.295 OA
ENDROOT
BRANCH   5   9
ATOM      9  C   UNL     1      94.766  15.468 119.697  1.00  0.00    -0.077 C 
ATOM     10  C   UNL     1      94.916  14.138 119.578  1.00  0.00     0.008 C 
ATOM     11  C   UNL     1      96.000  16.323 119.827  1.00  0.00     0.039 C 
ENDBRANCH   5   9
TORSDOF 1
ENDMDL
MODEL 2
REMARK VINA RESULT:     5.216      1.987      4.772
REMARK INTER + INTRA:           5.431
REMARK INTER:                   5.524
REMARK INTRA:                  -0.093
REMARK UNBOUND:                -0.089
REMARK SMILES C=C(C)[C@H]1CC=C(C)C(=O)C1
REMARK SMILES IDX 8 1 7 2 6 3 5 4 4 5 11 6 9 7 10 8 2 9 1 10 3 11
REMARK H PARENT
REMARK Flexibility Score: inf
ROOT
ATOM      1  C   UNL     1      94.395  15.096 118.299  1.00  0.00     0.048 C 
ATOM      2  C   UNL     1      93.480  16.079 118.975  1.00  0.00    -0.012 C 
ATOM      3  C   UNL     1      92.803  16.977 118.240  1.00  0.00    -0.019 C 
ATOM      4  C   UNL     1      91.887  17.996 118.868  1.00  0.00     0.036 C 
ATOM      5  C   UNL     1      91.221  17.434 120.138  1.00  0.00     0.025 C 
ATOM      6  C   UNL     1      92.291  16.926 121.122  1.00  0.00     0.089 C 
ATOM      7  C   UNL     1      93.233  15.975 120.435  1.00  0.00     0.158 C 
ATOM      8  O   UNL     1      93.840  15.110 121.121  1.00  0.00    -0.295 OA
ENDROOT
BRANCH   5   9
ATOM      9  C   UNL     1      90.300  18.457 120.788  1.00  0.00    -0.077 C 
ATOM     10  C   UNL     1      90.741  19.682 121.124  1.00  0.00     0.008 C 
ATOM     11  C   UNL     1      88.861  18.108 121.070  1.00  0.00     0.039 C 
ENDBRANCH   5   9
TORSDOF 1
ENDMDL
MODEL 3
REMARK VINA RESULT:     5.686      1.567      2.476
REMARK INTER + INTRA:           5.929
REMARK INTER:                   6.018
REMARK INTRA:                  -0.089
REMARK UNBOUND:                -0.089
REMARK SMILES C=C(C)[C@H]1CC=C(C)C(=O)C1
REMARK SMILES IDX 8 1 7 2 6 3 5 4 4 5 11 6 9 7 10 8 2 9 1 10 3 11
REMARK H PARENT
REMARK Flexibility Score: inf
ROOT
ATOM      1  C   UNL     1      91.632  19.143 118.494  1.00  0.00     0.048 C 
ATOM      2  C   UNL     1      92.199  17.863 119.043  1.00  0.00    -0.012 C 
ATOM      3  C   UNL     1      93.112  17.178 118.333  1.00  0.00    -0.019 C 
ATOM      4  C   UNL     1      93.699  15.882 118.828  1.00  0.00     0.036 C 
ATOM      5  C   UNL     1      93.805  15.871 120.365  1.00  0.00     0.025 C 
ATOM      6  C   UNL     1      92.432  16.169 120.996  1.00  0.00     0.089 C 
ATOM      7  C   UNL     1      91.844  17.427 120.417  1.00  0.00     0.158 C 
ATOM      8  O   UNL     1      91.015  18.087 121.097  1.00  0.00    -0.295 OA
ENDROOT
BRANCH   5   9
ATOM      9  C   UNL     1      94.388  14.562 120.879  1.00  0.00    -0.077 C 
ATOM     10  C   UNL     1      95.703  14.430 121.123  1.00  0.00     0.008 C 
ATOM     11  C   UNL     1      93.487  13.379 121.124  1.00  0.00     0.039 C 
ENDBRANCH   5   9
TORSDOF 1
ENDMDL
MODEL 4
REMARK VINA RESULT:     6.164      1.970      4.407
REMARK INTER + INTRA:           6.435
REMARK INTER:                   6.530
REMARK INTRA:                  -0.095
REMARK UNBOUND:                -0.089
REMARK SMILES C=C(C)[C@H]1CC=C(C)C(=O)C1
REMARK SMILES IDX 8 1 7 2 6 3 5 4 4 5 11 6 9 7 10 8 2 9 1 10 3 11
REMARK H PARENT
REMARK Flexibility Score: inf
ROOT
ATOM      1  C   UNL     1      97.717  16.415 120.353  1.00  0.00     0.048 C 
ATOM      2  C   UNL     1      96.227  16.485 120.167  1.00  0.00    -0.012 C 
ATOM      3  C   UNL     1      95.410  16.014 121.125  1.00  0.00    -0.019 C 
ATOM      4  C   UNL     1      93.911  16.043 120.981  1.00  0.00     0.036 C 
ATOM      5  C   UNL     1      93.455  17.268 120.165  1.00  0.00     0.025 C 
ATOM      6  C   UNL     1      94.173  17.299 118.803  1.00  0.00     0.089 C 
ATOM      7  C   UNL     1      95.662  17.185 118.986  1.00  0.00     0.158 C 
ATOM      8  O   UNL     1      96.427  17.659 118.104  1.00  0.00    -0.295 OA
ENDROOT
BRANCH   5   9
ATOM      9  C   UNL     1      91.942  17.305 120.005  1.00  0.00    -0.077 C 
ATOM     10  C   UNL     1      91.348  16.879 118.877  1.00  0.00     0.008 C 
ATOM     11  C   UNL     1      91.076  17.826 121.122  1.00  0.00     0.039 C 
ENDBRANCH   5   9
TORSDOF 1
ENDMDL
MODEL 5
REMARK VINA RESULT:     7.289      2.099      4.408
REMARK INTER + INTRA:           7.626
REMARK INTER:                   7.723
REMARK INTRA:                  -0.097
REMARK UNBOUND:                -0.089
REMARK SMILES C=C(C)[C@H]1CC=C(C)C(=O)C1
REMARK SMILES IDX 8 1 7 2 6 3 5 4 4 5 11 6 9 7 10 8 2 9 1 10 3 11
REMARK H PARENT
REMARK Flexibility Score: inf
ROOT
ATOM      1  C   UNL     1      94.731  12.841 121.021  1.00  0.00     0.048 C 
ATOM      2  C   UNL     1      93.964  14.054 120.572  1.00  0.00    -0.012 C 
ATOM      3  C   UNL     1      92.771  14.332 121.124  1.00  0.00    -0.019 C 
ATOM      4  C   UNL     1      91.953  15.523 120.698  1.00  0.00     0.036 C 
ATOM      5  C   UNL     1      92.859  16.696 120.278  1.00  0.00     0.025 C 
ATOM      6  C   UNL     1      93.845  16.244 119.184  1.00  0.00     0.089 C 
ATOM      7  C   UNL     1      94.581  15.005 119.614  1.00  0.00     0.158 C 
ATOM      8  O   UNL     1      95.716  14.764 119.123  1.00  0.00    -0.295 OA
ENDROOT
BRANCH   5   9
ATOM      9  C   UNL     1      92.045  17.905 119.836  1.00  0.00    -0.077 C 
ATOM     10  C   UNL     1      92.337  18.569 118.704  1.00  0.00     0.008 C 
ATOM     11  C   UNL     1      90.884  18.380 120.671  1.00  0.00     0.039 C 
ENDBRANCH   5   9
TORSDOF 1
ENDMDL
