MODEL 1
REMARK VINA RESULT:    -6.066      0.000      0.000
REMARK INTER + INTRA:         -10.964
REMARK INTER:                  -9.258
REMARK INTRA:                  -1.706
REMARK UNBOUND:                -1.706
REMARK SMILES CC(=O)CCC=C(C)CCC=C(C)CCC=C(C)C
REMARK SMILES IDX 10 1 11 2 12 3 13 4 14 5 15 6 16 7 18 8 17 9 19 10 9 11 7 12
REMARK SMILES IDX 6 13 8 14 5 15 4 16 2 17 3 18 1 19
REMARK H PARENT
REMARK Flexibility Score: inf
ROOT
ATOM      1  C   UNL     1     -12.264 -15.072  29.310  1.00  0.00     0.032 C 
ENDROOT
BRANCH   1   2
ATOM      2  C   UNL     1     -12.935 -15.472  30.601  1.00  0.00    -0.028 C 
ATOM      3  C   UNL     1     -14.033 -14.869  31.111  1.00  0.00    -0.077 C 
ATOM      4  C   UNL     1     -14.739 -13.748  30.384  1.00  0.00     0.039 C 
BRANCH   3   5
ATOM      5  C   UNL     1     -14.582 -15.346  32.438  1.00  0.00     0.034 C 
BRANCH   5   6
ATOM      6  C   UNL     1     -14.344 -14.301  33.533  1.00  0.00     0.032 C 
BRANCH   6   7
ATOM      7  C   UNL     1     -13.222 -14.727  34.445  1.00  0.00    -0.028 C 
ATOM      8  C   UNL     1     -13.333 -12.637  35.822  1.00  0.00     0.039 C 
ATOM      9  C   UNL     1     -12.739 -13.980  35.463  1.00  0.00    -0.080 C 
ATOM     10  C   UNL     1     -11.584 -14.520  36.266  1.00  0.00     0.039 C 
ENDBRANCH   6   7
ENDBRANCH   5   6
ENDBRANCH   3   5
ENDBRANCH   1   2
BRANCH   1  11
ATOM     11  C   UNL     1     -11.949 -16.305  28.456  1.00  0.00     0.034 C 
BRANCH  11  12
ATOM     12  C   UNL     1     -13.204 -16.816  27.777  1.00  0.00    -0.077 C 
ATOM     13  C   UNL     1     -13.690 -18.064  27.967  1.00  0.00    -0.028 C 
ATOM     14  C   UNL     1     -13.988 -15.870  26.906  1.00  0.00     0.039 C 
BRANCH  13  15
ATOM     15  C   UNL     1     -13.017 -19.139  28.789  1.00  0.00     0.035 C 
BRANCH  15  16
ATOM     16  C   UNL     1     -13.453 -19.084  30.259  1.00  0.00     0.079 C 
BRANCH  16  17
ATOM     17  C   UNL     1     -12.300 -19.360  31.190  1.00  0.00     0.130 C 
ATOM     18  O   UNL     1     -12.473 -20.071  32.168  1.00  0.00    -0.300 OA
ATOM     19  C   UNL     1     -10.941 -18.775  30.942  1.00  0.00     0.087 C 
ENDBRANCH  16  17
ENDBRANCH  15  16
ENDBRANCH  13  15
ENDBRANCH  11  12
ENDBRANCH   1  11
TORSDOF 9
ENDMDL
MODEL 2
REMARK VINA RESULT:    -5.713      0.944      1.588
REMARK INTER + INTRA:         -10.425
REMARK INTER:                  -9.496
REMARK INTRA:                  -0.929
REMARK UNBOUND:                -1.706
REMARK SMILES CC(=O)CCC=C(C)CCC=C(C)CCC=C(C)C
REMARK SMILES IDX 10 1 11 2 12 3 13 4 14 5 15 6 16 7 18 8 17 9 19 10 9 11 7 12
REMARK SMILES IDX 6 13 8 14 5 15 4 16 2 17 3 18 1 19
REMARK H PARENT
REMARK Flexibility Score: inf
ROOT
ATOM      1  C   UNL     1     -12.724 -15.245  29.395  1.00  0.00     0.032 C 
ENDROOT
BRANCH   1   2
ATOM      2  C   UNL     1     -13.300 -15.501  30.765  1.00  0.00    -0.028 C 
ATOM      3  C   UNL     1     -14.288 -14.768  31.329  1.00  0.00    -0.077 C 
ATOM      4  C   UNL     1     -14.959 -13.633  30.592  1.00  0.00     0.039 C 
BRANCH   3   5
ATOM      5  C   UNL     1     -14.747 -15.110  32.730  1.00  0.00     0.034 C 
BRANCH   5   6
ATOM      6  C   UNL     1     -14.272 -14.051  33.732  1.00  0.00     0.032 C 
BRANCH   6   7
ATOM      7  C   UNL     1     -13.177 -14.600  34.612  1.00  0.00    -0.028 C 
ATOM      8  C   UNL     1     -13.163 -12.596  36.116  1.00  0.00     0.039 C 
ATOM      9  C   UNL     1     -12.651 -13.947  35.672  1.00  0.00    -0.080 C 
ATOM     10  C   UNL     1     -11.529 -14.604  36.435  1.00  0.00     0.039 C 
ENDBRANCH   6   7
ENDBRANCH   5   6
ENDBRANCH   3   5
ENDBRANCH   1   2
BRANCH   1  11
ATOM     11  C   UNL     1     -13.016 -16.419  28.455  1.00  0.00     0.034 C 
BRANCH  11  12
ATOM     12  C   UNL     1     -11.724 -17.019  27.936  1.00  0.00    -0.077 C 
ATOM     13  C   UNL     1     -10.844 -17.672  28.728  1.00  0.00    -0.028 C 
ATOM     14  C   UNL     1     -11.440 -16.950  26.458  1.00  0.00     0.039 C 
BRANCH  13  15
ATOM     15  C   UNL     1     -10.967 -17.812  30.228  1.00  0.00     0.035 C 
BRANCH  15  16
ATOM     16  C   UNL     1     -11.434 -19.217  30.629  1.00  0.00     0.079 C 
BRANCH  16  17
ATOM     17  C   UNL     1     -12.938 -19.318  30.643  1.00  0.00     0.130 C 
ATOM     18  O   UNL     1     -13.556 -18.954  31.631  1.00  0.00    -0.300 OA
ATOM     19  C   UNL     1     -13.694 -19.862  29.467  1.00  0.00     0.087 C 
ENDBRANCH  16  17
ENDBRANCH  15  16
ENDBRANCH  13  15
ENDBRANCH  11  12
ENDBRANCH   1  11
TORSDOF 9
ENDMDL
MODEL 3
REMARK VINA RESULT:    -5.253      2.068      5.536
REMARK INTER + INTRA:          -9.723
REMARK INTER:                  -8.252
REMARK INTRA:                  -1.471
REMARK UNBOUND:                -1.706
REMARK SMILES CC(=O)CCC=C(C)CCC=C(C)CCC=C(C)C
REMARK SMILES IDX 10 1 11 2 12 3 13 4 14 5 15 6 16 7 18 8 17 9 19 10 9 11 7 12
REMARK SMILES IDX 6 13 8 14 5 15 4 16 2 17 3 18 1 19
REMARK H PARENT
REMARK Flexibility Score: inf
ROOT
ATOM      1  C   UNL     1     -10.600 -18.911  31.229  1.00  0.00     0.032 C 
ENDROOT
BRANCH   1   2
ATOM      2  C   UNL     1     -10.611 -17.911  30.100  1.00  0.00    -0.028 C 
ATOM      3  C   UNL     1     -10.348 -16.591  30.245  1.00  0.00    -0.077 C 
ATOM      4  C   UNL     1      -9.954 -15.997  31.576  1.00  0.00     0.039 C 
BRANCH   3   5
ATOM      5  C   UNL     1     -10.433 -15.689  29.033  1.00  0.00     0.034 C 
BRANCH   5   6
ATOM      6  C   UNL     1     -11.782 -15.854  28.324  1.00  0.00     0.032 C 
BRANCH   6   7
ATOM      7  C   UNL     1     -12.746 -14.776  28.751  1.00  0.00    -0.028 C 
ATOM      8  C   UNL     1     -14.339 -15.235  26.873  1.00  0.00     0.039 C 
ATOM      9  C   UNL     1     -13.887 -14.469  28.095  1.00  0.00    -0.080 C 
ATOM     10  C   UNL     1     -14.733 -13.335  28.616  1.00  0.00     0.039 C 
ENDBRANCH   6   7
ENDBRANCH   5   6
ENDBRANCH   3   5
ENDBRANCH   1   2
BRANCH   1  11
ATOM     11  C   UNL     1     -12.000 -19.494  31.451  1.00  0.00     0.034 C 
BRANCH  11  12
ATOM     12  C   UNL     1     -12.958 -18.996  30.389  1.00  0.00    -0.077 C 
ATOM     13  C   UNL     1     -13.755 -17.917  30.562  1.00  0.00    -0.028 C 
ATOM     14  C   UNL     1     -12.974 -19.688  29.051  1.00  0.00     0.039 C 
BRANCH  13  15
ATOM     15  C   UNL     1     -13.876 -17.126  31.844  1.00  0.00     0.035 C 
BRANCH  15  16
ATOM     16  C   UNL     1     -13.871 -15.615  31.579  1.00  0.00     0.079 C 
BRANCH  16  17
ATOM     17  C   UNL     1     -14.642 -14.865  32.637  1.00  0.00     0.130 C 
ATOM     18  O   UNL     1     -15.826 -14.624  32.460  1.00  0.00    -0.300 OA
ATOM     19  C   UNL     1     -13.982 -14.405  33.903  1.00  0.00     0.087 C 
ENDBRANCH  16  17
ENDBRANCH  15  16
ENDBRANCH  13  15
ENDBRANCH  11  12
ENDBRANCH   1  11
TORSDOF 9
ENDMDL
MODEL 4
REMARK VINA RESULT:    -5.199      2.200      3.828
REMARK INTER + INTRA:          -9.641
REMARK INTER:                  -7.859
REMARK INTRA:                  -1.782
REMARK UNBOUND:                -1.706
REMARK SMILES CC(=O)CCC=C(C)CCC=C(C)CCC=C(C)C
REMARK SMILES IDX 10 1 11 2 12 3 13 4 14 5 15 6 16 7 18 8 17 9 19 10 9 11 7 12
REMARK SMILES IDX 6 13 8 14 5 15 4 16 2 17 3 18 1 19
REMARK H PARENT
REMARK Flexibility Score: inf
ROOT
ATOM      1  C   UNL     1     -11.739 -17.197  27.738  1.00  0.00     0.032 C 
ENDROOT
BRANCH   1   2
ATOM      2  C   UNL     1     -12.616 -16.033  28.127  1.00  0.00    -0.028 C 
ATOM      3  C   UNL     1     -13.652 -15.576  27.387  1.00  0.00    -0.077 C 
ATOM      4  C   UNL     1     -14.070 -16.246  26.099  1.00  0.00     0.039 C 
BRANCH   3   5
ATOM      5  C   UNL     1     -14.427 -14.371  27.875  1.00  0.00     0.034 C 
BRANCH   5   6
ATOM      6  C   UNL     1     -13.767 -13.766  29.119  1.00  0.00     0.032 C 
BRANCH   6   7
ATOM      7  C   UNL     1     -14.686 -13.857  30.311  1.00  0.00    -0.028 C 
ATOM      8  C   UNL     1     -13.202 -15.462  31.534  1.00  0.00     0.039 C 
ATOM      9  C   UNL     1     -14.459 -14.634  31.393  1.00  0.00    -0.080 C 
ATOM     10  C   UNL     1     -15.489 -14.656  32.492  1.00  0.00     0.039 C 
ENDBRANCH   6   7
ENDBRANCH   5   6
ENDBRANCH   3   5
ENDBRANCH   1   2
BRANCH   1  11
ATOM     11  C   UNL     1     -10.283 -16.939  28.144  1.00  0.00     0.034 C 
BRANCH  11  12
ATOM     12  C   UNL     1     -10.201 -16.530  29.601  1.00  0.00    -0.077 C 
ATOM     13  C   UNL     1     -10.298 -17.413  30.621  1.00  0.00    -0.028 C 
ATOM     14  C   UNL     1      -9.927 -15.086  29.929  1.00  0.00     0.039 C 
BRANCH  13  15
ATOM     15  C   UNL     1     -10.592 -18.887  30.466  1.00  0.00     0.035 C 
BRANCH  15  16
ATOM     16  C   UNL     1     -11.559 -19.388  31.546  1.00  0.00     0.079 C 
BRANCH  16  17
ATOM     17  C   UNL     1     -12.996 -19.255  31.109  1.00  0.00     0.130 C 
ATOM     18  O   UNL     1     -13.829 -18.841  31.899  1.00  0.00    -0.300 OA
ATOM     19  C   UNL     1     -13.425 -19.625  29.720  1.00  0.00     0.087 C 
ENDBRANCH  16  17
ENDBRANCH  15  16
ENDBRANCH  13  15
ENDBRANCH  11  12
ENDBRANCH   1  11
TORSDOF 9
ENDMDL
MODEL 5
REMARK VINA RESULT:    -5.198      2.369      6.102
REMARK INTER + INTRA:          -9.638
REMARK INTER:                  -7.848
REMARK INTRA:                  -1.791
REMARK UNBOUND:                -1.706
REMARK SMILES CC(=O)CCC=C(C)CCC=C(C)CCC=C(C)C
REMARK SMILES IDX 10 1 11 2 12 3 13 4 14 5 15 6 16 7 18 8 17 9 19 10 9 11 7 12
REMARK SMILES IDX 6 13 8 14 5 15 4 16 2 17 3 18 1 19
REMARK H PARENT
REMARK Flexibility Score: inf
ROOT
ATOM      1  C   UNL     1     -10.369 -17.962  30.987  1.00  0.00     0.032 C 
ENDROOT
BRANCH   1   2
ATOM      2  C   UNL     1     -11.555 -18.395  30.161  1.00  0.00    -0.028 C 
ATOM      3  C   UNL     1     -12.498 -19.271  30.578  1.00  0.00    -0.077 C 
ATOM      4  C   UNL     1     -12.477 -19.866  31.967  1.00  0.00     0.039 C 
BRANCH   3   5
ATOM      5  C   UNL     1     -13.617 -19.650  29.632  1.00  0.00     0.034 C 
BRANCH   5   6
ATOM      6  C   UNL     1     -13.261 -19.275  28.189  1.00  0.00     0.032 C 
BRANCH   6   7
ATOM      7  C   UNL     1     -13.896 -17.962  27.806  1.00  0.00    -0.028 C 
ATOM      8  C   UNL     1     -11.805 -17.078  26.746  1.00  0.00     0.039 C 
ATOM      9  C   UNL     1     -13.248 -16.955  27.179  1.00  0.00    -0.080 C 
ATOM     10  C   UNL     1     -14.002 -15.681  26.896  1.00  0.00     0.039 C 
ENDBRANCH   6   7
ENDBRANCH   5   6
ENDBRANCH   3   5
ENDBRANCH   1   2
BRANCH   1  11
ATOM     11  C   UNL     1     -10.516 -16.501  31.423  1.00  0.00     0.034 C 
BRANCH  11  12
ATOM     12  C   UNL     1     -10.941 -15.636  30.253  1.00  0.00    -0.077 C 
ATOM     13  C   UNL     1     -12.227 -15.280  30.028  1.00  0.00    -0.028 C 
ATOM     14  C   UNL     1      -9.878 -15.087  29.339  1.00  0.00     0.039 C 
BRANCH  13  15
ATOM     15  C   UNL     1     -13.412 -15.759  30.835  1.00  0.00     0.035 C 
BRANCH  15  16
ATOM     16  C   UNL     1     -14.203 -14.587  31.428  1.00  0.00     0.079 C 
BRANCH  16  17
ATOM     17  C   UNL     1     -14.657 -14.881  32.836  1.00  0.00     0.130 C 
ATOM     18  O   UNL     1     -14.443 -14.066  33.719  1.00  0.00    -0.300 OA
ATOM     19  C   UNL     1     -15.365 -16.159  33.175  1.00  0.00     0.087 C 
ENDBRANCH  16  17
ENDBRANCH  15  16
ENDBRANCH  13  15
ENDBRANCH  11  12
ENDBRANCH   1  11
TORSDOF 9
ENDMDL
MODEL 6
REMARK VINA RESULT:    -5.186      2.155      3.571
REMARK INTER + INTRA:          -9.621
REMARK INTER:                  -7.958
REMARK INTRA:                  -1.663
REMARK UNBOUND:                -1.706
REMARK SMILES CC(=O)CCC=C(C)CCC=C(C)CCC=C(C)C
REMARK SMILES IDX 10 1 11 2 12 3 13 4 14 5 15 6 16 7 18 8 17 9 19 10 9 11 7 12
REMARK SMILES IDX 6 13 8 14 5 15 4 16 2 17 3 18 1 19
REMARK H PARENT
REMARK Flexibility Score: inf
ROOT
ATOM      1  C   UNL     1     -10.709 -16.218  28.437  1.00  0.00     0.032 C 
ENDROOT
BRANCH   1   2
ATOM      2  C   UNL     1     -11.783 -15.814  29.416  1.00  0.00    -0.028 C 
ATOM      3  C   UNL     1     -11.565 -15.549  30.725  1.00  0.00    -0.077 C 
ATOM      4  C   UNL     1     -10.179 -15.578  31.325  1.00  0.00     0.039 C 
BRANCH   3   5
ATOM      5  C   UNL     1     -12.742 -15.193  31.607  1.00  0.00     0.034 C 
BRANCH   5   6
ATOM      6  C   UNL     1     -14.062 -15.351  30.844  1.00  0.00     0.032 C 
BRANCH   6   7
ATOM      7  C   UNL     1     -14.746 -14.017  30.676  1.00  0.00    -0.028 C 
ATOM      8  C   UNL     1     -14.380 -13.963  28.199  1.00  0.00     0.039 C 
ATOM      9  C   UNL     1     -14.875 -13.369  29.497  1.00  0.00    -0.080 C 
ATOM     10  C   UNL     1     -15.547 -12.020  29.489  1.00  0.00     0.039 C 
ENDBRANCH   6   7
ENDBRANCH   5   6
ENDBRANCH   3   5
ENDBRANCH   1   2
BRANCH   1  11
ATOM     11  C   UNL     1     -11.182 -17.383  27.561  1.00  0.00     0.034 C 
BRANCH  11  12
ATOM     12  C   UNL     1     -12.684 -17.324  27.364  1.00  0.00    -0.077 C 
ATOM     13  C   UNL     1     -13.543 -18.161  27.989  1.00  0.00    -0.028 C 
ATOM     14  C   UNL     1     -13.254 -16.238  26.490  1.00  0.00     0.039 C 
BRANCH  13  15
ATOM     15  C   UNL     1     -13.137 -19.313  28.879  1.00  0.00     0.035 C 
BRANCH  15  16
ATOM     16  C   UNL     1     -13.394 -19.003  30.359  1.00  0.00     0.079 C 
BRANCH  16  17
ATOM     17  C   UNL     1     -12.247 -19.453  31.228  1.00  0.00     0.130 C 
ATOM     18  O   UNL     1     -12.472 -20.141  32.212  1.00  0.00    -0.300 OA
ATOM     19  C   UNL     1     -10.832 -19.071  30.910  1.00  0.00     0.087 C 
ENDBRANCH  16  17
ENDBRANCH  15  16
ENDBRANCH  13  15
ENDBRANCH  11  12
ENDBRANCH   1  11
TORSDOF 9
ENDMDL
MODEL 7
REMARK VINA RESULT:    -5.060      2.546      4.916
REMARK INTER + INTRA:          -9.429
REMARK INTER:                  -7.636
REMARK INTRA:                  -1.792
REMARK UNBOUND:                -1.706
REMARK SMILES CC(=O)CCC=C(C)CCC=C(C)CCC=C(C)C
REMARK SMILES IDX 10 1 11 2 12 3 13 4 14 5 15 6 16 7 18 8 17 9 19 10 9 11 7 12
REMARK SMILES IDX 6 13 8 14 5 15 4 16 2 17 3 18 1 19
REMARK H PARENT
REMARK Flexibility Score: inf
ROOT
ATOM      1  C   UNL     1     -14.023 -18.276  28.523  1.00  0.00     0.032 C 
ENDROOT
BRANCH   1   2
ATOM      2  C   UNL     1     -12.700 -18.784  29.043  1.00  0.00    -0.028 C 
ATOM      3  C   UNL     1     -12.355 -18.820  30.350  1.00  0.00    -0.077 C 
ATOM      4  C   UNL     1     -13.312 -18.399  31.441  1.00  0.00     0.039 C 
BRANCH   3   5
ATOM      5  C   UNL     1     -10.978 -19.317  30.732  1.00  0.00     0.034 C 
BRANCH   5   6
ATOM      6  C   UNL     1     -10.136 -18.184  31.329  1.00  0.00     0.032 C 
BRANCH   6   7
ATOM      7  C   UNL     1     -10.020 -17.035  30.359  1.00  0.00    -0.028 C 
ATOM      8  C   UNL     1      -9.915 -15.309  32.171  1.00  0.00     0.039 C 
ATOM      9  C   UNL     1      -9.945 -15.735  30.721  1.00  0.00    -0.080 C 
ATOM     10  C   UNL     1      -9.875 -14.691  29.637  1.00  0.00     0.039 C 
ENDBRANCH   6   7
ENDBRANCH   5   6
ENDBRANCH   3   5
ENDBRANCH   1   2
BRANCH   1  11
ATOM     11  C   UNL     1     -13.828 -17.480  27.229  1.00  0.00     0.034 C 
BRANCH  11  12
ATOM     12  C   UNL     1     -12.585 -16.617  27.316  1.00  0.00    -0.077 C 
ATOM     13  C   UNL     1     -12.506 -15.515  28.096  1.00  0.00    -0.028 C 
ATOM     14  C   UNL     1     -11.357 -17.046  26.557  1.00  0.00     0.039 C 
BRANCH  13  15
ATOM     15  C   UNL     1     -13.648 -14.939  28.900  1.00  0.00     0.035 C 
BRANCH  15  16
ATOM     16  C   UNL     1     -13.389 -15.047  30.409  1.00  0.00     0.079 C 
BRANCH  16  17
ATOM     17  C   UNL     1     -14.469 -14.361  31.207  1.00  0.00     0.130 C 
ATOM     18  O   UNL     1     -15.069 -13.417  30.718  1.00  0.00    -0.300 OA
ATOM     19  C   UNL     1     -14.819 -14.813  32.594  1.00  0.00     0.087 C 
ENDBRANCH  16  17
ENDBRANCH  15  16
ENDBRANCH  13  15
ENDBRANCH  11  12
ENDBRANCH   1  11
TORSDOF 9
ENDMDL
MODEL 8
REMARK VINA RESULT:    -4.876      2.199      6.665
REMARK INTER + INTRA:          -9.148
REMARK INTER:                  -8.424
REMARK INTRA:                  -0.724
REMARK UNBOUND:                -1.706
REMARK SMILES CC(=O)CCC=C(C)CCC=C(C)CCC=C(C)C
REMARK SMILES IDX 10 1 11 2 12 3 13 4 14 5 15 6 16 7 18 8 17 9 19 10 9 11 7 12
REMARK SMILES IDX 6 13 8 14 5 15 4 16 2 17 3 18 1 19
REMARK H PARENT
REMARK Flexibility Score: inf
ROOT
ATOM      1  C   UNL     1     -13.613 -14.618  30.423  1.00  0.00     0.032 C 
ENDROOT
BRANCH   1   2
ATOM      2  C   UNL     1     -13.104 -15.474  29.290  1.00  0.00    -0.028 C 
ATOM      3  C   UNL     1     -11.796 -15.656  28.996  1.00  0.00    -0.077 C 
ATOM      4  C   UNL     1     -10.698 -15.047  29.836  1.00  0.00     0.039 C 
BRANCH   3   5
ATOM      5  C   UNL     1     -11.424 -16.510  27.804  1.00  0.00     0.034 C 
BRANCH   5   6
ATOM      6  C   UNL     1     -12.190 -17.837  27.824  1.00  0.00     0.032 C 
BRANCH   6   7
ATOM      7  C   UNL     1     -12.115 -18.478  29.188  1.00  0.00    -0.028 C 
ATOM      8  C   UNL     1     -14.106 -19.944  28.784  1.00  0.00     0.039 C 
ATOM      9  C   UNL     1     -12.984 -19.408  29.643  1.00  0.00    -0.080 C 
ATOM     10  C   UNL     1     -12.809 -19.929  31.046  1.00  0.00     0.039 C 
ENDBRANCH   6   7
ENDBRANCH   5   6
ENDBRANCH   3   5
ENDBRANCH   1   2
BRANCH   1  11
ATOM     11  C   UNL     1     -13.441 -15.336  31.766  1.00  0.00     0.034 C 
BRANCH  11  12
ATOM     12  C   UNL     1     -14.411 -14.786  32.792  1.00  0.00    -0.077 C 
ATOM     13  C   UNL     1     -14.021 -14.316  33.998  1.00  0.00    -0.028 C 
ATOM     14  C   UNL     1     -15.869 -14.690  32.426  1.00  0.00     0.039 C 
BRANCH  13  15
ATOM     15  C   UNL     1     -12.606 -14.358  34.528  1.00  0.00     0.035 C 
BRANCH  15  16
ATOM     16  C   UNL     1     -12.536 -13.909  35.993  1.00  0.00     0.079 C 
BRANCH  16  17
ATOM     17  C   UNL     1     -11.310 -13.072  36.259  1.00  0.00     0.130 C 
ATOM     18  O   UNL     1     -10.207 -13.596  36.230  1.00  0.00    -0.300 OA
ATOM     19  C   UNL     1     -11.417 -11.608  36.562  1.00  0.00     0.087 C 
ENDBRANCH  16  17
ENDBRANCH  15  16
ENDBRANCH  13  15
ENDBRANCH  11  12
ENDBRANCH   1  11
TORSDOF 9
ENDMDL
MODEL 9
REMARK VINA RESULT:    -3.583      1.050      2.057
REMARK INTER + INTRA:          -7.174
REMARK INTER:                  -5.810
REMARK INTRA:                  -1.364
REMARK UNBOUND:                -1.706
REMARK SMILES CC(=O)CCC=C(C)CCC=C(C)CCC=C(C)C
REMARK SMILES IDX 10 1 11 2 12 3 13 4 14 5 15 6 16 7 18 8 17 9 19 10 9 11 7 12
REMARK SMILES IDX 6 13 8 14 5 15 4 16 2 17 3 18 1 19
REMARK H PARENT
REMARK Flexibility Score: inf
ROOT
ATOM      1  C   UNL     1     -12.865 -14.862  29.066  1.00  0.00     0.032 C 
ENDROOT
BRANCH   1   2
ATOM      2  C   UNL     1     -13.282 -15.290  30.452  1.00  0.00    -0.028 C 
ATOM      3  C   UNL     1     -14.275 -14.709  31.165  1.00  0.00    -0.077 C 
ATOM      4  C   UNL     1     -15.115 -13.589  30.598  1.00  0.00     0.039 C 
BRANCH   3   5
ATOM      5  C   UNL     1     -14.565 -15.212  32.562  1.00  0.00     0.034 C 
BRANCH   5   6
ATOM      6  C   UNL     1     -14.232 -14.140  33.606  1.00  0.00     0.032 C 
BRANCH   6   7
ATOM      7  C   UNL     1     -13.227 -14.659  34.604  1.00  0.00    -0.028 C 
ATOM      8  C   UNL     1     -13.236 -12.547  35.951  1.00  0.00     0.039 C 
ATOM      9  C   UNL     1     -12.751 -13.946  35.649  1.00  0.00    -0.080 C 
ATOM     10  C   UNL     1     -11.715 -14.582  36.540  1.00  0.00     0.039 C 
ENDBRANCH   6   7
ENDBRANCH   5   6
ENDBRANCH   3   5
ENDBRANCH   1   2
BRANCH   1  11
ATOM     11  C   UNL     1     -11.787 -15.799  28.510  1.00  0.00     0.034 C 
BRANCH  11  12
ATOM     12  C   UNL     1     -10.581 -15.825  29.427  1.00  0.00    -0.077 C 
ATOM     13  C   UNL     1     -10.067 -16.966  29.939  1.00  0.00    -0.028 C 
ATOM     14  C   UNL     1      -9.875 -14.528  29.725  1.00  0.00     0.039 C 
BRANCH  13  15
ATOM     15  C   UNL     1     -10.664 -18.343  29.756  1.00  0.00     0.035 C 
BRANCH  15  16
ATOM     16  C   UNL     1     -11.372 -18.827  31.028  1.00  0.00     0.079 C 
BRANCH  16  17
ATOM     17  C   UNL     1     -12.819 -19.158  30.765  1.00  0.00     0.130 C 
ATOM     18  O   UNL     1     -13.607 -19.189  31.697  1.00  0.00    -0.300 OA
ATOM     19  C   UNL     1     -13.311 -19.454  29.379  1.00  0.00     0.087 C 
ENDBRANCH  16  17
ENDBRANCH  15  16
ENDBRANCH  13  15
ENDBRANCH  11  12
ENDBRANCH   1  11
TORSDOF 9
ENDMDL
