MODEL 1
REMARK VINA RESULT:    -7.533      0.000      0.000
REMARK INTER + INTRA:          -8.194
REMARK INTER:                  -8.194
REMARK INTRA:                   0.000
REMARK UNBOUND:                 0.000
REMARK SMILES Cc1cc(O)c2c(c1)C(=O)c1cc(O)cc(O)c1C2=O
REMARK SMILES IDX 1 1 2 2 8 3 7 4 6 5 4 6 3 7 19 8 20 9 18 10 11 11 9 12 10 13
REMARK SMILES IDX 12 14 13 15 15 16 16 17 5 18 17 20 14 22
REMARK H PARENT 5 19 17 21 14 23
REMARK Flexibility Score: inf
ROOT
ATOM      1  C   UNL     1      50.848  59.684   0.684  1.00  0.00     0.044 C 
ATOM      2  C   UNL     1      50.868  60.017   2.147  1.00  0.00    -0.047 A 
ATOM      3  C   UNL     1      51.967  59.660   2.936  1.00  0.00     0.016 A 
ATOM      4  C   UNL     1      52.007  59.992   4.301  1.00  0.00     0.038 A 
ATOM      5  C   UNL     1      50.929  60.693   4.886  1.00  0.00     0.076 A 
ATOM      6  C   UNL     1      49.857  61.126   4.062  1.00  0.00     0.127 A 
ATOM      7  C   UNL     1      49.830  60.766   2.712  1.00  0.00     0.050 A 
ATOM      8  C   UNL     1      50.939  60.895   6.358  1.00  0.00     0.201 C 
ATOM      9  O   UNL     1      49.850  60.966   6.988  1.00  0.00    -0.288 OA
ATOM     10  C   UNL     1      52.222  60.824   7.104  1.00  0.00     0.076 A 
ATOM     11  C   UNL     1      53.299  60.125   6.514  1.00  0.00     0.041 A 
ATOM     12  C   UNL     1      53.178  59.616   5.127  1.00  0.00     0.194 C 
ATOM     13  O   UNL     1      54.085  58.885   4.642  1.00  0.00    -0.289 OA
ATOM     14  C   UNL     1      54.481  59.918   7.244  1.00  0.00     0.059 A 
ATOM     15  C   UNL     1      54.608  60.411   8.543  1.00  0.00     0.120 A 
ATOM     16  C   UNL     1      53.561  61.138   9.116  1.00  0.00     0.093 A 
ATOM     17  C   UNL     1      52.382  61.375   8.402  1.00  0.00     0.131 A 
ENDROOT
BRANCH   6  18
ATOM     18  O   UNL     1      48.825  61.939   4.534  1.00  0.00    -0.507 OA
ATOM     19  H   UNL     1      48.940  62.920   4.751  1.00  0.00     0.293 HD
ENDBRANCH   6  18
BRANCH  17  20
ATOM     20  O   UNL     1      51.417  62.187   9.004  1.00  0.00    -0.507 OA
ATOM     21  H   UNL     1      50.448  61.920   9.104  1.00  0.00     0.293 HD
ENDBRANCH  17  20
BRANCH  15  22
ATOM     22  O   UNL     1      55.785  60.183   9.253  1.00  0.00    -0.508 OA
ATOM     23  H   UNL     1      56.675  60.072   8.782  1.00  0.00     0.293 HD
ENDBRANCH  15  22
TORSDOF 3
ENDMDL
MODEL 2
REMARK VINA RESULT:    -7.366      2.860      3.418
REMARK INTER + INTRA:          -8.012
REMARK INTER:                  -8.012
REMARK INTRA:                   0.000
REMARK UNBOUND:                 0.000
REMARK SMILES Cc1cc(O)c2c(c1)C(=O)c1cc(O)cc(O)c1C2=O
REMARK SMILES IDX 1 1 2 2 8 3 7 4 6 5 4 6 3 7 19 8 20 9 18 10 11 11 9 12 10 13
REMARK SMILES IDX 12 14 13 15 15 16 16 17 5 18 17 20 14 22
REMARK H PARENT 5 19 17 21 14 23
REMARK Flexibility Score: inf
ROOT
ATOM      1  C   UNL     1      47.217  63.094   4.795  1.00  0.00     0.044 C 
ATOM      2  C   UNL     1      48.025  62.090   5.565  1.00  0.00    -0.047 A 
ATOM      3  C   UNL     1      49.407  62.256   5.703  1.00  0.00     0.016 A 
ATOM      4  C   UNL     1      50.168  61.337   6.444  1.00  0.00     0.038 A 
ATOM      5  C   UNL     1      49.535  60.233   7.058  1.00  0.00     0.076 A 
ATOM      6  C   UNL     1      48.122  60.118   6.985  1.00  0.00     0.127 A 
ATOM      7  C   UNL     1      47.390  61.033   6.224  1.00  0.00     0.050 A 
ATOM      8  C   UNL     1      50.389  59.205   7.707  1.00  0.00     0.201 C 
ATOM      9  O   UNL     1      50.004  58.006   7.748  1.00  0.00    -0.288 OA
ATOM     10  C   UNL     1      51.769  59.554   8.135  1.00  0.00     0.076 A 
ATOM     11  C   UNL     1      52.397  60.660   7.522  1.00  0.00     0.041 A 
ATOM     12  C   UNL     1      51.631  61.525   6.592  1.00  0.00     0.194 C 
ATOM     13  O   UNL     1      52.219  62.435   5.947  1.00  0.00    -0.289 OA
ATOM     14  C   UNL     1      53.746  60.940   7.798  1.00  0.00     0.059 A 
ATOM     15  C   UNL     1      54.468  60.142   8.686  1.00  0.00     0.120 A 
ATOM     16  C   UNL     1      53.839  59.071   9.327  1.00  0.00     0.093 A 
ATOM     17  C   UNL     1      52.492  58.786   9.084  1.00  0.00     0.131 A 
ENDROOT
BRANCH   6  18
ATOM     18  O   UNL     1      47.409  59.137   7.677  1.00  0.00    -0.507 OA
ATOM     19  H   UNL     1      46.917  59.310   8.543  1.00  0.00     0.293 HD
ENDBRANCH   6  18
BRANCH  17  20
ATOM     20  O   UNL     1      51.907  57.758   9.828  1.00  0.00    -0.507 OA
ATOM     21  H   UNL     1      51.290  57.063   9.432  1.00  0.00     0.293 HD
ENDBRANCH  17  20
BRANCH  15  22
ATOM     22  O   UNL     1      55.808  60.430   8.935  1.00  0.00    -0.508 OA
ATOM     23  H   UNL     1      56.525  60.260   8.239  1.00  0.00     0.293 HD
ENDBRANCH  15  22
TORSDOF 3
ENDMDL
MODEL 3
REMARK VINA RESULT:    -7.338      3.212      6.866
REMARK INTER + INTRA:          -7.982
REMARK INTER:                  -7.982
REMARK INTRA:                   0.000
REMARK UNBOUND:                 0.000
REMARK SMILES Cc1cc(O)c2c(c1)C(=O)c1cc(O)cc(O)c1C2=O
REMARK SMILES IDX 1 1 2 2 8 3 7 4 6 5 4 6 3 7 19 8 20 9 18 10 11 11 9 12 10 13
REMARK SMILES IDX 12 14 13 15 15 16 16 17 5 18 17 20 14 22
REMARK H PARENT 5 19 17 21 14 23
REMARK Flexibility Score: inf
ROOT
ATOM      1  C   UNL     1      51.482  61.725   6.309  1.00  0.00     0.044 C 
ATOM      2  C   UNL     1      51.266  61.540   4.835  1.00  0.00    -0.047 A 
ATOM      3  C   UNL     1      52.033  60.612   4.122  1.00  0.00     0.016 A 
ATOM      4  C   UNL     1      51.819  60.412   2.748  1.00  0.00     0.038 A 
ATOM      5  C   UNL     1      50.821  61.153   2.076  1.00  0.00     0.076 A 
ATOM      6  C   UNL     1      49.991  62.030   2.822  1.00  0.00     0.127 A 
ATOM      7  C   UNL     1      50.237  62.227   4.183  1.00  0.00     0.050 A 
ATOM      8  C   UNL     1      50.724  61.024   0.599  1.00  0.00     0.201 C 
ATOM      9  O   UNL     1      50.314  61.996  -0.090  1.00  0.00    -0.288 OA
ATOM     10  C   UNL     1      51.286  59.824  -0.075  1.00  0.00     0.076 A 
ATOM     11  C   UNL     1      52.281  59.084   0.601  1.00  0.00     0.041 A 
ATOM     12  C   UNL     1      52.631  59.422   2.001  1.00  0.00     0.194 C 
ATOM     13  O   UNL     1      53.603  58.849   2.565  1.00  0.00    -0.289 OA
ATOM     14  C   UNL     1      52.933  58.027  -0.056  1.00  0.00     0.059 A 
ATOM     15  C   UNL     1      52.596  57.691  -1.368  1.00  0.00     0.120 A 
ATOM     16  C   UNL     1      51.583  58.394  -2.026  1.00  0.00     0.093 A 
ATOM     17  C   UNL     1      50.906  59.436  -1.386  1.00  0.00     0.131 A 
ENDROOT
BRANCH   6  18
ATOM     18  O   UNL     1      48.897  62.692   2.261  1.00  0.00    -0.507 OA
ATOM     19  H   UNL     1      48.554  62.514   1.327  1.00  0.00     0.293 HD
ENDBRANCH   6  18
BRANCH  17  20
ATOM     20  O   UNL     1      49.845  60.032  -2.073  1.00  0.00    -0.507 OA
ATOM     21  H   UNL     1      49.055  60.464  -1.615  1.00  0.00     0.293 HD
ENDBRANCH  17  20
BRANCH  15  22
ATOM     22  O   UNL     1      53.265  56.647  -2.004  1.00  0.00    -0.508 OA
ATOM     23  H   UNL     1      53.131  56.455  -2.989  1.00  0.00     0.293 HD
ENDBRANCH  15  22
TORSDOF 3
ENDMDL
MODEL 4
REMARK VINA RESULT:    -7.315      1.638      5.324
REMARK INTER + INTRA:          -7.956
REMARK INTER:                  -7.956
REMARK INTRA:                   0.000
REMARK UNBOUND:                 0.000
REMARK SMILES Cc1cc(O)c2c(c1)C(=O)c1cc(O)cc(O)c1C2=O
REMARK SMILES IDX 1 1 2 2 8 3 7 4 6 5 4 6 3 7 19 8 20 9 18 10 11 11 9 12 10 13
REMARK SMILES IDX 12 14 13 15 15 16 16 17 5 18 17 20 14 22
REMARK H PARENT 5 19 17 21 14 23
REMARK Flexibility Score: inf
ROOT
ATOM      1  C   UNL     1      55.768  57.105   7.744  1.00  0.00     0.044 C 
ATOM      2  C   UNL     1      54.652  58.089   7.544  1.00  0.00    -0.047 A 
ATOM      3  C   UNL     1      54.228  58.419   6.252  1.00  0.00     0.016 A 
ATOM      4  C   UNL     1      53.166  59.318   6.056  1.00  0.00     0.038 A 
ATOM      5  C   UNL     1      52.517  59.896   7.170  1.00  0.00     0.076 A 
ATOM      6  C   UNL     1      52.897  59.491   8.477  1.00  0.00     0.127 A 
ATOM      7  C   UNL     1      53.969  58.611   8.647  1.00  0.00     0.050 A 
ATOM      8  C   UNL     1      51.502  60.951   6.923  1.00  0.00     0.201 C 
ATOM      9  O   UNL     1      51.322  61.861   7.777  1.00  0.00    -0.288 OA
ATOM     10  C   UNL     1      50.837  61.040   5.597  1.00  0.00     0.076 A 
ATOM     11  C   UNL     1      51.487  60.459   4.485  1.00  0.00     0.041 A 
ATOM     12  C   UNL     1      52.718  59.657   4.684  1.00  0.00     0.194 C 
ATOM     13  O   UNL     1      53.371  59.243   3.687  1.00  0.00    -0.289 OA
ATOM     14  C   UNL     1      50.961  60.639   3.195  1.00  0.00     0.059 A 
ATOM     15  C   UNL     1      49.792  61.376   3.002  1.00  0.00     0.120 A 
ATOM     16  C   UNL     1      49.124  61.918   4.103  1.00  0.00     0.093 A 
ATOM     17  C   UNL     1      49.616  61.735   5.399  1.00  0.00     0.131 A 
ENDROOT
BRANCH   6  18
ATOM     18  O   UNL     1      52.216  59.908   9.623  1.00  0.00    -0.507 OA
ATOM     19  H   UNL     1      52.671  60.325  10.422  1.00  0.00     0.293 HD
ENDBRANCH   6  18
BRANCH  17  20
ATOM     20  O   UNL     1      48.846  62.227   6.456  1.00  0.00    -0.507 OA
ATOM     21  H   UNL     1      47.836  62.265   6.441  1.00  0.00     0.293 HD
ENDBRANCH  17  20
BRANCH  15  22
ATOM     22  O   UNL     1      49.296  61.553   1.713  1.00  0.00    -0.508 OA
ATOM     23  H   UNL     1      48.351  61.880   1.549  1.00  0.00     0.293 HD
ENDBRANCH  15  22
TORSDOF 3
ENDMDL
MODEL 5
REMARK VINA RESULT:    -7.267      2.827      5.171
REMARK INTER + INTRA:          -7.904
REMARK INTER:                  -7.904
REMARK INTRA:                   0.000
REMARK UNBOUND:                 0.000
REMARK SMILES Cc1cc(O)c2c(c1)C(=O)c1cc(O)cc(O)c1C2=O
REMARK SMILES IDX 1 1 2 2 8 3 7 4 6 5 4 6 3 7 19 8 20 9 18 10 11 11 9 12 10 13
REMARK SMILES IDX 12 14 13 15 15 16 16 17 5 18 17 20 14 22
REMARK H PARENT 5 19 17 21 14 23
REMARK Flexibility Score: inf
ROOT
ATOM      1  C   UNL     1      55.729  57.769  -0.893  1.00  0.00     0.044 C 
ATOM      2  C   UNL     1      54.415  58.256  -0.354  1.00  0.00    -0.047 A 
ATOM      3  C   UNL     1      54.281  58.559   1.006  1.00  0.00     0.016 A 
ATOM      4  C   UNL     1      53.063  59.041   1.514  1.00  0.00     0.038 A 
ATOM      5  C   UNL     1      51.962  59.224   0.648  1.00  0.00     0.076 A 
ATOM      6  C   UNL     1      52.131  58.996  -0.742  1.00  0.00     0.127 A 
ATOM      7  C   UNL     1      53.345  58.496  -1.221  1.00  0.00     0.050 A 
ATOM      8  C   UNL     1      50.652  59.592   1.245  1.00  0.00     0.201 C 
ATOM      9  O   UNL     1      49.584  59.225   0.687  1.00  0.00    -0.288 OA
ATOM     10  C   UNL     1      50.605  60.227   2.588  1.00  0.00     0.076 A 
ATOM     11  C   UNL     1      51.709  60.045   3.450  1.00  0.00     0.041 A 
ATOM     12  C   UNL     1      52.931  59.367   2.954  1.00  0.00     0.194 C 
ATOM     13  O   UNL     1      53.868  59.091   3.752  1.00  0.00    -0.289 OA
ATOM     14  C   UNL     1      51.647  60.510   4.774  1.00  0.00     0.059 A 
ATOM     15  C   UNL     1      50.507  61.166   5.242  1.00  0.00     0.120 A 
ATOM     16  C   UNL     1      49.429  61.385   4.381  1.00  0.00     0.093 A 
ATOM     17  C   UNL     1      49.476  60.949   3.053  1.00  0.00     0.131 A 
ENDROOT
BRANCH   6  18
ATOM     18  O   UNL     1      51.137  59.283  -1.680  1.00  0.00    -0.507 OA
ATOM     19  H   UNL     1      50.923  60.218  -2.000  1.00  0.00     0.293 HD
ENDBRANCH   6  18
BRANCH  17  20
ATOM     20  O   UNL     1      48.399  61.283   2.228  1.00  0.00    -0.507 OA
ATOM     21  H   UNL     1      48.267  60.902   1.301  1.00  0.00     0.293 HD
ENDBRANCH  17  20
BRANCH  15  22
ATOM     22  O   UNL     1      50.462  61.608   6.563  1.00  0.00    -0.508 OA
ATOM     23  H   UNL     1      49.739  61.298   7.201  1.00  0.00     0.293 HD
ENDBRANCH  15  22
TORSDOF 3
ENDMDL
MODEL 6
REMARK VINA RESULT:    -7.204      2.834      6.526
REMARK INTER + INTRA:          -7.836
REMARK INTER:                  -7.836
REMARK INTRA:                   0.000
REMARK UNBOUND:                 0.000
REMARK SMILES Cc1cc(O)c2c(c1)C(=O)c1cc(O)cc(O)c1C2=O
REMARK SMILES IDX 1 1 2 2 8 3 7 4 6 5 4 6 3 7 19 8 20 9 18 10 11 11 9 12 10 13
REMARK SMILES IDX 12 14 13 15 15 16 16 17 5 18 17 20 14 22
REMARK H PARENT 5 19 17 21 14 23
REMARK Flexibility Score: inf
ROOT
ATOM      1  C   UNL     1      48.744  62.726   5.296  1.00  0.00     0.044 C 
ATOM      2  C   UNL     1      49.841  61.893   4.700  1.00  0.00    -0.047 A 
ATOM      3  C   UNL     1      49.648  61.247   3.474  1.00  0.00     0.016 A 
ATOM      4  C   UNL     1      50.679  60.486   2.896  1.00  0.00     0.038 A 
ATOM      5  C   UNL     1      51.924  60.372   3.555  1.00  0.00     0.076 A 
ATOM      6  C   UNL     1      52.140  61.098   4.755  1.00  0.00     0.127 A 
ATOM      7  C   UNL     1      51.093  61.831   5.322  1.00  0.00     0.050 A 
ATOM      8  C   UNL     1      52.935  59.442   2.990  1.00  0.00     0.201 C 
ATOM      9  O   UNL     1      53.757  58.870   3.754  1.00  0.00    -0.288 OA
ATOM     10  C   UNL     1      52.856  59.047   1.559  1.00  0.00     0.076 A 
ATOM     11  C   UNL     1      51.611  59.166   0.902  1.00  0.00     0.041 A 
ATOM     12  C   UNL     1      50.469  59.812   1.594  1.00  0.00     0.194 C 
ATOM     13  O   UNL     1      49.325  59.808   1.061  1.00  0.00    -0.289 OA
ATOM     14  C   UNL     1      51.461  58.676  -0.406  1.00  0.00     0.059 A 
ATOM     15  C   UNL     1      52.536  58.085  -1.069  1.00  0.00     0.120 A 
ATOM     16  C   UNL     1      53.781  58.002  -0.439  1.00  0.00     0.093 A 
ATOM     17  C   UNL     1      53.960  58.501   0.855  1.00  0.00     0.131 A 
ENDROOT
BRANCH   6  18
ATOM     18  O   UNL     1      53.381  61.148   5.393  1.00  0.00    -0.507 OA
ATOM     19  H   UNL     1      53.643  60.538   6.154  1.00  0.00     0.293 HD
ENDBRANCH   6  18
BRANCH  17  20
ATOM     20  O   UNL     1      55.252  58.465   1.385  1.00  0.00    -0.507 OA
ATOM     21  H   UNL     1      56.048  58.084   0.892  1.00  0.00     0.293 HD
ENDBRANCH  17  20
BRANCH  15  22
ATOM     22  O   UNL     1      52.361  57.594  -2.362  1.00  0.00    -0.508 OA
ATOM     23  H   UNL     1      52.618  56.645  -2.607  1.00  0.00     0.293 HD
ENDBRANCH  15  22
TORSDOF 3
ENDMDL
MODEL 7
REMARK VINA RESULT:    -7.152      3.035      5.840
REMARK INTER + INTRA:          -7.779
REMARK INTER:                  -7.779
REMARK INTRA:                   0.000
REMARK UNBOUND:                 0.000
REMARK SMILES Cc1cc(O)c2c(c1)C(=O)c1cc(O)cc(O)c1C2=O
REMARK SMILES IDX 1 1 2 2 8 3 7 4 6 5 4 6 3 7 19 8 20 9 18 10 11 11 9 12 10 13
REMARK SMILES IDX 12 14 13 15 15 16 16 17 5 18 17 20 14 22
REMARK H PARENT 5 19 17 21 14 23
REMARK Flexibility Score: inf
ROOT
ATOM      1  C   UNL     1      55.484  59.178   8.485  1.00  0.00     0.044 C 
ATOM      2  C   UNL     1      53.997  59.226   8.282  1.00  0.00    -0.047 A 
ATOM      3  C   UNL     1      53.409  60.326   7.647  1.00  0.00     0.016 A 
ATOM      4  C   UNL     1      52.022  60.367   7.428  1.00  0.00     0.038 A 
ATOM      5  C   UNL     1      51.210  59.290   7.850  1.00  0.00     0.076 A 
ATOM      6  C   UNL     1      51.824  58.142   8.415  1.00  0.00     0.127 A 
ATOM      7  C   UNL     1      53.203  58.133   8.642  1.00  0.00     0.050 A 
ATOM      8  C   UNL     1      49.736  59.434   7.735  1.00  0.00     0.201 C 
ATOM      9  O   UNL     1      48.983  58.843   8.555  1.00  0.00    -0.288 OA
ATOM     10  C   UNL     1      49.162  60.416   6.779  1.00  0.00     0.076 A 
ATOM     11  C   UNL     1      49.977  61.490   6.357  1.00  0.00     0.041 A 
ATOM     12  C   UNL     1      51.407  61.532   6.749  1.00  0.00     0.194 C 
ATOM     13  O   UNL     1      52.105  62.548   6.482  1.00  0.00    -0.289 OA
ATOM     14  C   UNL     1      49.431  62.513   5.564  1.00  0.00     0.059 A 
ATOM     15  C   UNL     1      48.091  62.470   5.176  1.00  0.00     0.120 A 
ATOM     16  C   UNL     1      47.292  61.389   5.556  1.00  0.00     0.093 A 
ATOM     17  C   UNL     1      47.818  60.349   6.328  1.00  0.00     0.131 A 
ENDROOT
BRANCH   6  18
ATOM     18  O   UNL     1      51.111  56.983   8.730  1.00  0.00    -0.507 OA
ATOM     19  H   UNL     1      51.349  56.372   9.499  1.00  0.00     0.293 HD
ENDBRANCH   6  18
BRANCH  17  20
ATOM     20  O   UNL     1      46.986  59.259   6.593  1.00  0.00    -0.507 OA
ATOM     21  H   UNL     1      46.054  59.347   6.974  1.00  0.00     0.293 HD
ENDBRANCH  17  20
BRANCH  15  22
ATOM     22  O   UNL     1      47.567  63.502   4.400  1.00  0.00    -0.508 OA
ATOM     23  H   UNL     1      47.984  63.763   3.514  1.00  0.00     0.293 HD
ENDBRANCH  15  22
TORSDOF 3
ENDMDL
MODEL 8
REMARK VINA RESULT:    -7.092      1.910      2.133
REMARK INTER + INTRA:          -7.714
REMARK INTER:                  -7.714
REMARK INTRA:                   0.000
REMARK UNBOUND:                 0.000
REMARK SMILES Cc1cc(O)c2c(c1)C(=O)c1cc(O)cc(O)c1C2=O
REMARK SMILES IDX 1 1 2 2 8 3 7 4 6 5 4 6 3 7 19 8 20 9 18 10 11 11 9 12 10 13
REMARK SMILES IDX 12 14 13 15 15 16 16 17 5 18 17 20 14 22
REMARK H PARENT 5 19 17 21 14 23
REMARK Flexibility Score: inf
ROOT
ATOM      1  C   UNL     1      49.590  62.596   1.775  1.00  0.00     0.044 C 
ATOM      2  C   UNL     1      49.967  61.945   3.073  1.00  0.00    -0.047 A 
ATOM      3  C   UNL     1      51.082  61.102   3.141  1.00  0.00     0.016 A 
ATOM      4  C   UNL     1      51.458  60.510   4.358  1.00  0.00     0.038 A 
ATOM      5  C   UNL     1      50.706  60.765   5.527  1.00  0.00     0.076 A 
ATOM      6  C   UNL     1      49.629  61.686   5.468  1.00  0.00     0.127 A 
ATOM      7  C   UNL     1      49.260  62.247   4.242  1.00  0.00     0.050 A 
ATOM      8  C   UNL     1      51.044  60.006   6.759  1.00  0.00     0.201 C 
ATOM      9  O   UNL     1      50.143  59.742   7.600  1.00  0.00    -0.288 OA
ATOM     10  C   UNL     1      52.394  59.401   6.907  1.00  0.00     0.076 A 
ATOM     11  C   UNL     1      53.144  59.151   5.736  1.00  0.00     0.041 A 
ATOM     12  C   UNL     1      52.645  59.625   4.423  1.00  0.00     0.194 C 
ATOM     13  O   UNL     1      53.246  59.296   3.363  1.00  0.00    -0.289 OA
ATOM     14  C   UNL     1      54.362  58.457   5.822  1.00  0.00     0.059 A 
ATOM     15  C   UNL     1      54.846  58.024   7.057  1.00  0.00     0.120 A 
ATOM     16  C   UNL     1      54.128  58.306   8.222  1.00  0.00     0.093 A 
ATOM     17  C   UNL     1      52.923  59.013   8.165  1.00  0.00     0.131 A 
ENDROOT
BRANCH   6  18
ATOM     18  O   UNL     1      48.925  62.096   6.602  1.00  0.00    -0.507 OA
ATOM     19  H   UNL     1      49.141  62.936   7.121  1.00  0.00     0.293 HD
ENDBRANCH   6  18
BRANCH  17  20
ATOM     20  O   UNL     1      52.308  59.336   9.377  1.00  0.00    -0.507 OA
ATOM     21  H   UNL     1      51.587  60.038   9.467  1.00  0.00     0.293 HD
ENDBRANCH  17  20
BRANCH  15  22
ATOM     22  O   UNL     1      56.051  57.327   7.117  1.00  0.00    -0.508 OA
ATOM     23  H   UNL     1      56.859  57.618   6.581  1.00  0.00     0.293 HD
ENDBRANCH  15  22
TORSDOF 3
ENDMDL
