MODEL 1
REMARK VINA RESULT:    -3.524      0.000      0.000
REMARK INTER + INTRA:          -5.258
REMARK INTER:                  -4.760
REMARK INTRA:                  -0.498
REMARK UNBOUND:                -0.498
REMARK SMILES CCCCCCC=CC(=O)[O-]
REMARK SMILES IDX 5 1 6 2 7 3 8 4 9 5 10 6 11 7 4 8 3 9 2 10 1 11
REMARK H PARENT
REMARK Flexibility Score: inf
ROOT
ATOM      1  C   UNL     1      58.216  16.922  49.221  1.00  0.00     0.004 C 
ENDROOT
BRANCH   1   2
ATOM      2  C   UNL     1      58.244  17.086  50.746  1.00  0.00     0.027 C 
BRANCH   2   3
ATOM      3  C   UNL     1      57.034  17.830  51.235  1.00  0.00    -0.025 C 
ATOM      4  C   UNL     1      56.310  18.601  50.418  1.00  0.00     0.020 C 
BRANCH   4   5
ATOM      5  C   UNL     1      55.132  19.344  50.886  1.00  0.00     0.064 C 
ATOM      6  O   UNL     1      54.293  19.772  50.050  1.00  0.00    -0.545 OA
ATOM      7  O   UNL     1      54.926  19.583  52.241  1.00  0.00    -0.545 OA
ENDBRANCH   4   5
ENDBRANCH   2   3
ENDBRANCH   1   2
BRANCH   1   8
ATOM      8  C   UNL     1      59.592  17.228  48.611  1.00  0.00     0.000 C 
BRANCH   8   9
ATOM      9  C   UNL     1      60.222  18.518  49.168  1.00  0.00    -0.000 C 
BRANCH   9  10
ATOM     10  C   UNL     1      59.706  19.819  48.528  1.00  0.00    -0.003 C 
ATOM     11  C   UNL     1      60.744  20.941  48.534  1.00  0.00     0.004 C 
ENDBRANCH   9  10
ENDBRANCH   8   9
ENDBRANCH   1   8
TORSDOF 6
ENDMDL
MODEL 2
REMARK VINA RESULT:    -3.339      7.668      9.880
REMARK INTER + INTRA:          -5.008
REMARK INTER:                  -4.657
REMARK INTRA:                  -0.352
REMARK UNBOUND:                -0.498
REMARK SMILES CCCCCCC=CC(=O)[O-]
REMARK SMILES IDX 5 1 6 2 7 3 8 4 9 5 10 6 11 7 4 8 3 9 2 10 1 11
REMARK H PARENT
REMARK Flexibility Score: inf
ROOT
ATOM      1  C   UNL     1      58.020  29.266  50.014  1.00  0.00     0.004 C 
ENDROOT
BRANCH   1   2
ATOM      2  C   UNL     1      59.156  28.674  49.171  1.00  0.00     0.027 C 
BRANCH   2   3
ATOM      3  C   UNL     1      59.293  27.196  49.405  1.00  0.00    -0.025 C 
ATOM      4  C   UNL     1      60.360  26.683  50.025  1.00  0.00     0.020 C 
BRANCH   4   5
ATOM      5  C   UNL     1      60.513  25.238  50.248  1.00  0.00     0.064 C 
ATOM      6  O   UNL     1      59.494  24.532  50.467  1.00  0.00    -0.545 OA
ATOM      7  O   UNL     1      61.767  24.636  50.220  1.00  0.00    -0.545 OA
ENDBRANCH   4   5
ENDBRANCH   2   3
ENDBRANCH   1   2
BRANCH   1   8
ATOM      8  C   UNL     1      56.985  28.190  50.374  1.00  0.00     0.000 C 
BRANCH   8   9
ATOM      9  C   UNL     1      55.549  28.741  50.454  1.00  0.00    -0.000 C 
BRANCH   9  10
ATOM     10  C   UNL     1      54.446  27.721  50.119  1.00  0.00    -0.003 C 
ATOM     11  C   UNL     1      54.996  26.397  49.590  1.00  0.00     0.004 C 
ENDBRANCH   9  10
ENDBRANCH   8   9
ENDBRANCH   1   8
TORSDOF 6
ENDMDL
MODEL 3
REMARK VINA RESULT:    -3.331      7.893      9.251
REMARK INTER + INTRA:          -4.998
REMARK INTER:                  -4.303
REMARK INTRA:                  -0.695
REMARK UNBOUND:                -0.498
REMARK SMILES CCCCCCC=CC(=O)[O-]
REMARK SMILES IDX 5 1 6 2 7 3 8 4 9 5 10 6 11 7 4 8 3 9 2 10 1 11
REMARK H PARENT
REMARK Flexibility Score: inf
ROOT
ATOM      1  C   UNL     1      58.604  26.249  49.620  1.00  0.00     0.004 C 
ENDROOT
BRANCH   1   2
ATOM      2  C   UNL     1      57.536  26.125  50.714  1.00  0.00     0.027 C 
BRANCH   2   3
ATOM      3  C   UNL     1      56.162  26.387  50.166  1.00  0.00    -0.025 C 
ATOM      4  C   UNL     1      55.524  27.539  50.398  1.00  0.00     0.020 C 
BRANCH   4   5
ATOM      5  C   UNL     1      54.175  27.802  49.879  1.00  0.00     0.064 C 
ATOM      6  O   UNL     1      53.694  28.963  49.958  1.00  0.00    -0.545 OA
ATOM      7  O   UNL     1      53.419  26.789  49.299  1.00  0.00    -0.545 OA
ENDBRANCH   4   5
ENDBRANCH   2   3
ENDBRANCH   1   2
BRANCH   1   8
ATOM      8  C   UNL     1      59.622  27.345  49.969  1.00  0.00     0.000 C 
BRANCH   8   9
ATOM      9  C   UNL     1      59.517  28.577  49.052  1.00  0.00    -0.000 C 
BRANCH   9  10
ATOM     10  C   UNL     1      58.512  29.646  49.518  1.00  0.00    -0.003 C 
ATOM     11  C   UNL     1      58.477  29.811  51.037  1.00  0.00     0.004 C 
ENDBRANCH   9  10
ENDBRANCH   8   9
ENDBRANCH   1   8
TORSDOF 6
ENDMDL
MODEL 4
REMARK VINA RESULT:    -3.313      8.932     10.941
REMARK INTER + INTRA:          -4.974
REMARK INTER:                  -4.439
REMARK INTRA:                  -0.535
REMARK UNBOUND:                -0.498
REMARK SMILES CCCCCCC=CC(=O)[O-]
REMARK SMILES IDX 5 1 6 2 7 3 8 4 9 5 10 6 11 7 4 8 3 9 2 10 1 11
REMARK H PARENT
REMARK Flexibility Score: inf
ROOT
ATOM      1  C   UNL     1      54.403  29.921  50.674  1.00  0.00     0.004 C 
ENDROOT
BRANCH   1   2
ATOM      2  C   UNL     1      55.459  28.931  51.182  1.00  0.00     0.027 C 
BRANCH   2   3
ATOM      3  C   UNL     1      56.713  29.002  50.357  1.00  0.00    -0.025 C 
ATOM      4  C   UNL     1      57.541  27.958  50.254  1.00  0.00     0.020 C 
BRANCH   4   5
ATOM      5  C   UNL     1      58.778  28.018  49.461  1.00  0.00     0.064 C 
ATOM      6  O   UNL     1      59.102  29.097  48.898  1.00  0.00    -0.545 OA
ATOM      7  O   UNL     1      59.596  26.903  49.322  1.00  0.00    -0.545 OA
ENDBRANCH   4   5
ENDBRANCH   2   3
ENDBRANCH   1   2
BRANCH   1   8
ATOM      8  C   UNL     1      53.160  29.180  50.159  1.00  0.00     0.000 C 
BRANCH   8   9
ATOM      9  C   UNL     1      53.179  27.676  50.488  1.00  0.00    -0.000 C 
BRANCH   9  10
ATOM     10  C   UNL     1      53.015  26.747  49.272  1.00  0.00    -0.003 C 
ATOM     11  C   UNL     1      54.090  25.663  49.198  1.00  0.00     0.004 C 
ENDBRANCH   9  10
ENDBRANCH   8   9
ENDBRANCH   1   8
TORSDOF 6
ENDMDL
MODEL 5
REMARK VINA RESULT:    -3.307      8.989     10.759
REMARK INTER + INTRA:          -4.965
REMARK INTER:                  -4.729
REMARK INTRA:                  -0.236
REMARK UNBOUND:                -0.498
REMARK SMILES CCCCCCC=CC(=O)[O-]
REMARK SMILES IDX 5 1 6 2 7 3 8 4 9 5 10 6 11 7 4 8 3 9 2 10 1 11
REMARK H PARENT
REMARK Flexibility Score: inf
ROOT
ATOM      1  C   UNL     1      57.453  27.978  50.250  1.00  0.00     0.004 C 
ENDROOT
BRANCH   1   2
ATOM      2  C   UNL     1      58.438  28.956  49.597  1.00  0.00     0.027 C 
BRANCH   2   3
ATOM      3  C   UNL     1      59.713  28.265  49.206  1.00  0.00    -0.025 C 
ATOM      4  C   UNL     1      60.812  28.347  49.962  1.00  0.00     0.020 C 
BRANCH   4   5
ATOM      5  C   UNL     1      62.070  27.687  49.584  1.00  0.00     0.064 C 
ATOM      6  O   UNL     1      62.854  28.257  48.780  1.00  0.00    -0.545 OA
ATOM      7  O   UNL     1      62.410  26.441  50.101  1.00  0.00    -0.545 OA
ENDBRANCH   4   5
ENDBRANCH   2   3
ENDBRANCH   1   2
BRANCH   1   8
ATOM      8  C   UNL     1      56.130  28.678  50.594  1.00  0.00     0.000 C 
BRANCH   8   9
ATOM      9  C   UNL     1      54.893  27.842  50.218  1.00  0.00    -0.000 C 
BRANCH   9  10
ATOM     10  C   UNL     1      55.201  26.413  49.735  1.00  0.00    -0.003 C 
ATOM     11  C   UNL     1      53.967  25.683  49.204  1.00  0.00     0.004 C 
ENDBRANCH   9  10
ENDBRANCH   8   9
ENDBRANCH   1   8
TORSDOF 6
ENDMDL
MODEL 6
REMARK VINA RESULT:    -3.289      7.615      9.320
REMARK INTER + INTRA:          -4.940
REMARK INTER:                  -4.276
REMARK INTRA:                  -0.664
REMARK UNBOUND:                -0.498
REMARK SMILES CCCCCCC=CC(=O)[O-]
REMARK SMILES IDX 5 1 6 2 7 3 8 4 9 5 10 6 11 7 4 8 3 9 2 10 1 11
REMARK H PARENT
REMARK Flexibility Score: inf
ROOT
ATOM      1  C   UNL     1      58.444  29.672  49.797  1.00  0.00     0.004 C 
ENDROOT
BRANCH   1   2
ATOM      2  C   UNL     1      57.572  29.021  50.878  1.00  0.00     0.027 C 
BRANCH   2   3
ATOM      3  C   UNL     1      56.230  28.628  50.330  1.00  0.00    -0.025 C 
ATOM      4  C   UNL     1      55.843  27.349  50.280  1.00  0.00     0.020 C 
BRANCH   4   5
ATOM      5  C   UNL     1      54.538  26.949  49.734  1.00  0.00     0.064 C 
ATOM      6  O   UNL     1      53.528  27.671  49.948  1.00  0.00    -0.545 OA
ATOM      7  O   UNL     1      54.400  25.787  48.984  1.00  0.00    -0.545 OA
ENDBRANCH   4   5
ENDBRANCH   2   3
ENDBRANCH   1   2
BRANCH   1   8
ATOM      8  C   UNL     1      59.333  28.627  49.106  1.00  0.00     0.000 C 
BRANCH   8   9
ATOM      9  C   UNL     1      59.918  27.595  50.087  1.00  0.00    -0.000 C 
BRANCH   9  10
ATOM     10  C   UNL     1      59.646  26.125  49.718  1.00  0.00    -0.003 C 
ATOM     11  C   UNL     1      58.884  25.367  50.804  1.00  0.00     0.004 C 
ENDBRANCH   9  10
ENDBRANCH   8   9
ENDBRANCH   1   8
TORSDOF 6
ENDMDL
MODEL 7
REMARK VINA RESULT:    -3.271      8.442      9.489
REMARK INTER + INTRA:          -4.916
REMARK INTER:                  -4.258
REMARK INTRA:                  -0.658
REMARK UNBOUND:                -0.498
REMARK SMILES CCCCCCC=CC(=O)[O-]
REMARK SMILES IDX 5 1 6 2 7 3 8 4 9 5 10 6 11 7 4 8 3 9 2 10 1 11
REMARK H PARENT
REMARK Flexibility Score: inf
ROOT
ATOM      1  C   UNL     1      57.446  26.617  51.386  1.00  0.00     0.004 C 
ENDROOT
BRANCH   1   2
ATOM      2  C   UNL     1      56.616  26.215  50.160  1.00  0.00     0.027 C 
BRANCH   2   3
ATOM      3  C   UNL     1      55.380  27.060  50.039  1.00  0.00    -0.025 C 
ATOM      4  C   UNL     1      55.367  28.339  50.430  1.00  0.00     0.020 C 
BRANCH   4   5
ATOM      5  C   UNL     1      54.161  29.173  50.329  1.00  0.00     0.064 C 
ATOM      6  O   UNL     1      54.198  30.368  50.724  1.00  0.00    -0.545 OA
ATOM      7  O   UNL     1      52.978  28.664  49.804  1.00  0.00    -0.545 OA
ENDBRANCH   4   5
ENDBRANCH   2   3
ENDBRANCH   1   2
BRANCH   1   8
ATOM      8  C   UNL     1      58.936  26.719  51.030  1.00  0.00     0.000 C 
BRANCH   8   9
ATOM      9  C   UNL     1      59.180  26.928  49.524  1.00  0.00    -0.000 C 
BRANCH   9  10
ATOM     10  C   UNL     1      59.791  28.291  49.151  1.00  0.00    -0.003 C 
ATOM     11  C   UNL     1      58.778  29.434  49.203  1.00  0.00     0.004 C 
ENDBRANCH   9  10
ENDBRANCH   8   9
ENDBRANCH   1   8
TORSDOF 6
ENDMDL
MODEL 8
REMARK VINA RESULT:    -3.265      7.698      9.230
REMARK INTER + INTRA:          -4.909
REMARK INTER:                  -4.513
REMARK INTRA:                  -0.396
REMARK UNBOUND:                -0.498
REMARK SMILES CCCCCCC=CC(=O)[O-]
REMARK SMILES IDX 5 1 6 2 7 3 8 4 9 5 10 6 11 7 4 8 3 9 2 10 1 11
REMARK H PARENT
REMARK Flexibility Score: inf
ROOT
ATOM      1  C   UNL     1      57.505  29.011  50.890  1.00  0.00     0.004 C 
ENDROOT
BRANCH   1   2
ATOM      2  C   UNL     1      56.005  29.016  50.566  1.00  0.00     0.027 C 
BRANCH   2   3
ATOM      3  C   UNL     1      55.503  27.626  50.295  1.00  0.00    -0.025 C 
ATOM      4  C   UNL     1      54.240  27.401  49.917  1.00  0.00     0.020 C 
BRANCH   4   5
ATOM      5  C   UNL     1      53.733  26.046  49.662  1.00  0.00     0.064 C 
ATOM      6  O   UNL     1      53.446  25.701  48.485  1.00  0.00    -0.545 OA
ATOM      7  O   UNL     1      53.564  25.135  50.699  1.00  0.00    -0.545 OA
ENDBRANCH   4   5
ENDBRANCH   2   3
ENDBRANCH   1   2
BRANCH   1   8
ATOM      8  C   UNL     1      58.326  29.517  49.695  1.00  0.00     0.000 C 
BRANCH   8   9
ATOM      9  C   UNL     1      59.349  28.484  49.190  1.00  0.00    -0.000 C 
BRANCH   9  10
ATOM     10  C   UNL     1      59.011  27.020  49.527  1.00  0.00    -0.003 C 
ATOM     11  C   UNL     1      60.229  26.213  49.976  1.00  0.00     0.004 C 
ENDBRANCH   9  10
ENDBRANCH   8   9
ENDBRANCH   1   8
TORSDOF 6
ENDMDL
