MODEL 1
REMARK VINA RESULT:    -8.942      0.000      0.000
REMARK INTER + INTRA:         -10.554
REMARK INTER:                 -10.249
REMARK INTRA:                  -0.305
REMARK UNBOUND:                -0.305
REMARK SMILES O=C1C[C@H](c2ccc(O)cc2)Oc2cc(O)cc(O)c21
REMARK SMILES IDX 3 1 4 2 12 3 13 4 14 5 15 6 17 7 18 8 20 9 2 10 1 11 5 12
REMARK SMILES IDX 6 13 11 14 7 15 10 16 8 17 9 18 19 20 16 22
REMARK H PARENT 9 19 19 21 16 23
REMARK Flexibility Score: inf
ROOT
ATOM      1  C   UNL     1     148.807 147.874 149.652  1.00  0.00     0.131 C 
ATOM      2  C   UNL     1     149.034 148.623 150.974  1.00  0.00     0.211 C 
ATOM      3  O   UNL     1     150.013 149.652 150.807  1.00  0.00    -0.484 OA
ATOM      4  C   UNL     1     151.189 149.447 150.076  1.00  0.00     0.138 A 
ATOM      5  C   UNL     1     152.246 150.353 150.205  1.00  0.00     0.093 A 
ATOM      6  C   UNL     1     153.437 150.150 149.500  1.00  0.00     0.123 A 
ATOM      7  C   UNL     1     153.568 149.041 148.659  1.00  0.00     0.093 A 
ATOM      8  C   UNL     1     152.509 148.135 148.506  1.00  0.00     0.133 A 
ATOM      9  C   UNL     1     151.305 148.339 149.214  1.00  0.00     0.102 A 
ATOM     10  C   UNL     1     150.125 147.453 149.065  1.00  0.00     0.174 C 
ATOM     11  O   UNL     1     150.193 146.379 148.409  1.00  0.00    -0.294 OA
ENDROOT
BRANCH   2  12
ATOM     12  C   UNL     1     147.742 149.216 151.481  1.00  0.00    -0.007 A 
ATOM     13  C   UNL     1     146.505 148.756 150.994  1.00  0.00     0.011 A 
ATOM     14  C   UNL     1     147.761 150.195 152.489  1.00  0.00     0.011 A 
ATOM     15  C   UNL     1     145.310 149.286 151.491  1.00  0.00     0.046 A 
ATOM     16  C   UNL     1     146.564 150.723 152.982  1.00  0.00     0.046 A 
ATOM     17  C   UNL     1     145.335 150.270 152.482  1.00  0.00     0.115 A 
BRANCH  17  18
ATOM     18  O   UNL     1     144.136 150.789 152.967  1.00  0.00    -0.508 OA
ATOM     19  H   UNL     1     143.261 150.652 152.473  1.00  0.00     0.293 HD
ENDBRANCH  17  18
ENDBRANCH   2  12
BRANCH   8  20
ATOM     20  O   UNL     1     152.653 147.044 147.648  1.00  0.00    -0.507 OA
ATOM     21  H   UNL     1     153.549 146.804 147.239  1.00  0.00     0.293 HD
ENDBRANCH   8  20
BRANCH   6  22
ATOM     22  O   UNL     1     154.499 151.042 149.630  1.00  0.00    -0.508 OA
ATOM     23  H   UNL     1     155.412 150.841 149.238  1.00  0.00     0.293 HD
ENDBRANCH   6  22
TORSDOF 4
ENDMDL
MODEL 2
REMARK VINA RESULT:    -8.908      1.520      2.013
REMARK INTER + INTRA:         -10.515
REMARK INTER:                 -10.207
REMARK INTRA:                  -0.308
REMARK UNBOUND:                -0.305
REMARK SMILES O=C1C[C@H](c2ccc(O)cc2)Oc2cc(O)cc(O)c21
REMARK SMILES IDX 3 1 4 2 12 3 13 4 14 5 15 6 17 7 18 8 20 9 2 10 1 11 5 12
REMARK SMILES IDX 6 13 11 14 7 15 10 16 8 17 9 18 19 20 16 22
REMARK H PARENT 9 19 19 21 16 23
REMARK Flexibility Score: inf
ROOT
ATOM      1  C   UNL     1     150.579 147.651 148.430  1.00  0.00     0.131 C 
ATOM      2  C   UNL     1     150.331 148.146 149.863  1.00  0.00     0.211 C 
ATOM      3  O   UNL     1     151.116 149.309 150.136  1.00  0.00    -0.484 OA
ATOM      4  C   UNL     1     152.454 149.413 149.737  1.00  0.00     0.138 A 
ATOM      5  C   UNL     1     153.262 150.409 150.292  1.00  0.00     0.093 A 
ATOM      6  C   UNL     1     154.608 150.512 149.922  1.00  0.00     0.123 A 
ATOM      7  C   UNL     1     155.142 149.620 148.988  1.00  0.00     0.093 A 
ATOM      8  C   UNL     1     154.338 148.629 148.408  1.00  0.00     0.133 A 
ATOM      9  C   UNL     1     152.979 148.525 148.778  1.00  0.00     0.102 A 
ATOM     10  C   UNL     1     152.055 147.536 148.172  1.00  0.00     0.174 C 
ATOM     11  O   UNL     1     152.479 146.633 147.401  1.00  0.00    -0.294 OA
ENDROOT
BRANCH   2  12
ATOM     12  C   UNL     1     148.868 148.446 150.079  1.00  0.00    -0.007 A 
ATOM     13  C   UNL     1     147.917 147.411 150.069  1.00  0.00     0.011 A 
ATOM     14  C   UNL     1     148.448 149.760 150.349  1.00  0.00     0.011 A 
ATOM     15  C   UNL     1     146.566 147.690 150.301  1.00  0.00     0.046 A 
ATOM     16  C   UNL     1     147.097 150.036 150.580  1.00  0.00     0.046 A 
ATOM     17  C   UNL     1     146.153 149.001 150.555  1.00  0.00     0.115 A 
BRANCH  17  18
ATOM     18  O   UNL     1     144.804 149.264 150.784  1.00  0.00    -0.508 OA
ATOM     19  H   UNL     1     144.082 148.607 150.511  1.00  0.00     0.293 HD
ENDBRANCH  17  18
ENDBRANCH   2  12
BRANCH   8  20
ATOM     20  O   UNL     1     154.887 147.760 147.464  1.00  0.00    -0.507 OA
ATOM     21  H   UNL     1     155.862 147.487 147.497  1.00  0.00     0.293 HD
ENDBRANCH   8  20
BRANCH   6  22
ATOM     22  O   UNL     1     155.423 151.496 150.478  1.00  0.00    -0.508 OA
ATOM     23  H   UNL     1     155.702 152.314 149.949  1.00  0.00     0.293 HD
ENDBRANCH   6  22
TORSDOF 4
ENDMDL
MODEL 3
REMARK VINA RESULT:    -8.660      1.551      6.618
REMARK INTER + INTRA:         -10.231
REMARK INTER:                  -9.920
REMARK INTRA:                  -0.311
REMARK UNBOUND:                -0.305
REMARK SMILES O=C1C[C@H](c2ccc(O)cc2)Oc2cc(O)cc(O)c21
REMARK SMILES IDX 3 1 4 2 12 3 13 4 14 5 15 6 17 7 18 8 20 9 2 10 1 11 5 12
REMARK SMILES IDX 6 13 11 14 7 15 10 16 8 17 9 18 19 20 16 22
REMARK H PARENT 9 19 19 21 16 23
REMARK Flexibility Score: inf
ROOT
ATOM      1  C   UNL     1     151.093 148.094 148.700  1.00  0.00     0.131 C 
ATOM      2  C   UNL     1     151.373 149.533 149.157  1.00  0.00     0.211 C 
ATOM      3  O   UNL     1     150.730 149.799 150.407  1.00  0.00    -0.484 OA
ATOM      4  C   UNL     1     149.422 149.377 150.673  1.00  0.00     0.138 A 
ATOM      5  C   UNL     1     148.730 149.923 151.757  1.00  0.00     0.093 A 
ATOM      6  C   UNL     1     147.414 149.530 152.023  1.00  0.00     0.123 A 
ATOM      7  C   UNL     1     146.793 148.582 151.206  1.00  0.00     0.093 A 
ATOM      8  C   UNL     1     147.481 148.011 150.126  1.00  0.00     0.133 A 
ATOM      9  C   UNL     1     148.810 148.404 149.857  1.00  0.00     0.102 A 
ATOM     10  C   UNL     1     149.619 147.810 148.765  1.00  0.00     0.174 C 
ATOM     11  O   UNL     1     149.103 147.027 147.923  1.00  0.00    -0.294 OA
ENDROOT
BRANCH   2  12
ATOM     12  C   UNL     1     152.858 149.776 149.278  1.00  0.00    -0.007 A 
ATOM     13  C   UNL     1     153.761 149.116 148.427  1.00  0.00     0.011 A 
ATOM     14  C   UNL     1     153.348 150.710 150.206  1.00  0.00     0.011 A 
ATOM     15  C   UNL     1     155.134 149.368 148.522  1.00  0.00     0.046 A 
ATOM     16  C   UNL     1     154.721 150.960 150.299  1.00  0.00     0.046 A 
ATOM     17  C   UNL     1     155.618 150.287 149.457  1.00  0.00     0.115 A 
BRANCH  17  18
ATOM     18  O   UNL     1     156.987 150.528 149.540  1.00  0.00    -0.508 OA
ATOM     19  H   UNL     1     157.421 150.827 150.407  1.00  0.00     0.293 HD
ENDBRANCH  17  18
ENDBRANCH   2  12
BRANCH   8  20
ATOM     20  O   UNL     1     146.848 147.054 149.333  1.00  0.00    -0.507 OA
ATOM     21  H   UNL     1     147.371 146.451 148.708  1.00  0.00     0.293 HD
ENDBRANCH   8  20
BRANCH   6  22
ATOM     22  O   UNL     1     146.714 150.076 153.097  1.00  0.00    -0.508 OA
ATOM     23  H   UNL     1     146.191 149.494 153.740  1.00  0.00     0.293 HD
ENDBRANCH   6  22
TORSDOF 4
ENDMDL
MODEL 4
REMARK VINA RESULT:    -8.306      1.307      2.998
REMARK INTER + INTRA:          -9.824
REMARK INTER:                  -9.515
REMARK INTRA:                  -0.309
REMARK UNBOUND:                -0.305
REMARK SMILES O=C1C[C@H](c2ccc(O)cc2)Oc2cc(O)cc(O)c21
REMARK SMILES IDX 3 1 4 2 12 3 13 4 14 5 15 6 17 7 18 8 20 9 2 10 1 11 5 12
REMARK SMILES IDX 6 13 11 14 7 15 10 16 8 17 9 18 19 20 16 22
REMARK H PARENT 9 19 19 21 16 23
REMARK Flexibility Score: inf
ROOT
ATOM      1  C   UNL     1     150.217 150.028 151.096  1.00  0.00     0.131 C 
ATOM      2  C   UNL     1     149.021 149.764 150.169  1.00  0.00     0.211 C 
ATOM      3  O   UNL     1     149.159 148.498 149.519  1.00  0.00    -0.484 OA
ATOM      4  C   UNL     1     150.380 148.065 148.987  1.00  0.00     0.138 A 
ATOM      5  C   UNL     1     150.399 146.989 148.096  1.00  0.00     0.093 A 
ATOM      6  C   UNL     1     151.607 146.559 147.537  1.00  0.00     0.123 A 
ATOM      7  C   UNL     1     152.800 147.203 147.878  1.00  0.00     0.093 A 
ATOM      8  C   UNL     1     152.798 148.271 148.786  1.00  0.00     0.133 A 
ATOM      9  C   UNL     1     151.580 148.706 149.353  1.00  0.00     0.102 A 
ATOM     10  C   UNL     1     151.505 149.794 150.357  1.00  0.00     0.174 C 
ATOM     11  O   UNL     1     152.515 150.491 150.641  1.00  0.00    -0.294 OA
ENDROOT
BRANCH   2  12
ATOM     12  C   UNL     1     147.725 149.810 150.942  1.00  0.00    -0.007 A 
ATOM     13  C   UNL     1     147.623 150.571 152.120  1.00  0.00     0.011 A 
ATOM     14  C   UNL     1     146.590 149.138 150.459  1.00  0.00     0.011 A 
ATOM     15  C   UNL     1     146.411 150.636 152.815  1.00  0.00     0.046 A 
ATOM     16  C   UNL     1     145.380 149.204 151.157  1.00  0.00     0.046 A 
ATOM     17  C   UNL     1     145.289 149.953 152.338  1.00  0.00     0.115 A 
BRANCH  17  18
ATOM     18  O   UNL     1     144.088 150.027 153.041  1.00  0.00    -0.508 OA
ATOM     19  H   UNL     1     144.055 149.905 154.047  1.00  0.00     0.293 HD
ENDBRANCH  17  18
ENDBRANCH   2  12
BRANCH   8  20
ATOM     20  O   UNL     1     154.001 148.889 149.126  1.00  0.00    -0.507 OA
ATOM     21  H   UNL     1     154.111 149.398 149.996  1.00  0.00     0.293 HD
ENDBRANCH   8  20
BRANCH   6  22
ATOM     22  O   UNL     1     151.634 145.493 146.640  1.00  0.00    -0.508 OA
ATOM     23  H   UNL     1     150.790 144.994 146.384  1.00  0.00     0.293 HD
ENDBRANCH   6  22
TORSDOF 4
ENDMDL
MODEL 5
REMARK VINA RESULT:    -7.897      1.990      7.358
REMARK INTER + INTRA:          -9.356
REMARK INTER:                  -9.048
REMARK INTRA:                  -0.308
REMARK UNBOUND:                -0.305
REMARK SMILES O=C1C[C@H](c2ccc(O)cc2)Oc2cc(O)cc(O)c21
REMARK SMILES IDX 3 1 4 2 12 3 13 4 14 5 15 6 17 7 18 8 20 9 2 10 1 11 5 12
REMARK SMILES IDX 6 13 11 14 7 15 10 16 8 17 9 18 19 20 16 22
REMARK H PARENT 9 19 19 21 16 23
REMARK Flexibility Score: inf
ROOT
ATOM      1  C   UNL     1     148.961 149.578 150.670  1.00  0.00     0.131 C 
ATOM      2  C   UNL     1     149.252 148.076 150.538  1.00  0.00     0.211 C 
ATOM      3  O   UNL     1     148.157 147.404 149.911  1.00  0.00    -0.484 OA
ATOM      4  C   UNL     1     146.825 147.684 150.241  1.00  0.00     0.138 A 
ATOM      5  C   UNL     1     145.818 146.799 149.849  1.00  0.00     0.093 A 
ATOM      6  C   UNL     1     144.485 147.052 150.191  1.00  0.00     0.123 A 
ATOM      7  C   UNL     1     144.161 148.198 150.922  1.00  0.00     0.093 A 
ATOM      8  C   UNL     1     145.159 149.105 151.306  1.00  0.00     0.133 A 
ATOM      9  C   UNL     1     146.504 148.853 150.960  1.00  0.00     0.102 A 
ATOM     10  C   UNL     1     147.607 149.789 151.286  1.00  0.00     0.174 C 
ATOM     11  O   UNL     1     147.415 150.790 152.028  1.00  0.00    -0.294 OA
ENDROOT
BRANCH   2  12
ATOM     12  C   UNL     1     150.520 147.843 149.753  1.00  0.00    -0.007 A 
ATOM     13  C   UNL     1     151.506 148.843 149.677  1.00  0.00     0.011 A 
ATOM     14  C   UNL     1     150.752 146.602 149.136  1.00  0.00     0.011 A 
ATOM     15  C   UNL     1     152.693 148.611 148.974  1.00  0.00     0.046 A 
ATOM     16  C   UNL     1     151.940 146.374 148.434  1.00  0.00     0.046 A 
ATOM     17  C   UNL     1     152.913 147.380 148.351  1.00  0.00     0.115 A 
BRANCH  17  18
ATOM     18  O   UNL     1     154.099 147.164 147.654  1.00  0.00    -0.508 OA
ATOM     19  H   UNL     1     154.694 147.934 147.368  1.00  0.00     0.293 HD
ENDBRANCH  17  18
ENDBRANCH   2  12
BRANCH   8  20
ATOM     20  O   UNL     1     144.811 150.251 152.021  1.00  0.00    -0.507 OA
ATOM     21  H   UNL     1     144.565 150.212 153.003  1.00  0.00     0.293 HD
ENDBRANCH   8  20
BRANCH   6  22
ATOM     22  O   UNL     1     143.476 146.170 149.812  1.00  0.00    -0.508 OA
ATOM     23  H   UNL     1     142.616 146.499 149.388  1.00  0.00     0.293 HD
ENDBRANCH   6  22
TORSDOF 4
ENDMDL
MODEL 6
REMARK VINA RESULT:    -7.830      1.818      3.498
REMARK INTER + INTRA:          -9.279
REMARK INTER:                  -8.960
REMARK INTRA:                  -0.319
REMARK UNBOUND:                -0.305
REMARK SMILES O=C1C[C@H](c2ccc(O)cc2)Oc2cc(O)cc(O)c21
REMARK SMILES IDX 3 1 4 2 12 3 13 4 14 5 15 6 17 7 18 8 20 9 2 10 1 11 5 12
REMARK SMILES IDX 6 13 11 14 7 15 10 16 8 17 9 18 19 20 16 22
REMARK H PARENT 9 19 19 21 16 23
REMARK Flexibility Score: inf
ROOT
ATOM      1  C   UNL     1     149.936 148.805 150.382  1.00  0.00     0.131 C 
ATOM      2  C   UNL     1     148.625 149.062 149.623  1.00  0.00     0.211 C 
ATOM      3  O   UNL     1     148.230 147.897 148.894  1.00  0.00    -0.484 OA
ATOM      4  C   UNL     1     149.148 147.126 148.171  1.00  0.00     0.138 A 
ATOM      5  C   UNL     1     148.682 146.204 147.231  1.00  0.00     0.093 A 
ATOM      6  C   UNL     1     149.586 145.442 146.482  1.00  0.00     0.123 A 
ATOM      7  C   UNL     1     150.960 145.600 146.683  1.00  0.00     0.093 A 
ATOM      8  C   UNL     1     151.442 146.508 147.637  1.00  0.00     0.133 A 
ATOM      9  C   UNL     1     150.531 147.275 148.395  1.00  0.00     0.102 A 
ATOM     10  C   UNL     1     150.962 148.218 149.455  1.00  0.00     0.174 C 
ATOM     11  O   UNL     1     152.180 148.493 149.628  1.00  0.00    -0.294 OA
ENDROOT
BRANCH   2  12
ATOM     12  C   UNL     1     147.528 149.474 150.575  1.00  0.00    -0.007 A 
ATOM     13  C   UNL     1     146.247 148.903 150.478  1.00  0.00     0.011 A 
ATOM     14  C   UNL     1     147.794 150.392 151.605  1.00  0.00     0.011 A 
ATOM     15  C   UNL     1     145.242 149.266 151.382  1.00  0.00     0.046 A 
ATOM     16  C   UNL     1     146.788 150.752 152.507  1.00  0.00     0.046 A 
ATOM     17  C   UNL     1     145.508 150.190 152.396  1.00  0.00     0.115 A 
BRANCH  17  18
ATOM     18  O   UNL     1     144.499 150.542 153.288  1.00  0.00    -0.508 OA
ATOM     19  H   UNL     1     144.286 149.971 154.100  1.00  0.00     0.293 HD
ENDBRANCH  17  18
ENDBRANCH   2  12
BRANCH   8  20
ATOM     20  O   UNL     1     152.817 146.637 147.833  1.00  0.00    -0.507 OA
ATOM     21  H   UNL     1     153.487 146.214 147.201  1.00  0.00     0.293 HD
ENDBRANCH   8  20
BRANCH   6  22
ATOM     22  O   UNL     1     149.130 144.527 145.536  1.00  0.00    -0.508 OA
ATOM     23  H   UNL     1     148.637 144.827 144.703  1.00  0.00     0.293 HD
ENDBRANCH   6  22
TORSDOF 4
ENDMDL
MODEL 7
REMARK VINA RESULT:    -7.729      1.737      6.757
REMARK INTER + INTRA:          -9.164
REMARK INTER:                  -8.854
REMARK INTRA:                  -0.310
REMARK UNBOUND:                -0.305
REMARK SMILES O=C1C[C@H](c2ccc(O)cc2)Oc2cc(O)cc(O)c21
REMARK SMILES IDX 3 1 4 2 12 3 13 4 14 5 15 6 17 7 18 8 20 9 2 10 1 11 5 12
REMARK SMILES IDX 6 13 11 14 7 15 10 16 8 17 9 18 19 20 16 22
REMARK H PARENT 9 19 19 21 16 23
REMARK Flexibility Score: inf
ROOT
ATOM      1  C   UNL     1     147.487 147.423 149.732  1.00  0.00     0.131 C 
ATOM      2  C   UNL     1     148.422 148.630 149.565  1.00  0.00     0.211 C 
ATOM      3  O   UNL     1     148.472 149.400 150.769  1.00  0.00    -0.484 OA
ATOM      4  C   UNL     1     147.322 149.687 151.515  1.00  0.00     0.138 A 
ATOM      5  C   UNL     1     147.367 150.690 152.487  1.00  0.00     0.093 A 
ATOM      6  C   UNL     1     146.221 151.006 153.225  1.00  0.00     0.123 A 
ATOM      7  C   UNL     1     145.030 150.311 152.993  1.00  0.00     0.093 A 
ATOM      8  C   UNL     1     144.977 149.290 152.034  1.00  0.00     0.133 A 
ATOM      9  C   UNL     1     146.132 148.967 151.290  1.00  0.00     0.102 A 
ATOM     10  C   UNL     1     146.167 147.868 150.296  1.00  0.00     0.174 C 
ATOM     11  O   UNL     1     145.115 147.263 149.955  1.00  0.00    -0.294 OA
ENDROOT
BRANCH   2  12
ATOM     12  C   UNL     1     149.811 148.182 149.179  1.00  0.00    -0.007 A 
ATOM     13  C   UNL     1     150.003 146.988 148.461  1.00  0.00     0.011 A 
ATOM     14  C   UNL     1     150.924 148.983 149.486  1.00  0.00     0.011 A 
ATOM     15  C   UNL     1     151.289 146.592 148.079  1.00  0.00     0.046 A 
ATOM     16  C   UNL     1     152.208 148.584 149.104  1.00  0.00     0.046 A 
ATOM     17  C   UNL     1     152.393 147.386 148.400  1.00  0.00     0.115 A 
BRANCH  17  18
ATOM     18  O   UNL     1     153.668 146.980 148.014  1.00  0.00    -0.508 OA
ATOM     19  H   UNL     1     154.439 147.636 147.955  1.00  0.00     0.293 HD
ENDBRANCH  17  18
ENDBRANCH   2  12
BRANCH   8  20
ATOM     20  O   UNL     1     143.783 148.597 151.830  1.00  0.00    -0.507 OA
ATOM     21  H   UNL     1     143.187 148.788 151.033  1.00  0.00     0.293 HD
ENDBRANCH   8  20
BRANCH   6  22
ATOM     22  O   UNL     1     146.253 152.011 154.190  1.00  0.00    -0.508 OA
ATOM     23  H   UNL     1     146.663 152.918 153.997  1.00  0.00     0.293 HD
ENDBRANCH   6  22
TORSDOF 4
ENDMDL
MODEL 8
REMARK VINA RESULT:    -7.475      1.779      7.012
REMARK INTER + INTRA:          -8.873
REMARK INTER:                  -8.557
REMARK INTRA:                  -0.316
REMARK UNBOUND:                -0.305
REMARK SMILES O=C1C[C@H](c2ccc(O)cc2)Oc2cc(O)cc(O)c21
REMARK SMILES IDX 3 1 4 2 12 3 13 4 14 5 15 6 17 7 18 8 20 9 2 10 1 11 5 12
REMARK SMILES IDX 6 13 11 14 7 15 10 16 8 17 9 18 19 20 16 22
REMARK H PARENT 9 19 19 21 16 23
REMARK Flexibility Score: inf
ROOT
ATOM      1  C   UNL     1     149.949 150.493 151.141  1.00  0.00     0.131 C 
ATOM      2  C   UNL     1     150.516 149.116 150.763  1.00  0.00     0.211 C 
ATOM      3  O   UNL     1     149.573 148.382 149.979  1.00  0.00    -0.484 OA
ATOM      4  C   UNL     1     148.209 148.354 150.291  1.00  0.00     0.138 A 
ATOM      5  C   UNL     1     147.389 147.386 149.705  1.00  0.00     0.093 A 
ATOM      6  C   UNL     1     146.028 147.329 150.024  1.00  0.00     0.123 A 
ATOM      7  C   UNL     1     145.486 148.247 150.928  1.00  0.00     0.093 A 
ATOM      8  C   UNL     1     146.293 149.235 151.510  1.00  0.00     0.133 A 
ATOM      9  C   UNL     1     147.666 149.297 151.187  1.00  0.00     0.102 A 
ATOM     10  C   UNL     1     148.572 150.342 151.722  1.00  0.00     0.174 C 
ATOM     11  O   UNL     1     148.188 151.142 152.618  1.00  0.00    -0.294 OA
ENDROOT
BRANCH   2  12
ATOM     12  C   UNL     1     151.815 149.262 150.009  1.00  0.00    -0.007 A 
ATOM     13  C   UNL     1     152.193 148.310 149.046  1.00  0.00     0.011 A 
ATOM     14  C   UNL     1     152.635 150.383 150.222  1.00  0.00     0.011 A 
ATOM     15  C   UNL     1     153.383 148.466 148.327  1.00  0.00     0.046 A 
ATOM     16  C   UNL     1     153.824 150.536 149.503  1.00  0.00     0.046 A 
ATOM     17  C   UNL     1     154.201 149.575 148.554  1.00  0.00     0.115 A 
BRANCH  17  18
ATOM     18  O   UNL     1     155.383 149.717 147.831  1.00  0.00    -0.508 OA
ATOM     19  H   UNL     1     155.868 148.915 147.444  1.00  0.00     0.293 HD
ENDBRANCH  17  18
ENDBRANCH   2  12
BRANCH   8  20
ATOM     20  O   UNL     1     145.730 150.153 152.396  1.00  0.00    -0.507 OA
ATOM     21  H   UNL     1     145.792 151.152 152.239  1.00  0.00     0.293 HD
ENDBRANCH   8  20
BRANCH   6  22
ATOM     22  O   UNL     1     145.204 146.362 149.451  1.00  0.00    -0.508 OA
ATOM     23  H   UNL     1     144.308 146.603 149.044  1.00  0.00     0.293 HD
ENDBRANCH   6  22
TORSDOF 4
ENDMDL
MODEL 9
REMARK VINA RESULT:    -7.309      2.076      3.525
REMARK INTER + INTRA:          -8.682
REMARK INTER:                  -8.376
REMARK INTRA:                  -0.307
REMARK UNBOUND:                -0.305
REMARK SMILES O=C1C[C@H](c2ccc(O)cc2)Oc2cc(O)cc(O)c21
REMARK SMILES IDX 3 1 4 2 12 3 13 4 14 5 15 6 17 7 18 8 20 9 2 10 1 11 5 12
REMARK SMILES IDX 6 13 11 14 7 15 10 16 8 17 9 18 19 20 16 22
REMARK H PARENT 9 19 19 21 16 23
REMARK Flexibility Score: inf
ROOT
ATOM      1  C   UNL     1     148.194 149.373 151.802  1.00  0.00     0.131 C 
ATOM      2  C   UNL     1     147.724 149.056 150.374  1.00  0.00     0.211 C 
ATOM      3  O   UNL     1     148.733 148.335 149.661  1.00  0.00    -0.484 OA
ATOM      4  C   UNL     1     150.087 148.683 149.736  1.00  0.00     0.138 A 
ATOM      5  C   UNL     1     150.981 148.169 148.793  1.00  0.00     0.093 A 
ATOM      6  C   UNL     1     152.334 148.524 148.839  1.00  0.00     0.123 A 
ATOM      7  C   UNL     1     152.792 149.390 149.836  1.00  0.00     0.093 A 
ATOM      8  C   UNL     1     151.909 149.898 150.800  1.00  0.00     0.133 A 
ATOM      9  C   UNL     1     150.545 149.539 150.757  1.00  0.00     0.102 A 
ATOM     10  C   UNL     1     149.562 149.995 151.769  1.00  0.00     0.174 C 
ATOM     11  O   UNL     1     149.870 150.855 152.637  1.00  0.00    -0.294 OA
ENDROOT
BRANCH   2  12
ATOM     12  C   UNL     1     146.440 148.264 150.397  1.00  0.00    -0.007 A 
ATOM     13  C   UNL     1     145.227 148.879 150.754  1.00  0.00     0.011 A 
ATOM     14  C   UNL     1     146.435 146.914 150.007  1.00  0.00     0.011 A 
ATOM     15  C   UNL     1     144.034 148.148 150.743  1.00  0.00     0.046 A 
ATOM     16  C   UNL     1     145.241 146.186 149.998  1.00  0.00     0.046 A 
ATOM     17  C   UNL     1     144.038 146.802 150.368  1.00  0.00     0.115 A 
BRANCH  17  18
ATOM     18  O   UNL     1     142.843 146.086 150.363  1.00  0.00    -0.508 OA
ATOM     19  H   UNL     1     142.674 145.342 149.695  1.00  0.00     0.293 HD
ENDBRANCH  17  18
ENDBRANCH   2  12
BRANCH   8  20
ATOM     20  O   UNL     1     152.390 150.747 151.796  1.00  0.00    -0.507 OA
ATOM     21  H   UNL     1     153.303 151.183 151.729  1.00  0.00     0.293 HD
ENDBRANCH   8  20
BRANCH   6  22
ATOM     22  O   UNL     1     153.231 148.024 147.898  1.00  0.00    -0.508 OA
ATOM     23  H   UNL     1     153.694 147.132 148.029  1.00  0.00     0.293 HD
ENDBRANCH   6  22
TORSDOF 4
ENDMDL
