MODEL 1
REMARK VINA RESULT:    -3.732      0.000      0.000
REMARK INTER + INTRA:          -5.874
REMARK INTER:                  -5.260
REMARK INTRA:                  -0.614
REMARK UNBOUND:                -0.614
REMARK SMILES C=CCCCCCCC(=O)[O-]
REMARK SMILES IDX 6 1 7 2 8 3 9 4 10 5 11 6 5 7 4 8 3 9 2 10 1 11
REMARK H PARENT
REMARK Flexibility Score: inf
ROOT
ATOM      1  C   UNL     1     -42.560  27.776   0.998  1.00  0.00     0.000 C 
ENDROOT
BRANCH   1   2
ATOM      2  C   UNL     1     -43.188  28.884   1.858  1.00  0.00     0.006 C 
BRANCH   2   3
ATOM      3  C   UNL     1     -43.544  28.393   3.267  1.00  0.00     0.053 C 
BRANCH   3   4
ATOM      4  C   UNL     1     -44.563  27.297   3.232  1.00  0.00     0.041 C 
ATOM      5  O   UNL     1     -45.768  27.560   2.976  1.00  0.00    -0.550 OA
ATOM      6  O   UNL     1     -44.178  25.980   3.448  1.00  0.00    -0.550 OA
ENDBRANCH   3   4
ENDBRANCH   2   3
ENDBRANCH   1   2
BRANCH   1   7
ATOM      7  C   UNL     1     -43.183  27.747  -0.402  1.00  0.00     0.000 C 
BRANCH   7   8
ATOM      8  C   UNL     1     -44.609  28.309  -0.383  1.00  0.00     0.004 C 
BRANCH   8   9
ATOM      9  C   UNL     1     -45.644  27.189  -0.543  1.00  0.00     0.027 C 
BRANCH   9  10
ATOM     10  C   UNL     1     -45.147  26.116  -1.472  1.00  0.00    -0.035 C 
ATOM     11  C   UNL     1     -45.690  25.922  -2.678  1.00  0.00     0.004 C 
ENDBRANCH   9  10
ENDBRANCH   8   9
ENDBRANCH   7   8
ENDBRANCH   1   7
TORSDOF 7
ENDMDL
MODEL 2
REMARK VINA RESULT:    -3.722      0.283      1.016
REMARK INTER + INTRA:          -5.860
REMARK INTER:                  -5.355
REMARK INTRA:                  -0.505
REMARK UNBOUND:                -0.614
REMARK SMILES C=CCCCCCCC(=O)[O-]
REMARK SMILES IDX 6 1 7 2 8 3 9 4 10 5 11 6 5 7 4 8 3 9 2 10 1 11
REMARK H PARENT
REMARK Flexibility Score: inf
ROOT
ATOM      1  C   UNL     1     -42.647  27.695   1.158  1.00  0.00     0.000 C 
ENDROOT
BRANCH   1   2
ATOM      2  C   UNL     1     -43.071  28.889   2.027  1.00  0.00     0.006 C 
BRANCH   2   3
ATOM      3  C   UNL     1     -43.600  28.449   3.398  1.00  0.00     0.053 C 
BRANCH   3   4
ATOM      4  C   UNL     1     -44.607  27.348   3.277  1.00  0.00     0.041 C 
ATOM      5  O   UNL     1     -44.279  26.157   3.526  1.00  0.00    -0.550 OA
ATOM      6  O   UNL     1     -45.918  27.639   2.921  1.00  0.00    -0.550 OA
ENDBRANCH   3   4
ENDBRANCH   2   3
ENDBRANCH   1   2
BRANCH   1   7
ATOM      7  C   UNL     1     -43.014  27.927  -0.313  1.00  0.00     0.000 C 
BRANCH   7   8
ATOM      8  C   UNL     1     -44.430  28.499  -0.444  1.00  0.00     0.004 C 
BRANCH   8   9
ATOM      9  C   UNL     1     -45.471  27.376  -0.532  1.00  0.00     0.027 C 
BRANCH   9  10
ATOM     10  C   UNL     1     -44.954  26.216  -1.337  1.00  0.00    -0.035 C 
ATOM     11  C   UNL     1     -45.744  25.528  -2.167  1.00  0.00     0.004 C 
ENDBRANCH   9  10
ENDBRANCH   8   9
ENDBRANCH   7   8
ENDBRANCH   1   7
TORSDOF 7
ENDMDL
MODEL 3
REMARK VINA RESULT:    -3.673      0.664      1.468
REMARK INTER + INTRA:          -5.791
REMARK INTER:                  -5.306
REMARK INTRA:                  -0.485
REMARK UNBOUND:                -0.614
REMARK SMILES C=CCCCCCCC(=O)[O-]
REMARK SMILES IDX 6 1 7 2 8 3 9 4 10 5 11 6 5 7 4 8 3 9 2 10 1 11
REMARK H PARENT
REMARK Flexibility Score: inf
ROOT
ATOM      1  C   UNL     1     -42.966  27.801  -0.310  1.00  0.00     0.000 C 
ENDROOT
BRANCH   1   2
ATOM      2  C   UNL     1     -42.580  27.786   1.177  1.00  0.00     0.006 C 
BRANCH   2   3
ATOM      3  C   UNL     1     -43.659  28.424   2.062  1.00  0.00     0.053 C 
BRANCH   3   4
ATOM      4  C   UNL     1     -44.637  27.408   2.564  1.00  0.00     0.041 C 
ATOM      5  O   UNL     1     -44.229  26.365   3.142  1.00  0.00    -0.550 OA
ATOM      6  O   UNL     1     -46.002  27.627   2.426  1.00  0.00    -0.550 OA
ENDBRANCH   3   4
ENDBRANCH   2   3
ENDBRANCH   1   2
BRANCH   1   7
ATOM      7  C   UNL     1     -44.171  28.717  -0.556  1.00  0.00     0.000 C 
BRANCH   7   8
ATOM      8  C   UNL     1     -45.334  27.940  -1.184  1.00  0.00     0.004 C 
BRANCH   8   9
ATOM      9  C   UNL     1     -45.045  26.434  -1.200  1.00  0.00     0.027 C 
BRANCH   9  10
ATOM     10  C   UNL     1     -45.651  25.776  -2.408  1.00  0.00    -0.035 C 
ATOM     11  C   UNL     1     -46.228  26.486  -3.382  1.00  0.00     0.004 C 
ENDBRANCH   9  10
ENDBRANCH   8   9
ENDBRANCH   7   8
ENDBRANCH   1   7
TORSDOF 7
ENDMDL
MODEL 4
REMARK VINA RESULT:    -3.538      2.320      3.928
REMARK INTER + INTRA:          -5.601
REMARK INTER:                  -5.364
REMARK INTRA:                  -0.237
REMARK UNBOUND:                -0.614
REMARK SMILES C=CCCCCCCC(=O)[O-]
REMARK SMILES IDX 6 1 7 2 8 3 9 4 10 5 11 6 5 7 4 8 3 9 2 10 1 11
REMARK H PARENT
REMARK Flexibility Score: inf
ROOT
ATOM      1  C   UNL     1     -45.234  25.879  -1.737  1.00  0.00     0.000 C 
ENDROOT
BRANCH   1   2
ATOM      2  C   UNL     1     -45.061  27.233  -1.032  1.00  0.00     0.006 C 
BRANCH   2   3
ATOM      3  C   UNL     1     -43.691  27.363  -0.355  1.00  0.00     0.053 C 
BRANCH   3   4
ATOM      4  C   UNL     1     -43.814  27.446   1.135  1.00  0.00     0.041 C 
ATOM      5  O   UNL     1     -42.851  27.868   1.829  1.00  0.00    -0.550 OA
ATOM      6  O   UNL     1     -45.005  27.090   1.756  1.00  0.00    -0.550 OA
ENDBRANCH   3   4
ENDBRANCH   2   3
ENDBRANCH   1   2
BRANCH   1   7
ATOM      7  C   UNL     1     -46.463  25.889  -2.654  1.00  0.00     0.000 C 
BRANCH   7   8
ATOM      8  C   UNL     1     -46.366  27.011  -3.695  1.00  0.00     0.004 C 
BRANCH   8   9
ATOM      9  C   UNL     1     -46.684  26.486  -5.100  1.00  0.00     0.027 C 
BRANCH   9  10
ATOM     10  C   UNL     1     -46.015  27.319  -6.158  1.00  0.00    -0.035 C 
ATOM     11  C   UNL     1     -45.440  26.767  -7.231  1.00  0.00     0.004 C 
ENDBRANCH   9  10
ENDBRANCH   8   9
ENDBRANCH   7   8
ENDBRANCH   1   7
TORSDOF 7
ENDMDL
MODEL 5
REMARK VINA RESULT:    -3.499      4.964      7.213
REMARK INTER + INTRA:          -5.545
REMARK INTER:                  -5.190
REMARK INTRA:                  -0.355
REMARK UNBOUND:                -0.614
REMARK SMILES C=CCCCCCCC(=O)[O-]
REMARK SMILES IDX 6 1 7 2 8 3 9 4 10 5 11 6 5 7 4 8 3 9 2 10 1 11
REMARK H PARENT
REMARK Flexibility Score: inf
ROOT
ATOM      1  C   UNL     1     -46.286  27.717  -3.285  1.00  0.00     0.000 C 
ENDROOT
BRANCH   1   2
ATOM      2  C   UNL     1     -46.366  27.830  -4.815  1.00  0.00     0.006 C 
BRANCH   2   3
ATOM      3  C   UNL     1     -46.148  26.479  -5.509  1.00  0.00     0.053 C 
BRANCH   3   4
ATOM      4  C   UNL     1     -45.819  26.647  -6.960  1.00  0.00     0.041 C 
ATOM      5  O   UNL     1     -45.208  27.674  -7.357  1.00  0.00    -0.550 OA
ATOM      6  O   UNL     1     -46.157  25.653  -7.869  1.00  0.00    -0.550 OA
ENDBRANCH   3   4
ENDBRANCH   2   3
ENDBRANCH   1   2
BRANCH   1   7
ATOM      7  C   UNL     1     -46.249  26.249  -2.844  1.00  0.00     0.000 C 
BRANCH   7   8
ATOM      8  C   UNL     1     -45.255  26.044  -1.694  1.00  0.00     0.004 C 
BRANCH   8   9
ATOM      9  C   UNL     1     -44.844  27.386  -1.076  1.00  0.00     0.027 C 
BRANCH   9  10
ATOM     10  C   UNL     1     -43.586  27.250  -0.265  1.00  0.00    -0.035 C 
ATOM     11  C   UNL     1     -42.732  28.268  -0.113  1.00  0.00     0.004 C 
ENDBRANCH   9  10
ENDBRANCH   8   9
ENDBRANCH   7   8
ENDBRANCH   1   7
TORSDOF 7
ENDMDL
MODEL 6
REMARK VINA RESULT:    -3.400      2.104      2.753
REMARK INTER + INTRA:          -5.405
REMARK INTER:                  -5.054
REMARK INTRA:                  -0.351
REMARK UNBOUND:                -0.614
REMARK SMILES C=CCCCCCCC(=O)[O-]
REMARK SMILES IDX 6 1 7 2 8 3 9 4 10 5 11 6 5 7 4 8 3 9 2 10 1 11
REMARK H PARENT
REMARK Flexibility Score: inf
ROOT
ATOM      1  C   UNL     1     -44.105  28.209   2.846  1.00  0.00     0.000 C 
ENDROOT
BRANCH   1   2
ATOM      2  C   UNL     1     -43.143  28.848   3.859  1.00  0.00     0.006 C 
BRANCH   2   3
ATOM      3  C   UNL     1     -43.758  28.943   5.261  1.00  0.00     0.053 C 
BRANCH   3   4
ATOM      4  C   UNL     1     -43.210  27.895   6.180  1.00  0.00     0.041 C 
ATOM      5  O   UNL     1     -43.734  26.751   6.221  1.00  0.00    -0.550 OA
ATOM      6  O   UNL     1     -42.100  28.171   6.968  1.00  0.00    -0.550 OA
ENDBRANCH   3   4
ENDBRANCH   2   3
ENDBRANCH   1   2
BRANCH   1   7
ATOM      7  C   UNL     1     -43.380  27.178   1.973  1.00  0.00     0.000 C 
BRANCH   7   8
ATOM      8  C   UNL     1     -42.593  27.863   0.849  1.00  0.00     0.004 C 
BRANCH   8   9
ATOM      9  C   UNL     1     -43.422  27.933  -0.439  1.00  0.00     0.027 C 
BRANCH   9  10
ATOM     10  C   UNL     1     -44.362  26.765  -0.547  1.00  0.00    -0.035 C 
ATOM     11  C   UNL     1     -45.285  26.691  -1.510  1.00  0.00     0.004 C 
ENDBRANCH   9  10
ENDBRANCH   8   9
ENDBRANCH   7   8
ENDBRANCH   1   7
TORSDOF 7
ENDMDL
MODEL 7
REMARK VINA RESULT:    -3.309      1.904      4.662
REMARK INTER + INTRA:          -5.277
REMARK INTER:                  -4.782
REMARK INTRA:                  -0.495
REMARK UNBOUND:                -0.614
REMARK SMILES C=CCCCCCCC(=O)[O-]
REMARK SMILES IDX 6 1 7 2 8 3 9 4 10 5 11 6 5 7 4 8 3 9 2 10 1 11
REMARK H PARENT
REMARK Flexibility Score: inf
ROOT
ATOM      1  C   UNL     1     -42.809  27.589   1.344  1.00  0.00     0.000 C 
ENDROOT
BRANCH   1   2
ATOM      2  C   UNL     1     -42.843  27.826  -0.174  1.00  0.00     0.006 C 
BRANCH   2   3
ATOM      3  C   UNL     1     -44.259  28.125  -0.683  1.00  0.00     0.053 C 
BRANCH   3   4
ATOM      4  C   UNL     1     -45.185  26.970  -0.457  1.00  0.00     0.041 C 
ATOM      5  O   UNL     1     -45.035  25.900  -1.105  1.00  0.00    -0.550 OA
ATOM      6  O   UNL     1     -46.194  27.062   0.494  1.00  0.00    -0.550 OA
ENDBRANCH   3   4
ENDBRANCH   2   3
ENDBRANCH   1   2
BRANCH   1   7
ATOM      7  C   UNL     1     -43.070  28.892   2.110  1.00  0.00     0.000 C 
BRANCH   7   8
ATOM      8  C   UNL     1     -43.442  28.608   3.570  1.00  0.00     0.004 C 
BRANCH   8   9
ATOM      9  C   UNL     1     -44.489  27.491   3.664  1.00  0.00     0.027 C 
BRANCH   9  10
ATOM     10  C   UNL     1     -44.786  27.142   5.095  1.00  0.00    -0.035 C 
ATOM     11  C   UNL     1     -43.850  27.213   6.047  1.00  0.00     0.004 C 
ENDBRANCH   9  10
ENDBRANCH   8   9
ENDBRANCH   7   8
ENDBRANCH   1   7
TORSDOF 7
ENDMDL
MODEL 8
REMARK VINA RESULT:    -3.297      1.461      2.512
REMARK INTER + INTRA:          -5.261
REMARK INTER:                  -4.560
REMARK INTRA:                  -0.700
REMARK UNBOUND:                -0.614
REMARK SMILES C=CCCCCCCC(=O)[O-]
REMARK SMILES IDX 6 1 7 2 8 3 9 4 10 5 11 6 5 7 4 8 3 9 2 10 1 11
REMARK H PARENT
REMARK Flexibility Score: inf
ROOT
ATOM      1  C   UNL     1     -42.959  29.138   3.221  1.00  0.00     0.000 C 
ENDROOT
BRANCH   1   2
ATOM      2  C   UNL     1     -44.376  29.352   3.776  1.00  0.00     0.006 C 
BRANCH   2   3
ATOM      3  C   UNL     1     -45.227  28.079   3.697  1.00  0.00     0.053 C 
BRANCH   3   4
ATOM      4  C   UNL     1     -44.484  26.881   4.201  1.00  0.00     0.041 C 
ATOM      5  O   UNL     1     -44.161  25.955   3.411  1.00  0.00    -0.550 OA
ATOM      6  O   UNL     1     -44.116  26.802   5.539  1.00  0.00    -0.550 OA
ENDBRANCH   3   4
ENDBRANCH   2   3
ENDBRANCH   1   2
BRANCH   1   7
ATOM      7  C   UNL     1     -42.665  30.114   2.075  1.00  0.00     0.000 C 
BRANCH   7   8
ATOM      8  C   UNL     1     -42.891  29.448   0.712  1.00  0.00     0.004 C 
BRANCH   8   9
ATOM      9  C   UNL     1     -42.631  27.939   0.787  1.00  0.00     0.027 C 
BRANCH   9  10
ATOM     10  C   UNL     1     -43.771  27.159   0.193  1.00  0.00    -0.035 C 
ATOM     11  C   UNL     1     -44.524  27.655  -0.794  1.00  0.00     0.004 C 
ENDBRANCH   9  10
ENDBRANCH   8   9
ENDBRANCH   7   8
ENDBRANCH   1   7
TORSDOF 7
ENDMDL
MODEL 9
REMARK VINA RESULT:    -3.289      2.470      3.656
REMARK INTER + INTRA:          -5.249
REMARK INTER:                  -4.700
REMARK INTRA:                  -0.549
REMARK UNBOUND:                -0.614
REMARK SMILES C=CCCCCCCC(=O)[O-]
REMARK SMILES IDX 6 1 7 2 8 3 9 4 10 5 11 6 5 7 4 8 3 9 2 10 1 11
REMARK H PARENT
REMARK Flexibility Score: inf
ROOT
ATOM      1  C   UNL     1     -44.263  29.192   3.151  1.00  0.00     0.000 C 
ENDROOT
BRANCH   1   2
ATOM      2  C   UNL     1     -43.093  29.005   4.129  1.00  0.00     0.006 C 
BRANCH   2   3
ATOM      3  C   UNL     1     -43.529  29.163   5.591  1.00  0.00     0.053 C 
BRANCH   3   4
ATOM      4  C   UNL     1     -43.042  28.030   6.441  1.00  0.00     0.041 C 
ATOM      5  O   UNL     1     -43.587  26.898   6.361  1.00  0.00    -0.550 OA
ATOM      6  O   UNL     1     -41.965  28.215   7.298  1.00  0.00    -0.550 OA
ENDBRANCH   3   4
ENDBRANCH   2   3
ENDBRANCH   1   2
BRANCH   1   7
ATOM      7  C   UNL     1     -44.708  27.848   2.562  1.00  0.00     0.000 C 
BRANCH   7   8
ATOM      8  C   UNL     1     -43.529  27.114   1.912  1.00  0.00     0.004 C 
BRANCH   8   9
ATOM      9  C   UNL     1     -43.431  27.443   0.418  1.00  0.00     0.027 C 
BRANCH   9  10
ATOM     10  C   UNL     1     -42.235  28.307   0.127  1.00  0.00    -0.035 C 
ATOM     11  C   UNL     1     -42.358  29.607  -0.156  1.00  0.00     0.004 C 
ENDBRANCH   9  10
ENDBRANCH   8   9
ENDBRANCH   7   8
ENDBRANCH   1   7
TORSDOF 7
ENDMDL
