MODEL 1
REMARK VINA RESULT:    -4.457      0.000      0.000
REMARK INTER + INTRA:          -7.733
REMARK INTER:                  -7.193
REMARK INTRA:                  -0.540
REMARK UNBOUND:                -0.540
REMARK SMILES CCCCCCCCCCCCO
REMARK SMILES IDX 7 1 6 2 5 3 4 4 3 5 2 6 1 7 8 8 9 9 10 10 11 11 12 12 13 13
REMARK H PARENT 13 14
REMARK Flexibility Score: inf
ROOT
ATOM      1  C   UNL     1     115.617 116.271 117.169  1.00  0.00     0.000 C 
ENDROOT
BRANCH   1   2
ATOM      2  C   UNL     1     116.710 116.955 116.337  1.00  0.00    -0.000 C 
BRANCH   2   3
ATOM      3  C   UNL     1     116.941 116.214 115.014  1.00  0.00    -0.000 C 
BRANCH   3   4
ATOM      4  C   UNL     1     116.224 116.873 113.824  1.00  0.00    -0.000 C 
BRANCH   4   5
ATOM      5  C   UNL     1     116.115 115.961 112.584  1.00  0.00    -0.000 C 
BRANCH   5   6
ATOM      6  C   UNL     1     116.949 116.485 111.405  1.00  0.00    -0.003 C 
ATOM      7  C   UNL     1     117.620 117.811 111.752  1.00  0.00     0.004 C 
ENDBRANCH   5   6
ENDBRANCH   4   5
ENDBRANCH   3   4
ENDBRANCH   2   3
ENDBRANCH   1   2
BRANCH   1   8
ATOM      8  C   UNL     1     114.899 117.285 118.073  1.00  0.00     0.000 C 
BRANCH   8   9
ATOM      9  C   UNL     1     115.630 118.635 118.149  1.00  0.00     0.000 C 
BRANCH   9  10
ATOM     10  C   UNL     1     114.736 119.815 117.730  1.00  0.00     0.002 C 
BRANCH  10  11
ATOM     11  C   UNL     1     113.286 119.659 118.214  1.00  0.00     0.028 C 
BRANCH  11  12
ATOM     12  C   UNL     1     112.943 120.595 119.377  1.00  0.00     0.156 C 
BRANCH  12  13
ATOM     13  O   UNL     1     112.612 121.859 118.872  1.00  0.00    -0.396 OA
ATOM     14  H   UNL     1     112.974 121.891 117.950  1.00  0.00     0.210 HD
ENDBRANCH  12  13
ENDBRANCH  11  12
ENDBRANCH  10  11
ENDBRANCH   9  10
ENDBRANCH   8   9
ENDBRANCH   1   8
TORSDOF 11
ENDMDL
MODEL 2
REMARK VINA RESULT:    -4.439      3.497      4.552
REMARK INTER + INTRA:          -7.703
REMARK INTER:                  -7.226
REMARK INTRA:                  -0.478
REMARK UNBOUND:                -0.540
REMARK SMILES CCCCCCCCCCCCO
REMARK SMILES IDX 7 1 6 2 5 3 4 4 3 5 2 6 1 7 8 8 9 9 10 10 11 11 12 12 13 13
REMARK H PARENT 13 14
REMARK Flexibility Score: inf
ROOT
ATOM      1  C   UNL     1     115.424 117.313 118.032  1.00  0.00     0.000 C 
ENDROOT
BRANCH   1   2
ATOM      2  C   UNL     1     116.213 117.590 116.747  1.00  0.00    -0.000 C 
BRANCH   2   3
ATOM      3  C   UNL     1     116.198 116.370 115.817  1.00  0.00    -0.000 C 
BRANCH   3   4
ATOM      4  C   UNL     1     116.995 116.594 114.521  1.00  0.00    -0.000 C 
BRANCH   4   5
ATOM      5  C   UNL     1     116.267 116.101 113.252  1.00  0.00    -0.000 C 
BRANCH   5   6
ATOM      6  C   UNL     1     116.026 117.236 112.245  1.00  0.00    -0.003 C 
ATOM      7  C   UNL     1     117.346 117.823 111.752  1.00  0.00     0.004 C 
ENDBRANCH   5   6
ENDBRANCH   4   5
ENDBRANCH   3   4
ENDBRANCH   2   3
ENDBRANCH   1   2
BRANCH   1   8
ATOM      8  C   UNL     1     115.121 115.813 118.179  1.00  0.00     0.000 C 
BRANCH   8   9
ATOM      9  C   UNL     1     113.619 115.522 118.320  1.00  0.00     0.000 C 
BRANCH   9  10
ATOM     10  C   UNL     1     113.195 114.237 117.588  1.00  0.00     0.002 C 
BRANCH  10  11
ATOM     11  C   UNL     1     113.532 112.965 118.381  1.00  0.00     0.028 C 
BRANCH  11  12
ATOM     12  C   UNL     1     112.415 111.919 118.331  1.00  0.00     0.156 C 
BRANCH  12  13
ATOM     13  O   UNL     1     111.267 112.437 118.943  1.00  0.00    -0.396 OA
ATOM     14  H   UNL     1     111.575 113.177 119.527  1.00  0.00     0.210 HD
ENDBRANCH  12  13
ENDBRANCH  11  12
ENDBRANCH  10  11
ENDBRANCH   9  10
ENDBRANCH   8   9
ENDBRANCH   1   8
TORSDOF 11
ENDMDL
MODEL 3
REMARK VINA RESULT:    -4.418      3.559      4.324
REMARK INTER + INTRA:          -7.669
REMARK INTER:                  -7.033
REMARK INTRA:                  -0.636
REMARK UNBOUND:                -0.540
REMARK SMILES CCCCCCCCCCCCO
REMARK SMILES IDX 7 1 6 2 5 3 4 4 3 5 2 6 1 7 8 8 9 9 10 10 11 11 12 12 13 13
REMARK H PARENT 13 14
REMARK Flexibility Score: inf
ROOT
ATOM      1  C   UNL     1     116.856 116.698 118.424  1.00  0.00     0.000 C 
ENDROOT
BRANCH   1   2
ATOM      2  C   UNL     1     116.127 117.191 117.168  1.00  0.00    -0.000 C 
BRANCH   2   3
ATOM      3  C   UNL     1     116.363 116.242 115.985  1.00  0.00    -0.000 C 
BRANCH   3   4
ATOM      4  C   UNL     1     116.731 116.983 114.688  1.00  0.00    -0.000 C 
BRANCH   4   5
ATOM      5  C   UNL     1     116.240 116.271 113.409  1.00  0.00    -0.000 C 
BRANCH   5   6
ATOM      6  C   UNL     1     117.295 116.294 112.293  1.00  0.00    -0.003 C 
ATOM      7  C   UNL     1     117.534 117.716 111.791  1.00  0.00     0.004 C 
ENDBRANCH   5   6
ENDBRANCH   4   5
ENDBRANCH   3   4
ENDBRANCH   2   3
ENDBRANCH   1   2
BRANCH   1   8
ATOM      8  C   UNL     1     118.275 116.216 118.083  1.00  0.00     0.000 C 
BRANCH   8   9
ATOM      9  C   UNL     1     119.366 117.149 118.630  1.00  0.00     0.000 C 
BRANCH   9  10
ATOM     10  C   UNL     1     119.666 118.326 117.686  1.00  0.00     0.002 C 
BRANCH  10  11
ATOM     11  C   UNL     1     119.426 119.692 118.349  1.00  0.00     0.028 C 
BRANCH  11  12
ATOM     12  C   UNL     1     120.388 120.773 117.850  1.00  0.00     0.156 C 
BRANCH  12  13
ATOM     13  O   UNL     1     121.653 120.564 118.412  1.00  0.00    -0.396 OA
ATOM     14  H   UNL     1     122.128 119.944 117.800  1.00  0.00     0.210 HD
ENDBRANCH  12  13
ENDBRANCH  11  12
ENDBRANCH  10  11
ENDBRANCH   9  10
ENDBRANCH   8   9
ENDBRANCH   1   8
TORSDOF 11
ENDMDL
MODEL 4
REMARK VINA RESULT:    -4.390      4.669      6.181
REMARK INTER + INTRA:          -7.625
REMARK INTER:                  -7.207
REMARK INTRA:                  -0.418
REMARK UNBOUND:                -0.540
REMARK SMILES CCCCCCCCCCCCO
REMARK SMILES IDX 7 1 6 2 5 3 4 4 3 5 2 6 1 7 8 8 9 9 10 10 11 11 12 12 13 13
REMARK H PARENT 13 14
REMARK Flexibility Score: inf
ROOT
ATOM      1  C   UNL     1     117.079 115.719 116.931  1.00  0.00     0.000 C 
ENDROOT
BRANCH   1   2
ATOM      2  C   UNL     1     116.686 116.884 116.014  1.00  0.00    -0.000 C 
BRANCH   2   3
ATOM      3  C   UNL     1     116.243 116.377 114.636  1.00  0.00    -0.000 C 
BRANCH   3   4
ATOM      4  C   UNL     1     117.021 117.027 113.480  1.00  0.00    -0.000 C 
BRANCH   4   5
ATOM      5  C   UNL     1     116.184 117.210 112.196  1.00  0.00    -0.000 C 
BRANCH   5   6
ATOM      6  C   UNL     1     115.468 115.915 111.783  1.00  0.00    -0.003 C 
ATOM      7  C   UNL     1     116.469 114.843 111.362  1.00  0.00     0.004 C 
ENDBRANCH   5   6
ENDBRANCH   4   5
ENDBRANCH   3   4
ENDBRANCH   2   3
ENDBRANCH   1   2
BRANCH   1   8
ATOM      8  C   UNL     1     118.089 116.174 117.996  1.00  0.00     0.000 C 
BRANCH   8   9
ATOM      9  C   UNL     1     118.917 115.011 118.564  1.00  0.00     0.000 C 
BRANCH   9  10
ATOM     10  C   UNL     1     118.476 113.645 118.011  1.00  0.00     0.002 C 
BRANCH  10  11
ATOM     11  C   UNL     1     119.634 112.867 117.365  1.00  0.00     0.028 C 
BRANCH  11  12
ATOM     12  C   UNL     1     120.807 112.641 118.324  1.00  0.00     0.156 C 
BRANCH  12  13
ATOM     13  O   UNL     1     120.747 111.336 118.828  1.00  0.00    -0.396 OA
ATOM     14  H   UNL     1     120.502 110.755 118.063  1.00  0.00     0.210 HD
ENDBRANCH  12  13
ENDBRANCH  11  12
ENDBRANCH  10  11
ENDBRANCH   9  10
ENDBRANCH   8   9
ENDBRANCH   1   8
TORSDOF 11
ENDMDL
MODEL 5
REMARK VINA RESULT:    -4.374      3.212      6.218
REMARK INTER + INTRA:          -7.598
REMARK INTER:                  -6.474
REMARK INTRA:                  -1.124
REMARK UNBOUND:                -0.540
REMARK SMILES CCCCCCCCCCCCO
REMARK SMILES IDX 7 1 6 2 5 3 4 4 3 5 2 6 1 7 8 8 9 9 10 10 11 11 12 12 13 13
REMARK H PARENT 13 14
REMARK Flexibility Score: inf
ROOT
ATOM      1  C   UNL     1     116.357 115.921 117.823  1.00  0.00     0.000 C 
ENDROOT
BRANCH   1   2
ATOM      2  C   UNL     1     114.919 115.560 117.427  1.00  0.00    -0.000 C 
BRANCH   2   3
ATOM      3  C   UNL     1     113.903 116.273 118.328  1.00  0.00    -0.000 C 
BRANCH   3   4
ATOM      4  C   UNL     1     114.490 117.509 119.032  1.00  0.00    -0.000 C 
BRANCH   4   5
ATOM      5  C   UNL     1     113.956 118.847 118.480  1.00  0.00    -0.000 C 
BRANCH   5   6
ATOM      6  C   UNL     1     115.047 119.652 117.758  1.00  0.00    -0.003 C 
ATOM      7  C   UNL     1     116.357 119.628 118.540  1.00  0.00     0.004 C 
ENDBRANCH   5   6
ENDBRANCH   4   5
ENDBRANCH   3   4
ENDBRANCH   2   3
ENDBRANCH   1   2
BRANCH   1   8
ATOM      8  C   UNL     1     117.166 116.376 116.598  1.00  0.00     0.000 C 
BRANCH   8   9
ATOM      9  C   UNL     1     116.275 116.854 115.441  1.00  0.00     0.000 C 
BRANCH   9  10
ATOM     10  C   UNL     1     116.733 116.311 114.077  1.00  0.00     0.002 C 
BRANCH  10  11
ATOM     11  C   UNL     1     116.063 117.033 112.898  1.00  0.00     0.028 C 
BRANCH  11  12
ATOM     12  C   UNL     1     115.637 116.077 111.780  1.00  0.00     0.156 C 
BRANCH  12  13
ATOM     13  O   UNL     1     116.635 115.114 111.588  1.00  0.00    -0.396 OA
ATOM     14  H   UNL     1     116.758 114.665 112.464  1.00  0.00     0.210 HD
ENDBRANCH  12  13
ENDBRANCH  11  12
ENDBRANCH  10  11
ENDBRANCH   9  10
ENDBRANCH   8   9
ENDBRANCH   1   8
TORSDOF 11
ENDMDL
MODEL 6
REMARK VINA RESULT:    -4.253      2.716      6.422
REMARK INTER + INTRA:          -7.403
REMARK INTER:                  -6.841
REMARK INTRA:                  -0.563
REMARK UNBOUND:                -0.540
REMARK SMILES CCCCCCCCCCCCO
REMARK SMILES IDX 7 1 6 2 5 3 4 4 3 5 2 6 1 7 8 8 9 9 10 10 11 11 12 12 13 13
REMARK H PARENT 13 14
REMARK Flexibility Score: inf
ROOT
ATOM      1  C   UNL     1     117.126 116.596 117.145  1.00  0.00     0.000 C 
ENDROOT
BRANCH   1   2
ATOM      2  C   UNL     1     116.371 117.365 118.236  1.00  0.00    -0.000 C 
BRANCH   2   3
ATOM      3  C   UNL     1     117.004 118.741 118.480  1.00  0.00    -0.000 C 
BRANCH   3   4
ATOM      4  C   UNL     1     115.974 119.882 118.484  1.00  0.00    -0.000 C 
BRANCH   4   5
ATOM      5  C   UNL     1     114.734 119.600 117.609  1.00  0.00    -0.000 C 
BRANCH   5   6
ATOM      6  C   UNL     1     113.436 119.594 118.431  1.00  0.00    -0.003 C 
ATOM      7  C   UNL     1     112.395 120.528 117.821  1.00  0.00     0.004 C 
ENDBRANCH   5   6
ENDBRANCH   4   5
ENDBRANCH   3   4
ENDBRANCH   2   3
ENDBRANCH   1   2
BRANCH   1   8
ATOM      8  C   UNL     1     116.239 116.385 115.907  1.00  0.00     0.000 C 
BRANCH   8   9
ATOM      9  C   UNL     1     116.933 116.802 114.601  1.00  0.00     0.000 C 
BRANCH   9  10
ATOM     10  C   UNL     1     116.249 116.215 113.355  1.00  0.00     0.002 C 
BRANCH  10  11
ATOM     11  C   UNL     1     117.172 116.204 112.125  1.00  0.00     0.028 C 
BRANCH  11  12
ATOM     12  C   UNL     1     117.664 117.602 111.739  1.00  0.00     0.156 C 
BRANCH  12  13
ATOM     13  O   UNL     1     116.572 118.387 111.348  1.00  0.00    -0.396 OA
ATOM     14  H   UNL     1     116.357 118.116 110.418  1.00  0.00     0.210 HD
ENDBRANCH  12  13
ENDBRANCH  11  12
ENDBRANCH  10  11
ENDBRANCH   9  10
ENDBRANCH   8   9
ENDBRANCH   1   8
TORSDOF 11
ENDMDL
MODEL 7
REMARK VINA RESULT:    -4.208      3.610      6.577
REMARK INTER + INTRA:          -7.330
REMARK INTER:                  -6.465
REMARK INTRA:                  -0.865
REMARK UNBOUND:                -0.540
REMARK SMILES CCCCCCCCCCCCO
REMARK SMILES IDX 7 1 6 2 5 3 4 4 3 5 2 6 1 7 8 8 9 9 10 10 11 11 12 12 13 13
REMARK H PARENT 13 14
REMARK Flexibility Score: inf
ROOT
ATOM      1  C   UNL     1     116.034 117.227 117.344  1.00  0.00     0.000 C 
ENDROOT
BRANCH   1   2
ATOM      2  C   UNL     1     114.787 116.868 118.162  1.00  0.00    -0.000 C 
BRANCH   2   3
ATOM      3  C   UNL     1     114.221 115.507 117.736  1.00  0.00    -0.000 C 
BRANCH   3   4
ATOM      4  C   UNL     1     114.049 114.534 118.915  1.00  0.00    -0.000 C 
BRANCH   4   5
ATOM      5  C   UNL     1     115.000 113.319 118.859  1.00  0.00    -0.000 C 
BRANCH   5   6
ATOM      6  C   UNL     1     116.395 113.650 119.410  1.00  0.00    -0.003 C 
ATOM      7  C   UNL     1     117.466 113.478 118.336  1.00  0.00     0.004 C 
ENDBRANCH   5   6
ENDBRANCH   4   5
ENDBRANCH   3   4
ENDBRANCH   2   3
ENDBRANCH   1   2
BRANCH   1   8
ATOM      8  C   UNL     1     116.253 116.218 116.206  1.00  0.00     0.000 C 
BRANCH   8   9
ATOM      9  C   UNL     1     116.973 116.834 114.996  1.00  0.00     0.000 C 
BRANCH   9  10
ATOM     10  C   UNL     1     116.263 116.528 113.666  1.00  0.00     0.002 C 
BRANCH  10  11
ATOM     11  C   UNL     1     117.001 117.116 112.453  1.00  0.00     0.028 C 
BRANCH  11  12
ATOM     12  C   UNL     1     116.658 116.400 111.143  1.00  0.00     0.156 C 
BRANCH  12  13
ATOM     13  O   UNL     1     116.438 115.042 111.402  1.00  0.00    -0.396 OA
ATOM     14  H   UNL     1     115.472 114.883 111.243  1.00  0.00     0.210 HD
ENDBRANCH  12  13
ENDBRANCH  11  12
ENDBRANCH  10  11
ENDBRANCH   9  10
ENDBRANCH   8   9
ENDBRANCH   1   8
TORSDOF 11
ENDMDL
MODEL 8
REMARK VINA RESULT:    -4.192      3.246      6.196
REMARK INTER + INTRA:          -7.305
REMARK INTER:                  -6.203
REMARK INTRA:                  -1.102
REMARK UNBOUND:                -0.540
REMARK SMILES CCCCCCCCCCCCO
REMARK SMILES IDX 7 1 6 2 5 3 4 4 3 5 2 6 1 7 8 8 9 9 10 10 11 11 12 12 13 13
REMARK H PARENT 13 14
REMARK Flexibility Score: inf
ROOT
ATOM      1  C   UNL     1     116.254 115.502 117.640  1.00  0.00     0.000 C 
ENDROOT
BRANCH   1   2
ATOM      2  C   UNL     1     117.771 115.278 117.605  1.00  0.00    -0.000 C 
BRANCH   2   3
ATOM      3  C   UNL     1     118.465 116.027 118.751  1.00  0.00    -0.000 C 
BRANCH   3   4
ATOM      4  C   UNL     1     119.399 117.144 118.257  1.00  0.00    -0.000 C 
BRANCH   4   5
ATOM      5  C   UNL     1     118.709 118.519 118.136  1.00  0.00    -0.000 C 
BRANCH   5   6
ATOM      6  C   UNL     1     117.512 118.652 119.090  1.00  0.00    -0.003 C 
ATOM      7  C   UNL     1     116.474 119.625 118.537  1.00  0.00     0.004 C 
ENDBRANCH   5   6
ENDBRANCH   4   5
ENDBRANCH   3   4
ENDBRANCH   2   3
ENDBRANCH   1   2
BRANCH   1   8
ATOM      8  C   UNL     1     115.801 116.383 116.464  1.00  0.00     0.000 C 
BRANCH   8   9
ATOM      9  C   UNL     1     116.885 116.537 115.386  1.00  0.00     0.000 C 
BRANCH   9  10
ATOM     10  C   UNL     1     116.297 116.694 113.974  1.00  0.00     0.002 C 
BRANCH  10  11
ATOM     11  C   UNL     1     117.240 116.170 112.879  1.00  0.00     0.028 C 
BRANCH  11  12
ATOM     12  C   UNL     1     116.514 115.857 111.568  1.00  0.00     0.156 C 
BRANCH  12  13
ATOM     13  O   UNL     1     115.140 116.063 111.738  1.00  0.00    -0.396 OA
ATOM     14  H   UNL     1     115.019 116.350 112.680  1.00  0.00     0.210 HD
ENDBRANCH  12  13
ENDBRANCH  11  12
ENDBRANCH  10  11
ENDBRANCH   9  10
ENDBRANCH   8   9
ENDBRANCH   1   8
TORSDOF 11
ENDMDL
MODEL 9
REMARK VINA RESULT:    -4.180      3.892      6.399
REMARK INTER + INTRA:          -7.286
REMARK INTER:                  -6.841
REMARK INTRA:                  -0.445
REMARK UNBOUND:                -0.540
REMARK SMILES CCCCCCCCCCCCO
REMARK SMILES IDX 7 1 6 2 5 3 4 4 3 5 2 6 1 7 8 8 9 9 10 10 11 11 12 12 13 13
REMARK H PARENT 13 14
REMARK Flexibility Score: inf
ROOT
ATOM      1  C   UNL     1     116.908 116.443 117.471  1.00  0.00     0.000 C 
ENDROOT
BRANCH   1   2
ATOM      2  C   UNL     1     117.778 117.701 117.356  1.00  0.00    -0.000 C 
BRANCH   2   3
ATOM      3  C   UNL     1     119.127 117.505 118.060  1.00  0.00    -0.000 C 
BRANCH   3   4
ATOM      4  C   UNL     1     119.777 118.832 118.489  1.00  0.00    -0.000 C 
BRANCH   4   5
ATOM      5  C   UNL     1     120.349 119.651 117.312  1.00  0.00    -0.000 C 
BRANCH   5   6
ATOM      6  C   UNL     1     120.450 121.147 117.644  1.00  0.00    -0.003 C 
ATOM      7  C   UNL     1     120.851 121.362 119.101  1.00  0.00     0.004 C 
ENDBRANCH   5   6
ENDBRANCH   4   5
ENDBRANCH   3   4
ENDBRANCH   2   3
ENDBRANCH   1   2
BRANCH   1   8
ATOM      8  C   UNL     1     116.076 116.232 116.197  1.00  0.00     0.000 C 
BRANCH   8   9
ATOM      9  C   UNL     1     116.689 116.918 114.966  1.00  0.00     0.000 C 
BRANCH   9  10
ATOM     10  C   UNL     1     116.299 116.227 113.648  1.00  0.00     0.002 C 
BRANCH  10  11
ATOM     11  C   UNL     1     117.226 116.611 112.484  1.00  0.00     0.028 C 
BRANCH  11  12
ATOM     12  C   UNL     1     116.541 117.512 111.451  1.00  0.00     0.156 C 
BRANCH  12  13
ATOM     13  O   UNL     1     115.184 117.636 111.772  1.00  0.00    -0.396 OA
ATOM     14  H   UNL     1     114.721 116.891 111.308  1.00  0.00     0.210 HD
ENDBRANCH  12  13
ENDBRANCH  11  12
ENDBRANCH  10  11
ENDBRANCH   9  10
ENDBRANCH   8   9
ENDBRANCH   1   8
TORSDOF 11
ENDMDL
