MODEL 1
REMARK VINA RESULT:    -4.260      0.000      0.000
REMARK INTER + INTRA:         -10.469
REMARK INTER:                  -8.245
REMARK INTRA:                  -2.224
REMARK UNBOUND:                -2.224
REMARK SMILES CCCCCCCCCCCCCCCCCC(=O)[O-]
REMARK SMILES IDX 10 1 11 2 12 3 13 4 14 5 15 6 16 7 17 8 18 9 19 10 20 11
REMARK SMILES IDX 9 12 8 13 7 14 6 15 5 16 4 17 3 18 2 19 1 20
REMARK H PARENT
REMARK Flexibility Score: inf
ROOT
ATOM      1  C   UNL     1      97.091  82.961  81.099  1.00  0.00     0.000 C 
ENDROOT
BRANCH   1   2
ATOM      2  C   UNL     1      98.360  82.252  81.611  1.00  0.00     0.000 C 
BRANCH   2   3
ATOM      3  C   UNL     1      99.638  83.110  81.583  1.00  0.00     0.000 C 
BRANCH   3   4
ATOM      4  C   UNL     1     100.359  83.154  82.941  1.00  0.00     0.000 C 
BRANCH   4   5
ATOM      5  C   UNL     1     100.456  84.577  83.521  1.00  0.00     0.000 C 
BRANCH   5   6
ATOM      6  C   UNL     1      99.405  85.568  82.985  1.00  0.00     0.000 C 
BRANCH   6   7
ATOM      7  C   UNL     1      98.342  85.945  84.031  1.00  0.00     0.006 C 
BRANCH   7   8
ATOM      8  C   UNL     1      97.327  84.817  84.256  1.00  0.00     0.053 C 
BRANCH   8   9
ATOM      9  C   UNL     1      97.334  84.350  85.680  1.00  0.00     0.041 C 
ATOM     10  O   UNL     1      98.386  84.423  86.367  1.00  0.00    -0.550 OA
ATOM     11  O   UNL     1      96.184  83.803  86.237  1.00  0.00    -0.550 OA
ENDBRANCH   8   9
ENDBRANCH   7   8
ENDBRANCH   6   7
ENDBRANCH   5   6
ENDBRANCH   4   5
ENDBRANCH   3   4
ENDBRANCH   2   3
ENDBRANCH   1   2
BRANCH   1  12
ATOM     12  C   UNL     1      97.391  84.092  80.103  1.00  0.00     0.000 C 
BRANCH  12  13
ATOM     13  C   UNL     1      96.672  85.388  80.502  1.00  0.00    -0.000 C 
BRANCH  13  14
ATOM     14  C   UNL     1      95.139  85.254  80.462  1.00  0.00    -0.000 C 
BRANCH  14  15
ATOM     15  C   UNL     1      94.563  84.745  79.126  1.00  0.00    -0.000 C 
BRANCH  15  16
ATOM     16  C   UNL     1      93.477  83.662  79.254  1.00  0.00    -0.000 C 
BRANCH  16  17
ATOM     17  C   UNL     1      93.385  83.073  80.669  1.00  0.00    -0.000 C 
BRANCH  17  18
ATOM     18  C   UNL     1      92.164  83.629  81.416  1.00  0.00    -0.000 C 
BRANCH  18  19
ATOM     19  C   UNL     1      90.935  83.781  80.506  1.00  0.00    -0.003 C 
ATOM     20  C   UNL     1      89.688  83.109  81.080  1.00  0.00     0.004 C 
ENDBRANCH  18  19
ENDBRANCH  17  18
ENDBRANCH  16  17
ENDBRANCH  15  16
ENDBRANCH  14  15
ENDBRANCH  13  14
ENDBRANCH  12  13
ENDBRANCH   1  12
TORSDOF 16
ENDMDL
MODEL 2
REMARK VINA RESULT:    -4.154      2.042      4.219
REMARK INTER + INTRA:         -10.264
REMARK INTER:                  -9.046
REMARK INTRA:                  -1.219
REMARK UNBOUND:                -2.224
REMARK SMILES CCCCCCCCCCCCCCCCCC(=O)[O-]
REMARK SMILES IDX 10 1 11 2 12 3 13 4 14 5 15 6 16 7 17 8 18 9 19 10 20 11
REMARK SMILES IDX 9 12 8 13 7 14 6 15 5 16 4 17 3 18 2 19 1 20
REMARK H PARENT
REMARK Flexibility Score: inf
ROOT
ATOM      1  C   UNL     1      94.291  84.762  81.096  1.00  0.00     0.000 C 
ENDROOT
BRANCH   1   2
ATOM      2  C   UNL     1      95.327  85.212  80.048  1.00  0.00     0.000 C 
BRANCH   2   3
ATOM      3  C   UNL     1      96.751  85.424  80.592  1.00  0.00     0.000 C 
BRANCH   3   4
ATOM      4  C   UNL     1      97.745  84.358  80.099  1.00  0.00     0.000 C 
BRANCH   4   5
ATOM      5  C   UNL     1      97.385  82.939  80.577  1.00  0.00     0.000 C 
BRANCH   5   6
ATOM      6  C   UNL     1      98.271  82.395  81.715  1.00  0.00     0.000 C 
BRANCH   6   7
ATOM      7  C   UNL     1      99.739  82.844  81.605  1.00  0.00     0.006 C 
BRANCH   7   8
ATOM      8  C   UNL     1     100.268  83.420  82.924  1.00  0.00     0.053 C 
BRANCH   8   9
ATOM      9  C   UNL     1     100.435  84.908  82.846  1.00  0.00     0.041 C 
ATOM     10  O   UNL     1      99.441  85.666  82.990  1.00  0.00    -0.550 OA
ATOM     11  O   UNL     1     101.685  85.454  82.583  1.00  0.00    -0.550 OA
ENDBRANCH   8   9
ENDBRANCH   7   8
ENDBRANCH   6   7
ENDBRANCH   5   6
ENDBRANCH   4   5
ENDBRANCH   3   4
ENDBRANCH   2   3
ENDBRANCH   1   2
BRANCH   1  12
ATOM     12  C   UNL     1      93.681  83.386  80.790  1.00  0.00     0.000 C 
BRANCH  12  13
ATOM     13  C   UNL     1      93.117  83.334  79.364  1.00  0.00    -0.000 C 
BRANCH  13  14
ATOM     14  C   UNL     1      92.001  84.368  79.128  1.00  0.00    -0.000 C 
BRANCH  14  15
ATOM     15  C   UNL     1      90.567  83.834  79.314  1.00  0.00    -0.000 C 
BRANCH  15  16
ATOM     16  C   UNL     1      90.171  83.520  80.768  1.00  0.00    -0.000 C 
BRANCH  16  17
ATOM     17  C   UNL     1      88.741  82.972  80.893  1.00  0.00    -0.000 C 
BRANCH  17  18
ATOM     18  C   UNL     1      88.235  82.449  79.542  1.00  0.00    -0.000 C 
BRANCH  18  19
ATOM     19  C   UNL     1      87.450  81.134  79.674  1.00  0.00    -0.003 C 
ATOM     20  C   UNL     1      86.460  81.151  80.838  1.00  0.00     0.004 C 
ENDBRANCH  18  19
ENDBRANCH  17  18
ENDBRANCH  16  17
ENDBRANCH  15  16
ENDBRANCH  14  15
ENDBRANCH  13  14
ENDBRANCH  12  13
ENDBRANCH   1  12
TORSDOF 16
ENDMDL
MODEL 3
REMARK VINA RESULT:    -4.145      3.144      6.849
REMARK INTER + INTRA:         -10.246
REMARK INTER:                  -7.627
REMARK INTRA:                  -2.619
REMARK UNBOUND:                -2.224
REMARK SMILES CCCCCCCCCCCCCCCCCC(=O)[O-]
REMARK SMILES IDX 10 1 11 2 12 3 13 4 14 5 15 6 16 7 17 8 18 9 19 10 20 11
REMARK SMILES IDX 9 12 8 13 7 14 6 15 5 16 4 17 3 18 2 19 1 20
REMARK H PARENT
REMARK Flexibility Score: inf
ROOT
ATOM      1  C   UNL     1      96.074  86.961  80.578  1.00  0.00     0.000 C 
ENDROOT
BRANCH   1   2
ATOM      2  C   UNL     1      96.096  85.706  79.685  1.00  0.00     0.000 C 
BRANCH   2   3
ATOM      3  C   UNL     1      94.975  85.639  78.632  1.00  0.00     0.000 C 
BRANCH   3   4
ATOM      4  C   UNL     1      93.809  84.730  79.056  1.00  0.00     0.000 C 
BRANCH   4   5
ATOM      5  C   UNL     1      94.281  83.390  79.650  1.00  0.00     0.000 C 
BRANCH   5   6
ATOM      6  C   UNL     1      93.335  82.780  80.703  1.00  0.00     0.000 C 
BRANCH   6   7
ATOM      7  C   UNL     1      92.447  83.827  81.396  1.00  0.00     0.006 C 
BRANCH   7   8
ATOM      8  C   UNL     1      91.013  83.322  81.606  1.00  0.00     0.053 C 
BRANCH   8   9
ATOM      9  C   UNL     1      90.020  84.166  80.867  1.00  0.00     0.041 C 
ATOM     10  O   UNL     1      90.411  85.021  80.031  1.00  0.00    -0.550 OA
ATOM     11  O   UNL     1      88.662  84.028  81.126  1.00  0.00    -0.550 OA
ENDBRANCH   8   9
ENDBRANCH   7   8
ENDBRANCH   6   7
ENDBRANCH   5   6
ENDBRANCH   4   5
ENDBRANCH   3   4
ENDBRANCH   2   3
ENDBRANCH   1   2
BRANCH   1  12
ATOM     12  C   UNL     1      95.635  86.668  82.021  1.00  0.00     0.000 C 
BRANCH  12  13
ATOM     13  C   UNL     1      95.954  85.219  82.414  1.00  0.00    -0.000 C 
BRANCH  13  14
ATOM     14  C   UNL     1      96.892  85.125  83.630  1.00  0.00    -0.000 C 
BRANCH  14  15
ATOM     15  C   UNL     1      98.226  85.885  83.486  1.00  0.00    -0.000 C 
BRANCH  15  16
ATOM     16  C   UNL     1      99.147  85.379  82.362  1.00  0.00    -0.000 C 
BRANCH  16  17
ATOM     17  C   UNL     1     100.008  84.180  82.790  1.00  0.00    -0.000 C 
BRANCH  17  18
ATOM     18  C   UNL     1      99.777  82.981  81.860  1.00  0.00    -0.000 C 
BRANCH  18  19
ATOM     19  C   UNL     1      98.677  83.244  80.819  1.00  0.00    -0.003 C 
ATOM     20  C   UNL     1      97.507  82.268  80.935  1.00  0.00     0.004 C 
ENDBRANCH  18  19
ENDBRANCH  17  18
ENDBRANCH  16  17
ENDBRANCH  15  16
ENDBRANCH  14  15
ENDBRANCH  13  14
ENDBRANCH  12  13
ENDBRANCH   1  12
TORSDOF 16
ENDMDL
MODEL 4
REMARK VINA RESULT:    -4.098      2.734      6.325
REMARK INTER + INTRA:         -10.155
REMARK INTER:                  -7.346
REMARK INTRA:                  -2.809
REMARK UNBOUND:                -2.224
REMARK SMILES CCCCCCCCCCCCCCCCCC(=O)[O-]
REMARK SMILES IDX 10 1 11 2 12 3 13 4 14 5 15 6 16 7 17 8 18 9 19 10 20 11
REMARK SMILES IDX 9 12 8 13 7 14 6 15 5 16 4 17 3 18 2 19 1 20
REMARK H PARENT
REMARK Flexibility Score: inf
ROOT
ATOM      1  C   UNL     1     101.607  85.199  83.503  1.00  0.00     0.000 C 
ENDROOT
BRANCH   1   2
ATOM      2  C   UNL     1     101.529  84.129  82.397  1.00  0.00     0.000 C 
BRANCH   2   3
ATOM      3  C   UNL     1     100.376  83.119  82.551  1.00  0.00     0.000 C 
BRANCH   3   4
ATOM      4  C   UNL     1      99.309  83.259  81.452  1.00  0.00     0.000 C 
BRANCH   4   5
ATOM      5  C   UNL     1      98.207  82.188  81.549  1.00  0.00     0.000 C 
BRANCH   5   6
ATOM      6  C   UNL     1      96.890  82.547  80.833  1.00  0.00     0.000 C 
BRANCH   6   7
ATOM      7  C   UNL     1      96.648  84.064  80.740  1.00  0.00     0.006 C 
BRANCH   7   8
ATOM      8  C   UNL     1      95.239  84.454  81.203  1.00  0.00     0.053 C 
BRANCH   8   9
ATOM      9  C   UNL     1      94.185  83.852  80.324  1.00  0.00     0.041 C 
ATOM     10  O   UNL     1      94.177  84.093  79.089  1.00  0.00    -0.550 OA
ATOM     11  O   UNL     1      93.193  83.051  80.876  1.00  0.00    -0.550 OA
ENDBRANCH   8   9
ENDBRANCH   7   8
ENDBRANCH   6   7
ENDBRANCH   5   6
ENDBRANCH   4   5
ENDBRANCH   3   4
ENDBRANCH   2   3
ENDBRANCH   1   2
BRANCH   1  12
ATOM     12  C   UNL     1     101.012  86.550  83.079  1.00  0.00     0.000 C 
BRANCH  12  13
ATOM     13  C   UNL     1      99.724  86.858  83.853  1.00  0.00    -0.000 C 
BRANCH  13  14
ATOM     14  C   UNL     1      98.454  86.502  83.059  1.00  0.00    -0.000 C 
BRANCH  14  15
ATOM     15  C   UNL     1      97.325  85.856  83.888  1.00  0.00    -0.000 C 
BRANCH  15  16
ATOM     16  C   UNL     1      97.679  84.501  84.526  1.00  0.00    -0.000 C 
BRANCH  16  17
ATOM     17  C   UNL     1      97.169  84.369  85.970  1.00  0.00    -0.000 C 
BRANCH  17  18
ATOM     18  C   UNL     1      98.275  84.718  86.975  1.00  0.00    -0.000 C 
BRANCH  18  19
ATOM     19  C   UNL     1      99.644  84.151  86.568  1.00  0.00    -0.003 C 
ATOM     20  C   UNL     1     100.806  85.047  86.993  1.00  0.00     0.004 C 
ENDBRANCH  18  19
ENDBRANCH  17  18
ENDBRANCH  16  17
ENDBRANCH  15  16
ENDBRANCH  14  15
ENDBRANCH  13  14
ENDBRANCH  12  13
ENDBRANCH   1  12
TORSDOF 16
ENDMDL
MODEL 5
REMARK VINA RESULT:    -4.063      2.474      5.554
REMARK INTER + INTRA:         -10.087
REMARK INTER:                  -8.947
REMARK INTRA:                  -1.140
REMARK UNBOUND:                -2.224
REMARK SMILES CCCCCCCCCCCCCCCCCC(=O)[O-]
REMARK SMILES IDX 10 1 11 2 12 3 13 4 14 5 15 6 16 7 17 8 18 9 19 10 20 11
REMARK SMILES IDX 9 12 8 13 7 14 6 15 5 16 4 17 3 18 2 19 1 20
REMARK H PARENT
REMARK Flexibility Score: inf
ROOT
ATOM      1  C   UNL     1      92.195  83.354  81.303  1.00  0.00     0.000 C 
ENDROOT
BRANCH   1   2
ATOM      2  C   UNL     1      92.713  84.289  80.193  1.00  0.00     0.000 C 
BRANCH   2   3
ATOM      3  C   UNL     1      93.878  83.723  79.360  1.00  0.00     0.000 C 
BRANCH   3   4
ATOM      4  C   UNL     1      95.064  84.697  79.252  1.00  0.00     0.000 C 
BRANCH   4   5
ATOM      5  C   UNL     1      96.259  84.285  80.131  1.00  0.00     0.000 C 
BRANCH   5   6
ATOM      6  C   UNL     1      96.257  82.810  80.576  1.00  0.00     0.000 C 
BRANCH   6   7
ATOM      7  C   UNL     1      97.616  82.344  81.127  1.00  0.00     0.006 C 
BRANCH   7   8
ATOM      8  C   UNL     1      98.699  83.420  80.981  1.00  0.00     0.053 C 
BRANCH   8   9
ATOM      9  C   UNL     1      99.313  83.765  82.304  1.00  0.00     0.041 C 
ATOM     10  O   UNL     1     100.343  83.161  82.702  1.00  0.00    -0.550 OA
ATOM     11  O   UNL     1      98.726  84.731  83.111  1.00  0.00    -0.550 OA
ENDBRANCH   8   9
ENDBRANCH   7   8
ENDBRANCH   6   7
ENDBRANCH   5   6
ENDBRANCH   4   5
ENDBRANCH   3   4
ENDBRANCH   2   3
ENDBRANCH   1   2
BRANCH   1  12
ATOM     12  C   UNL     1      91.513  84.106  82.456  1.00  0.00     0.000 C 
BRANCH  12  13
ATOM     13  C   UNL     1      90.188  84.733  82.003  1.00  0.00    -0.000 C 
BRANCH  13  14
ATOM     14  C   UNL     1      89.108  83.681  81.692  1.00  0.00    -0.000 C 
BRANCH  14  15
ATOM     15  C   UNL     1      88.611  83.668  80.233  1.00  0.00    -0.000 C 
BRANCH  15  16
ATOM     16  C   UNL     1      88.479  82.270  79.601  1.00  0.00    -0.000 C 
BRANCH  16  17
ATOM     17  C   UNL     1      87.085  81.655  79.797  1.00  0.00    -0.000 C 
BRANCH  17  18
ATOM     18  C   UNL     1      87.058  80.742  81.031  1.00  0.00    -0.000 C 
BRANCH  18  19
ATOM     19  C   UNL     1      85.856  81.021  81.946  1.00  0.00    -0.003 C 
ATOM     20  C   UNL     1      85.744  80.022  83.097  1.00  0.00     0.004 C 
ENDBRANCH  18  19
ENDBRANCH  17  18
ENDBRANCH  16  17
ENDBRANCH  15  16
ENDBRANCH  14  15
ENDBRANCH  13  14
ENDBRANCH  12  13
ENDBRANCH   1  12
TORSDOF 16
ENDMDL
MODEL 6
REMARK VINA RESULT:    -4.041      2.617      6.311
REMARK INTER + INTRA:         -10.044
REMARK INTER:                  -7.331
REMARK INTRA:                  -2.713
REMARK UNBOUND:                -2.224
REMARK SMILES CCCCCCCCCCCCCCCCCC(=O)[O-]
REMARK SMILES IDX 10 1 11 2 12 3 13 4 14 5 15 6 16 7 17 8 18 9 19 10 20 11
REMARK SMILES IDX 9 12 8 13 7 14 6 15 5 16 4 17 3 18 2 19 1 20
REMARK H PARENT
REMARK Flexibility Score: inf
ROOT
ATOM      1  C   UNL     1     100.796  83.736  83.523  1.00  0.00     0.000 C 
ENDROOT
BRANCH   1   2
ATOM      2  C   UNL     1     100.414  82.970  82.242  1.00  0.00     0.000 C 
BRANCH   2   3
ATOM      3  C   UNL     1      99.124  83.456  81.556  1.00  0.00     0.000 C 
BRANCH   3   4
ATOM      4  C   UNL     1      98.011  82.395  81.556  1.00  0.00     0.000 C 
BRANCH   4   5
ATOM      5  C   UNL     1      96.778  82.820  80.736  1.00  0.00     0.000 C 
BRANCH   5   6
ATOM      6  C   UNL     1      96.886  84.209  80.078  1.00  0.00     0.000 C 
BRANCH   6   7
ATOM      7  C   UNL     1      95.543  84.727  79.537  1.00  0.00     0.006 C 
BRANCH   7   8
ATOM      8  C   UNL     1      94.457  84.757  80.620  1.00  0.00     0.053 C 
BRANCH   8   9
ATOM      9  C   UNL     1      93.286  83.899  80.248  1.00  0.00     0.041 C 
ATOM     10  O   UNL     1      92.892  82.991  81.025  1.00  0.00    -0.550 OA
ATOM     11  O   UNL     1      92.651  84.081  79.026  1.00  0.00    -0.550 OA
ENDBRANCH   8   9
ENDBRANCH   7   8
ENDBRANCH   6   7
ENDBRANCH   5   6
ENDBRANCH   4   5
ENDBRANCH   3   4
ENDBRANCH   2   3
ENDBRANCH   1   2
BRANCH   1  12
ATOM     12  C   UNL     1     101.023  85.237  83.285  1.00  0.00     0.000 C 
BRANCH  12  13
ATOM     13  C   UNL     1     101.491  85.938  84.567  1.00  0.00    -0.000 C 
BRANCH  13  14
ATOM     14  C   UNL     1     100.327  86.284  85.514  1.00  0.00    -0.000 C 
BRANCH  14  15
ATOM     15  C   UNL     1     100.149  85.325  86.708  1.00  0.00    -0.000 C 
BRANCH  15  16
ATOM     16  C   UNL     1      98.887  84.446  86.655  1.00  0.00    -0.000 C 
BRANCH  16  17
ATOM     17  C   UNL     1      97.704  85.140  85.964  1.00  0.00    -0.000 C 
BRANCH  17  18
ATOM     18  C   UNL     1      97.285  84.378  84.698  1.00  0.00    -0.000 C 
BRANCH  18  19
ATOM     19  C   UNL     1      96.557  85.274  83.684  1.00  0.00    -0.003 C 
ATOM     20  C   UNL     1      97.450  86.382  83.125  1.00  0.00     0.004 C 
ENDBRANCH  18  19
ENDBRANCH  17  18
ENDBRANCH  16  17
ENDBRANCH  15  16
ENDBRANCH  14  15
ENDBRANCH  13  14
ENDBRANCH  12  13
ENDBRANCH   1  12
TORSDOF 16
ENDMDL
MODEL 7
REMARK VINA RESULT:    -4.034      2.131      6.126
REMARK INTER + INTRA:         -10.032
REMARK INTER:                  -7.915
REMARK INTRA:                  -2.116
REMARK UNBOUND:                -2.224
REMARK SMILES CCCCCCCCCCCCCCCCCC(=O)[O-]
REMARK SMILES IDX 10 1 11 2 12 3 13 4 14 5 15 6 16 7 17 8 18 9 19 10 20 11
REMARK SMILES IDX 9 12 8 13 7 14 6 15 5 16 4 17 3 18 2 19 1 20
REMARK H PARENT
REMARK Flexibility Score: inf
ROOT
ATOM      1  C   UNL     1      98.408  82.402  81.710  1.00  0.00     0.000 C 
ENDROOT
BRANCH   1   2
ATOM      2  C   UNL     1      97.495  83.034  80.642  1.00  0.00     0.000 C 
BRANCH   2   3
ATOM      3  C   UNL     1      97.924  84.435  80.168  1.00  0.00     0.000 C 
BRANCH   3   4
ATOM      4  C   UNL     1      96.730  85.363  79.888  1.00  0.00     0.000 C 
BRANCH   4   5
ATOM      5  C   UNL     1      95.383  84.752  80.316  1.00  0.00     0.000 C 
BRANCH   5   6
ATOM      6  C   UNL     1      94.411  84.452  79.159  1.00  0.00     0.000 C 
BRANCH   6   7
ATOM      7  C   UNL     1      93.365  83.380  79.511  1.00  0.00     0.006 C 
BRANCH   7   8
ATOM      8  C   UNL     1      92.040  83.996  79.978  1.00  0.00     0.053 C 
BRANCH   8   9
ATOM      9  C   UNL     1      91.759  83.671  81.414  1.00  0.00     0.041 C 
ATOM     10  O   UNL     1      90.792  82.926  81.718  1.00  0.00    -0.550 OA
ATOM     11  O   UNL     1      92.548  84.219  82.418  1.00  0.00    -0.550 OA
ENDBRANCH   8   9
ENDBRANCH   7   8
ENDBRANCH   6   7
ENDBRANCH   5   6
ENDBRANCH   4   5
ENDBRANCH   3   4
ENDBRANCH   2   3
ENDBRANCH   1   2
BRANCH   1  12
ATOM     12  C   UNL     1      99.843  82.949  81.679  1.00  0.00     0.000 C 
BRANCH  12  13
ATOM     13  C   UNL     1     100.291  83.414  83.071  1.00  0.00    -0.000 C 
BRANCH  13  14
ATOM     14  C   UNL     1     100.463  84.941  83.162  1.00  0.00    -0.000 C 
BRANCH  14  15
ATOM     15  C   UNL     1      99.432  85.662  84.053  1.00  0.00    -0.000 C 
BRANCH  15  16
ATOM     16  C   UNL     1      98.027  85.803  83.441  1.00  0.00    -0.000 C 
BRANCH  16  17
ATOM     17  C   UNL     1      96.939  85.113  84.277  1.00  0.00    -0.000 C 
BRANCH  17  18
ATOM     18  C   UNL     1      97.555  84.365  85.467  1.00  0.00    -0.000 C 
BRANCH  18  19
ATOM     19  C   UNL     1      96.816  84.642  86.786  1.00  0.00    -0.003 C 
ATOM     20  C   UNL     1      95.362  84.171  86.759  1.00  0.00     0.004 C 
ENDBRANCH  18  19
ENDBRANCH  17  18
ENDBRANCH  16  17
ENDBRANCH  15  16
ENDBRANCH  14  15
ENDBRANCH  13  14
ENDBRANCH  12  13
ENDBRANCH   1  12
TORSDOF 16
ENDMDL
MODEL 8
REMARK VINA RESULT:    -4.028      2.474      5.958
REMARK INTER + INTRA:         -10.021
REMARK INTER:                  -7.053
REMARK INTRA:                  -2.968
REMARK UNBOUND:                -2.224
REMARK SMILES CCCCCCCCCCCCCCCCCC(=O)[O-]
REMARK SMILES IDX 10 1 11 2 12 3 13 4 14 5 15 6 16 7 17 8 18 9 19 10 20 11
REMARK SMILES IDX 9 12 8 13 7 14 6 15 5 16 4 17 3 18 2 19 1 20
REMARK H PARENT
REMARK Flexibility Score: inf
ROOT
ATOM      1  C   UNL     1     100.931  84.193  83.273  1.00  0.00     0.000 C 
ENDROOT
BRANCH   1   2
ATOM      2  C   UNL     1     100.518  83.057  82.317  1.00  0.00     0.000 C 
BRANCH   2   3
ATOM      3  C   UNL     1      99.272  83.350  81.461  1.00  0.00     0.000 C 
BRANCH   3   4
ATOM      4  C   UNL     1      98.225  82.225  81.524  1.00  0.00     0.000 C 
BRANCH   4   5
ATOM      5  C   UNL     1      96.869  82.634  80.922  1.00  0.00     0.000 C 
BRANCH   5   6
ATOM      6  C   UNL     1      96.848  84.026  80.260  1.00  0.00     0.000 C 
BRANCH   6   7
ATOM      7  C   UNL     1      95.473  84.398  79.678  1.00  0.00     0.006 C 
BRANCH   7   8
ATOM      8  C   UNL     1      94.544  85.007  80.735  1.00  0.00     0.053 C 
BRANCH   8   9
ATOM      9  C   UNL     1      93.477  84.040  81.151  1.00  0.00     0.041 C 
ATOM     10  O   UNL     1      93.351  82.939  80.555  1.00  0.00    -0.550 OA
ATOM     11  O   UNL     1      92.601  84.371  82.178  1.00  0.00    -0.550 OA
ENDBRANCH   8   9
ENDBRANCH   7   8
ENDBRANCH   6   7
ENDBRANCH   5   6
ENDBRANCH   4   5
ENDBRANCH   3   4
ENDBRANCH   2   3
ENDBRANCH   1   2
BRANCH   1  12
ATOM     12  C   UNL     1     101.005  83.748  84.742  1.00  0.00     0.000 C 
BRANCH  12  13
ATOM     13  C   UNL     1      99.672  83.990  85.462  1.00  0.00    -0.000 C 
BRANCH  13  14
ATOM     14  C   UNL     1      98.839  85.110  84.813  1.00  0.00    -0.000 C 
BRANCH  14  15
ATOM     15  C   UNL     1      97.443  84.683  84.319  1.00  0.00    -0.000 C 
BRANCH  15  16
ATOM     16  C   UNL     1      96.649  85.778  83.583  1.00  0.00    -0.000 C 
BRANCH  16  17
ATOM     17  C   UNL     1      97.505  87.005  83.236  1.00  0.00    -0.000 C 
BRANCH  17  18
ATOM     18  C   UNL     1      97.630  87.173  81.715  1.00  0.00    -0.000 C 
BRANCH  18  19
ATOM     19  C   UNL     1      99.071  86.984  81.217  1.00  0.00    -0.003 C 
ATOM     20  C   UNL     1     100.110  87.546  82.186  1.00  0.00     0.004 C 
ENDBRANCH  18  19
ENDBRANCH  17  18
ENDBRANCH  16  17
ENDBRANCH  15  16
ENDBRANCH  14  15
ENDBRANCH  13  14
ENDBRANCH  12  13
ENDBRANCH   1  12
TORSDOF 16
ENDMDL
MODEL 9
REMARK VINA RESULT:    -4.014      1.908      3.752
REMARK INTER + INTRA:          -9.993
REMARK INTER:                  -9.243
REMARK INTRA:                  -0.750
REMARK UNBOUND:                -2.224
REMARK SMILES CCCCCCCCCCCCCCCCCC(=O)[O-]
REMARK SMILES IDX 10 1 11 2 12 3 13 4 14 5 15 6 16 7 17 8 18 9 19 10 20 11
REMARK SMILES IDX 9 12 8 13 7 14 6 15 5 16 4 17 3 18 2 19 1 20
REMARK H PARENT
REMARK Flexibility Score: inf
ROOT
ATOM      1  C   UNL     1      95.075  84.279  79.657  1.00  0.00     0.000 C 
ENDROOT
BRANCH   1   2
ATOM      2  C   UNL     1      96.442  84.004  80.313  1.00  0.00     0.000 C 
BRANCH   2   3
ATOM      3  C   UNL     1      96.644  82.561  80.811  1.00  0.00     0.000 C 
BRANCH   3   4
ATOM      4  C   UNL     1      98.020  82.341  81.463  1.00  0.00     0.000 C 
BRANCH   4   5
ATOM      5  C   UNL     1      99.021  83.466  81.143  1.00  0.00     0.000 C 
BRANCH   5   6
ATOM      6  C   UNL     1      99.577  84.208  82.374  1.00  0.00     0.000 C 
BRANCH   6   7
ATOM      7  C   UNL     1     100.972  83.717  82.796  1.00  0.00     0.006 C 
BRANCH   7   8
ATOM      8  C   UNL     1     101.546  84.536  83.960  1.00  0.00     0.053 C 
BRANCH   8   9
ATOM      9  C   UNL     1     100.981  84.092  85.275  1.00  0.00     0.041 C 
ATOM     10  O   UNL     1     100.989  82.873  85.590  1.00  0.00    -0.550 OA
ATOM     11  O   UNL     1     100.417  85.022  86.139  1.00  0.00    -0.550 OA
ENDBRANCH   8   9
ENDBRANCH   7   8
ENDBRANCH   6   7
ENDBRANCH   5   6
ENDBRANCH   4   5
ENDBRANCH   3   4
ENDBRANCH   2   3
ENDBRANCH   1   2
BRANCH   1  12
ATOM     12  C   UNL     1      94.107  83.091  79.759  1.00  0.00     0.000 C 
BRANCH  12  13
ATOM     13  C   UNL     1      93.046  83.331  80.841  1.00  0.00    -0.000 C 
BRANCH  13  14
ATOM     14  C   UNL     1      92.109  84.506  80.505  1.00  0.00    -0.000 C 
BRANCH  14  15
ATOM     15  C   UNL     1      90.865  84.132  79.675  1.00  0.00    -0.000 C 
BRANCH  15  16
ATOM     16  C   UNL     1      89.790  83.333  80.434  1.00  0.00    -0.000 C 
BRANCH  16  17
ATOM     17  C   UNL     1      88.629  82.888  79.533  1.00  0.00    -0.000 C 
BRANCH  17  18
ATOM     18  C   UNL     1      87.533  82.193  80.355  1.00  0.00    -0.000 C 
BRANCH  18  19
ATOM     19  C   UNL     1      87.144  80.822  79.779  1.00  0.00    -0.003 C 
ATOM     20  C   UNL     1      86.403  79.946  80.788  1.00  0.00     0.004 C 
ENDBRANCH  18  19
ENDBRANCH  17  18
ENDBRANCH  16  17
ENDBRANCH  15  16
ENDBRANCH  14  15
ENDBRANCH  13  14
ENDBRANCH  12  13
ENDBRANCH   1  12
TORSDOF 16
ENDMDL
