MODEL 1
REMARK VINA RESULT:     0.000      0.000      0.000
REMARK INTER + INTRA:          -0.400
REMARK INTER:                   0.000
REMARK INTRA:                  -0.400
REMARK UNBOUND:                -0.400
REMARK SMILES CCCCCC(C)=O
REMARK SMILES IDX 4 1 3 2 2 3 1 4 5 5 6 6 8 7 7 8
REMARK H PARENT
REMARK Flexibility Score: inf
ROOT
ATOM      1  C   UNL     1     118.486 121.210 125.452  1.00  0.00     0.008 C 
ENDROOT
BRANCH   1   2
ATOM      2  C   UNL     1     119.111 122.412 124.725  1.00  0.00     0.000 C 
BRANCH   2   3
ATOM      3  C   UNL     1     118.649 123.757 125.302  1.00  0.00    -0.003 C 
ATOM      4  C   UNL     1     119.789 124.464 126.029  1.00  0.00     0.004 C 
ENDBRANCH   2   3
ENDBRANCH   1   2
BRANCH   1   5
ATOM      5  C   UNL     1     119.539 120.286 126.078  1.00  0.00     0.075 C 
BRANCH   5   6
ATOM      6  C   UNL     1     120.208 120.955 127.247  1.00  0.00     0.129 C 
ATOM      7  O   UNL     1     121.416 121.143 127.229  1.00  0.00    -0.300 OA
ATOM      8  C   UNL     1     119.402 121.413 128.425  1.00  0.00     0.087 C 
ENDBRANCH   5   6
ENDBRANCH   1   5
TORSDOF 4
ENDMDL
MODEL 2
REMARK VINA RESULT:     0.000      4.071      5.064
REMARK INTER + INTRA:          -0.400
REMARK INTER:                   0.000
REMARK INTRA:                  -0.400
REMARK UNBOUND:                -0.400
REMARK SMILES CCCCCC(C)=O
REMARK SMILES IDX 4 1 3 2 2 3 1 4 5 5 6 6 8 7 7 8
REMARK H PARENT
REMARK Flexibility Score: inf
ROOT
ATOM      1  C   UNL     1     115.506 120.806 122.399  1.00  0.00     0.008 C 
ENDROOT
BRANCH   1   2
ATOM      2  C   UNL     1     116.947 120.293 122.548  1.00  0.00     0.000 C 
BRANCH   2   3
ATOM      3  C   UNL     1     117.932 121.405 122.937  1.00  0.00    -0.003 C 
ATOM      4  C   UNL     1     118.434 121.219 124.366  1.00  0.00     0.004 C 
ENDBRANCH   2   3
ENDBRANCH   1   2
BRANCH   1   5
ATOM      5  C   UNL     1     114.528 120.106 123.352  1.00  0.00     0.075 C 
BRANCH   5   6
ATOM      6  C   UNL     1     114.786 120.518 124.776  1.00  0.00     0.129 C 
ATOM      7  O   UNL     1     115.090 119.674 125.606  1.00  0.00    -0.300 OA
ATOM      8  C   UNL     1     114.695 121.959 125.179  1.00  0.00     0.087 C 
ENDBRANCH   5   6
ENDBRANCH   1   5
TORSDOF 4
ENDMDL
MODEL 3
REMARK VINA RESULT:     0.000      4.953      6.412
REMARK INTER + INTRA:          -0.400
REMARK INTER:                   0.000
REMARK INTRA:                  -0.400
REMARK UNBOUND:                -0.400
REMARK SMILES CCCCCC(C)=O
REMARK SMILES IDX 4 1 3 2 2 3 1 4 5 5 6 6 8 7 7 8
REMARK H PARENT
REMARK Flexibility Score: inf
ROOT
ATOM      1  C   UNL     1     118.301 120.822 121.952  1.00  0.00     0.008 C 
ENDROOT
BRANCH   1   2
ATOM      2  C   UNL     1     119.407 120.655 120.898  1.00  0.00     0.000 C 
BRANCH   2   3
ATOM      3  C   UNL     1     118.859 120.224 119.531  1.00  0.00    -0.003 C 
ATOM      4  C   UNL     1     118.987 121.349 118.507  1.00  0.00     0.004 C 
ENDBRANCH   2   3
ENDBRANCH   1   2
BRANCH   1   5
ATOM      5  C   UNL     1     118.243 122.243 122.529  1.00  0.00     0.075 C 
BRANCH   5   6
ATOM      6  C   UNL     1     117.743 123.216 121.496  1.00  0.00     0.129 C 
ATOM      7  O   UNL     1     118.452 124.150 121.149  1.00  0.00    -0.300 OA
ATOM      8  C   UNL     1     116.391 123.037 120.874  1.00  0.00     0.087 C 
ENDBRANCH   5   6
ENDBRANCH   1   5
TORSDOF 4
ENDMDL
MODEL 4
REMARK VINA RESULT:     0.000      5.053      6.473
REMARK INTER + INTRA:          -0.400
REMARK INTER:                   0.000
REMARK INTRA:                  -0.400
REMARK UNBOUND:                -0.400
REMARK SMILES CCCCCC(C)=O
REMARK SMILES IDX 4 1 3 2 2 3 1 4 5 5 6 6 8 7 7 8
REMARK H PARENT
REMARK Flexibility Score: inf
ROOT
ATOM      1  C   UNL     1     116.623 120.056 129.385  1.00  0.00     0.008 C 
ENDROOT
BRANCH   1   2
ATOM      2  C   UNL     1     115.895 120.294 130.717  1.00  0.00     0.000 C 
BRANCH   2   3
ATOM      3  C   UNL     1     114.498 119.658 130.748  1.00  0.00    -0.003 C 
ATOM      4  C   UNL     1     114.454 118.475 131.711  1.00  0.00     0.004 C 
ENDBRANCH   2   3
ENDBRANCH   1   2
BRANCH   1   5
ATOM      5  C   UNL     1     117.950 119.305 129.562  1.00  0.00     0.075 C 
BRANCH   5   6
ATOM      6  C   UNL     1     117.703 117.877 129.963  1.00  0.00     0.129 C 
ATOM      7  O   UNL     1     118.143 117.459 131.024  1.00  0.00    -0.300 OA
ATOM      8  C   UNL     1     116.903 116.967 129.080  1.00  0.00     0.087 C 
ENDBRANCH   5   6
ENDBRANCH   1   5
TORSDOF 4
ENDMDL
MODEL 5
REMARK VINA RESULT:     0.000      4.521      5.933
REMARK INTER + INTRA:          -0.400
REMARK INTER:                   0.000
REMARK INTRA:                  -0.400
REMARK UNBOUND:                -0.400
REMARK SMILES CCCCCC(C)=O
REMARK SMILES IDX 4 1 3 2 2 3 1 4 5 5 6 6 8 7 7 8
REMARK H PARENT
REMARK Flexibility Score: inf
ROOT
ATOM      1  C   UNL     1     121.807 125.778 123.356  1.00  0.00     0.008 C 
ENDROOT
BRANCH   1   2
ATOM      2  C   UNL     1     122.290 124.490 122.670  1.00  0.00     0.000 C 
BRANCH   2   3
ATOM      3  C   UNL     1     122.020 123.235 123.512  1.00  0.00    -0.003 C 
ATOM      4  C   UNL     1     120.939 122.367 122.874  1.00  0.00     0.004 C 
ENDBRANCH   2   3
ENDBRANCH   1   2
BRANCH   1   5
ATOM      5  C   UNL     1     120.764 126.535 122.524  1.00  0.00     0.075 C 
BRANCH   5   6
ATOM      6  C   UNL     1     119.464 125.780 122.484  1.00  0.00     0.129 C 
ATOM      7  O   UNL     1     119.010 125.410 121.411  1.00  0.00    -0.300 OA
ATOM      8  C   UNL     1     118.732 125.458 123.752  1.00  0.00     0.087 C 
ENDBRANCH   5   6
ENDBRANCH   1   5
TORSDOF 4
ENDMDL
MODEL 6
REMARK VINA RESULT:     0.000      4.023      5.541
REMARK INTER + INTRA:          -0.399
REMARK INTER:                   0.000
REMARK INTRA:                  -0.399
REMARK UNBOUND:                -0.400
REMARK SMILES CCCCCC(C)=O
REMARK SMILES IDX 4 1 3 2 2 3 1 4 5 5 6 6 8 7 7 8
REMARK H PARENT
REMARK Flexibility Score: inf
ROOT
ATOM      1  C   UNL     1     116.964 125.725 123.972  1.00  0.00     0.008 C 
ENDROOT
BRANCH   1   2
ATOM      2  C   UNL     1     117.351 124.243 123.837  1.00  0.00     0.000 C 
BRANCH   2   3
ATOM      3  C   UNL     1     118.347 123.793 124.915  1.00  0.00    -0.003 C 
ATOM      4  C   UNL     1     117.689 122.833 125.904  1.00  0.00     0.004 C 
ENDBRANCH   2   3
ENDBRANCH   1   2
BRANCH   1   5
ATOM      5  C   UNL     1     115.457 125.925 124.177  1.00  0.00     0.075 C 
BRANCH   5   6
ATOM      6  C   UNL     1     115.035 125.440 125.537  1.00  0.00     0.129 C 
ATOM      7  O   UNL     1     114.209 124.544 125.632  1.00  0.00    -0.300 OA
ATOM      8  C   UNL     1     115.637 126.031 126.776  1.00  0.00     0.087 C 
ENDBRANCH   5   6
ENDBRANCH   1   5
TORSDOF 4
ENDMDL
MODEL 7
REMARK VINA RESULT:     0.000     10.197     11.471
REMARK INTER + INTRA:          -0.399
REMARK INTER:                   0.000
REMARK INTRA:                  -0.399
REMARK UNBOUND:                -0.400
REMARK SMILES CCCCCC(C)=O
REMARK SMILES IDX 4 1 3 2 2 3 1 4 5 5 6 6 8 7 7 8
REMARK H PARENT
REMARK Flexibility Score: inf
ROOT
ATOM      1  C   UNL     1     126.269 115.066 125.903  1.00  0.00     0.008 C 
ENDROOT
BRANCH   1   2
ATOM      2  C   UNL     1     125.794 114.430 127.219  1.00  0.00     0.000 C 
BRANCH   2   3
ATOM      3  C   UNL     1     124.731 113.344 127.001  1.00  0.00    -0.003 C 
ATOM      4  C   UNL     1     125.288 111.959 127.318  1.00  0.00     0.004 C 
ENDBRANCH   2   3
ENDBRANCH   1   2
BRANCH   1   5
ATOM      5  C   UNL     1     127.777 114.897 125.676  1.00  0.00     0.075 C 
BRANCH   5   6
ATOM      6  C   UNL     1     128.114 113.460 125.387  1.00  0.00     0.129 C 
ATOM      7  O   UNL     1     128.878 112.856 126.126  1.00  0.00    -0.300 OA
ATOM      8  C   UNL     1     127.504 112.757 124.212  1.00  0.00     0.087 C 
ENDBRANCH   5   6
ENDBRANCH   1   5
TORSDOF 4
ENDMDL
MODEL 8
REMARK VINA RESULT:     0.000      5.495      6.576
REMARK INTER + INTRA:          -0.399
REMARK INTER:                   0.000
REMARK INTRA:                  -0.399
REMARK UNBOUND:                -0.400
REMARK SMILES CCCCCC(C)=O
REMARK SMILES IDX 4 1 3 2 2 3 1 4 5 5 6 6 8 7 7 8
REMARK H PARENT
REMARK Flexibility Score: inf
ROOT
ATOM      1  C   UNL     1     117.803 126.384 122.903  1.00  0.00     0.008 C 
ENDROOT
BRANCH   1   2
ATOM      2  C   UNL     1     117.748 127.293 121.665  1.00  0.00     0.000 C 
BRANCH   2   3
ATOM      3  C   UNL     1     117.332 128.731 122.007  1.00  0.00    -0.003 C 
ATOM      4  C   UNL     1     118.500 129.697 121.831  1.00  0.00     0.004 C 
ENDBRANCH   2   3
ENDBRANCH   1   2
BRANCH   1   5
ATOM      5  C   UNL     1     119.194 125.779 123.131  1.00  0.00     0.075 C 
BRANCH   5   6
ATOM      6  C   UNL     1     120.170 126.838 123.565  1.00  0.00     0.129 C 
ATOM      7  O   UNL     1     121.161 127.066 122.886  1.00  0.00    -0.300 OA
ATOM      8  C   UNL     1     119.925 127.632 124.813  1.00  0.00     0.087 C 
ENDBRANCH   5   6
ENDBRANCH   1   5
TORSDOF 4
ENDMDL
MODEL 9
REMARK VINA RESULT:     0.000     10.593     11.677
REMARK INTER + INTRA:          -0.399
REMARK INTER:                   0.000
REMARK INTRA:                  -0.399
REMARK UNBOUND:                -0.400
REMARK SMILES CCCCCC(C)=O
REMARK SMILES IDX 4 1 3 2 2 3 1 4 5 5 6 6 8 7 7 8
REMARK H PARENT
REMARK Flexibility Score: inf
ROOT
ATOM      1  C   UNL     1     124.943 113.523 124.390  1.00  0.00     0.008 C 
ENDROOT
BRANCH   1   2
ATOM      2  C   UNL     1     125.801 113.975 125.583  1.00  0.00     0.000 C 
BRANCH   2   3
ATOM      3  C   UNL     1     125.120 113.712 126.933  1.00  0.00    -0.003 C 
ATOM      4  C   UNL     1     125.836 112.606 127.703  1.00  0.00     0.004 C 
ENDBRANCH   2   3
ENDBRANCH   1   2
BRANCH   1   5
ATOM      5  C   UNL     1     125.644 112.468 123.524  1.00  0.00     0.075 C 
BRANCH   5   6
ATOM      6  C   UNL     1     125.747 111.160 124.258  1.00  0.00     0.129 C 
ATOM      7  O   UNL     1     126.846 110.675 124.484  1.00  0.00    -0.300 OA
ATOM      8  C   UNL     1     124.512 110.456 124.734  1.00  0.00     0.087 C 
ENDBRANCH   5   6
ENDBRANCH   1   5
TORSDOF 4
ENDMDL
