MODEL 1
REMARK VINA RESULT:    -6.533      0.000      0.000
REMARK INTER + INTRA:          -7.807
REMARK INTER:                  -7.488
REMARK INTRA:                  -0.320
REMARK UNBOUND:                -0.320
REMARK SMILES O=C1C[C@H](c2ccc(O)cc2)Oc2cc(O)cc(O)c21
REMARK SMILES IDX 3 1 4 2 12 3 13 4 14 5 15 6 17 7 18 8 20 9 2 10 1 11 5 12
REMARK SMILES IDX 6 13 11 14 7 15 10 16 8 17 9 18 19 20 16 22
REMARK H PARENT 9 19 19 21 16 23
REMARK Flexibility Score: inf
ROOT
ATOM      1  C   UNL     1      -3.380   4.680   1.661  1.00  0.00     0.131 C 
ATOM      2  C   UNL     1      -2.850   4.373   0.255  1.00  0.00     0.211 C 
ATOM      3  O   UNL     1      -1.878   3.325   0.300  1.00  0.00    -0.484 OA
ATOM      4  C   UNL     1      -0.927   3.219   1.326  1.00  0.00     0.138 A 
ATOM      5  C   UNL     1       0.152   2.349   1.161  1.00  0.00     0.093 A 
ATOM      6  C   UNL     1       1.123   2.233   2.156  1.00  0.00     0.123 A 
ATOM      7  C   UNL     1       0.997   2.972   3.338  1.00  0.00     0.093 A 
ATOM      8  C   UNL     1      -0.097   3.821   3.540  1.00  0.00     0.133 A 
ATOM      9  C   UNL     1      -1.061   3.977   2.509  1.00  0.00     0.102 A 
ATOM     10  C   UNL     1      -2.220   4.900   2.587  1.00  0.00     0.174 C 
ATOM     11  O   UNL     1      -2.231   5.889   3.367  1.00  0.00    -0.294 OA
ENDROOT
BRANCH   2  12
ATOM     12  C   UNL     1      -3.980   3.990  -0.670  1.00  0.00    -0.007 A 
ATOM     13  C   UNL     1      -3.809   2.970  -1.624  1.00  0.00     0.011 A 
ATOM     14  C   UNL     1      -5.235   4.611  -0.549  1.00  0.00     0.011 A 
ATOM     15  C   UNL     1      -4.867   2.599  -2.458  1.00  0.00     0.046 A 
ATOM     16  C   UNL     1      -6.292   4.236  -1.385  1.00  0.00     0.046 A 
ATOM     17  C   UNL     1      -6.111   3.233  -2.342  1.00  0.00     0.115 A 
BRANCH  17  18
ATOM     18  O   UNL     1      -7.173   2.870  -3.167  1.00  0.00    -0.508 OA
ATOM     19  H   UNL     1      -8.136   3.017  -2.886  1.00  0.00     0.293 HD
ENDBRANCH  17  18
ENDBRANCH   2  12
BRANCH   8  20
ATOM     20  O   UNL     1      -0.199   4.452   4.782  1.00  0.00    -0.507 OA
ATOM     21  H   UNL     1      -0.891   4.218   5.479  1.00  0.00     0.293 HD
ENDBRANCH   8  20
BRANCH   6  22
ATOM     22  O   UNL     1       2.204   1.376   1.965  1.00  0.00    -0.508 OA
ATOM     23  H   UNL     1       3.063   1.481   2.493  1.00  0.00     0.293 HD
ENDBRANCH   6  22
TORSDOF 4
ENDMDL
MODEL 2
REMARK VINA RESULT:    -6.144      4.921      7.279
REMARK INTER + INTRA:          -7.362
REMARK INTER:                  -7.063
REMARK INTRA:                  -0.298
REMARK UNBOUND:                -0.320
REMARK SMILES O=C1C[C@H](c2ccc(O)cc2)Oc2cc(O)cc(O)c21
REMARK SMILES IDX 3 1 4 2 12 3 13 4 14 5 15 6 17 7 18 8 20 9 2 10 1 11 5 12
REMARK SMILES IDX 6 13 11 14 7 15 10 16 8 17 9 18 19 20 16 22
REMARK H PARENT 9 19 19 21 16 23
REMARK Flexibility Score: inf
ROOT
ATOM      1  C   UNL     1      -2.645   5.762  -3.241  1.00  0.00     0.131 C 
ATOM      2  C   UNL     1      -3.893   5.132  -3.873  1.00  0.00     0.211 C 
ATOM      3  O   UNL     1      -3.539   4.349  -5.016  1.00  0.00    -0.484 OA
ATOM      4  C   UNL     1      -2.553   4.748  -5.930  1.00  0.00     0.138 A 
ATOM      5  C   UNL     1      -2.458   4.085  -7.155  1.00  0.00     0.093 A 
ATOM      6  C   UNL     1      -1.497   4.469  -8.091  1.00  0.00     0.123 A 
ATOM      7  C   UNL     1      -0.606   5.505  -7.788  1.00  0.00     0.093 A 
ATOM      8  C   UNL     1      -0.660   6.157  -6.551  1.00  0.00     0.133 A 
ATOM      9  C   UNL     1      -1.667   5.801  -5.615  1.00  0.00     0.102 A 
ATOM     10  C   UNL     1      -1.861   6.471  -4.305  1.00  0.00     0.174 C 
ATOM     11  O   UNL     1      -1.433   7.635  -4.085  1.00  0.00    -0.294 OA
ENDROOT
BRANCH   2  12
ATOM     12  C   UNL     1      -4.626   4.276  -2.867  1.00  0.00    -0.007 A 
ATOM     13  C   UNL     1      -5.786   3.571  -3.239  1.00  0.00     0.011 A 
ATOM     14  C   UNL     1      -4.125   4.130  -1.563  1.00  0.00     0.011 A 
ATOM     15  C   UNL     1      -6.444   2.757  -2.314  1.00  0.00     0.046 A 
ATOM     16  C   UNL     1      -4.787   3.315  -0.639  1.00  0.00     0.046 A 
ATOM     17  C   UNL     1      -5.947   2.628  -1.010  1.00  0.00     0.115 A 
BRANCH  17  18
ATOM     18  O   UNL     1      -6.594   1.819  -0.080  1.00  0.00    -0.508 OA
ATOM     19  H   UNL     1      -6.885   0.875  -0.310  1.00  0.00     0.293 HD
ENDBRANCH  17  18
ENDBRANCH   2  12
BRANCH   8  20
ATOM     20  O   UNL     1       0.322   7.116  -6.288  1.00  0.00    -0.507 OA
ATOM     21  H   UNL     1       0.901   7.539  -6.999  1.00  0.00     0.293 HD
ENDBRANCH   8  20
BRANCH   6  22
ATOM     22  O   UNL     1      -1.430   3.810  -9.317  1.00  0.00    -0.508 OA
ATOM     23  H   UNL     1      -0.589   3.825  -9.881  1.00  0.00     0.293 HD
ENDBRANCH   6  22
TORSDOF 4
ENDMDL
MODEL 3
REMARK VINA RESULT:    -5.941      3.190      6.554
REMARK INTER + INTRA:          -7.129
REMARK INTER:                  -6.809
REMARK INTRA:                  -0.320
REMARK UNBOUND:                -0.320
REMARK SMILES O=C1C[C@H](c2ccc(O)cc2)Oc2cc(O)cc(O)c21
REMARK SMILES IDX 3 1 4 2 12 3 13 4 14 5 15 6 17 7 18 8 20 9 2 10 1 11 5 12
REMARK SMILES IDX 6 13 11 14 7 15 10 16 8 17 9 18 19 20 16 22
REMARK H PARENT 9 19 19 21 16 23
REMARK Flexibility Score: inf
ROOT
ATOM      1  C   UNL     1      -1.202   3.739   1.985  1.00  0.00     0.131 C 
ATOM      2  C   UNL     1      -1.176   2.682   3.096  1.00  0.00     0.211 C 
ATOM      3  O   UNL     1      -2.466   2.084   3.253  1.00  0.00    -0.484 OA
ATOM      4  C   UNL     1      -3.656   2.820   3.167  1.00  0.00     0.138 A 
ATOM      5  C   UNL     1      -4.847   2.234   3.602  1.00  0.00     0.093 A 
ATOM      6  C   UNL     1      -6.045   2.946   3.544  1.00  0.00     0.123 A 
ATOM      7  C   UNL     1      -6.057   4.244   3.018  1.00  0.00     0.093 A 
ATOM      8  C   UNL     1      -4.882   4.835   2.540  1.00  0.00     0.133 A 
ATOM      9  C   UNL     1      -3.653   4.131   2.643  1.00  0.00     0.102 A 
ATOM     10  C   UNL     1      -2.339   4.686   2.234  1.00  0.00     0.174 C 
ATOM     11  O   UNL     1      -2.141   5.926   2.145  1.00  0.00    -0.294 OA
ENDROOT
BRANCH   2  12
ATOM     12  C   UNL     1      -0.146   1.619   2.797  1.00  0.00    -0.007 A 
ATOM     13  C   UNL     1      -0.416   0.265   3.068  1.00  0.00     0.011 A 
ATOM     14  C   UNL     1       1.074   1.965   2.191  1.00  0.00     0.011 A 
ATOM     15  C   UNL     1       0.529  -0.718   2.763  1.00  0.00     0.046 A 
ATOM     16  C   UNL     1       2.016   0.978   1.887  1.00  0.00     0.046 A 
ATOM     17  C   UNL     1       1.748  -0.364   2.172  1.00  0.00     0.115 A 
BRANCH  17  18
ATOM     18  O   UNL     1       2.697  -1.336   1.862  1.00  0.00    -0.508 OA
ATOM     19  H   UNL     1       3.242  -1.793   2.584  1.00  0.00     0.293 HD
ENDBRANCH  17  18
ENDBRANCH   2  12
BRANCH   8  20
ATOM     20  O   UNL     1      -4.993   6.094   1.947  1.00  0.00    -0.507 OA
ATOM     21  H   UNL     1      -5.322   6.246   1.004  1.00  0.00     0.293 HD
ENDBRANCH   8  20
BRANCH   6  22
ATOM     22  O   UNL     1      -7.220   2.354   4.002  1.00  0.00    -0.508 OA
ATOM     23  H   UNL     1      -7.468   1.405   3.748  1.00  0.00     0.293 HD
ENDBRANCH   6  22
TORSDOF 4
ENDMDL
MODEL 4
REMARK VINA RESULT:    -5.908      2.153      6.899
REMARK INTER + INTRA:          -7.091
REMARK INTER:                  -6.775
REMARK INTRA:                  -0.316
REMARK UNBOUND:                -0.320
REMARK SMILES O=C1C[C@H](c2ccc(O)cc2)Oc2cc(O)cc(O)c21
REMARK SMILES IDX 3 1 4 2 12 3 13 4 14 5 15 6 17 7 18 8 20 9 2 10 1 11 5 12
REMARK SMILES IDX 6 13 11 14 7 15 10 16 8 17 9 18 19 20 16 22
REMARK H PARENT 9 19 19 21 16 23
REMARK Flexibility Score: inf
ROOT
ATOM      1  C   UNL     1      -2.161   3.478  -0.302  1.00  0.00     0.131 C 
ATOM      2  C   UNL     1      -2.123   3.771   1.204  1.00  0.00     0.211 C 
ATOM      3  O   UNL     1      -3.426   3.633   1.777  1.00  0.00    -0.484 OA
ATOM      4  C   UNL     1      -4.589   4.061   1.122  1.00  0.00     0.138 A 
ATOM      5  C   UNL     1      -5.780   4.151   1.847  1.00  0.00     0.093 A 
ATOM      6  C   UNL     1      -6.951   4.588   1.228  1.00  0.00     0.123 A 
ATOM      7  C   UNL     1      -6.938   4.910  -0.135  1.00  0.00     0.093 A 
ATOM      8  C   UNL     1      -5.765   4.789  -0.889  1.00  0.00     0.133 A 
ATOM      9  C   UNL     1      -4.561   4.391  -0.250  1.00  0.00     0.102 A 
ATOM     10  C   UNL     1      -3.247   4.297  -0.934  1.00  0.00     0.174 C 
ATOM     11  O   UNL     1      -3.006   4.929  -1.997  1.00  0.00    -0.294 OA
ENDROOT
BRANCH   2  12
ATOM     12  C   UNL     1      -1.150   2.851   1.902  1.00  0.00    -0.007 A 
ATOM     13  C   UNL     1      -1.592   1.977   2.912  1.00  0.00     0.011 A 
ATOM     14  C   UNL     1       0.198   2.816   1.509  1.00  0.00     0.011 A 
ATOM     15  C   UNL     1      -0.694   1.107   3.535  1.00  0.00     0.046 A 
ATOM     16  C   UNL     1       1.094   1.943   2.134  1.00  0.00     0.046 A 
ATOM     17  C   UNL     1       0.652   1.088   3.148  1.00  0.00     0.115 A 
BRANCH  17  18
ATOM     18  O   UNL     1       1.556   0.224   3.761  1.00  0.00    -0.508 OA
ATOM     19  H   UNL     1       2.138  -0.406   3.220  1.00  0.00     0.293 HD
ENDBRANCH  17  18
ENDBRANCH   2  12
BRANCH   8  20
ATOM     20  O   UNL     1      -5.855   5.040  -2.260  1.00  0.00    -0.507 OA
ATOM     21  H   UNL     1      -6.378   4.465  -2.905  1.00  0.00     0.293 HD
ENDBRANCH   8  20
BRANCH   6  22
ATOM     22  O   UNL     1      -8.124   4.692   1.971  1.00  0.00    -0.508 OA
ATOM     23  H   UNL     1      -8.288   5.472   2.596  1.00  0.00     0.293 HD
ENDBRANCH   6  22
TORSDOF 4
ENDMDL
MODEL 5
REMARK VINA RESULT:    -5.839      2.295      6.213
REMARK INTER + INTRA:          -7.012
REMARK INTER:                  -6.724
REMARK INTRA:                  -0.288
REMARK UNBOUND:                -0.320
REMARK SMILES O=C1C[C@H](c2ccc(O)cc2)Oc2cc(O)cc(O)c21
REMARK SMILES IDX 3 1 4 2 12 3 13 4 14 5 15 6 17 7 18 8 20 9 2 10 1 11 5 12
REMARK SMILES IDX 6 13 11 14 7 15 10 16 8 17 9 18 19 20 16 22
REMARK H PARENT 9 19 19 21 16 23
REMARK Flexibility Score: inf
ROOT
ATOM      1  C   UNL     1      -0.606   3.727   3.696  1.00  0.00     0.131 C 
ATOM      2  C   UNL     1      -1.185   2.566   2.877  1.00  0.00     0.211 C 
ATOM      3  O   UNL     1      -1.677   3.034   1.618  1.00  0.00    -0.484 OA
ATOM      4  C   UNL     1      -2.357   4.252   1.477  1.00  0.00     0.138 A 
ATOM      5  C   UNL     1      -3.044   4.511   0.290  1.00  0.00     0.093 A 
ATOM      6  C   UNL     1      -3.742   5.707   0.125  1.00  0.00     0.123 A 
ATOM      7  C   UNL     1      -3.728   6.666   1.145  1.00  0.00     0.093 A 
ATOM      8  C   UNL     1      -3.013   6.444   2.328  1.00  0.00     0.133 A 
ATOM      9  C   UNL     1      -2.342   5.207   2.517  1.00  0.00     0.102 A 
ATOM     10  C   UNL     1      -1.613   4.837   3.756  1.00  0.00     0.174 C 
ATOM     11  O   UNL     1      -1.857   5.391   4.860  1.00  0.00    -0.294 OA
ENDROOT
BRANCH   2  12
ATOM     12  C   UNL     1      -0.144   1.494   2.660  1.00  0.00    -0.007 A 
ATOM     13  C   UNL     1      -0.399   0.164   3.039  1.00  0.00     0.011 A 
ATOM     14  C   UNL     1       1.070   1.804   2.023  1.00  0.00     0.011 A 
ATOM     15  C   UNL     1       0.556  -0.831   2.809  1.00  0.00     0.046 A 
ATOM     16  C   UNL     1       2.022   0.807   1.795  1.00  0.00     0.046 A 
ATOM     17  C   UNL     1       1.770  -0.511   2.187  1.00  0.00     0.115 A 
BRANCH  17  18
ATOM     18  O   UNL     1       2.728  -1.494   1.951  1.00  0.00    -0.508 OA
ATOM     19  H   UNL     1       3.348  -1.449   1.150  1.00  0.00     0.293 HD
ENDBRANCH  17  18
ENDBRANCH   2  12
BRANCH   8  20
ATOM     20  O   UNL     1      -2.972   7.486   3.257  1.00  0.00    -0.507 OA
ATOM     21  H   UNL     1      -2.131   7.988   3.505  1.00  0.00     0.293 HD
ENDBRANCH   8  20
BRANCH   6  22
ATOM     22  O   UNL     1      -4.441   5.938  -1.058  1.00  0.00    -0.508 OA
ATOM     23  H   UNL     1      -4.059   6.523  -1.792  1.00  0.00     0.293 HD
ENDBRANCH   6  22
TORSDOF 4
ENDMDL
MODEL 6
REMARK VINA RESULT:    -5.742      1.774      2.035
REMARK INTER + INTRA:          -6.901
REMARK INTER:                  -6.609
REMARK INTRA:                  -0.292
REMARK UNBOUND:                -0.320
REMARK SMILES O=C1C[C@H](c2ccc(O)cc2)Oc2cc(O)cc(O)c21
REMARK SMILES IDX 3 1 4 2 12 3 13 4 14 5 15 6 17 7 18 8 20 9 2 10 1 11 5 12
REMARK SMILES IDX 6 13 11 14 7 15 10 16 8 17 9 18 19 20 16 22
REMARK H PARENT 9 19 19 21 16 23
REMARK Flexibility Score: inf
ROOT
ATOM      1  C   UNL     1      -3.459   3.529   1.726  1.00  0.00     0.131 C 
ATOM      2  C   UNL     1      -2.526   4.191   0.704  1.00  0.00     0.211 C 
ATOM      3  O   UNL     1      -1.383   3.368   0.458  1.00  0.00    -0.484 OA
ATOM      4  C   UNL     1      -0.732   2.654   1.474  1.00  0.00     0.138 A 
ATOM      5  C   UNL     1       0.525   2.104   1.216  1.00  0.00     0.093 A 
ATOM      6  C   UNL     1       1.204   1.400   2.211  1.00  0.00     0.123 A 
ATOM      7  C   UNL     1       0.608   1.221   3.465  1.00  0.00     0.093 A 
ATOM      8  C   UNL     1      -0.668   1.731   3.732  1.00  0.00     0.133 A 
ATOM      9  C   UNL     1      -1.341   2.488   2.737  1.00  0.00     0.102 A 
ATOM     10  C   UNL     1      -2.663   3.133   2.934  1.00  0.00     0.174 C 
ATOM     11  O   UNL     1      -3.105   3.403   4.082  1.00  0.00    -0.294 OA
ENDROOT
BRANCH   2  12
ATOM     12  C   UNL     1      -3.257   4.461  -0.589  1.00  0.00    -0.007 A 
ATOM     13  C   UNL     1      -3.448   5.780  -1.040  1.00  0.00     0.011 A 
ATOM     14  C   UNL     1      -3.705   3.394  -1.386  1.00  0.00     0.011 A 
ATOM     15  C   UNL     1      -4.099   6.025  -2.252  1.00  0.00     0.046 A 
ATOM     16  C   UNL     1      -4.356   3.643  -2.599  1.00  0.00     0.046 A 
ATOM     17  C   UNL     1      -4.556   4.956  -3.034  1.00  0.00     0.115 A 
BRANCH  17  18
ATOM     18  O   UNL     1      -5.205   5.188  -4.245  1.00  0.00    -0.508 OA
ATOM     19  H   UNL     1      -5.889   5.929  -4.346  1.00  0.00     0.293 HD
ENDBRANCH  17  18
ENDBRANCH   2  12
BRANCH   8  20
ATOM     20  O   UNL     1      -1.232   1.430   4.974  1.00  0.00    -0.507 OA
ATOM     21  H   UNL     1      -2.183   1.652   5.231  1.00  0.00     0.293 HD
ENDBRANCH   8  20
BRANCH   6  22
ATOM     22  O   UNL     1       2.467   0.877   1.943  1.00  0.00    -0.508 OA
ATOM     23  H   UNL     1       2.593  -0.094   1.682  1.00  0.00     0.293 HD
ENDBRANCH   6  22
TORSDOF 4
ENDMDL
MODEL 7
REMARK VINA RESULT:    -5.728      1.844      6.737
REMARK INTER + INTRA:          -6.884
REMARK INTER:                  -6.599
REMARK INTRA:                  -0.286
REMARK UNBOUND:                -0.320
REMARK SMILES O=C1C[C@H](c2ccc(O)cc2)Oc2cc(O)cc(O)c21
REMARK SMILES IDX 3 1 4 2 12 3 13 4 14 5 15 6 17 7 18 8 20 9 2 10 1 11 5 12
REMARK SMILES IDX 6 13 11 14 7 15 10 16 8 17 9 18 19 20 16 22
REMARK H PARENT 9 19 19 21 16 23
REMARK Flexibility Score: inf
ROOT
ATOM      1  C   UNL     1      -3.135   5.466   1.008  1.00  0.00     0.131 C 
ATOM      2  C   UNL     1      -3.430   4.000   1.352  1.00  0.00     0.211 C 
ATOM      3  O   UNL     1      -4.014   3.328   0.232  1.00  0.00    -0.484 OA
ATOM      4  C   UNL     1      -4.955   3.938  -0.609  1.00  0.00     0.138 A 
ATOM      5  C   UNL     1      -5.681   3.144  -1.499  1.00  0.00     0.093 A 
ATOM      6  C   UNL     1      -6.636   3.719  -2.339  1.00  0.00     0.123 A 
ATOM      7  C   UNL     1      -6.845   5.103  -2.308  1.00  0.00     0.093 A 
ATOM      8  C   UNL     1      -6.100   5.922  -1.451  1.00  0.00     0.133 A 
ATOM      9  C   UNL     1      -5.163   5.333  -0.562  1.00  0.00     0.102 A 
ATOM     10  C   UNL     1      -4.371   6.095   0.436  1.00  0.00     0.174 C 
ATOM     11  O   UNL     1      -4.738   7.226   0.851  1.00  0.00    -0.294 OA
ENDROOT
BRANCH   2  12
ATOM     12  C   UNL     1      -2.170   3.289   1.783  1.00  0.00    -0.007 A 
ATOM     13  C   UNL     1      -2.146   2.532   2.968  1.00  0.00     0.011 A 
ATOM     14  C   UNL     1      -1.022   3.329   0.974  1.00  0.00     0.011 A 
ATOM     15  C   UNL     1      -0.987   1.851   3.348  1.00  0.00     0.046 A 
ATOM     16  C   UNL     1       0.137   2.646   1.357  1.00  0.00     0.046 A 
ATOM     17  C   UNL     1       0.159   1.908   2.543  1.00  0.00     0.115 A 
BRANCH  17  18
ATOM     18  O   UNL     1       1.320   1.232   2.911  1.00  0.00    -0.508 OA
ATOM     19  H   UNL     1       2.133   1.727   3.259  1.00  0.00     0.293 HD
ENDBRANCH  17  18
ENDBRANCH   2  12
BRANCH   8  20
ATOM     20  O   UNL     1      -6.302   7.300  -1.547  1.00  0.00    -0.507 OA
ATOM     21  H   UNL     1      -5.995   7.863  -2.328  1.00  0.00     0.293 HD
ENDBRANCH   8  20
BRANCH   6  22
ATOM     22  O   UNL     1      -7.366   2.909  -3.206  1.00  0.00    -0.508 OA
ATOM     23  H   UNL     1      -7.811   3.286  -4.034  1.00  0.00     0.293 HD
ENDBRANCH   6  22
TORSDOF 4
ENDMDL
MODEL 8
REMARK VINA RESULT:    -5.684      3.813      6.153
REMARK INTER + INTRA:          -6.835
REMARK INTER:                  -6.523
REMARK INTRA:                  -0.312
REMARK UNBOUND:                -0.320
REMARK SMILES O=C1C[C@H](c2ccc(O)cc2)Oc2cc(O)cc(O)c21
REMARK SMILES IDX 3 1 4 2 12 3 13 4 14 5 15 6 17 7 18 8 20 9 2 10 1 11 5 12
REMARK SMILES IDX 6 13 11 14 7 15 10 16 8 17 9 18 19 20 16 22
REMARK H PARENT 9 19 19 21 16 23
REMARK Flexibility Score: inf
ROOT
ATOM      1  C   UNL     1      -4.870   3.756  -3.925  1.00  0.00     0.131 C 
ATOM      2  C   UNL     1      -4.024   5.010  -3.666  1.00  0.00     0.211 C 
ATOM      3  O   UNL     1      -3.326   4.898  -2.423  1.00  0.00    -0.484 OA
ATOM      4  C   UNL     1      -3.904   4.330  -1.279  1.00  0.00     0.138 A 
ATOM      5  C   UNL     1      -3.276   4.505  -0.045  1.00  0.00     0.093 A 
ATOM      6  C   UNL     1      -3.834   3.965   1.114  1.00  0.00     0.123 A 
ATOM      7  C   UNL     1      -5.015   3.218   1.033  1.00  0.00     0.093 A 
ATOM      8  C   UNL     1      -5.640   2.996  -0.200  1.00  0.00     0.133 A 
ATOM      9  C   UNL     1      -5.100   3.586  -1.374  1.00  0.00     0.102 A 
ATOM     10  C   UNL     1      -5.716   3.476  -2.720  1.00  0.00     0.174 C 
ATOM     11  O   UNL     1      -6.938   3.210  -2.870  1.00  0.00    -0.294 OA
ENDROOT
BRANCH   2  12
ATOM     12  C   UNL     1      -3.043   5.235  -4.792  1.00  0.00    -0.007 A 
ATOM     13  C   UNL     1      -1.897   6.025  -4.594  1.00  0.00     0.011 A 
ATOM     14  C   UNL     1      -3.237   4.609  -6.035  1.00  0.00     0.011 A 
ATOM     15  C   UNL     1      -0.976   6.206  -5.630  1.00  0.00     0.046 A 
ATOM     16  C   UNL     1      -2.314   4.792  -7.069  1.00  0.00     0.046 A 
ATOM     17  C   UNL     1      -1.184   5.591  -6.871  1.00  0.00     0.115 A 
BRANCH  17  18
ATOM     18  O   UNL     1      -0.272   5.763  -7.911  1.00  0.00    -0.508 OA
ATOM     19  H   UNL     1       0.217   4.977  -8.322  1.00  0.00     0.293 HD
ENDBRANCH  17  18
ENDBRANCH   2  12
BRANCH   8  20
ATOM     20  O   UNL     1      -6.762   2.164  -0.210  1.00  0.00    -0.507 OA
ATOM     21  H   UNL     1      -7.714   2.500  -0.205  1.00  0.00     0.293 HD
ENDBRANCH   8  20
BRANCH   6  22
ATOM     22  O   UNL     1      -3.205   4.168   2.340  1.00  0.00    -0.508 OA
ATOM     23  H   UNL     1      -2.512   3.519   2.694  1.00  0.00     0.293 HD
ENDBRANCH   6  22
TORSDOF 4
ENDMDL
MODEL 9
REMARK VINA RESULT:    -5.661      2.058      6.939
REMARK INTER + INTRA:          -6.808
REMARK INTER:                  -6.522
REMARK INTRA:                  -0.286
REMARK UNBOUND:                -0.320
REMARK SMILES O=C1C[C@H](c2ccc(O)cc2)Oc2cc(O)cc(O)c21
REMARK SMILES IDX 3 1 4 2 12 3 13 4 14 5 15 6 17 7 18 8 20 9 2 10 1 11 5 12
REMARK SMILES IDX 6 13 11 14 7 15 10 16 8 17 9 18 19 20 16 22
REMARK H PARENT 9 19 19 21 16 23
REMARK Flexibility Score: inf
ROOT
ATOM      1  C   UNL     1      -4.122   3.609   1.049  1.00  0.00     0.131 C 
ATOM      2  C   UNL     1      -2.801   3.332   0.320  1.00  0.00     0.211 C 
ATOM      3  O   UNL     1      -2.614   4.260  -0.753  1.00  0.00    -0.484 OA
ATOM      4  C   UNL     1      -3.665   4.684  -1.578  1.00  0.00     0.138 A 
ATOM      5  C   UNL     1      -3.366   5.361  -2.761  1.00  0.00     0.093 A 
ATOM      6  C   UNL     1      -4.389   5.783  -3.611  1.00  0.00     0.123 A 
ATOM      7  C   UNL     1      -5.724   5.551  -3.258  1.00  0.00     0.093 A 
ATOM      8  C   UNL     1      -6.048   4.908  -2.057  1.00  0.00     0.133 A 
ATOM      9  C   UNL     1      -5.007   4.436  -1.215  1.00  0.00     0.102 A 
ATOM     10  C   UNL     1      -5.233   3.682   0.043  1.00  0.00     0.174 C 
ATOM     11  O   UNL     1      -6.306   3.061   0.261  1.00  0.00    -0.294 OA
ENDROOT
BRANCH   2  12
ATOM     12  C   UNL     1      -1.636   3.408   1.278  1.00  0.00    -0.007 A 
ATOM     13  C   UNL     1      -1.824   3.863   2.596  1.00  0.00     0.011 A 
ATOM     14  C   UNL     1      -0.362   2.970   0.880  1.00  0.00     0.011 A 
ATOM     15  C   UNL     1      -0.749   3.904   3.488  1.00  0.00     0.046 A 
ATOM     16  C   UNL     1       0.711   3.011   1.776  1.00  0.00     0.046 A 
ATOM     17  C   UNL     1       0.522   3.478   3.080  1.00  0.00     0.115 A 
BRANCH  17  18
ATOM     18  O   UNL     1       1.600   3.513   3.961  1.00  0.00    -0.508 OA
ATOM     19  H   UNL     1       1.681   4.232   4.671  1.00  0.00     0.293 HD
ENDBRANCH  17  18
ENDBRANCH   2  12
BRANCH   8  20
ATOM     20  O   UNL     1      -7.402   4.797  -1.734  1.00  0.00    -0.507 OA
ATOM     21  H   UNL     1      -8.134   5.332  -2.179  1.00  0.00     0.293 HD
ENDBRANCH   8  20
BRANCH   6  22
ATOM     22  O   UNL     1      -4.071   6.438  -4.798  1.00  0.00    -0.508 OA
ATOM     23  H   UNL     1      -3.128   6.435  -5.168  1.00  0.00     0.293 HD
ENDBRANCH   6  22
TORSDOF 4
ENDMDL
