MODEL 1
REMARK VINA RESULT:    -5.471      0.000      0.000
REMARK INTER + INTRA:          -9.202
REMARK INTER:                  -8.350
REMARK INTRA:                  -0.852
REMARK UNBOUND:                -0.852
REMARK SMILES CCCCCCCCCC=CC(=O)[O-]
REMARK SMILES IDX 7 1 8 2 9 3 10 4 11 5 12 6 13 7 14 8 6 9 5 10 4 11 3 12 2 13
REMARK SMILES IDX 1 14
REMARK H PARENT
REMARK Flexibility Score: inf
ROOT
ATOM      1  C   UNL     1       8.410 -47.276  38.359  1.00  0.00     0.000 C 
ENDROOT
BRANCH   1   2
ATOM      2  C   UNL     1       9.878 -47.261  38.809  1.00  0.00     0.004 C 
BRANCH   2   3
ATOM      3  C   UNL     1      10.562 -45.950  38.403  1.00  0.00     0.027 C 
BRANCH   3   4
ATOM      4  C   UNL     1      11.932 -46.201  37.841  1.00  0.00    -0.025 C 
ATOM      5  C   UNL     1      12.920 -46.688  38.601  1.00  0.00     0.020 C 
BRANCH   5   6
ATOM      6  C   UNL     1      14.273 -46.930  38.076  1.00  0.00     0.064 C 
ATOM      7  O   UNL     1      15.260 -47.049  38.850  1.00  0.00    -0.545 OA
ATOM      8  O   UNL     1      14.466 -47.026  36.704  1.00  0.00    -0.545 OA
ENDBRANCH   5   6
ENDBRANCH   3   4
ENDBRANCH   2   3
ENDBRANCH   1   2
BRANCH   1   9
ATOM      9  C   UNL     1       8.098 -48.429  37.391  1.00  0.00     0.000 C 
BRANCH   9  10
ATOM     10  C   UNL     1       7.858 -47.946  35.952  1.00  0.00     0.000 C 
BRANCH  10  11
ATOM     11  C   UNL     1       9.179 -47.535  35.285  1.00  0.00    -0.000 C 
BRANCH  11  12
ATOM     12  C   UNL     1       9.026 -46.305  34.377  1.00  0.00    -0.000 C 
BRANCH  12  13
ATOM     13  C   UNL     1      10.278 -45.415  34.371  1.00  0.00    -0.003 C 
ATOM     14  C   UNL     1      10.165 -44.316  33.317  1.00  0.00     0.004 C 
ENDBRANCH  12  13
ENDBRANCH  11  12
ENDBRANCH  10  11
ENDBRANCH   9  10
ENDBRANCH   1   9
TORSDOF 9
ENDMDL
MODEL 2
REMARK VINA RESULT:    -5.468      2.790      5.138
REMARK INTER + INTRA:          -9.197
REMARK INTER:                  -8.369
REMARK INTRA:                  -0.828
REMARK UNBOUND:                -0.852
REMARK SMILES CCCCCCCCCC=CC(=O)[O-]
REMARK SMILES IDX 7 1 8 2 9 3 10 4 11 5 12 6 13 7 14 8 6 9 5 10 4 11 3 12 2 13
REMARK SMILES IDX 1 14
REMARK H PARENT
REMARK Flexibility Score: inf
ROOT
ATOM      1  C   UNL     1       9.255 -47.001  38.408  1.00  0.00     0.000 C 
ENDROOT
BRANCH   1   2
ATOM      2  C   UNL     1       8.388 -48.237  38.127  1.00  0.00     0.004 C 
BRANCH   2   3
ATOM      3  C   UNL     1       8.181 -48.429  36.620  1.00  0.00     0.027 C 
BRANCH   3   4
ATOM      4  C   UNL     1       8.357 -47.136  35.877  1.00  0.00    -0.025 C 
ATOM      5  C   UNL     1       9.102 -47.064  34.768  1.00  0.00     0.020 C 
BRANCH   5   6
ATOM      6  C   UNL     1       9.300 -45.806  34.031  1.00  0.00     0.064 C 
ATOM      7  O   UNL     1       8.700 -44.751  34.371  1.00  0.00    -0.545 OA
ATOM      8  O   UNL     1      10.161 -45.781  32.942  1.00  0.00    -0.545 OA
ENDBRANCH   5   6
ENDBRANCH   3   4
ENDBRANCH   2   3
ENDBRANCH   1   2
BRANCH   1   9
ATOM      9  C   UNL     1      10.494 -47.326  39.259  1.00  0.00     0.000 C 
BRANCH   9  10
ATOM     10  C   UNL     1      11.661 -46.360  39.002  1.00  0.00     0.000 C 
BRANCH  10  11
ATOM     11  C   UNL     1      11.794 -46.049  37.504  1.00  0.00    -0.000 C 
BRANCH  11  12
ATOM     12  C   UNL     1      13.254 -46.053  37.026  1.00  0.00    -0.000 C 
BRANCH  12  13
ATOM     13  C   UNL     1      14.199 -46.750  38.015  1.00  0.00    -0.003 C 
ATOM     14  C   UNL     1      15.166 -47.681  37.288  1.00  0.00     0.004 C 
ENDBRANCH  12  13
ENDBRANCH  11  12
ENDBRANCH  10  11
ENDBRANCH   9  10
ENDBRANCH   1   9
TORSDOF 9
ENDMDL
MODEL 3
REMARK VINA RESULT:    -5.412      2.926      5.030
REMARK INTER + INTRA:          -9.112
REMARK INTER:                  -7.837
REMARK INTRA:                  -1.276
REMARK UNBOUND:                -0.852
REMARK SMILES CCCCCCCCCC=CC(=O)[O-]
REMARK SMILES IDX 7 1 8 2 9 3 10 4 11 5 12 6 13 7 14 8 6 9 5 10 4 11 3 12 2 13
REMARK SMILES IDX 1 14
REMARK H PARENT
REMARK Flexibility Score: inf
ROOT
ATOM      1  C   UNL     1       7.851 -48.609  37.364  1.00  0.00     0.000 C 
ENDROOT
BRANCH   1   2
ATOM      2  C   UNL     1       7.699 -47.846  36.040  1.00  0.00     0.004 C 
BRANCH   2   3
ATOM      3  C   UNL     1       9.021 -47.828  35.264  1.00  0.00     0.027 C 
BRANCH   3   4
ATOM      4  C   UNL     1       9.046 -46.713  34.257  1.00  0.00    -0.025 C 
ATOM      5  C   UNL     1       9.054 -45.430  34.635  1.00  0.00     0.020 C 
BRANCH   5   6
ATOM      6  C   UNL     1       9.064 -44.322  33.667  1.00  0.00     0.064 C 
ATOM      7  O   UNL     1      10.147 -43.818  33.266  1.00  0.00    -0.545 OA
ATOM      8  O   UNL     1       7.860 -43.823  33.189  1.00  0.00    -0.545 OA
ENDBRANCH   5   6
ENDBRANCH   3   4
ENDBRANCH   2   3
ENDBRANCH   1   2
BRANCH   1   9
ATOM      9  C   UNL     1       8.741 -47.870  38.376  1.00  0.00     0.000 C 
BRANCH   9  10
ATOM     10  C   UNL     1       8.295 -46.418  38.609  1.00  0.00     0.000 C 
BRANCH  10  11
ATOM     11  C   UNL     1       9.463 -45.444  38.393  1.00  0.00    -0.000 C 
BRANCH  11  12
ATOM     12  C   UNL     1      10.828 -46.149  38.381  1.00  0.00    -0.000 C 
BRANCH  12  13
ATOM     13  C   UNL     1      11.600 -45.922  37.073  1.00  0.00    -0.003 C 
ATOM     14  C   UNL     1      13.100 -46.110  37.280  1.00  0.00     0.004 C 
ENDBRANCH  12  13
ENDBRANCH  11  12
ENDBRANCH  10  11
ENDBRANCH   9  10
ENDBRANCH   1   9
TORSDOF 9
ENDMDL
MODEL 4
REMARK VINA RESULT:    -5.360      2.658      5.020
REMARK INTER + INTRA:          -9.032
REMARK INTER:                  -8.117
REMARK INTRA:                  -0.915
REMARK UNBOUND:                -0.852
REMARK SMILES CCCCCCCCCC=CC(=O)[O-]
REMARK SMILES IDX 7 1 8 2 9 3 10 4 11 5 12 6 13 7 14 8 6 9 5 10 4 11 3 12 2 13
REMARK SMILES IDX 1 14
REMARK H PARENT
REMARK Flexibility Score: inf
ROOT
ATOM      1  C   UNL     1       8.507 -46.577  37.996  1.00  0.00     0.000 C 
ENDROOT
BRANCH   1   2
ATOM      2  C   UNL     1       7.997 -47.417  36.817  1.00  0.00     0.004 C 
BRANCH   2   3
ATOM      3  C   UNL     1       9.137 -47.743  35.844  1.00  0.00     0.027 C 
BRANCH   3   4
ATOM      4  C   UNL     1       9.192 -46.750  34.718  1.00  0.00    -0.025 C 
ATOM      5  C   UNL     1      10.061 -45.732  34.727  1.00  0.00     0.020 C 
BRANCH   5   6
ATOM      6  C   UNL     1      10.124 -44.740  33.642  1.00  0.00     0.064 C 
ATOM      7  O   UNL     1       9.302 -43.786  33.584  1.00  0.00    -0.545 OA
ATOM      8  O   UNL     1      11.104 -44.857  32.666  1.00  0.00    -0.545 OA
ENDBRANCH   5   6
ENDBRANCH   3   4
ENDBRANCH   2   3
ENDBRANCH   1   2
BRANCH   1   9
ATOM      9  C   UNL     1       9.788 -47.151  38.623  1.00  0.00     0.000 C 
BRANCH   9  10
ATOM     10  C   UNL     1      10.847 -46.074  38.902  1.00  0.00     0.000 C 
BRANCH  10  11
ATOM     11  C   UNL     1      12.246 -46.563  38.500  1.00  0.00    -0.000 C 
BRANCH  11  12
ATOM     12  C   UNL     1      12.714 -45.985  37.156  1.00  0.00    -0.000 C 
BRANCH  12  13
ATOM     13  C   UNL     1      14.244 -45.943  37.030  1.00  0.00    -0.003 C 
ATOM     14  C   UNL     1      14.901 -46.944  37.977  1.00  0.00     0.004 C 
ENDBRANCH  12  13
ENDBRANCH  11  12
ENDBRANCH  10  11
ENDBRANCH   9  10
ENDBRANCH   1   9
TORSDOF 9
ENDMDL
MODEL 5
REMARK VINA RESULT:    -5.283      0.816      1.463
REMARK INTER + INTRA:          -8.915
REMARK INTER:                  -7.849
REMARK INTRA:                  -1.065
REMARK UNBOUND:                -0.852
REMARK SMILES CCCCCCCCCC=CC(=O)[O-]
REMARK SMILES IDX 7 1 8 2 9 3 10 4 11 5 12 6 13 7 14 8 6 9 5 10 4 11 3 12 2 13
REMARK SMILES IDX 1 14
REMARK H PARENT
REMARK Flexibility Score: inf
ROOT
ATOM      1  C   UNL     1       8.372 -47.048  38.853  1.00  0.00     0.000 C 
ENDROOT
BRANCH   1   2
ATOM      2  C   UNL     1       9.885 -47.221  38.655  1.00  0.00     0.004 C 
BRANCH   2   3
ATOM      3  C   UNL     1      10.540 -45.894  38.254  1.00  0.00     0.027 C 
BRANCH   3   4
ATOM      4  C   UNL     1      11.923 -46.112  37.709  1.00  0.00    -0.025 C 
ATOM      5  C   UNL     1      12.888 -46.665  38.453  1.00  0.00     0.020 C 
BRANCH   5   6
ATOM      6  C   UNL     1      14.253 -46.876  37.945  1.00  0.00     0.064 C 
ATOM      7  O   UNL     1      14.478 -46.983  36.710  1.00  0.00    -0.545 OA
ATOM      8  O   UNL     1      15.310 -46.960  38.841  1.00  0.00    -0.545 OA
ENDBRANCH   5   6
ENDBRANCH   3   4
ENDBRANCH   2   3
ENDBRANCH   1   2
BRANCH   1   9
ATOM      9  C   UNL     1       7.546 -47.956  37.928  1.00  0.00     0.000 C 
BRANCH   9  10
ATOM     10  C   UNL     1       8.416 -48.742  36.936  1.00  0.00     0.000 C 
BRANCH  10  11
ATOM     11  C   UNL     1       7.707 -48.889  35.581  1.00  0.00    -0.000 C 
BRANCH  11  12
ATOM     12  C   UNL     1       8.358 -48.042  34.477  1.00  0.00    -0.000 C 
BRANCH  12  13
ATOM     13  C   UNL     1       9.413 -47.069  35.022  1.00  0.00    -0.003 C 
ATOM     14  C   UNL     1       9.047 -45.623  34.697  1.00  0.00     0.004 C 
ENDBRANCH  12  13
ENDBRANCH  11  12
ENDBRANCH  10  11
ENDBRANCH   9  10
ENDBRANCH   1   9
TORSDOF 9
ENDMDL
MODEL 6
REMARK VINA RESULT:    -5.191      3.929      6.430
REMARK INTER + INTRA:          -8.775
REMARK INTER:                  -8.298
REMARK INTRA:                  -0.477
REMARK UNBOUND:                -0.852
REMARK SMILES CCCCCCCCCC=CC(=O)[O-]
REMARK SMILES IDX 7 1 8 2 9 3 10 4 11 5 12 6 13 7 14 8 6 9 5 10 4 11 3 12 2 13
REMARK SMILES IDX 1 14
REMARK H PARENT
REMARK Flexibility Score: inf
ROOT
ATOM      1  C   UNL     1       9.757 -47.149  37.203  1.00  0.00     0.000 C 
ENDROOT
BRANCH   1   2
ATOM      2  C   UNL     1       9.283 -47.191  35.743  1.00  0.00     0.004 C 
BRANCH   2   3
ATOM      3  C   UNL     1       9.837 -46.000  34.953  1.00  0.00     0.027 C 
BRANCH   3   4
ATOM      4  C   UNL     1       8.906 -45.603  33.843  1.00  0.00    -0.025 C 
ATOM      5  C   UNL     1       8.853 -44.344  33.393  1.00  0.00     0.020 C 
BRANCH   5   6
ATOM      6  C   UNL     1       7.939 -43.929  32.317  1.00  0.00     0.064 C 
ATOM      7  O   UNL     1       6.998 -43.120  32.537  1.00  0.00    -0.545 OA
ATOM      8  O   UNL     1       8.116 -44.438  31.037  1.00  0.00    -0.545 OA
ENDBRANCH   5   6
ENDBRANCH   3   4
ENDBRANCH   2   3
ENDBRANCH   1   2
BRANCH   1   9
ATOM      9  C   UNL     1      10.492 -45.844  37.550  1.00  0.00     0.000 C 
BRANCH   9  10
ATOM     10  C   UNL     1      12.004 -46.046  37.736  1.00  0.00     0.000 C 
BRANCH  10  11
ATOM     11  C   UNL     1      12.299 -46.811  39.034  1.00  0.00    -0.000 C 
BRANCH  11  12
ATOM     12  C   UNL     1      13.673 -47.500  39.017  1.00  0.00    -0.000 C 
BRANCH  12  13
ATOM     13  C   UNL     1      14.649 -46.847  38.028  1.00  0.00    -0.003 C 
ATOM     14  C   UNL     1      15.321 -47.896  37.145  1.00  0.00     0.004 C 
ENDBRANCH  12  13
ENDBRANCH  11  12
ENDBRANCH  10  11
ENDBRANCH   9  10
ENDBRANCH   1   9
TORSDOF 9
ENDMDL
MODEL 7
REMARK VINA RESULT:    -5.190      2.599      4.250
REMARK INTER + INTRA:          -8.773
REMARK INTER:                  -7.659
REMARK INTRA:                  -1.114
REMARK UNBOUND:                -0.852
REMARK SMILES CCCCCCCCCC=CC(=O)[O-]
REMARK SMILES IDX 7 1 8 2 9 3 10 4 11 5 12 6 13 7 14 8 6 9 5 10 4 11 3 12 2 13
REMARK SMILES IDX 1 14
REMARK H PARENT
REMARK Flexibility Score: inf
ROOT
ATOM      1  C   UNL     1       6.010 -47.994  33.620  1.00  0.00     0.000 C 
ENDROOT
BRANCH   1   2
ATOM      2  C   UNL     1       7.530 -47.995  33.842  1.00  0.00     0.004 C 
BRANCH   2   3
ATOM      3  C   UNL     1       7.876 -47.541  35.265  1.00  0.00     0.027 C 
BRANCH   3   4
ATOM      4  C   UNL     1       9.298 -47.067  35.355  1.00  0.00    -0.025 C 
ATOM      5  C   UNL     1       9.790 -46.542  36.483  1.00  0.00     0.020 C 
BRANCH   5   6
ATOM      6  C   UNL     1      11.176 -46.058  36.589  1.00  0.00     0.064 C 
ATOM      7  O   UNL     1      11.899 -45.925  35.566  1.00  0.00    -0.545 OA
ATOM      8  O   UNL     1      11.695 -45.745  37.838  1.00  0.00    -0.545 OA
ENDBRANCH   5   6
ENDBRANCH   3   4
ENDBRANCH   2   3
ENDBRANCH   1   2
BRANCH   1   9
ATOM      9  C   UNL     1       5.572 -47.010  32.523  1.00  0.00     0.000 C 
BRANCH   9  10
ATOM     10  C   UNL     1       6.663 -46.776  31.467  1.00  0.00     0.000 C 
BRANCH  10  11
ATOM     11  C   UNL     1       6.880 -45.275  31.226  1.00  0.00    -0.000 C 
BRANCH  11  12
ATOM     12  C   UNL     1       8.324 -44.831  31.508  1.00  0.00    -0.000 C 
BRANCH  12  13
ATOM     13  C   UNL     1       8.520 -44.338  32.949  1.00  0.00    -0.003 C 
ATOM     14  C   UNL     1       9.983 -43.992  33.217  1.00  0.00     0.004 C 
ENDBRANCH  12  13
ENDBRANCH  11  12
ENDBRANCH  10  11
ENDBRANCH   9  10
ENDBRANCH   1   9
TORSDOF 9
ENDMDL
MODEL 8
REMARK VINA RESULT:    -5.139      2.018      2.528
REMARK INTER + INTRA:          -8.695
REMARK INTER:                  -8.116
REMARK INTRA:                  -0.579
REMARK UNBOUND:                -0.852
REMARK SMILES CCCCCCCCCC=CC(=O)[O-]
REMARK SMILES IDX 7 1 8 2 9 3 10 4 11 5 12 6 13 7 14 8 6 9 5 10 4 11 3 12 2 13
REMARK SMILES IDX 1 14
REMARK H PARENT
REMARK Flexibility Score: inf
ROOT
ATOM      1  C   UNL     1       8.834 -47.143  38.854  1.00  0.00     0.000 C 
ENDROOT
BRANCH   1   2
ATOM      2  C   UNL     1      10.346 -46.880  38.894  1.00  0.00     0.004 C 
BRANCH   2   3
ATOM      3  C   UNL     1      10.768 -45.938  37.760  1.00  0.00     0.027 C 
BRANCH   3   4
ATOM      4  C   UNL     1      12.213 -46.134  37.398  1.00  0.00    -0.025 C 
ATOM      5  C   UNL     1      13.067 -46.735  38.234  1.00  0.00     0.020 C 
BRANCH   5   6
ATOM      6  C   UNL     1      14.489 -46.926  37.907  1.00  0.00     0.064 C 
ATOM      7  O   UNL     1      15.367 -46.947  38.810  1.00  0.00    -0.545 OA
ATOM      8  O   UNL     1      14.869 -47.083  36.581  1.00  0.00    -0.545 OA
ENDBRANCH   5   6
ENDBRANCH   3   4
ENDBRANCH   2   3
ENDBRANCH   1   2
BRANCH   1   9
ATOM      9  C   UNL     1       8.366 -47.705  37.501  1.00  0.00     0.000 C 
BRANCH   9  10
ATOM     10  C   UNL     1       7.310 -48.811  37.652  1.00  0.00     0.000 C 
BRANCH  10  11
ATOM     11  C   UNL     1       7.565 -49.952  36.656  1.00  0.00    -0.000 C 
BRANCH  11  12
ATOM     12  C   UNL     1       7.850 -49.445  35.234  1.00  0.00    -0.000 C 
BRANCH  12  13
ATOM     13  C   UNL     1       6.605 -49.477  34.335  1.00  0.00    -0.003 C 
ATOM     14  C   UNL     1       6.150 -48.065  33.976  1.00  0.00     0.004 C 
ENDBRANCH  12  13
ENDBRANCH  11  12
ENDBRANCH  10  11
ENDBRANCH   9  10
ENDBRANCH   1   9
TORSDOF 9
ENDMDL
MODEL 9
REMARK VINA RESULT:    -5.132      1.099      1.522
REMARK INTER + INTRA:          -8.684
REMARK INTER:                  -7.849
REMARK INTRA:                  -0.835
REMARK UNBOUND:                -0.852
REMARK SMILES CCCCCCCCCC=CC(=O)[O-]
REMARK SMILES IDX 7 1 8 2 9 3 10 4 11 5 12 6 13 7 14 8 6 9 5 10 4 11 3 12 2 13
REMARK SMILES IDX 1 14
REMARK H PARENT
REMARK Flexibility Score: inf
ROOT
ATOM      1  C   UNL     1       8.666 -47.851  37.507  1.00  0.00     0.000 C 
ENDROOT
BRANCH   1   2
ATOM      2  C   UNL     1       9.431 -47.441  38.774  1.00  0.00     0.004 C 
BRANCH   2   3
ATOM      3  C   UNL     1      10.350 -46.245  38.495  1.00  0.00     0.027 C 
BRANCH   3   4
ATOM      4  C   UNL     1      11.786 -46.676  38.385  1.00  0.00    -0.025 C 
ATOM      5  C   UNL     1      12.641 -46.052  37.567  1.00  0.00     0.020 C 
BRANCH   5   6
ATOM      6  C   UNL     1      14.047 -46.465  37.433  1.00  0.00     0.064 C 
ATOM      7  O   UNL     1      14.823 -46.465  38.426  1.00  0.00    -0.545 OA
ATOM      8  O   UNL     1      14.527 -46.859  36.191  1.00  0.00    -0.545 OA
ENDBRANCH   5   6
ENDBRANCH   3   4
ENDBRANCH   2   3
ENDBRANCH   1   2
BRANCH   1   9
ATOM      9  C   UNL     1       8.587 -46.719  36.470  1.00  0.00     0.000 C 
BRANCH   9  10
ATOM     10  C   UNL     1       9.408 -47.014  35.205  1.00  0.00     0.000 C 
BRANCH  10  11
ATOM     11  C   UNL     1      10.211 -45.779  34.773  1.00  0.00    -0.000 C 
BRANCH  11  12
ATOM     12  C   UNL     1       9.388 -44.807  33.914  1.00  0.00    -0.000 C 
BRANCH  12  13
ATOM     13  C   UNL     1       9.530 -45.081  32.409  1.00  0.00    -0.003 C 
ATOM     14  C   UNL     1       8.304 -45.809  31.865  1.00  0.00     0.004 C 
ENDBRANCH  12  13
ENDBRANCH  11  12
ENDBRANCH  10  11
ENDBRANCH   9  10
ENDBRANCH   1   9
TORSDOF 9
ENDMDL
