MODEL 1
REMARK VINA RESULT:    -4.532      0.000      0.000
REMARK INTER + INTRA:          -4.891
REMARK INTER:                  -4.797
REMARK INTRA:                  -0.094
REMARK UNBOUND:                -0.094
REMARK SMILES C=C(C)[C@@H]1CC=C(C)C(=O)C1
REMARK SMILES IDX 8 1 7 2 6 3 5 4 4 5 11 6 9 7 10 8 2 9 1 10 3 11
REMARK H PARENT
REMARK Flexibility Score: inf
ROOT
ATOM      1  C   UNL     1      21.623 -21.074  23.859  1.00  0.00     0.048 C 
ATOM      2  C   UNL     1      20.255 -20.654  23.396  1.00  0.00    -0.012 C 
ATOM      3  C   UNL     1      20.088 -19.462  22.798  1.00  0.00    -0.019 C 
ATOM      4  C   UNL     1      18.744 -19.000  22.298  1.00  0.00     0.036 C 
ATOM      5  C   UNL     1      17.607 -19.542  23.184  1.00  0.00     0.025 C 
ATOM      6  C   UNL     1      17.695 -21.077  23.287  1.00  0.00     0.089 C 
ATOM      7  C   UNL     1      19.076 -21.499  23.710  1.00  0.00     0.158 C 
ATOM      8  O   UNL     1      19.226 -22.601  24.302  1.00  0.00    -0.295 OA
ENDROOT
BRANCH   5   9
ATOM      9  C   UNL     1      16.241 -19.091  22.685  1.00  0.00    -0.077 C 
ATOM     10  C   UNL     1      15.152 -19.160  23.469  1.00  0.00     0.008 C 
ATOM     11  C   UNL     1      16.088 -18.552  21.286  1.00  0.00     0.039 C 
ENDBRANCH   5   9
TORSDOF 1
ENDMDL
MODEL 2
REMARK VINA RESULT:    -4.464      2.082      4.277
REMARK INTER + INTRA:          -4.819
REMARK INTER:                  -4.721
REMARK INTRA:                  -0.098
REMARK UNBOUND:                -0.094
REMARK SMILES C=C(C)[C@@H]1CC=C(C)C(=O)C1
REMARK SMILES IDX 8 1 7 2 6 3 5 4 4 5 11 6 9 7 10 8 2 9 1 10 3 11
REMARK H PARENT
REMARK Flexibility Score: inf
ROOT
ATOM      1  C   UNL     1      15.222 -21.128  25.028  1.00  0.00     0.048 C 
ATOM      2  C   UNL     1      16.436 -20.794  24.207  1.00  0.00    -0.012 C 
ATOM      3  C   UNL     1      17.567 -21.503  24.366  1.00  0.00    -0.019 C 
ATOM      4  C   UNL     1      18.805 -21.223  23.556  1.00  0.00     0.036 C 
ATOM      5  C   UNL     1      18.920 -19.724  23.218  1.00  0.00     0.025 C 
ATOM      6  C   UNL     1      17.640 -19.236  22.513  1.00  0.00     0.089 C 
ATOM      7  C   UNL     1      16.422 -19.608  23.314  1.00  0.00     0.158 C 
ATOM      8  O   UNL     1      15.373 -18.920  23.191  1.00  0.00    -0.295 OA
ENDROOT
BRANCH   5   9
ATOM      9  C   UNL     1      20.164 -19.428  22.391  1.00  0.00    -0.077 C 
ATOM     10  C   UNL     1      20.224 -18.362  21.576  1.00  0.00     0.008 C 
ATOM     11  C   UNL     1      21.362 -20.338  22.475  1.00  0.00     0.039 C 
ENDBRANCH   5   9
TORSDOF 1
ENDMDL
MODEL 3
REMARK VINA RESULT:    -4.407      1.532      3.045
REMARK INTER + INTRA:          -4.759
REMARK INTER:                  -4.663
REMARK INTRA:                  -0.095
REMARK UNBOUND:                -0.094
REMARK SMILES C=C(C)[C@@H]1CC=C(C)C(=O)C1
REMARK SMILES IDX 8 1 7 2 6 3 5 4 4 5 11 6 9 7 10 8 2 9 1 10 3 11
REMARK H PARENT
REMARK Flexibility Score: inf
ROOT
ATOM      1  C   UNL     1      22.221 -24.237  24.761  1.00  0.00     0.048 C 
ATOM      2  C   UNL     1      21.476 -23.114  24.095  1.00  0.00    -0.012 C 
ATOM      3  C   UNL     1      22.158 -22.108  23.520  1.00  0.00    -0.019 C 
ATOM      4  C   UNL     1      21.463 -20.968  22.822  1.00  0.00     0.036 C 
ATOM      5  C   UNL     1      20.112 -20.651  23.491  1.00  0.00     0.025 C 
ATOM      6  C   UNL     1      19.236 -21.917  23.554  1.00  0.00     0.089 C 
ATOM      7  C   UNL     1      19.996 -23.053  24.182  1.00  0.00     0.158 C 
ATOM      8  O   UNL     1      19.357 -23.977  24.753  1.00  0.00    -0.295 OA
ENDROOT
BRANCH   5   9
ATOM      9  C   UNL     1      19.393 -19.506  22.791  1.00  0.00    -0.077 C 
ATOM     10  C   UNL     1      20.067 -18.596  22.067  1.00  0.00     0.008 C 
ATOM     11  C   UNL     1      17.896 -19.373  22.900  1.00  0.00     0.039 C 
ENDBRANCH   5   9
TORSDOF 1
ENDMDL
MODEL 4
REMARK VINA RESULT:    -4.390      1.913      5.167
REMARK INTER + INTRA:          -4.740
REMARK INTER:                  -4.646
REMARK INTRA:                  -0.095
REMARK UNBOUND:                -0.094
REMARK SMILES C=C(C)[C@@H]1CC=C(C)C(=O)C1
REMARK SMILES IDX 8 1 7 2 6 3 5 4 4 5 11 6 9 7 10 8 2 9 1 10 3 11
REMARK H PARENT
REMARK Flexibility Score: inf
ROOT
ATOM      1  C   UNL     1      17.219 -19.247  22.876  1.00  0.00     0.048 C 
ATOM      2  C   UNL     1      18.412 -20.126  23.126  1.00  0.00    -0.012 C 
ATOM      3  C   UNL     1      18.244 -21.339  23.681  1.00  0.00    -0.019 C 
ATOM      4  C   UNL     1      19.402 -22.268  23.936  1.00  0.00     0.036 C 
ATOM      5  C   UNL     1      20.683 -21.479  24.270  1.00  0.00     0.025 C 
ATOM      6  C   UNL     1      20.987 -20.459  23.155  1.00  0.00     0.089 C 
ATOM      7  C   UNL     1      19.780 -19.607  22.875  1.00  0.00     0.158 C 
ATOM      8  O   UNL     1      19.941 -18.456  22.388  1.00  0.00    -0.295 OA
ENDROOT
BRANCH   5   9
ATOM      9  C   UNL     1      21.865 -22.405  24.521  1.00  0.00    -0.077 C 
ATOM     10  C   UNL     1      22.744 -22.697  23.547  1.00  0.00     0.008 C 
ATOM     11  C   UNL     1      22.069 -23.018  25.883  1.00  0.00     0.039 C 
ENDBRANCH   5   9
TORSDOF 1
ENDMDL
MODEL 5
REMARK VINA RESULT:    -4.379      2.195      4.115
REMARK INTER + INTRA:          -4.729
REMARK INTER:                  -4.633
REMARK INTRA:                  -0.095
REMARK UNBOUND:                -0.094
REMARK SMILES C=C(C)[C@@H]1CC=C(C)C(=O)C1
REMARK SMILES IDX 8 1 7 2 6 3 5 4 4 5 11 6 9 7 10 8 2 9 1 10 3 11
REMARK H PARENT
REMARK Flexibility Score: inf
ROOT
ATOM      1  C   UNL     1      20.232 -18.139  21.648  1.00  0.00     0.048 C 
ATOM      2  C   UNL     1      20.004 -19.366  22.488  1.00  0.00    -0.012 C 
ATOM      3  C   UNL     1      21.024 -20.204  22.738  1.00  0.00    -0.019 C 
ATOM      4  C   UNL     1      20.855 -21.436  23.588  1.00  0.00     0.036 C 
ATOM      5  C   UNL     1      19.441 -22.026  23.434  1.00  0.00     0.025 C 
ATOM      6  C   UNL     1      18.378 -20.955  23.743  1.00  0.00     0.089 C 
ATOM      7  C   UNL     1      18.631 -19.712  22.933  1.00  0.00     0.158 C 
ATOM      8  O   UNL     1      17.666 -18.945  22.669  1.00  0.00    -0.295 OA
ENDROOT
BRANCH   5   9
ATOM      9  C   UNL     1      19.253 -23.268  24.295  1.00  0.00    -0.077 C 
ATOM     10  C   UNL     1      20.300 -24.019  24.677  1.00  0.00     0.008 C 
ATOM     11  C   UNL     1      17.872 -23.679  24.738  1.00  0.00     0.039 C 
ENDBRANCH   5   9
TORSDOF 1
ENDMDL
MODEL 6
REMARK VINA RESULT:    -4.370      1.317      4.512
REMARK INTER + INTRA:          -4.720
REMARK INTER:                  -4.630
REMARK INTRA:                  -0.090
REMARK UNBOUND:                -0.094
REMARK SMILES C=C(C)[C@@H]1CC=C(C)C(=O)C1
REMARK SMILES IDX 8 1 7 2 6 3 5 4 4 5 11 6 9 7 10 8 2 9 1 10 3 11
REMARK H PARENT
REMARK Flexibility Score: inf
ROOT
ATOM      1  C   UNL     1      16.604 -18.866  22.275  1.00  0.00     0.048 C 
ATOM      2  C   UNL     1      17.786 -19.558  22.897  1.00  0.00    -0.012 C 
ATOM      3  C   UNL     1      19.025 -19.085  22.684  1.00  0.00    -0.019 C 
ATOM      4  C   UNL     1      20.242 -19.728  23.297  1.00  0.00     0.036 C 
ATOM      5  C   UNL     1      20.051 -21.250  23.442  1.00  0.00     0.025 C 
ATOM      6  C   UNL     1      18.767 -21.553  24.238  1.00  0.00     0.089 C 
ATOM      7  C   UNL     1      17.592 -20.828  23.641  1.00  0.00     0.158 C 
ATOM      8  O   UNL     1      16.433 -21.291  23.812  1.00  0.00    -0.295 OA
ENDROOT
BRANCH   5   9
ATOM      9  C   UNL     1      21.270 -21.912  24.071  1.00  0.00    -0.077 C 
ATOM     10  C   UNL     1      22.367 -22.188  23.346  1.00  0.00     0.008 C 
ATOM     11  C   UNL     1      21.264 -22.273  25.534  1.00  0.00     0.039 C 
ENDBRANCH   5   9
TORSDOF 1
ENDMDL
MODEL 7
REMARK VINA RESULT:    -4.296      6.220      9.062
REMARK INTER + INTRA:          -4.641
REMARK INTER:                  -4.548
REMARK INTRA:                  -0.094
REMARK UNBOUND:                -0.094
REMARK SMILES C=C(C)[C@@H]1CC=C(C)C(=O)C1
REMARK SMILES IDX 8 1 7 2 6 3 5 4 4 5 11 6 9 7 10 8 2 9 1 10 3 11
REMARK H PARENT
REMARK Flexibility Score: inf
ROOT
ATOM      1  C   UNL     1       8.104 -16.244  25.872  1.00  0.00     0.048 C 
ATOM      2  C   UNL     1       9.465 -16.102  25.248  1.00  0.00    -0.012 C 
ATOM      3  C   UNL     1       9.647 -15.247  24.228  1.00  0.00    -0.019 C 
ATOM      4  C   UNL     1      10.992 -15.052  23.579  1.00  0.00     0.036 C 
ATOM      5  C   UNL     1      11.810 -16.357  23.597  1.00  0.00     0.025 C 
ATOM      6  C   UNL     1      11.930 -16.893  25.037  1.00  0.00     0.089 C 
ATOM      7  C   UNL     1      10.571 -16.995  25.676  1.00  0.00     0.158 C 
ATOM      8  O   UNL     1      10.393 -17.823  26.609  1.00  0.00    -0.295 OA
ENDROOT
BRANCH   5   9
ATOM      9  C   UNL     1      13.178 -16.172  22.953  1.00  0.00    -0.077 C 
ATOM     10  C   UNL     1      13.891 -17.223  22.512  1.00  0.00     0.008 C 
ATOM     11  C   UNL     1      13.760 -14.791  22.798  1.00  0.00     0.039 C 
ENDBRANCH   5   9
TORSDOF 1
ENDMDL
MODEL 8
REMARK VINA RESULT:    -4.258     10.957     11.800
REMARK INTER + INTRA:          -4.600
REMARK INTER:                  -4.505
REMARK INTRA:                  -0.095
REMARK UNBOUND:                -0.094
REMARK SMILES C=C(C)[C@@H]1CC=C(C)C(=O)C1
REMARK SMILES IDX 8 1 7 2 6 3 5 4 4 5 11 6 9 7 10 8 2 9 1 10 3 11
REMARK H PARENT
REMARK Flexibility Score: inf
ROOT
ATOM      1  C   UNL     1       6.502 -16.896  23.983  1.00  0.00     0.048 C 
ATOM      2  C   UNL     1       6.749 -18.044  23.044  1.00  0.00    -0.012 C 
ATOM      3  C   UNL     1       6.689 -19.307  23.502  1.00  0.00    -0.019 C 
ATOM      4  C   UNL     1       6.909 -20.494  22.601  1.00  0.00     0.036 C 
ATOM      5  C   UNL     1       7.920 -20.164  21.486  1.00  0.00     0.025 C 
ATOM      6  C   UNL     1       7.466 -18.916  20.705  1.00  0.00     0.089 C 
ATOM      7  C   UNL     1       7.178 -17.779  21.648  1.00  0.00     0.158 C 
ATOM      8  O   UNL     1       7.269 -16.595  21.227  1.00  0.00    -0.295 OA
ENDROOT
BRANCH   5   9
ATOM      9  C   UNL     1       8.145 -21.353  20.562  1.00  0.00    -0.077 C 
ATOM     10  C   UNL     1       7.941 -22.613  20.981  1.00  0.00     0.008 C 
ATOM     11  C   UNL     1       8.608 -21.132  19.145  1.00  0.00     0.039 C 
ENDBRANCH   5   9
TORSDOF 1
ENDMDL
MODEL 9
REMARK VINA RESULT:    -4.247     11.482     11.928
REMARK INTER + INTRA:          -4.589
REMARK INTER:                  -4.494
REMARK INTRA:                  -0.095
REMARK UNBOUND:                -0.094
REMARK SMILES C=C(C)[C@@H]1CC=C(C)C(=O)C1
REMARK SMILES IDX 8 1 7 2 6 3 5 4 4 5 11 6 9 7 10 8 2 9 1 10 3 11
REMARK H PARENT
REMARK Flexibility Score: inf
ROOT
ATOM      1  C   UNL     1       6.830 -20.337  26.209  1.00  0.00     0.048 C 
ATOM      2  C   UNL     1       6.761 -19.637  24.880  1.00  0.00    -0.012 C 
ATOM      3  C   UNL     1       6.769 -20.357  23.745  1.00  0.00    -0.019 C 
ATOM      4  C   UNL     1       6.683 -19.708  22.388  1.00  0.00     0.036 C 
ATOM      5  C   UNL     1       7.370 -18.329  22.388  1.00  0.00     0.025 C 
ATOM      6  C   UNL     1       6.780 -17.439  23.499  1.00  0.00     0.089 C 
ATOM      7  C   UNL     1       6.810 -18.155  24.821  1.00  0.00     0.158 C 
ATOM      8  O   UNL     1       6.838 -17.479  25.884  1.00  0.00    -0.295 OA
ENDROOT
BRANCH   5   9
ATOM      9  C   UNL     1       7.283 -17.657  21.025  1.00  0.00    -0.077 C 
ATOM     10  C   UNL     1       7.304 -18.375  19.889  1.00  0.00     0.008 C 
ATOM     11  C   UNL     1       7.171 -16.157  20.926  1.00  0.00     0.039 C 
ENDBRANCH   5   9
TORSDOF 1
ENDMDL
