MODEL 1
REMARK VINA RESULT:    -5.083      0.000      0.000
REMARK INTER + INTRA:          -8.750
REMARK INTER:                  -7.163
REMARK INTRA:                  -1.587
REMARK UNBOUND:                -1.587
REMARK SMILES OCC1=C[C@H](O)[C@@H]2C=CO[C@@H](O[C@H]3O[C@H](CO)[C@H](O)[C@@H](O)[C@H]3O)[C@H]12
REMARK SMILES IDX 12 1 11 2 8 3 9 4 7 5 10 6 24 7 5 8 3 9 4 10 6 11 2 13 1 14
REMARK SMILES IDX 13 16 22 17 14 18 20 19 15 20 18 21 23 22 21 24 16 26 17 27
REMARK SMILES IDX 19 29
REMARK H PARENT 6 12 1 15 23 23 21 25 17 28 19 30
REMARK Flexibility Score: inf
ROOT
ATOM      1  O   UNL     1      54.357 -35.641  -6.915  1.00  0.00    -0.310 OA
ENDROOT
BRANCH   1   2
ATOM      2  C   UNL     1      54.353 -34.516  -7.778  1.00  0.00     0.316 C 
ATOM      3  C   UNL     1      55.577 -32.805  -9.719  1.00  0.00     0.018 C 
ATOM      4  C   UNL     1      55.184 -34.033 -10.052  1.00  0.00     0.186 C 
ATOM      5  C   UNL     1      55.631 -32.353  -8.278  1.00  0.00     0.061 C 
ATOM      6  O   UNL     1      54.765 -34.939  -9.078  1.00  0.00    -0.472 OA
ATOM      7  C   UNL     1      55.333 -33.453  -7.234  1.00  0.00     0.096 C 
ATOM      8  C   UNL     1      54.652 -31.211  -7.948  1.00  0.00     0.145 C 
ATOM      9  C   UNL     1      54.707 -32.677  -6.116  1.00  0.00    -0.036 C 
ATOM     10  C   UNL     1      54.303 -31.474  -6.521  1.00  0.00     0.007 C 
BRANCH   8  11
ATOM     11  O   UNL     1      53.494 -31.290  -8.741  1.00  0.00    -0.388 OA
ATOM     12  H   UNL     1      53.490 -30.484  -9.325  1.00  0.00     0.211 HD
ENDBRANCH   8  11
BRANCH   9  13
ATOM     13  C   UNL     1      54.381 -33.273  -4.771  1.00  0.00     0.187 C 
BRANCH  13  14
ATOM     14  O   UNL     1      52.992 -33.350  -4.571  1.00  0.00    -0.392 OA
ATOM     15  H   UNL     1      52.815 -33.024  -3.648  1.00  0.00     0.211 HD
ENDBRANCH  13  14
ENDBRANCH   9  13
ENDBRANCH   1   2
BRANCH   1  16
ATOM     16  C   UNL     1      53.042 -36.082  -6.618  1.00  0.00     0.286 C 
ATOM     17  C   UNL     1      52.797 -37.385  -7.400  1.00  0.00     0.202 C 
ATOM     18  O   UNL     1      52.094 -35.062  -6.934  1.00  0.00    -0.341 OA
ATOM     19  C   UNL     1      51.423 -37.980  -7.008  1.00  0.00     0.179 C 
ATOM     20  C   UNL     1      50.777 -35.516  -7.229  1.00  0.00     0.178 C 
ATOM     21  C   UNL     1      50.405 -36.884  -6.596  1.00  0.00     0.177 C 
BRANCH  17  22
ATOM     22  O   UNL     1      52.861 -37.111  -8.777  1.00  0.00    -0.385 OA
ATOM     23  H   UNL     1      52.358 -37.829  -9.243  1.00  0.00     0.211 HD
ENDBRANCH  17  22
BRANCH  19  24
ATOM     24  O   UNL     1      50.912 -38.806  -8.026  1.00  0.00    -0.387 OA
ATOM     25  H   UNL     1      50.893 -39.737  -7.679  1.00  0.00     0.211 HD
ENDBRANCH  19  24
BRANCH  20  26
ATOM     26  C   UNL     1      49.785 -34.419  -6.808  1.00  0.00     0.191 C 
BRANCH  26  27
ATOM     27  O   UNL     1      50.133 -33.883  -5.558  1.00  0.00    -0.394 OA
ATOM     28  H   UNL     1      49.762 -32.962  -5.531  1.00  0.00     0.210 HD
ENDBRANCH  26  27
ENDBRANCH  20  26
BRANCH  21  29
ATOM     29  O   UNL     1      50.378 -36.770  -5.192  1.00  0.00    -0.387 OA
ATOM     30  H   UNL     1      50.192 -35.816  -4.985  1.00  0.00     0.211 HD
ENDBRANCH  21  29
ENDBRANCH   1  16
TORSDOF 10
ENDMDL
MODEL 2
REMARK VINA RESULT:    -4.959      1.769      3.642
REMARK INTER + INTRA:          -8.574
REMARK INTER:                  -7.190
REMARK INTRA:                  -1.384
REMARK UNBOUND:                -1.587
REMARK SMILES OCC1=C[C@H](O)[C@@H]2C=CO[C@@H](O[C@H]3O[C@H](CO)[C@H](O)[C@@H](O)[C@H]3O)[C@H]12
REMARK SMILES IDX 12 1 11 2 8 3 9 4 7 5 10 6 24 7 5 8 3 9 4 10 6 11 2 13 1 14
REMARK SMILES IDX 13 16 22 17 14 18 20 19 15 20 18 21 23 22 21 24 16 26 17 27
REMARK SMILES IDX 19 29
REMARK H PARENT 6 12 1 15 23 23 21 25 17 28 19 30
REMARK Flexibility Score: inf
ROOT
ATOM      1  O   UNL     1      50.823 -34.257  -6.211  1.00  0.00    -0.310 OA
ENDROOT
BRANCH   1   2
ATOM      2  C   UNL     1      52.058 -33.662  -6.571  1.00  0.00     0.316 C 
ATOM      3  C   UNL     1      54.264 -31.905  -6.083  1.00  0.00     0.018 C 
ATOM      4  C   UNL     1      54.125 -33.027  -5.380  1.00  0.00     0.186 C 
ATOM      5  C   UNL     1      53.159 -31.385  -6.972  1.00  0.00     0.061 C 
ATOM      6  O   UNL     1      52.961 -33.791  -5.473  1.00  0.00    -0.472 OA
ATOM      7  C   UNL     1      51.830 -32.169  -6.894  1.00  0.00     0.096 C 
ATOM      8  C   UNL     1      53.524 -31.362  -8.468  1.00  0.00     0.145 C 
ATOM      9  C   UNL     1      51.275 -32.004  -8.277  1.00  0.00    -0.036 C 
ATOM     10  C   UNL     1      52.212 -31.603  -9.136  1.00  0.00     0.007 C 
BRANCH   8  11
ATOM     11  O   UNL     1      54.416 -32.400  -8.789  1.00  0.00    -0.388 OA
ATOM     12  H   UNL     1      54.160 -32.729  -9.693  1.00  0.00     0.211 HD
ENDBRANCH   8  11
BRANCH   9  13
ATOM     13  C   UNL     1      49.893 -32.451  -8.676  1.00  0.00     0.187 C 
BRANCH  13  14
ATOM     14  O   UNL     1      48.967 -32.232  -7.641  1.00  0.00    -0.392 OA
ATOM     15  H   UNL     1      48.206 -31.728  -8.036  1.00  0.00     0.211 HD
ENDBRANCH  13  14
ENDBRANCH   9  13
ENDBRANCH   1   2
BRANCH   1  16
ATOM     16  C   UNL     1      50.707 -35.579  -6.714  1.00  0.00     0.286 C 
ATOM     17  C   UNL     1      50.621 -36.532  -5.509  1.00  0.00     0.202 C 
ATOM     18  O   UNL     1      51.804 -35.878  -7.577  1.00  0.00    -0.341 OA
ATOM     19  C   UNL     1      50.361 -37.976  -6.000  1.00  0.00     0.179 C 
ATOM     20  C   UNL     1      52.136 -37.258  -7.695  1.00  0.00     0.178 C 
ATOM     21  C   UNL     1      50.964 -38.234  -7.407  1.00  0.00     0.177 C 
BRANCH  17  22
ATOM     22  O   UNL     1      51.817 -36.451  -4.774  1.00  0.00    -0.385 OA
ATOM     23  H   UNL     1      52.553 -36.729  -5.379  1.00  0.00     0.211 HD
ENDBRANCH  17  22
BRANCH  19  24
ATOM     24  O   UNL     1      50.806 -38.926  -5.063  1.00  0.00    -0.387 OA
ATOM     25  H   UNL     1      51.524 -39.462  -5.493  1.00  0.00     0.211 HD
ENDBRANCH  19  24
BRANCH  20  26
ATOM     26  C   UNL     1      52.726 -37.492  -9.096  1.00  0.00     0.191 C 
BRANCH  26  27
ATOM     27  O   UNL     1      51.835 -37.061 -10.092  1.00  0.00    -0.394 OA
ATOM     28  H   UNL     1      51.663 -36.097  -9.921  1.00  0.00     0.210 HD
ENDBRANCH  26  27
ENDBRANCH  20  26
BRANCH  21  29
ATOM     29  O   UNL     1      49.961 -38.080  -8.385  1.00  0.00    -0.387 OA
ATOM     30  H   UNL     1      49.926 -38.932  -8.895  1.00  0.00     0.211 HD
ENDBRANCH  21  29
ENDBRANCH   1  16
TORSDOF 10
ENDMDL
MODEL 3
REMARK VINA RESULT:    -4.947      1.600      5.547
REMARK INTER + INTRA:          -8.558
REMARK INTER:                  -6.986
REMARK INTRA:                  -1.572
REMARK UNBOUND:                -1.587
REMARK SMILES OCC1=C[C@H](O)[C@@H]2C=CO[C@@H](O[C@H]3O[C@H](CO)[C@H](O)[C@@H](O)[C@H]3O)[C@H]12
REMARK SMILES IDX 12 1 11 2 8 3 9 4 7 5 10 6 24 7 5 8 3 9 4 10 6 11 2 13 1 14
REMARK SMILES IDX 13 16 22 17 14 18 20 19 15 20 18 21 23 22 21 24 16 26 17 27
REMARK SMILES IDX 19 29
REMARK H PARENT 6 12 1 15 23 23 21 25 17 28 19 30
REMARK Flexibility Score: inf
ROOT
ATOM      1  O   UNL     1      51.283 -34.172  -8.310  1.00  0.00    -0.310 OA
ENDROOT
BRANCH   1   2
ATOM      2  C   UNL     1      51.304 -35.526  -7.893  1.00  0.00     0.316 C 
ATOM      3  C   UNL     1      50.443 -38.249  -8.077  1.00  0.00     0.018 C 
ATOM      4  C   UNL     1      51.223 -37.721  -9.019  1.00  0.00     0.186 C 
ATOM      5  C   UNL     1      49.780 -37.392  -7.024  1.00  0.00     0.061 C 
ATOM      6  O   UNL     1      51.491 -36.352  -9.042  1.00  0.00    -0.472 OA
ATOM      7  C   UNL     1      49.963 -35.869  -7.208  1.00  0.00     0.096 C 
ATOM      8  C   UNL     1      50.262 -37.684  -5.591  1.00  0.00     0.145 C 
ATOM      9  C   UNL     1      49.944 -35.368  -5.796  1.00  0.00    -0.036 C 
ATOM     10  C   UNL     1      50.148 -36.354  -4.923  1.00  0.00     0.007 C 
BRANCH   8  11
ATOM     11  O   UNL     1      51.603 -38.104  -5.582  1.00  0.00    -0.388 OA
ATOM     12  H   UNL     1      52.142 -37.337  -5.248  1.00  0.00     0.211 HD
ENDBRANCH   8  11
BRANCH   9  13
ATOM     13  C   UNL     1      49.921 -33.906  -5.433  1.00  0.00     0.187 C 
BRANCH  13  14
ATOM     14  O   UNL     1      51.116 -33.518  -4.802  1.00  0.00    -0.392 OA
ATOM     15  H   UNL     1      51.518 -34.341  -4.413  1.00  0.00     0.211 HD
ENDBRANCH  13  14
ENDBRANCH   9  13
ENDBRANCH   1   2
BRANCH   1  16
ATOM     16  C   UNL     1      52.465 -33.484  -7.929  1.00  0.00     0.286 C 
ATOM     17  C   UNL     1      53.343 -33.330  -9.184  1.00  0.00     0.202 C 
ATOM     18  O   UNL     1      53.127 -34.184  -6.875  1.00  0.00    -0.341 OA
ATOM     19  C   UNL     1      54.585 -32.470  -8.852  1.00  0.00     0.179 C 
ATOM     20  C   UNL     1      54.531 -33.966  -6.779  1.00  0.00     0.178 C 
ATOM     21  C   UNL     1      55.020 -32.616  -7.370  1.00  0.00     0.177 C 
BRANCH  17  22
ATOM     22  O   UNL     1      53.713 -34.607  -9.643  1.00  0.00    -0.385 OA
ATOM     23  H   UNL     1      54.456 -34.922  -9.066  1.00  0.00     0.211 HD
ENDBRANCH  17  22
BRANCH  19  24
ATOM     24  O   UNL     1      55.648 -32.741  -9.733  1.00  0.00    -0.387 OA
ATOM     25  H   UNL     1      56.492 -32.474  -9.282  1.00  0.00     0.211 HD
ENDBRANCH  19  24
BRANCH  20  26
ATOM     26  C   UNL     1      54.940 -34.110  -5.303  1.00  0.00     0.191 C 
BRANCH  26  27
ATOM     27  O   UNL     1      53.956 -33.574  -4.458  1.00  0.00    -0.394 OA
ATOM     28  H   UNL     1      54.211 -32.629  -4.288  1.00  0.00     0.210 HD
ENDBRANCH  26  27
ENDBRANCH  20  26
BRANCH  21  29
ATOM     29  O   UNL     1      54.497 -31.546  -6.617  1.00  0.00    -0.387 OA
ATOM     30  H   UNL     1      53.695 -31.894  -6.144  1.00  0.00     0.211 HD
ENDBRANCH  21  29
ENDBRANCH   1  16
TORSDOF 10
ENDMDL
MODEL 4
REMARK VINA RESULT:    -4.913     16.297     19.384
REMARK INTER + INTRA:          -8.510
REMARK INTER:                  -7.121
REMARK INTRA:                  -1.390
REMARK UNBOUND:                -1.587
REMARK SMILES OCC1=C[C@H](O)[C@@H]2C=CO[C@@H](O[C@H]3O[C@H](CO)[C@H](O)[C@@H](O)[C@H]3O)[C@H]12
REMARK SMILES IDX 12 1 11 2 8 3 9 4 7 5 10 6 24 7 5 8 3 9 4 10 6 11 2 13 1 14
REMARK SMILES IDX 13 16 22 17 14 18 20 19 15 20 18 21 23 22 21 24 16 26 17 27
REMARK SMILES IDX 19 29
REMARK H PARENT 6 12 1 15 23 23 21 25 17 28 19 30
REMARK Flexibility Score: inf
ROOT
ATOM      1  O   UNL     1      37.059 -24.030  -6.226  1.00  0.00    -0.310 OA
ENDROOT
BRANCH   1   2
ATOM      2  C   UNL     1      37.050 -23.508  -4.908  1.00  0.00     0.316 C 
ATOM      3  C   UNL     1      37.533 -21.430  -3.001  1.00  0.00     0.018 C 
ATOM      4  C   UNL     1      36.537 -21.324  -3.879  1.00  0.00     0.186 C 
ATOM      5  C   UNL     1      38.590 -22.502  -3.126  1.00  0.00     0.061 C 
ATOM      6  O   UNL     1      36.410 -22.232  -4.930  1.00  0.00    -0.472 OA
ATOM      7  C   UNL     1      38.503 -23.361  -4.408  1.00  0.00     0.096 C 
ATOM      8  C   UNL     1      38.591 -23.513  -1.964  1.00  0.00     0.145 C 
ATOM      9  C   UNL     1      39.043 -24.682  -3.949  1.00  0.00    -0.036 C 
ATOM     10  C   UNL     1      39.050 -24.773  -2.619  1.00  0.00     0.007 C 
BRANCH   8  11
ATOM     11  O   UNL     1      37.296 -23.693  -1.447  1.00  0.00    -0.388 OA
ATOM     12  H   UNL     1      37.400 -24.136  -0.562  1.00  0.00     0.211 HD
ENDBRANCH   8  11
BRANCH   9  13
ATOM     13  C   UNL     1      39.326 -25.833  -4.879  1.00  0.00     0.187 C 
BRANCH  13  14
ATOM     14  O   UNL     1      40.368 -25.523  -5.770  1.00  0.00    -0.392 OA
ATOM     15  H   UNL     1      40.331 -26.195  -6.502  1.00  0.00     0.211 HD
ENDBRANCH  13  14
ENDBRANCH   9  13
ENDBRANCH   1   2
BRANCH   1  16
ATOM     16  C   UNL     1      37.874 -23.258  -7.094  1.00  0.00     0.286 C 
ATOM     17  C   UNL     1      36.944 -22.482  -8.043  1.00  0.00     0.202 C 
ATOM     18  O   UNL     1      38.795 -24.099  -7.788  1.00  0.00    -0.341 OA
ATOM     19  C   UNL     1      37.777 -21.521  -8.924  1.00  0.00     0.179 C 
ATOM     20  C   UNL     1      39.255 -23.604  -9.042  1.00  0.00     0.178 C 
ATOM     21  C   UNL     1      39.209 -22.059  -9.186  1.00  0.00     0.177 C 
BRANCH  17  22
ATOM     22  O   UNL     1      36.223 -23.399  -8.828  1.00  0.00    -0.385 OA
ATOM     23  H   UNL     1      36.505 -23.265  -9.770  1.00  0.00     0.211 HD
ENDBRANCH  17  22
BRANCH  19  24
ATOM     24  O   UNL     1      37.110 -21.216 -10.125  1.00  0.00    -0.387 OA
ATOM     25  H   UNL     1      37.614 -21.643 -10.868  1.00  0.00     0.211 HD
ENDBRANCH  19  24
BRANCH  20  26
ATOM     26  C   UNL     1      40.676 -24.144  -9.279  1.00  0.00     0.191 C 
BRANCH  26  27
ATOM     27  O   UNL     1      41.421 -24.130  -8.089  1.00  0.00    -0.394 OA
ATOM     28  H   UNL     1      41.184 -24.960  -7.596  1.00  0.00     0.210 HD
ENDBRANCH  26  27
ENDBRANCH  20  26
BRANCH  21  29
ATOM     29  O   UNL     1      40.109 -21.467  -8.278  1.00  0.00    -0.387 OA
ATOM     30  H   UNL     1      39.637 -20.693  -7.871  1.00  0.00     0.211 HD
ENDBRANCH  21  29
ENDBRANCH   1  16
TORSDOF 10
ENDMDL
MODEL 5
REMARK VINA RESULT:    -4.908     16.513     19.487
REMARK INTER + INTRA:          -8.503
REMARK INTER:                  -7.247
REMARK INTRA:                  -1.256
REMARK UNBOUND:                -1.587
REMARK SMILES OCC1=C[C@H](O)[C@@H]2C=CO[C@@H](O[C@H]3O[C@H](CO)[C@H](O)[C@@H](O)[C@H]3O)[C@H]12
REMARK SMILES IDX 12 1 11 2 8 3 9 4 7 5 10 6 24 7 5 8 3 9 4 10 6 11 2 13 1 14
REMARK SMILES IDX 13 16 22 17 14 18 20 19 15 20 18 21 23 22 21 24 16 26 17 27
REMARK SMILES IDX 19 29
REMARK H PARENT 6 12 1 15 23 23 21 25 17 28 19 30
REMARK Flexibility Score: inf
ROOT
ATOM      1  O   UNL     1      37.574 -23.885  -4.328  1.00  0.00    -0.310 OA
ENDROOT
BRANCH   1   2
ATOM      2  C   UNL     1      37.581 -23.310  -5.623  1.00  0.00     0.316 C 
ATOM      3  C   UNL     1      36.473 -22.930  -8.234  1.00  0.00     0.018 C 
ATOM      4  C   UNL     1      35.875 -22.410  -7.164  1.00  0.00     0.186 C 
ATOM      5  C   UNL     1      37.594 -23.935  -8.107  1.00  0.00     0.061 C 
ATOM      6  O   UNL     1      36.295 -22.746  -5.876  1.00  0.00    -0.472 OA
ATOM      7  C   UNL     1      37.891 -24.407  -6.666  1.00  0.00     0.096 C 
ATOM      8  C   UNL     1      38.943 -23.432  -8.651  1.00  0.00     0.145 C 
ATOM      9  C   UNL     1      39.362 -24.692  -6.715  1.00  0.00    -0.036 C 
ATOM     10  C   UNL     1      39.935 -24.125  -7.777  1.00  0.00     0.007 C 
BRANCH   8  11
ATOM     11  O   UNL     1      39.067 -22.041  -8.496  1.00  0.00    -0.388 OA
ATOM     12  H   UNL     1      38.148 -21.683  -8.363  1.00  0.00     0.211 HD
ENDBRANCH   8  11
BRANCH   9  13
ATOM     13  C   UNL     1      40.120 -25.345  -5.590  1.00  0.00     0.187 C 
BRANCH  13  14
ATOM     14  O   UNL     1      39.297 -26.223  -4.863  1.00  0.00    -0.392 OA
ATOM     15  H   UNL     1      38.453 -25.733  -4.668  1.00  0.00     0.211 HD
ENDBRANCH  13  14
ENDBRANCH   9  13
ENDBRANCH   1   2
BRANCH   1  16
ATOM     16  C   UNL     1      38.091 -22.994  -3.352  1.00  0.00     0.286 C 
ATOM     17  C   UNL     1      39.323 -23.660  -2.714  1.00  0.00     0.202 C 
ATOM     18  O   UNL     1      37.082 -22.668  -2.395  1.00  0.00    -0.341 OA
ATOM     19  C   UNL     1      40.004 -22.673  -1.736  1.00  0.00     0.179 C 
ATOM     20  C   UNL     1      37.556 -22.280  -1.110  1.00  0.00     0.178 C 
ATOM     21  C   UNL     1      38.990 -21.686  -1.099  1.00  0.00     0.177 C 
BRANCH  17  22
ATOM     22  O   UNL     1      38.920 -24.835  -2.057  1.00  0.00    -0.385 OA
ATOM     23  H   UNL     1      38.274 -25.297  -2.652  1.00  0.00     0.211 HD
ENDBRANCH  17  22
BRANCH  19  24
ATOM     24  O   UNL     1      40.750 -23.354  -0.756  1.00  0.00    -0.387 OA
ATOM     25  H   UNL     1      40.695 -24.326  -0.954  1.00  0.00     0.211 HD
ENDBRANCH  19  24
BRANCH  20  26
ATOM     26  C   UNL     1      36.541 -21.298  -0.500  1.00  0.00     0.191 C 
BRANCH  26  27
ATOM     27  O   UNL     1      36.078 -20.393  -1.468  1.00  0.00    -0.394 OA
ATOM     28  H   UNL     1      36.415 -20.717  -2.344  1.00  0.00     0.210 HD
ENDBRANCH  26  27
ENDBRANCH  20  26
BRANCH  21  29
ATOM     29  O   UNL     1      39.010 -20.468  -1.808  1.00  0.00    -0.387 OA
ATOM     30  H   UNL     1      39.948 -20.142  -1.792  1.00  0.00     0.211 HD
ENDBRANCH  21  29
ENDBRANCH   1  16
TORSDOF 10
ENDMDL
MODEL 6
REMARK VINA RESULT:    -4.852      1.934      5.754
REMARK INTER + INTRA:          -8.424
REMARK INTER:                  -7.017
REMARK INTRA:                  -1.407
REMARK UNBOUND:                -1.587
REMARK SMILES OCC1=C[C@H](O)[C@@H]2C=CO[C@@H](O[C@H]3O[C@H](CO)[C@H](O)[C@@H](O)[C@H]3O)[C@H]12
REMARK SMILES IDX 12 1 11 2 8 3 9 4 7 5 10 6 24 7 5 8 3 9 4 10 6 11 2 13 1 14
REMARK SMILES IDX 13 16 22 17 14 18 20 19 15 20 18 21 23 22 21 24 16 26 17 27
REMARK SMILES IDX 19 29
REMARK H PARENT 6 12 1 15 23 23 21 25 17 28 19 30
REMARK Flexibility Score: inf
ROOT
ATOM      1  O   UNL     1      52.326 -32.244  -7.997  1.00  0.00    -0.310 OA
ENDROOT
BRANCH   1   2
ATOM      2  C   UNL     1      52.562 -33.639  -7.912  1.00  0.00     0.316 C 
ATOM      3  C   UNL     1      53.023 -36.209  -9.083  1.00  0.00     0.018 C 
ATOM      4  C   UNL     1      53.966 -35.269  -9.121  1.00  0.00     0.186 C 
ATOM      5  C   UNL     1      51.608 -35.896  -8.659  1.00  0.00     0.061 C 
ATOM      6  O   UNL     1      53.688 -33.960  -8.727  1.00  0.00    -0.472 OA
ATOM      7  C   UNL     1      51.314 -34.398  -8.412  1.00  0.00     0.096 C 
ATOM      8  C   UNL     1      51.174 -36.609  -7.365  1.00  0.00     0.145 C 
ATOM      9  C   UNL     1      50.259 -34.447  -7.347  1.00  0.00    -0.036 C 
ATOM     10  C   UNL     1      50.217 -35.640  -6.755  1.00  0.00     0.007 C 
BRANCH   8  11
ATOM     11  O   UNL     1      52.266 -36.801  -6.501  1.00  0.00    -0.388 OA
ATOM     12  H   UNL     1      53.081 -36.521  -7.000  1.00  0.00     0.211 HD
ENDBRANCH   8  11
BRANCH   9  13
ATOM     13  C   UNL     1      49.507 -33.234  -6.868  1.00  0.00     0.187 C 
BRANCH  13  14
ATOM     14  O   UNL     1      49.310 -32.311  -7.909  1.00  0.00    -0.392 OA
ATOM     15  H   UNL     1      50.057 -32.438  -8.553  1.00  0.00     0.211 HD
ENDBRANCH  13  14
ENDBRANCH   9  13
ENDBRANCH   1   2
BRANCH   1  16
ATOM     16  C   UNL     1      52.935 -31.540  -6.926  1.00  0.00     0.286 C 
ATOM     17  C   UNL     1      54.000 -30.605  -7.527  1.00  0.00     0.202 C 
ATOM     18  O   UNL     1      53.478 -32.456  -5.975  1.00  0.00    -0.341 OA
ATOM     19  C   UNL     1      54.604 -29.715  -6.414  1.00  0.00     0.179 C 
ATOM     20  C   UNL     1      54.561 -31.962  -5.193  1.00  0.00     0.178 C 
ATOM     21  C   UNL     1      54.591 -30.418  -5.030  1.00  0.00     0.177 C 
BRANCH  17  22
ATOM     22  O   UNL     1      54.991 -31.381  -8.153  1.00  0.00    -0.385 OA
ATOM     23  H   UNL     1      55.576 -31.743  -7.438  1.00  0.00     0.211 HD
ENDBRANCH  17  22
BRANCH  19  24
ATOM     24  O   UNL     1      55.893 -29.268  -6.756  1.00  0.00    -0.387 OA
ATOM     25  H   UNL     1      56.179 -28.611  -6.067  1.00  0.00     0.211 HD
ENDBRANCH  19  24
BRANCH  20  26
ATOM     26  C   UNL     1      54.526 -32.666  -3.826  1.00  0.00     0.191 C 
BRANCH  26  27
ATOM     27  O   UNL     1      53.209 -32.777  -3.354  1.00  0.00    -0.394 OA
ATOM     28  H   UNL     1      53.270 -33.099  -2.416  1.00  0.00     0.210 HD
ENDBRANCH  26  27
ENDBRANCH  20  26
BRANCH  21  29
ATOM     29  O   UNL     1      53.468 -29.992  -4.295  1.00  0.00    -0.387 OA
ATOM     30  H   UNL     1      53.783 -29.811  -3.370  1.00  0.00     0.211 HD
ENDBRANCH  21  29
ENDBRANCH   1  16
TORSDOF 10
ENDMDL
MODEL 7
REMARK VINA RESULT:    -4.739      2.207      5.954
REMARK INTER + INTRA:          -8.265
REMARK INTER:                  -6.832
REMARK INTRA:                  -1.433
REMARK UNBOUND:                -1.587
REMARK SMILES OCC1=C[C@H](O)[C@@H]2C=CO[C@@H](O[C@H]3O[C@H](CO)[C@H](O)[C@@H](O)[C@H]3O)[C@H]12
REMARK SMILES IDX 12 1 11 2 8 3 9 4 7 5 10 6 24 7 5 8 3 9 4 10 6 11 2 13 1 14
REMARK SMILES IDX 13 16 22 17 14 18 20 19 15 20 18 21 23 22 21 24 16 26 17 27
REMARK SMILES IDX 19 29
REMARK H PARENT 6 12 1 15 23 23 21 25 17 28 19 30
REMARK Flexibility Score: inf
ROOT
ATOM      1  O   UNL     1      53.746 -33.690  -6.986  1.00  0.00    -0.310 OA
ENDROOT
BRANCH   1   2
ATOM      2  C   UNL     1      52.415 -34.164  -7.099  1.00  0.00     0.316 C 
ATOM      3  C   UNL     1      49.589 -33.897  -6.735  1.00  0.00     0.018 C 
ATOM      4  C   UNL     1      50.226 -33.165  -7.646  1.00  0.00     0.186 C 
ATOM      5  C   UNL     1      50.339 -34.700  -5.697  1.00  0.00     0.061 C 
ATOM      6  O   UNL     1      51.619 -33.145  -7.702  1.00  0.00    -0.472 OA
ATOM      7  C   UNL     1      51.871 -34.495  -5.692  1.00  0.00     0.096 C 
ATOM      8  C   UNL     1      50.138 -36.221  -5.824  1.00  0.00     0.145 C 
ATOM      9  C   UNL     1      52.374 -35.828  -5.227  1.00  0.00    -0.036 C 
ATOM     10  C   UNL     1      51.438 -36.770  -5.340  1.00  0.00     0.007 C 
BRANCH   8  11
ATOM     11  O   UNL     1      49.935 -36.597  -7.163  1.00  0.00    -0.388 OA
ATOM     12  H   UNL     1      50.726 -37.138  -7.432  1.00  0.00     0.211 HD
ENDBRANCH   8  11
BRANCH   9  13
ATOM     13  C   UNL     1      53.817 -36.100  -4.891  1.00  0.00     0.187 C 
BRANCH  13  14
ATOM     14  O   UNL     1      54.262 -35.271  -3.847  1.00  0.00    -0.392 OA
ATOM     15  H   UNL     1      55.209 -35.517  -3.666  1.00  0.00     0.211 HD
ENDBRANCH  13  14
ENDBRANCH   9  13
ENDBRANCH   1   2
BRANCH   1  16
ATOM     16  C   UNL     1      53.826 -32.532  -6.169  1.00  0.00     0.286 C 
ATOM     17  C   UNL     1      54.348 -31.378  -7.043  1.00  0.00     0.202 C 
ATOM     18  O   UNL     1      54.655 -32.783  -5.034  1.00  0.00    -0.341 OA
ATOM     19  C   UNL     1      54.328 -30.059  -6.234  1.00  0.00     0.179 C 
ATOM     20  C   UNL     1      55.276 -31.637  -4.460  1.00  0.00     0.178 C 
ATOM     21  C   UNL     1      54.530 -30.300  -4.714  1.00  0.00     0.177 C 
BRANCH  17  22
ATOM     22  O   UNL     1      55.646 -31.687  -7.484  1.00  0.00    -0.385 OA
ATOM     23  H   UNL     1      55.565 -32.435  -8.131  1.00  0.00     0.211 HD
ENDBRANCH  17  22
BRANCH  19  24
ATOM     24  O   UNL     1      55.258 -29.132  -6.740  1.00  0.00    -0.387 OA
ATOM     25  H   UNL     1      55.692 -29.542  -7.534  1.00  0.00     0.211 HD
ENDBRANCH  19  24
BRANCH  20  26
ATOM     26  C   UNL     1      55.461 -31.895  -2.955  1.00  0.00     0.191 C 
BRANCH  26  27
ATOM     27  O   UNL     1      54.402 -32.661  -2.444  1.00  0.00    -0.394 OA
ATOM     28  H   UNL     1      54.600 -33.607  -2.674  1.00  0.00     0.210 HD
ENDBRANCH  26  27
ENDBRANCH  20  26
BRANCH  21  29
ATOM     29  O   UNL     1      53.278 -30.319  -4.070  1.00  0.00    -0.387 OA
ATOM     30  H   UNL     1      53.457 -30.253  -3.095  1.00  0.00     0.211 HD
ENDBRANCH  21  29
ENDBRANCH   1  16
TORSDOF 10
ENDMDL
MODEL 8
REMARK VINA RESULT:    -4.737      1.891      5.592
REMARK INTER + INTRA:          -8.262
REMARK INTER:                  -6.861
REMARK INTRA:                  -1.400
REMARK UNBOUND:                -1.587
REMARK SMILES OCC1=C[C@H](O)[C@@H]2C=CO[C@@H](O[C@H]3O[C@H](CO)[C@H](O)[C@@H](O)[C@H]3O)[C@H]12
REMARK SMILES IDX 12 1 11 2 8 3 9 4 7 5 10 6 24 7 5 8 3 9 4 10 6 11 2 13 1 14
REMARK SMILES IDX 13 16 22 17 14 18 20 19 15 20 18 21 23 22 21 24 16 26 17 27
REMARK SMILES IDX 19 29
REMARK H PARENT 6 12 1 15 23 23 21 25 17 28 19 30
REMARK Flexibility Score: inf
ROOT
ATOM      1  O   UNL     1      52.346 -33.352  -7.063  1.00  0.00    -0.310 OA
ENDROOT
BRANCH   1   2
ATOM      2  C   UNL     1      52.738 -34.570  -7.674  1.00  0.00     0.316 C 
ATOM      3  C   UNL     1      53.045 -36.283  -9.946  1.00  0.00     0.018 C 
ATOM      4  C   UNL     1      53.822 -35.212  -9.796  1.00  0.00     0.186 C 
ATOM      5  C   UNL     1      51.824 -36.504  -9.084  1.00  0.00     0.061 C 
ATOM      6  O   UNL     1      53.558 -34.269  -8.802  1.00  0.00    -0.472 OA
ATOM      7  C   UNL     1      51.478 -35.340  -8.128  1.00  0.00     0.096 C 
ATOM      8  C   UNL     1      51.916 -37.749  -8.184  1.00  0.00     0.145 C 
ATOM      9  C   UNL     1      50.844 -36.050  -6.970  1.00  0.00    -0.036 C 
ATOM     10  C   UNL     1      51.120 -37.354  -6.985  1.00  0.00     0.007 C 
BRANCH   8  11
ATOM     11  O   UNL     1      53.245 -38.005  -7.804  1.00  0.00    -0.388 OA
ATOM     12  H   UNL     1      53.542 -37.230  -7.255  1.00  0.00     0.211 HD
ENDBRANCH   8  11
BRANCH   9  13
ATOM     13  C   UNL     1      50.172 -35.338  -5.825  1.00  0.00     0.187 C 
BRANCH  13  14
ATOM     14  O   UNL     1      49.755 -34.049  -6.201  1.00  0.00    -0.392 OA
ATOM     15  H   UNL     1      50.237 -33.407  -5.614  1.00  0.00     0.211 HD
ENDBRANCH  13  14
ENDBRANCH   9  13
ENDBRANCH   1   2
BRANCH   1  16
ATOM     16  C   UNL     1      53.379 -32.813  -6.253  1.00  0.00     0.286 C 
ATOM     17  C   UNL     1      53.102 -33.235  -4.799  1.00  0.00     0.202 C 
ATOM     18  O   UNL     1      53.446 -31.396  -6.413  1.00  0.00    -0.341 OA
ATOM     19  C   UNL     1      54.271 -32.784  -3.891  1.00  0.00     0.179 C 
ATOM     20  C   UNL     1      53.993 -30.677  -5.312  1.00  0.00     0.178 C 
ATOM     21  C   UNL     1      54.961 -31.499  -4.418  1.00  0.00     0.177 C 
BRANCH  17  22
ATOM     22  O   UNL     1      51.884 -32.669  -4.382  1.00  0.00    -0.385 OA
ATOM     23  H   UNL     1      51.202 -33.390  -4.405  1.00  0.00     0.211 HD
ENDBRANCH  17  22
BRANCH  19  24
ATOM     24  O   UNL     1      53.856 -32.639  -2.554  1.00  0.00    -0.387 OA
ATOM     25  H   UNL     1      53.506 -31.716  -2.444  1.00  0.00     0.211 HD
ENDBRANCH  19  24
BRANCH  20  26
ATOM     26  C   UNL     1      54.677 -29.412  -5.857  1.00  0.00     0.191 C 
BRANCH  26  27
ATOM     27  O   UNL     1      55.352 -29.685  -7.057  1.00  0.00    -0.394 OA
ATOM     28  H   UNL     1      54.967 -30.529  -7.414  1.00  0.00     0.210 HD
ENDBRANCH  26  27
ENDBRANCH  20  26
BRANCH  21  29
ATOM     29  O   UNL     1      56.111 -31.848  -5.153  1.00  0.00    -0.387 OA
ATOM     30  H   UNL     1      55.838 -32.560  -5.790  1.00  0.00     0.211 HD
ENDBRANCH  21  29
ENDBRANCH   1  16
TORSDOF 10
ENDMDL
MODEL 9
REMARK VINA RESULT:    -4.272      1.698      3.915
REMARK INTER + INTRA:          -7.607
REMARK INTER:                  -6.478
REMARK INTRA:                  -1.129
REMARK UNBOUND:                -1.587
REMARK SMILES OCC1=C[C@H](O)[C@@H]2C=CO[C@@H](O[C@H]3O[C@H](CO)[C@H](O)[C@@H](O)[C@H]3O)[C@H]12
REMARK SMILES IDX 12 1 11 2 8 3 9 4 7 5 10 6 24 7 5 8 3 9 4 10 6 11 2 13 1 14
REMARK SMILES IDX 13 16 22 17 14 18 20 19 15 20 18 21 23 22 21 24 16 26 17 27
REMARK SMILES IDX 19 29
REMARK H PARENT 6 12 1 15 23 23 21 25 17 28 19 30
REMARK Flexibility Score: inf
ROOT
ATOM      1  O   UNL     1      51.300 -32.628  -7.429  1.00  0.00    -0.310 OA
ENDROOT
BRANCH   1   2
ATOM      2  C   UNL     1      52.563 -32.174  -6.973  1.00  0.00     0.316 C 
ATOM      3  C   UNL     1      54.328 -30.141  -6.004  1.00  0.00     0.018 C 
ATOM      4  C   UNL     1      53.355 -30.618  -5.230  1.00  0.00     0.186 C 
ATOM      5  C   UNL     1      54.391 -30.454  -7.480  1.00  0.00     0.061 C 
ATOM      6  O   UNL     1      52.376 -31.464  -5.750  1.00  0.00    -0.472 OA
ATOM      7  C   UNL     1      53.183 -31.241  -8.036  1.00  0.00     0.096 C 
ATOM      8  C   UNL     1      55.628 -31.276  -7.889  1.00  0.00     0.145 C 
ATOM      9  C   UNL     1      53.799 -32.037  -9.147  1.00  0.00    -0.036 C 
ATOM     10  C   UNL     1      55.126 -32.085  -9.038  1.00  0.00     0.007 C 
BRANCH   8  11
ATOM     11  O   UNL     1      56.035 -32.131  -6.851  1.00  0.00    -0.388 OA
ATOM     12  H   UNL     1      55.217 -32.591  -6.519  1.00  0.00     0.211 HD
ENDBRANCH   8  11
BRANCH   9  13
ATOM     13  C   UNL     1      52.998 -32.856 -10.125  1.00  0.00     0.187 C 
BRANCH  13  14
ATOM     14  O   UNL     1      53.412 -34.200 -10.125  1.00  0.00    -0.392 OA
ATOM     15  H   UNL     1      52.588 -34.756 -10.140  1.00  0.00     0.211 HD
ENDBRANCH  13  14
ENDBRANCH   9  13
ENDBRANCH   1   2
BRANCH   1  16
ATOM     16  C   UNL     1      51.211 -34.044  -7.413  1.00  0.00     0.286 C 
ATOM     17  C   UNL     1      50.329 -34.444  -6.216  1.00  0.00     0.202 C 
ATOM     18  O   UNL     1      52.515 -34.622  -7.355  1.00  0.00    -0.341 OA
ATOM     19  C   UNL     1      50.090 -35.973  -6.230  1.00  0.00     0.179 C 
ATOM     20  C   UNL     1      52.586 -35.923  -6.780  1.00  0.00     0.178 C 
ATOM     21  C   UNL     1      51.273 -36.746  -6.871  1.00  0.00     0.177 C 
BRANCH  17  22
ATOM     22  O   UNL     1      50.958 -34.036  -5.027  1.00  0.00    -0.385 OA
ATOM     23  H   UNL     1      51.937 -34.087  -5.181  1.00  0.00     0.211 HD
ENDBRANCH  17  22
BRANCH  19  24
ATOM     24  O   UNL     1      49.790 -36.458  -4.943  1.00  0.00    -0.387 OA
ATOM     25  H   UNL     1      48.831 -36.271  -4.765  1.00  0.00     0.211 HD
ENDBRANCH  19  24
BRANCH  20  26
ATOM     26  C   UNL     1      53.760 -36.673  -7.433  1.00  0.00     0.191 C 
BRANCH  26  27
ATOM     27  O   UNL     1      53.420 -38.011  -7.686  1.00  0.00    -0.394 OA
ATOM     28  H   UNL     1      52.716 -37.997  -8.387  1.00  0.00     0.210 HD
ENDBRANCH  26  27
ENDBRANCH  20  26
BRANCH  21  29
ATOM     29  O   UNL     1      50.977 -37.028  -8.219  1.00  0.00    -0.387 OA
ATOM     30  H   UNL     1      51.408 -36.316  -8.762  1.00  0.00     0.211 HD
ENDBRANCH  21  29
ENDBRANCH   1  16
TORSDOF 10
ENDMDL
