MODEL 1
REMARK VINA RESULT:    -1.745      0.000      0.000
REMARK INTER + INTRA:          -5.145
REMARK INTER:                  -3.276
REMARK INTRA:                  -1.869
REMARK UNBOUND:                -1.869
REMARK SMILES O=C([O-])CCCCCCCCCCCCCCC(=O)[O-]
REMARK SMILES IDX 10 1 9 2 8 3 7 4 6 5 5 6 4 7 2 8 1 9 3 10 11 11 12 12 13 13
REMARK SMILES IDX 14 14 15 15 16 16 17 17 18 18 19 19 20 20
REMARK H PARENT
REMARK Flexibility Score: inf
ROOT
ATOM      1  C   UNL     1      17.939 -33.704   1.668  1.00  0.00     0.000 C 
ENDROOT
BRANCH   1   2
ATOM      2  C   UNL     1      18.377 -32.353   2.260  1.00  0.00     0.000 C 
BRANCH   2   3
ATOM      3  C   UNL     1      18.160 -32.276   3.779  1.00  0.00     0.000 C 
BRANCH   3   4
ATOM      4  C   UNL     1      17.010 -31.333   4.168  1.00  0.00     0.000 C 
BRANCH   4   5
ATOM      5  C   UNL     1      16.501 -30.556   2.947  1.00  0.00     0.000 C 
BRANCH   5   6
ATOM      6  C   UNL     1      14.999 -30.762   2.681  1.00  0.00     0.006 C 
BRANCH   6   7
ATOM      7  C   UNL     1      14.199 -29.452   2.565  1.00  0.00     0.053 C 
BRANCH   7   8
ATOM      8  C   UNL     1      14.261 -28.623   3.814  1.00  0.00     0.041 C 
ATOM      9  O   UNL     1      14.741 -27.460   3.782  1.00  0.00    -0.550 OA
ATOM     10  O   UNL     1      13.820 -29.151   5.021  1.00  0.00    -0.550 OA
ENDBRANCH   7   8
ENDBRANCH   6   7
ENDBRANCH   5   6
ENDBRANCH   4   5
ENDBRANCH   3   4
ENDBRANCH   2   3
ENDBRANCH   1   2
BRANCH   1  11
ATOM     11  C   UNL     1      17.063 -34.516   2.637  1.00  0.00     0.000 C 
BRANCH  11  12
ATOM     12  C   UNL     1      15.619 -34.686   2.129  1.00  0.00     0.000 C 
BRANCH  12  13
ATOM     13  C   UNL     1      15.364 -33.933   0.813  1.00  0.00     0.000 C 
BRANCH  13  14
ATOM     14  C   UNL     1      14.849 -34.855  -0.304  1.00  0.00     0.000 C 
BRANCH  14  15
ATOM     15  C   UNL     1      14.249 -34.039  -1.457  1.00  0.00     0.000 C 
BRANCH  15  16
ATOM     16  C   UNL     1      12.732 -33.822  -1.315  1.00  0.00     0.006 C 
BRANCH  16  17
ATOM     17  C   UNL     1      12.290 -32.357  -1.481  1.00  0.00     0.053 C 
BRANCH  17  18
ATOM     18  C   UNL     1      12.152 -31.646  -0.169  1.00  0.00     0.041 C 
ATOM     19  O   UNL     1      12.178 -32.295   0.910  1.00  0.00    -0.550 OA
ATOM     20  O   UNL     1      12.028 -30.263  -0.134  1.00  0.00    -0.550 OA
ENDBRANCH  17  18
ENDBRANCH  16  17
ENDBRANCH  15  16
ENDBRANCH  14  15
ENDBRANCH  13  14
ENDBRANCH  12  13
ENDBRANCH  11  12
ENDBRANCH   1  11
TORSDOF 15
ENDMDL
MODEL 2
REMARK VINA RESULT:    -1.734      2.508      4.189
REMARK INTER + INTRA:          -5.123
REMARK INTER:                  -2.853
REMARK INTRA:                  -2.271
REMARK UNBOUND:                -1.869
REMARK SMILES O=C([O-])CCCCCCCCCCCCCCC(=O)[O-]
REMARK SMILES IDX 10 1 9 2 8 3 7 4 6 5 5 6 4 7 2 8 1 9 3 10 11 11 12 12 13 13
REMARK SMILES IDX 14 14 15 15 16 16 17 17 18 18 19 19 20 20
REMARK H PARENT
REMARK Flexibility Score: inf
ROOT
ATOM      1  C   UNL     1      18.411 -34.882   2.068  1.00  0.00     0.000 C 
ENDROOT
BRANCH   1   2
ATOM      2  C   UNL     1      19.236 -33.684   2.570  1.00  0.00     0.000 C 
BRANCH   2   3
ATOM      3  C   UNL     1      19.245 -32.514   1.572  1.00  0.00     0.000 C 
BRANCH   3   4
ATOM      4  C   UNL     1      20.662 -32.004   1.266  1.00  0.00     0.000 C 
BRANCH   4   5
ATOM      5  C   UNL     1      20.618 -30.594   0.661  1.00  0.00     0.000 C 
BRANCH   5   6
ATOM      6  C   UNL     1      19.632 -29.657   1.381  1.00  0.00     0.006 C 
BRANCH   6   7
ATOM      7  C   UNL     1      20.179 -29.063   2.692  1.00  0.00     0.053 C 
BRANCH   7   8
ATOM      8  C   UNL     1      19.279 -29.320   3.863  1.00  0.00     0.041 C 
ATOM      9  O   UNL     1      18.553 -28.400   4.322  1.00  0.00    -0.550 OA
ATOM     10  O   UNL     1      19.269 -30.569   4.472  1.00  0.00    -0.550 OA
ENDBRANCH   7   8
ENDBRANCH   6   7
ENDBRANCH   5   6
ENDBRANCH   4   5
ENDBRANCH   3   4
ENDBRANCH   2   3
ENDBRANCH   1   2
BRANCH   1  11
ATOM     11  C   UNL     1      17.556 -34.535   0.838  1.00  0.00     0.000 C 
BRANCH  11  12
ATOM     12  C   UNL     1      16.047 -34.704   1.097  1.00  0.00     0.000 C 
BRANCH  12  13
ATOM     13  C   UNL     1      15.390 -33.415   1.615  1.00  0.00     0.000 C 
BRANCH  13  14
ATOM     14  C   UNL     1      15.172 -33.433   3.136  1.00  0.00     0.000 C 
BRANCH  14  15
ATOM     15  C   UNL     1      15.907 -32.267   3.811  1.00  0.00     0.000 C 
BRANCH  15  16
ATOM     16  C   UNL     1      16.154 -31.080   2.861  1.00  0.00     0.006 C 
BRANCH  16  17
ATOM     17  C   UNL     1      15.427 -29.788   3.272  1.00  0.00     0.053 C 
BRANCH  17  18
ATOM     18  C   UNL     1      14.118 -29.613   2.563  1.00  0.00     0.041 C 
ATOM     19  O   UNL     1      13.127 -30.323   2.879  1.00  0.00    -0.550 OA
ATOM     20  O   UNL     1      13.981 -28.645   1.577  1.00  0.00    -0.550 OA
ENDBRANCH  17  18
ENDBRANCH  16  17
ENDBRANCH  15  16
ENDBRANCH  14  15
ENDBRANCH  13  14
ENDBRANCH  12  13
ENDBRANCH  11  12
ENDBRANCH   1  11
TORSDOF 15
ENDMDL
MODEL 3
REMARK VINA RESULT:    -1.722      1.970      4.738
REMARK INTER + INTRA:          -5.101
REMARK INTER:                  -3.147
REMARK INTRA:                  -1.954
REMARK UNBOUND:                -1.869
REMARK SMILES O=C([O-])CCCCCCCCCCCCCCC(=O)[O-]
REMARK SMILES IDX 10 1 9 2 8 3 7 4 6 5 5 6 4 7 2 8 1 9 3 10 11 11 12 12 13 13
REMARK SMILES IDX 14 14 15 15 16 16 17 17 18 18 19 19 20 20
REMARK H PARENT
REMARK Flexibility Score: inf
ROOT
ATOM      1  C   UNL     1      19.933 -32.279   2.300  1.00  0.00     0.000 C 
ENDROOT
BRANCH   1   2
ATOM      2  C   UNL     1      19.655 -33.334   1.215  1.00  0.00     0.000 C 
BRANCH   2   3
ATOM      3  C   UNL     1      18.407 -34.178   1.518  1.00  0.00     0.000 C 
BRANCH   3   4
ATOM      4  C   UNL     1      18.035 -35.125   0.366  1.00  0.00     0.000 C 
BRANCH   4   5
ATOM      5  C   UNL     1      16.552 -34.980  -0.005  1.00  0.00     0.000 C 
BRANCH   5   6
ATOM      6  C   UNL     1      15.752 -34.150   1.015  1.00  0.00     0.006 C 
BRANCH   6   7
ATOM      7  C   UNL     1      14.327 -33.797   0.551  1.00  0.00     0.053 C 
BRANCH   7   8
ATOM      8  C   UNL     1      13.355 -33.698   1.689  1.00  0.00     0.041 C 
ATOM      9  O   UNL     1      12.167 -33.338   1.482  1.00  0.00    -0.550 OA
ATOM     10  O   UNL     1      13.773 -33.973   2.986  1.00  0.00    -0.550 OA
ENDBRANCH   7   8
ENDBRANCH   6   7
ENDBRANCH   5   6
ENDBRANCH   4   5
ENDBRANCH   3   4
ENDBRANCH   2   3
ENDBRANCH   1   2
BRANCH   1  11
ATOM     11  C   UNL     1      19.457 -30.875   1.892  1.00  0.00     0.000 C 
BRANCH  11  12
ATOM     12  C   UNL     1      18.383 -30.313   2.843  1.00  0.00     0.000 C 
BRANCH  12  13
ATOM     13  C   UNL     1      17.975 -31.319   3.931  1.00  0.00     0.000 C 
BRANCH  13  14
ATOM     14  C   UNL     1      16.497 -31.728   3.831  1.00  0.00     0.000 C 
BRANCH  14  15
ATOM     15  C   UNL     1      15.798 -30.988   2.682  1.00  0.00     0.000 C 
BRANCH  15  16
ATOM     16  C   UNL     1      14.465 -30.342   3.105  1.00  0.00     0.006 C 
BRANCH  16  17
ATOM     17  C   UNL     1      14.255 -28.921   2.553  1.00  0.00     0.053 C 
BRANCH  17  18
ATOM     18  C   UNL     1      13.295 -28.887   1.403  1.00  0.00     0.041 C 
ATOM     19  O   UNL     1      13.161 -27.836   0.722  1.00  0.00    -0.550 OA
ATOM     20  O   UNL     1      12.574 -30.023   1.059  1.00  0.00    -0.550 OA
ENDBRANCH  17  18
ENDBRANCH  16  17
ENDBRANCH  15  16
ENDBRANCH  14  15
ENDBRANCH  13  14
ENDBRANCH  12  13
ENDBRANCH  11  12
ENDBRANCH   1  11
TORSDOF 15
ENDMDL
MODEL 4
REMARK VINA RESULT:    -1.711      1.642      2.496
REMARK INTER + INTRA:          -5.080
REMARK INTER:                  -3.411
REMARK INTRA:                  -1.669
REMARK UNBOUND:                -1.869
REMARK SMILES O=C([O-])CCCCCCCCCCCCCCC(=O)[O-]
REMARK SMILES IDX 10 1 9 2 8 3 7 4 6 5 5 6 4 7 2 8 1 9 3 10 11 11 12 12 13 13
REMARK SMILES IDX 14 14 15 15 16 16 17 17 18 18 19 19 20 20
REMARK H PARENT
REMARK Flexibility Score: inf
ROOT
ATOM      1  C   UNL     1      19.531 -31.557   2.287  1.00  0.00     0.000 C 
ENDROOT
BRANCH   1   2
ATOM      2  C   UNL     1      18.226 -30.747   2.379  1.00  0.00     0.000 C 
BRANCH   2   3
ATOM      3  C   UNL     1      17.934 -30.258   3.806  1.00  0.00     0.000 C 
BRANCH   3   4
ATOM      4  C   UNL     1      16.542 -30.678   4.305  1.00  0.00     0.000 C 
BRANCH   4   5
ATOM      5  C   UNL     1      15.780 -31.449   3.219  1.00  0.00     0.000 C 
BRANCH   5   6
ATOM      6  C   UNL     1      14.441 -30.792   2.837  1.00  0.00     0.006 C 
BRANCH   6   7
ATOM      7  C   UNL     1      14.555 -29.295   2.496  1.00  0.00     0.053 C 
BRANCH   7   8
ATOM      8  C   UNL     1      13.283 -28.729   1.939  1.00  0.00     0.041 C 
ATOM      9  O   UNL     1      12.193 -28.898   2.545  1.00  0.00    -0.550 OA
ATOM     10  O   UNL     1      13.297 -28.044   0.731  1.00  0.00    -0.550 OA
ENDBRANCH   7   8
ENDBRANCH   6   7
ENDBRANCH   5   6
ENDBRANCH   4   5
ENDBRANCH   3   4
ENDBRANCH   2   3
ENDBRANCH   1   2
BRANCH   1  11
ATOM     11  C   UNL     1      19.329 -32.926   1.617  1.00  0.00     0.000 C 
BRANCH  11  12
ATOM     12  C   UNL     1      18.886 -34.014   2.613  1.00  0.00     0.000 C 
BRANCH  12  13
ATOM     13  C   UNL     1      17.429 -34.454   2.397  1.00  0.00     0.000 C 
BRANCH  13  14
ATOM     14  C   UNL     1      16.987 -34.334   0.930  1.00  0.00     0.000 C 
BRANCH  14  15
ATOM     15  C   UNL     1      15.470 -34.129   0.828  1.00  0.00     0.000 C 
BRANCH  15  16
ATOM     16  C   UNL     1      14.817 -34.999  -0.261  1.00  0.00     0.006 C 
BRANCH  16  17
ATOM     17  C   UNL     1      14.303 -34.204  -1.474  1.00  0.00     0.053 C 
BRANCH  17  18
ATOM     18  C   UNL     1      12.950 -33.605  -1.239  1.00  0.00     0.041 C 
ATOM     19  O   UNL     1      12.109 -34.204  -0.517  1.00  0.00    -0.550 OA
ATOM     20  O   UNL     1      12.626 -32.371  -1.787  1.00  0.00    -0.550 OA
ENDBRANCH  17  18
ENDBRANCH  16  17
ENDBRANCH  15  16
ENDBRANCH  14  15
ENDBRANCH  13  14
ENDBRANCH  12  13
ENDBRANCH  11  12
ENDBRANCH   1  11
TORSDOF 15
ENDMDL
MODEL 5
REMARK VINA RESULT:    -1.687      3.463      5.916
REMARK INTER + INTRA:          -5.036
REMARK INTER:                  -3.225
REMARK INTRA:                  -1.811
REMARK UNBOUND:                -1.869
REMARK SMILES O=C([O-])CCCCCCCCCCCCCCC(=O)[O-]
REMARK SMILES IDX 10 1 9 2 8 3 7 4 6 5 5 6 4 7 2 8 1 9 3 10 11 11 12 12 13 13
REMARK SMILES IDX 14 14 15 15 16 16 17 17 18 18 19 19 20 20
REMARK H PARENT
REMARK Flexibility Score: inf
ROOT
ATOM      1  C   UNL     1      17.037 -34.197   1.737  1.00  0.00     0.000 C 
ENDROOT
BRANCH   1   2
ATOM      2  C   UNL     1      18.255 -34.758   0.983  1.00  0.00     0.000 C 
BRANCH   2   3
ATOM      3  C   UNL     1      19.502 -33.872   1.133  1.00  0.00     0.000 C 
BRANCH   3   4
ATOM      4  C   UNL     1      19.186 -32.500   1.750  1.00  0.00     0.000 C 
BRANCH   4   5
ATOM      5  C   UNL     1      20.308 -31.495   1.456  1.00  0.00     0.000 C 
BRANCH   5   6
ATOM      6  C   UNL     1      19.787 -30.078   1.156  1.00  0.00     0.006 C 
BRANCH   6   7
ATOM      7  C   UNL     1      20.233 -29.524  -0.209  1.00  0.00     0.053 C 
BRANCH   7   8
ATOM      8  C   UNL     1      20.434 -28.038  -0.194  1.00  0.00     0.041 C 
ATOM      9  O   UNL     1      20.534 -27.399  -1.274  1.00  0.00    -0.550 OA
ATOM     10  O   UNL     1      20.544 -27.364   1.016  1.00  0.00    -0.550 OA
ENDBRANCH   7   8
ENDBRANCH   6   7
ENDBRANCH   5   6
ENDBRANCH   4   5
ENDBRANCH   3   4
ENDBRANCH   2   3
ENDBRANCH   1   2
BRANCH   1  11
ATOM     11  C   UNL     1      15.770 -34.161   0.866  1.00  0.00     0.000 C 
BRANCH  11  12
ATOM     12  C   UNL     1      14.648 -33.308   1.487  1.00  0.00     0.000 C 
BRANCH  12  13
ATOM     13  C   UNL     1      15.071 -32.649   2.810  1.00  0.00     0.000 C 
BRANCH  13  14
ATOM     14  C   UNL     1      14.980 -31.116   2.762  1.00  0.00     0.000 C 
BRANCH  14  15
ATOM     15  C   UNL     1      16.375 -30.480   2.834  1.00  0.00     0.000 C 
BRANCH  15  16
ATOM     16  C   UNL     1      16.808 -30.137   4.271  1.00  0.00     0.006 C 
BRANCH  16  17
ATOM     17  C   UNL     1      18.122 -30.808   4.706  1.00  0.00     0.053 C 
BRANCH  17  18
ATOM     18  C   UNL     1      17.906 -32.162   5.311  1.00  0.00     0.041 C 
ATOM     19  O   UNL     1      16.817 -32.433   5.882  1.00  0.00    -0.550 OA
ATOM     20  O   UNL     1      18.891 -33.136   5.215  1.00  0.00    -0.550 OA
ENDBRANCH  17  18
ENDBRANCH  16  17
ENDBRANCH  15  16
ENDBRANCH  14  15
ENDBRANCH  13  14
ENDBRANCH  12  13
ENDBRANCH  11  12
ENDBRANCH   1  11
TORSDOF 15
ENDMDL
MODEL 6
REMARK VINA RESULT:    -1.668      5.395      7.262
REMARK INTER + INTRA:          -5.000
REMARK INTER:                  -2.761
REMARK INTRA:                  -2.240
REMARK UNBOUND:                -1.869
REMARK SMILES O=C([O-])CCCCCCCCCCCCCCC(=O)[O-]
REMARK SMILES IDX 10 1 9 2 8 3 7 4 6 5 5 6 4 7 2 8 1 9 3 10 11 11 12 12 13 13
REMARK SMILES IDX 14 14 15 15 16 16 17 17 18 18 19 19 20 20
REMARK H PARENT
REMARK Flexibility Score: inf
ROOT
ATOM      1  C   UNL     1      20.770 -30.544   0.499  1.00  0.00     0.000 C 
ENDROOT
BRANCH   1   2
ATOM      2  C   UNL     1      19.947 -29.355  -0.027  1.00  0.00     0.000 C 
BRANCH   2   3
ATOM      3  C   UNL     1      20.475 -28.818  -1.367  1.00  0.00     0.000 C 
BRANCH   3   4
ATOM      4  C   UNL     1      20.836 -27.326  -1.309  1.00  0.00     0.000 C 
BRANCH   4   5
ATOM      5  C   UNL     1      20.816 -26.812   0.137  1.00  0.00     0.000 C 
BRANCH   5   6
ATOM      6  C   UNL     1      22.204 -26.384   0.646  1.00  0.00     0.006 C 
BRANCH   6   7
ATOM      7  C   UNL     1      22.788 -27.315   1.724  1.00  0.00     0.053 C 
BRANCH   7   8
ATOM      8  C   UNL     1      23.648 -28.400   1.148  1.00  0.00     0.041 C 
ATOM      9  O   UNL     1      24.066 -29.336   1.879  1.00  0.00    -0.550 OA
ATOM     10  O   UNL     1      24.017 -28.358  -0.191  1.00  0.00    -0.550 OA
ENDBRANCH   7   8
ENDBRANCH   6   7
ENDBRANCH   5   6
ENDBRANCH   4   5
ENDBRANCH   3   4
ENDBRANCH   2   3
ENDBRANCH   1   2
BRANCH   1  11
ATOM     11  C   UNL     1      20.756 -30.638   2.034  1.00  0.00     0.000 C 
BRANCH  11  12
ATOM     12  C   UNL     1      19.931 -29.515   2.689  1.00  0.00     0.000 C 
BRANCH  12  13
ATOM     13  C   UNL     1      18.763 -30.055   3.530  1.00  0.00     0.000 C 
BRANCH  13  14
ATOM     14  C   UNL     1      17.657 -30.685   2.669  1.00  0.00     0.000 C 
BRANCH  14  15
ATOM     15  C   UNL     1      17.183 -32.015   3.270  1.00  0.00     0.000 C 
BRANCH  15  16
ATOM     16  C   UNL     1      18.156 -33.178   3.004  1.00  0.00     0.006 C 
BRANCH  16  17
ATOM     17  C   UNL     1      18.368 -33.488   1.511  1.00  0.00     0.053 C 
BRANCH  17  18
ATOM     18  C   UNL     1      17.546 -34.650   1.042  1.00  0.00     0.041 C 
ATOM     19  O   UNL     1      16.703 -35.182   1.813  1.00  0.00    -0.550 OA
ATOM     20  O   UNL     1      17.684 -35.126  -0.255  1.00  0.00    -0.550 OA
ENDBRANCH  17  18
ENDBRANCH  16  17
ENDBRANCH  15  16
ENDBRANCH  14  15
ENDBRANCH  13  14
ENDBRANCH  12  13
ENDBRANCH  11  12
ENDBRANCH   1  11
TORSDOF 15
ENDMDL
MODEL 7
REMARK VINA RESULT:    -1.651      3.412      4.961
REMARK INTER + INTRA:          -4.967
REMARK INTER:                  -2.293
REMARK INTRA:                  -2.674
REMARK UNBOUND:                -1.869
REMARK SMILES O=C([O-])CCCCCCCCCCCCCCC(=O)[O-]
REMARK SMILES IDX 10 1 9 2 8 3 7 4 6 5 5 6 4 7 2 8 1 9 3 10 11 11 12 12 13 13
REMARK SMILES IDX 14 14 15 15 16 16 17 17 18 18 19 19 20 20
REMARK H PARENT
REMARK Flexibility Score: inf
ROOT
ATOM      1  C   UNL     1      14.594 -30.506   4.450  1.00  0.00     0.000 C 
ENDROOT
BRANCH   1   2
ATOM      2  C   UNL     1      15.087 -30.155   3.035  1.00  0.00     0.000 C 
BRANCH   2   3
ATOM      3  C   UNL     1      16.527 -30.628   2.777  1.00  0.00     0.000 C 
BRANCH   3   4
ATOM      4  C   UNL     1      17.159 -31.304   4.004  1.00  0.00     0.000 C 
BRANCH   4   5
ATOM      5  C   UNL     1      17.533 -32.761   3.696  1.00  0.00     0.000 C 
BRANCH   5   6
ATOM      6  C   UNL     1      17.270 -33.156   2.232  1.00  0.00     0.006 C 
BRANCH   6   7
ATOM      7  C   UNL     1      18.510 -33.700   1.500  1.00  0.00     0.053 C 
BRANCH   7   8
ATOM      8  C   UNL     1      19.715 -32.826   1.674  1.00  0.00     0.041 C 
ATOM      9  O   UNL     1      20.745 -33.270   2.247  1.00  0.00    -0.550 OA
ATOM     10  O   UNL     1      19.688 -31.508   1.234  1.00  0.00    -0.550 OA
ENDBRANCH   7   8
ENDBRANCH   6   7
ENDBRANCH   5   6
ENDBRANCH   4   5
ENDBRANCH   3   4
ENDBRANCH   2   3
ENDBRANCH   1   2
BRANCH   1  11
ATOM     11  C   UNL     1      13.446 -31.529   4.437  1.00  0.00     0.000 C 
BRANCH  11  12
ATOM     12  C   UNL     1      13.928 -32.965   4.710  1.00  0.00     0.000 C 
BRANCH  12  13
ATOM     13  C   UNL     1      13.805 -33.874   3.477  1.00  0.00     0.000 C 
BRANCH  13  14
ATOM     14  C   UNL     1      12.971 -33.236   2.355  1.00  0.00     0.000 C 
BRANCH  14  15
ATOM     15  C   UNL     1      13.807 -33.064   1.079  1.00  0.00     0.000 C 
BRANCH  15  16
ATOM     16  C   UNL     1      13.769 -34.301   0.163  1.00  0.00     0.006 C 
BRANCH  16  17
ATOM     17  C   UNL     1      15.138 -34.690  -0.421  1.00  0.00     0.053 C 
BRANCH  17  18
ATOM     18  C   UNL     1      15.687 -35.946   0.185  1.00  0.00     0.041 C 
ATOM     19  O   UNL     1      15.584 -36.148   1.423  1.00  0.00    -0.550 OA
ATOM     20  O   UNL     1      16.280 -36.909  -0.620  1.00  0.00    -0.550 OA
ENDBRANCH  17  18
ENDBRANCH  16  17
ENDBRANCH  15  16
ENDBRANCH  14  15
ENDBRANCH  13  14
ENDBRANCH  12  13
ENDBRANCH  11  12
ENDBRANCH   1  11
TORSDOF 15
ENDMDL
MODEL 8
REMARK VINA RESULT:    -1.638      3.382      5.106
REMARK INTER + INTRA:          -4.943
REMARK INTER:                  -2.737
REMARK INTRA:                  -2.205
REMARK UNBOUND:                -1.869
REMARK SMILES O=C([O-])CCCCCCCCCCCCCCC(=O)[O-]
REMARK SMILES IDX 10 1 9 2 8 3 7 4 6 5 5 6 4 7 2 8 1 9 3 10 11 11 12 12 13 13
REMARK SMILES IDX 14 14 15 15 16 16 17 17 18 18 19 19 20 20
REMARK H PARENT
REMARK Flexibility Score: inf
ROOT
ATOM      1  C   UNL     1      18.302 -31.279   3.763  1.00  0.00     0.000 C 
ENDROOT
BRANCH   1   2
ATOM      2  C   UNL     1      18.685 -32.729   3.416  1.00  0.00     0.000 C 
BRANCH   2   3
ATOM      3  C   UNL     1      18.530 -33.038   1.918  1.00  0.00     0.000 C 
BRANCH   3   4
ATOM      4  C   UNL     1      19.820 -33.584   1.287  1.00  0.00     0.000 C 
BRANCH   4   5
ATOM      5  C   UNL     1      20.983 -32.601   1.478  1.00  0.00     0.000 C 
BRANCH   5   6
ATOM      6  C   UNL     1      20.812 -31.298   0.676  1.00  0.00     0.006 C 
BRANCH   6   7
ATOM      7  C   UNL     1      21.119 -30.023   1.482  1.00  0.00     0.053 C 
BRANCH   7   8
ATOM      8  C   UNL     1      20.380 -28.823   0.972  1.00  0.00     0.041 C 
ATOM      9  O   UNL     1      19.699 -28.898  -0.085  1.00  0.00    -0.550 OA
ATOM     10  O   UNL     1      20.471 -27.612   1.646  1.00  0.00    -0.550 OA
ENDBRANCH   7   8
ENDBRANCH   6   7
ENDBRANCH   5   6
ENDBRANCH   4   5
ENDBRANCH   3   4
ENDBRANCH   2   3
ENDBRANCH   1   2
BRANCH   1  11
ATOM     11  C   UNL     1      17.343 -30.660   2.732  1.00  0.00     0.000 C 
BRANCH  11  12
ATOM     12  C   UNL     1      15.906 -30.523   3.267  1.00  0.00     0.000 C 
BRANCH  12  13
ATOM     13  C   UNL     1      14.949 -31.564   2.662  1.00  0.00     0.000 C 
BRANCH  13  14
ATOM     14  C   UNL     1      14.901 -32.865   3.478  1.00  0.00     0.000 C 
BRANCH  14  15
ATOM     15  C   UNL     1      14.988 -34.092   2.560  1.00  0.00     0.000 C 
BRANCH  15  16
ATOM     16  C   UNL     1      14.868 -33.738   1.067  1.00  0.00     0.006 C 
BRANCH  16  17
ATOM     17  C   UNL     1      15.707 -34.635   0.140  1.00  0.00     0.053 C 
BRANCH  17  18
ATOM     18  C   UNL     1      15.362 -36.087   0.279  1.00  0.00     0.041 C 
ATOM     19  O   UNL     1      14.235 -36.509  -0.090  1.00  0.00    -0.550 OA
ATOM     20  O   UNL     1      16.297 -36.982   0.785  1.00  0.00    -0.550 OA
ENDBRANCH  17  18
ENDBRANCH  16  17
ENDBRANCH  15  16
ENDBRANCH  14  15
ENDBRANCH  13  14
ENDBRANCH  12  13
ENDBRANCH  11  12
ENDBRANCH   1  11
TORSDOF 15
ENDMDL
MODEL 9
REMARK VINA RESULT:    -1.607      2.992      4.876
REMARK INTER + INTRA:          -4.885
REMARK INTER:                  -2.960
REMARK INTRA:                  -1.925
REMARK UNBOUND:                -1.869
REMARK SMILES O=C([O-])CCCCCCCCCCCCCCC(=O)[O-]
REMARK SMILES IDX 10 1 9 2 8 3 7 4 6 5 5 6 4 7 2 8 1 9 3 10 11 11 12 12 13 13
REMARK SMILES IDX 14 14 15 15 16 16 17 17 18 18 19 19 20 20
REMARK H PARENT
REMARK Flexibility Score: inf
ROOT
ATOM      1  C   UNL     1      18.230 -33.016   1.999  1.00  0.00     0.000 C 
ENDROOT
BRANCH   1   2
ATOM      2  C   UNL     1      18.272 -32.944   3.536  1.00  0.00     0.000 C 
BRANCH   2   3
ATOM      3  C   UNL     1      18.366 -31.501   4.057  1.00  0.00     0.000 C 
BRANCH   3   4
ATOM      4  C   UNL     1      18.486 -30.467   2.926  1.00  0.00     0.000 C 
BRANCH   4   5
ATOM      5  C   UNL     1      19.745 -29.607   3.100  1.00  0.00     0.000 C 
BRANCH   5   6
ATOM      6  C   UNL     1      20.780 -29.816   1.980  1.00  0.00     0.006 C 
BRANCH   6   7
ATOM      7  C   UNL     1      20.158 -30.058   0.592  1.00  0.00     0.053 C 
BRANCH   7   8
ATOM      8  C   UNL     1      20.262 -28.862  -0.306  1.00  0.00     0.041 C 
ATOM      9  O   UNL     1      20.213 -29.000  -1.556  1.00  0.00    -0.550 OA
ATOM     10  O   UNL     1      20.449 -27.598   0.239  1.00  0.00    -0.550 OA
ENDBRANCH   7   8
ENDBRANCH   6   7
ENDBRANCH   5   6
ENDBRANCH   4   5
ENDBRANCH   3   4
ENDBRANCH   2   3
ENDBRANCH   1   2
BRANCH   1  11
ATOM     11  C   UNL     1      17.726 -34.376   1.487  1.00  0.00     0.000 C 
BRANCH  11  12
ATOM     12  C   UNL     1      16.321 -34.290   0.862  1.00  0.00     0.000 C 
BRANCH  12  13
ATOM     13  C   UNL     1      15.203 -34.323   1.917  1.00  0.00     0.000 C 
BRANCH  13  14
ATOM     14  C   UNL     1      14.246 -33.126   1.800  1.00  0.00     0.000 C 
BRANCH  14  15
ATOM     15  C   UNL     1      14.462 -32.136   2.953  1.00  0.00     0.000 C 
BRANCH  15  16
ATOM     16  C   UNL     1      15.074 -30.800   2.493  1.00  0.00     0.006 C 
BRANCH  16  17
ATOM     17  C   UNL     1      14.253 -29.563   2.897  1.00  0.00     0.053 C 
BRANCH  17  18
ATOM     18  C   UNL     1      14.955 -28.714   3.913  1.00  0.00     0.041 C 
ATOM     19  O   UNL     1      15.709 -29.245   4.770  1.00  0.00    -0.550 OA
ATOM     20  O   UNL     1      14.804 -27.333   3.895  1.00  0.00    -0.550 OA
ENDBRANCH  17  18
ENDBRANCH  16  17
ENDBRANCH  15  16
ENDBRANCH  14  15
ENDBRANCH  13  14
ENDBRANCH  12  13
ENDBRANCH  11  12
ENDBRANCH   1  11
TORSDOF 15
ENDMDL
