MODEL 1
REMARK VINA RESULT:    -5.203      0.000      0.000
REMARK INTER + INTRA:          -5.867
REMARK INTER:                  -5.659
REMARK INTRA:                  -0.208
REMARK UNBOUND:                -0.208
REMARK SMILES CC1=CC[C@@H](C(C)(C)O)CC1
REMARK SMILES IDX 6 1 7 2 8 3 5 4 1 5 2 6 3 7 11 8 4 9 10 10 9 11
REMARK H PARENT 9 12
REMARK Flexibility Score: inf
ROOT
ATOM      1  C   UNL     1     124.236 119.374 115.385  1.00  0.00     0.062 C 
ATOM      2  C   UNL     1     123.815 120.856 115.303  1.00  0.00     0.042 C 
ATOM      3  C   UNL     1     125.087 119.205 116.665  1.00  0.00     0.042 C 
ENDROOT
BRANCH   1   4
ATOM      4  C   UNL     1     122.952 118.464 115.410  1.00  0.00     0.024 C 
ATOM      5  C   UNL     1     119.167 116.549 116.118  1.00  0.00     0.039 C 
ATOM      6  C   UNL     1     120.283 117.554 116.031  1.00  0.00    -0.077 C 
ATOM      7  C   UNL     1     120.527 118.192 114.878  1.00  0.00    -0.028 C 
ATOM      8  C   UNL     1     121.157 117.858 117.224  1.00  0.00     0.031 C 
ATOM      9  C   UNL     1     121.698 119.131 114.785  1.00  0.00     0.034 C 
ATOM     10  C   UNL     1     122.651 117.897 116.841  1.00  0.00     0.011 C 
ENDBRANCH   1   4
BRANCH   1  11
ATOM     11  O   UNL     1     125.024 119.092 114.252  1.00  0.00    -0.390 OA
ATOM     12  H   UNL     1     125.978 119.215 114.496  1.00  0.00     0.211 HD
ENDBRANCH   1  11
TORSDOF 2
ENDMDL
MODEL 2
REMARK VINA RESULT:    -4.716     16.015     17.602
REMARK INTER + INTRA:          -5.337
REMARK INTER:                  -5.129
REMARK INTRA:                  -0.208
REMARK UNBOUND:                -0.208
REMARK SMILES CC1=CC[C@@H](C(C)(C)O)CC1
REMARK SMILES IDX 6 1 7 2 8 3 5 4 1 5 2 6 3 7 11 8 4 9 10 10 9 11
REMARK H PARENT 9 12
REMARK Flexibility Score: inf
ROOT
ATOM      1  C   UNL     1     111.156 116.241 130.218  1.00  0.00     0.062 C 
ATOM      2  C   UNL     1     112.332 117.239 130.270  1.00  0.00     0.042 C 
ATOM      3  C   UNL     1     109.971 116.885 130.977  1.00  0.00     0.042 C 
ENDROOT
BRANCH   1   4
ATOM      4  C   UNL     1     110.793 115.933 128.718  1.00  0.00     0.024 C 
ATOM      5  C   UNL     1     109.705 115.986 124.558  1.00  0.00     0.039 C 
ATOM      6  C   UNL     1     110.202 116.367 125.925  1.00  0.00    -0.077 C 
ATOM      7  C   UNL     1     111.443 116.036 126.309  1.00  0.00    -0.028 C 
ATOM      8  C   UNL     1     109.321 117.115 126.897  1.00  0.00     0.031 C 
ATOM      9  C   UNL     1     111.895 116.352 127.708  1.00  0.00     0.034 C 
ATOM     10  C   UNL     1     109.391 116.509 128.314  1.00  0.00     0.011 C 
ENDBRANCH   1   4
BRANCH   1  11
ATOM     11  O   UNL     1     111.562 115.069 130.884  1.00  0.00    -0.390 OA
ATOM     12  H   UNL     1     112.398 115.264 131.380  1.00  0.00     0.211 HD
ENDBRANCH   1  11
TORSDOF 2
ENDMDL
MODEL 3
REMARK VINA RESULT:    -4.689     15.172     16.761
REMARK INTER + INTRA:          -5.308
REMARK INTER:                  -5.121
REMARK INTRA:                  -0.186
REMARK UNBOUND:                -0.208
REMARK SMILES CC1=CC[C@@H](C(C)(C)O)CC1
REMARK SMILES IDX 6 1 7 2 8 3 5 4 1 5 2 6 3 7 11 8 4 9 10 10 9 11
REMARK H PARENT 9 12
REMARK Flexibility Score: inf
ROOT
ATOM      1  C   UNL     1     110.568 117.014 128.441  1.00  0.00     0.062 C 
ATOM      2  C   UNL     1     109.475 116.020 128.885  1.00  0.00     0.042 C 
ATOM      3  C   UNL     1     111.931 116.429 128.881  1.00  0.00     0.042 C 
ENDROOT
BRANCH   1   4
ATOM      4  C   UNL     1     110.493 117.217 126.882  1.00  0.00     0.024 C 
ATOM      5  C   UNL     1     109.663 117.123 122.664  1.00  0.00     0.039 C 
ATOM      6  C   UNL     1     109.560 116.993 124.158  1.00  0.00    -0.077 C 
ATOM      7  C   UNL     1     109.215 118.052 124.906  1.00  0.00    -0.028 C 
ATOM      8  C   UNL     1     109.853 115.684 124.852  1.00  0.00     0.031 C 
ATOM      9  C   UNL     1     109.198 117.927 126.404  1.00  0.00     0.034 C 
ATOM     10  C   UNL     1     110.745 115.884 126.095  1.00  0.00     0.011 C 
ENDBRANCH   1   4
BRANCH   1  11
ATOM     11  O   UNL     1     110.337 118.230 129.114  1.00  0.00    -0.390 OA
ATOM     12  H   UNL     1     111.160 118.780 129.060  1.00  0.00     0.211 HD
ENDBRANCH   1  11
TORSDOF 2
ENDMDL
MODEL 4
REMARK VINA RESULT:    -4.665      2.447      4.557
REMARK INTER + INTRA:          -5.282
REMARK INTER:                  -5.074
REMARK INTRA:                  -0.208
REMARK UNBOUND:                -0.208
REMARK SMILES CC1=CC[C@@H](C(C)(C)O)CC1
REMARK SMILES IDX 6 1 7 2 8 3 5 4 1 5 2 6 3 7 11 8 4 9 10 10 9 11
REMARK H PARENT 9 12
REMARK Flexibility Score: inf
ROOT
ATOM      1  C   UNL     1     119.851 116.693 116.966  1.00  0.00     0.062 C 
ATOM      2  C   UNL     1     119.749 115.703 115.787  1.00  0.00     0.042 C 
ATOM      3  C   UNL     1     120.475 115.929 118.158  1.00  0.00     0.042 C 
ENDROOT
BRANCH   1   4
ATOM      4  C   UNL     1     120.726 117.930 116.540  1.00  0.00     0.024 C 
ATOM      5  C   UNL     1     123.720 120.682 115.142  1.00  0.00     0.039 C 
ATOM      6  C   UNL     1     122.880 119.456 115.369  1.00  0.00    -0.077 C 
ATOM      7  C   UNL     1     121.725 119.296 114.705  1.00  0.00    -0.028 C 
ATOM      8  C   UNL     1     123.302 118.388 116.349  1.00  0.00     0.031 C 
ATOM      9  C   UNL     1     120.857 118.106 115.004  1.00  0.00     0.034 C 
ATOM     10  C   UNL     1     122.128 117.938 117.244  1.00  0.00     0.011 C 
ENDBRANCH   1   4
BRANCH   1  11
ATOM     11  O   UNL     1     118.543 117.098 117.296  1.00  0.00    -0.390 OA
ATOM     12  H   UNL     1     118.557 118.068 117.500  1.00  0.00     0.211 HD
ENDBRANCH   1  11
TORSDOF 2
ENDMDL
MODEL 5
REMARK VINA RESULT:    -4.648     12.666     13.627
REMARK INTER + INTRA:          -5.263
REMARK INTER:                  -5.055
REMARK INTRA:                  -0.208
REMARK UNBOUND:                -0.208
REMARK SMILES CC1=CC[C@@H](C(C)(C)O)CC1
REMARK SMILES IDX 6 1 7 2 8 3 5 4 1 5 2 6 3 7 11 8 4 9 10 10 9 11
REMARK H PARENT 9 12
REMARK Flexibility Score: inf
ROOT
ATOM      1  C   UNL     1     116.041 125.865 126.525  1.00  0.00     0.062 C 
ATOM      2  C   UNL     1     116.631 126.864 125.507  1.00  0.00     0.042 C 
ATOM      3  C   UNL     1     114.903 126.593 127.278  1.00  0.00     0.042 C 
ENDROOT
BRANCH   1   4
ATOM      4  C   UNL     1     115.520 124.588 125.767  1.00  0.00     0.024 C 
ATOM      5  C   UNL     1     113.581 121.690 123.250  1.00  0.00     0.039 C 
ATOM      6  C   UNL     1     114.151 122.964 123.811  1.00  0.00    -0.077 C 
ATOM      7  C   UNL     1     115.455 123.242 123.665  1.00  0.00    -0.028 C 
ATOM      8  C   UNL     1     113.282 123.948 124.557  1.00  0.00     0.031 C 
ATOM      9  C   UNL     1     116.024 124.479 124.303  1.00  0.00     0.034 C 
ATOM     10  C   UNL     1     113.961 124.440 125.852  1.00  0.00     0.011 C 
ENDBRANCH   1   4
BRANCH   1  11
ATOM     11  O   UNL     1     117.065 125.525 127.430  1.00  0.00    -0.390 OA
ATOM     12  H   UNL     1     117.766 125.025 126.936  1.00  0.00     0.211 HD
ENDBRANCH   1  11
TORSDOF 2
ENDMDL
MODEL 6
REMARK VINA RESULT:    -4.578     14.576     16.448
REMARK INTER + INTRA:          -5.187
REMARK INTER:                  -4.984
REMARK INTRA:                  -0.203
REMARK UNBOUND:                -0.208
REMARK SMILES CC1=CC[C@@H](C(C)(C)O)CC1
REMARK SMILES IDX 6 1 7 2 8 3 5 4 1 5 2 6 3 7 11 8 4 9 10 10 9 11
REMARK H PARENT 9 12
REMARK Flexibility Score: inf
ROOT
ATOM      1  C   UNL     1     109.546 119.790 124.159  1.00  0.00     0.062 C 
ATOM      2  C   UNL     1     111.063 120.040 124.024  1.00  0.00     0.042 C 
ATOM      3  C   UNL     1     109.063 119.153 122.835  1.00  0.00     0.042 C 
ENDROOT
BRANCH   1   4
ATOM      4  C   UNL     1     109.275 118.853 125.394  1.00  0.00     0.024 C 
ATOM      5  C   UNL     1     109.350 115.959 128.574  1.00  0.00     0.039 C 
ATOM      6  C   UNL     1     109.746 116.929 127.496  1.00  0.00    -0.077 C 
ATOM      7  C   UNL     1     109.803 118.243 127.757  1.00  0.00    -0.028 C 
ATOM      8  C   UNL     1     110.073 116.456 126.099  1.00  0.00     0.031 C 
ATOM      9  C   UNL     1     110.120 119.207 126.647  1.00  0.00     0.034 C 
ATOM     10  C   UNL     1     109.396 117.333 125.026  1.00  0.00     0.011 C 
ENDBRANCH   1   4
BRANCH   1  11
ATOM     11  O   UNL     1     108.923 121.041 124.337  1.00  0.00    -0.390 OA
ATOM     12  H   UNL     1     108.221 121.143 123.643  1.00  0.00     0.211 HD
ENDBRANCH   1  11
TORSDOF 2
ENDMDL
MODEL 7
REMARK VINA RESULT:    -4.485     14.822     16.920
REMARK INTER + INTRA:          -5.086
REMARK INTER:                  -4.878
REMARK INTRA:                  -0.207
REMARK UNBOUND:                -0.208
REMARK SMILES CC1=CC[C@@H](C(C)(C)O)CC1
REMARK SMILES IDX 6 1 7 2 8 3 5 4 1 5 2 6 3 7 11 8 4 9 10 10 9 11
REMARK H PARENT 9 12
REMARK Flexibility Score: inf
ROOT
ATOM      1  C   UNL     1     110.102 116.928 125.223  1.00  0.00     0.062 C 
ATOM      2  C   UNL     1     109.226 118.189 125.384  1.00  0.00     0.042 C 
ATOM      3  C   UNL     1     111.394 117.354 124.487  1.00  0.00     0.042 C 
ENDROOT
BRANCH   1   4
ATOM      4  C   UNL     1     110.409 116.317 126.641  1.00  0.00     0.024 C 
ATOM      5  C   UNL     1     111.453 115.497 130.731  1.00  0.00     0.039 C 
ATOM      6  C   UNL     1     111.020 116.173 129.459  1.00  0.00    -0.077 C 
ATOM      7  C   UNL     1     109.752 116.067 129.037  1.00  0.00    -0.028 C 
ATOM      8  C   UNL     1     111.995 116.970 128.625  1.00  0.00     0.031 C 
ATOM      9  C   UNL     1     109.356 116.679 127.722  1.00  0.00     0.034 C 
ATOM     10  C   UNL     1     111.866 116.637 127.124  1.00  0.00     0.011 C 
ENDBRANCH   1   4
BRANCH   1  11
ATOM     11  O   UNL     1     109.386 116.011 124.429  1.00  0.00    -0.390 OA
ATOM     12  H   UNL     1     108.419 116.110 124.630  1.00  0.00     0.211 HD
ENDBRANCH   1  11
TORSDOF 2
ENDMDL
MODEL 8
REMARK VINA RESULT:    -4.476     15.592     16.673
REMARK INTER + INTRA:          -5.076
REMARK INTER:                  -4.897
REMARK INTRA:                  -0.178
REMARK UNBOUND:                -0.208
REMARK SMILES CC1=CC[C@@H](C(C)(C)O)CC1
REMARK SMILES IDX 6 1 7 2 8 3 5 4 1 5 2 6 3 7 11 8 4 9 10 10 9 11
REMARK H PARENT 9 12
REMARK Flexibility Score: inf
ROOT
ATOM      1  C   UNL     1     110.596 117.119 128.404  1.00  0.00     0.062 C 
ATOM      2  C   UNL     1     110.094 115.965 129.297  1.00  0.00     0.042 C 
ATOM      3  C   UNL     1     112.136 117.004 128.324  1.00  0.00     0.042 C 
ENDROOT
BRANCH   1   4
ATOM      4  C   UNL     1     109.925 117.015 126.984  1.00  0.00     0.024 C 
ATOM      5  C   UNL     1     108.894 117.025 122.809  1.00  0.00     0.039 C 
ATOM      6  C   UNL     1     109.648 116.987 124.110  1.00  0.00    -0.077 C 
ATOM      7  C   UNL     1     109.766 115.836 124.789  1.00  0.00    -0.028 C 
ATOM      8  C   UNL     1     110.275 118.234 124.688  1.00  0.00     0.031 C 
ATOM      9  C   UNL     1     110.451 115.833 126.127  1.00  0.00     0.034 C 
ATOM     10  C   UNL     1     109.986 118.371 126.197  1.00  0.00     0.011 C 
ENDBRANCH   1   4
BRANCH   1  11
ATOM     11  O   UNL     1     110.244 118.329 129.034  1.00  0.00    -0.390 OA
ATOM     12  H   UNL     1     110.753 118.400 129.883  1.00  0.00     0.211 HD
ENDBRANCH   1  11
TORSDOF 2
ENDMDL
MODEL 9
REMARK VINA RESULT:    -4.372     15.533     16.917
REMARK INTER + INTRA:          -4.963
REMARK INTER:                  -4.777
REMARK INTRA:                  -0.186
REMARK UNBOUND:                -0.208
REMARK SMILES CC1=CC[C@@H](C(C)(C)O)CC1
REMARK SMILES IDX 6 1 7 2 8 3 5 4 1 5 2 6 3 7 11 8 4 9 10 10 9 11
REMARK H PARENT 9 12
REMARK Flexibility Score: inf
ROOT
ATOM      1  C   UNL     1     110.202 117.500 125.202  1.00  0.00     0.062 C 
ATOM      2  C   UNL     1     109.625 116.171 124.671  1.00  0.00     0.042 C 
ATOM      3  C   UNL     1     109.148 118.600 124.935  1.00  0.00     0.042 C 
ENDROOT
BRANCH   1   4
ATOM      4  C   UNL     1     110.525 117.357 126.736  1.00  0.00     0.024 C 
ATOM      5  C   UNL     1     111.032 116.153 130.833  1.00  0.00     0.039 C 
ATOM      6  C   UNL     1     110.848 116.153 129.341  1.00  0.00    -0.077 C 
ATOM      7  C   UNL     1     111.905 116.301 128.529  1.00  0.00    -0.028 C 
ATOM      8  C   UNL     1     109.478 116.000 128.722  1.00  0.00     0.031 C 
ATOM      9  C   UNL     1     111.692 116.382 127.043  1.00  0.00     0.034 C 
ATOM     10  C   UNL     1     109.250 117.017 127.584  1.00  0.00     0.011 C 
ENDBRANCH   1   4
BRANCH   1  11
ATOM     11  O   UNL     1     111.372 117.779 124.470  1.00  0.00    -0.390 OA
ATOM     12  H   UNL     1     111.158 118.464 123.786  1.00  0.00     0.211 HD
ENDBRANCH   1  11
TORSDOF 2
ENDMDL
