MODEL 1
REMARK VINA RESULT:    -4.000      0.000      0.000
REMARK INTER + INTRA:          -9.104
REMARK INTER:                  -7.742
REMARK INTRA:                  -1.362
REMARK UNBOUND:                -1.362
REMARK SMILES CCCCCCCCCCCCCCCCCC(=O)[O-]
REMARK SMILES IDX 10 1 11 2 12 3 13 4 14 5 15 6 16 7 17 8 18 9 19 10 20 11
REMARK SMILES IDX 9 12 8 13 7 14 6 15 5 16 4 17 3 18 2 19 1 20
REMARK H PARENT
REMARK Flexibility Score: inf
ROOT
ATOM      1  C   UNL     1      13.882  -8.636   6.909  1.00  0.00     0.000 C 
ENDROOT
BRANCH   1   2
ATOM      2  C   UNL     1      15.372  -8.570   6.518  1.00  0.00     0.000 C 
BRANCH   2   3
ATOM      3  C   UNL     1      15.946  -7.148   6.366  1.00  0.00     0.000 C 
BRANCH   3   4
ATOM      4  C   UNL     1      16.433  -6.792   4.948  1.00  0.00     0.000 C 
BRANCH   4   5
ATOM      5  C   UNL     1      17.516  -7.731   4.378  1.00  0.00     0.000 C 
BRANCH   5   6
ATOM      6  C   UNL     1      18.945  -7.153   4.372  1.00  0.00     0.000 C 
BRANCH   6   7
ATOM      7  C   UNL     1      19.608  -7.044   5.757  1.00  0.00     0.006 C 
BRANCH   7   8
ATOM      8  C   UNL     1      19.462  -8.325   6.589  1.00  0.00     0.053 C 
BRANCH   8   9
ATOM      9  C   UNL     1      19.344  -7.991   8.043  1.00  0.00     0.041 C 
ATOM     10  O   UNL     1      18.932  -6.856   8.401  1.00  0.00    -0.550 OA
ATOM     11  O   UNL     1      19.733  -8.916   9.003  1.00  0.00    -0.550 OA
ENDBRANCH   8   9
ENDBRANCH   7   8
ENDBRANCH   6   7
ENDBRANCH   5   6
ENDBRANCH   4   5
ENDBRANCH   3   4
ENDBRANCH   2   3
ENDBRANCH   1   2
BRANCH   1  12
ATOM     12  C   UNL     1      12.891  -8.441   5.748  1.00  0.00     0.000 C 
BRANCH  12  13
ATOM     13  C   UNL     1      11.528  -7.899   6.211  1.00  0.00    -0.000 C 
BRANCH  13  14
ATOM     14  C   UNL     1      10.405  -8.189   5.202  1.00  0.00    -0.000 C 
BRANCH  14  15
ATOM     15  C   UNL     1       9.609  -9.459   5.554  1.00  0.00    -0.000 C 
BRANCH  15  16
ATOM     16  C   UNL     1       9.209  -9.512   7.038  1.00  0.00    -0.000 C 
BRANCH  16  17
ATOM     17  C   UNL     1       7.877  -8.793   7.319  1.00  0.00    -0.000 C 
BRANCH  17  18
ATOM     18  C   UNL     1       6.817  -9.074   6.243  1.00  0.00    -0.000 C 
BRANCH  18  19
ATOM     19  C   UNL     1       6.175  -7.790   5.698  1.00  0.00    -0.003 C 
ATOM     20  C   UNL     1       6.418  -6.613   6.637  1.00  0.00     0.004 C 
ENDBRANCH  18  19
ENDBRANCH  17  18
ENDBRANCH  16  17
ENDBRANCH  15  16
ENDBRANCH  14  15
ENDBRANCH  13  14
ENDBRANCH  12  13
ENDBRANCH   1  12
TORSDOF 16
ENDMDL
MODEL 2
REMARK VINA RESULT:    -3.673      3.960      9.418
REMARK INTER + INTRA:          -8.471
REMARK INTER:                  -6.717
REMARK INTRA:                  -1.754
REMARK UNBOUND:                -1.362
REMARK SMILES CCCCCCCCCCCCCCCCCC(=O)[O-]
REMARK SMILES IDX 10 1 11 2 12 3 13 4 14 5 15 6 16 7 17 8 18 9 19 10 20 11
REMARK SMILES IDX 9 12 8 13 7 14 6 15 5 16 4 17 3 18 2 19 1 20
REMARK H PARENT
REMARK Flexibility Score: inf
ROOT
ATOM      1  C   UNL     1      16.012  -7.270   6.308  1.00  0.00     0.000 C 
ENDROOT
BRANCH   1   2
ATOM      2  C   UNL     1      15.341  -8.647   6.488  1.00  0.00     0.000 C 
BRANCH   2   3
ATOM      3  C   UNL     1      13.869  -8.603   6.943  1.00  0.00     0.000 C 
BRANCH   3   4
ATOM      4  C   UNL     1      12.836  -8.654   5.800  1.00  0.00     0.000 C 
BRANCH   4   5
ATOM      5  C   UNL     1      11.569  -7.805   6.031  1.00  0.00     0.000 C 
BRANCH   5   6
ATOM      6  C   UNL     1      10.705  -7.567   4.776  1.00  0.00     0.000 C 
BRANCH   6   7
ATOM      7  C   UNL     1       9.193  -7.455   5.039  1.00  0.00     0.006 C 
BRANCH   7   8
ATOM      8  C   UNL     1       8.561  -8.790   5.454  1.00  0.00     0.053 C 
BRANCH   8   9
ATOM      9  C   UNL     1       7.461  -8.561   6.443  1.00  0.00     0.041 C 
ATOM     10  O   UNL     1       6.278  -8.391   6.047  1.00  0.00    -0.550 OA
ATOM     11  O   UNL     1       7.750  -8.488   7.800  1.00  0.00    -0.550 OA
ENDBRANCH   8   9
ENDBRANCH   7   8
ENDBRANCH   6   7
ENDBRANCH   5   6
ENDBRANCH   4   5
ENDBRANCH   3   4
ENDBRANCH   2   3
ENDBRANCH   1   2
BRANCH   1  12
ATOM     12  C   UNL     1      16.019  -6.730   4.866  1.00  0.00     0.000 C 
BRANCH  12  13
ATOM     13  C   UNL     1      17.085  -7.401   3.983  1.00  0.00    -0.000 C 
BRANCH  13  14
ATOM     14  C   UNL     1      18.517  -7.033   4.406  1.00  0.00    -0.000 C 
BRANCH  14  15
ATOM     15  C   UNL     1      19.434  -8.264   4.515  1.00  0.00    -0.000 C 
BRANCH  15  16
ATOM     16  C   UNL     1      18.670  -9.536   4.916  1.00  0.00    -0.000 C 
BRANCH  16  17
ATOM     17  C   UNL     1      18.813  -9.866   6.413  1.00  0.00    -0.000 C 
BRANCH  17  18
ATOM     18  C   UNL     1      19.896  -9.021   7.102  1.00  0.00    -0.000 C 
BRANCH  18  19
ATOM     19  C   UNL     1      19.433  -8.457   8.454  1.00  0.00    -0.003 C 
ATOM     20  C   UNL     1      19.056  -6.983   8.334  1.00  0.00     0.004 C 
ENDBRANCH  18  19
ENDBRANCH  17  18
ENDBRANCH  16  17
ENDBRANCH  15  16
ENDBRANCH  14  15
ENDBRANCH  13  14
ENDBRANCH  12  13
ENDBRANCH   1  12
TORSDOF 16
ENDMDL
MODEL 3
REMARK VINA RESULT:    -3.546      1.985      2.917
REMARK INTER + INTRA:          -8.225
REMARK INTER:                  -6.994
REMARK INTRA:                  -1.232
REMARK UNBOUND:                -1.362
REMARK SMILES CCCCCCCCCCCCCCCCCC(=O)[O-]
REMARK SMILES IDX 10 1 11 2 12 3 13 4 14 5 15 6 16 7 17 8 18 9 19 10 20 11
REMARK SMILES IDX 9 12 8 13 7 14 6 15 5 16 4 17 3 18 2 19 1 20
REMARK H PARENT
REMARK Flexibility Score: inf
ROOT
ATOM      1  C   UNL     1      15.478  -7.682   6.529  1.00  0.00     0.000 C 
ENDROOT
BRANCH   1   2
ATOM      2  C   UNL     1      16.774  -7.843   5.709  1.00  0.00     0.000 C 
BRANCH   2   3
ATOM      3  C   UNL     1      16.970  -9.227   5.061  1.00  0.00     0.000 C 
BRANCH   3   4
ATOM      4  C   UNL     1      18.198 -10.012   5.564  1.00  0.00     0.000 C 
BRANCH   4   5
ATOM      5  C   UNL     1      18.990  -9.325   6.694  1.00  0.00     0.000 C 
BRANCH   5   6
ATOM      6  C   UNL     1      20.443  -8.949   6.339  1.00  0.00     0.000 C 
BRANCH   6   7
ATOM      7  C   UNL     1      20.606  -8.139   5.040  1.00  0.00     0.006 C 
BRANCH   7   8
ATOM      8  C   UNL     1      20.222  -6.663   5.207  1.00  0.00     0.053 C 
BRANCH   8   9
ATOM      9  C   UNL     1      21.354  -5.779   4.786  1.00  0.00     0.041 C 
ATOM     10  O   UNL     1      22.528  -6.232   4.742  1.00  0.00    -0.550 OA
ATOM     11  O   UNL     1      21.120  -4.443   4.490  1.00  0.00    -0.550 OA
ENDBRANCH   8   9
ENDBRANCH   7   8
ENDBRANCH   6   7
ENDBRANCH   5   6
ENDBRANCH   4   5
ENDBRANCH   3   4
ENDBRANCH   2   3
ENDBRANCH   1   2
BRANCH   1  12
ATOM     12  C   UNL     1      14.584  -8.934   6.592  1.00  0.00     0.000 C 
BRANCH  12  13
ATOM     13  C   UNL     1      13.105  -8.599   6.850  1.00  0.00    -0.000 C 
BRANCH  13  14
ATOM     14  C   UNL     1      12.314  -8.384   5.550  1.00  0.00    -0.000 C 
BRANCH  14  15
ATOM     15  C   UNL     1      11.006  -7.605   5.777  1.00  0.00    -0.000 C 
BRANCH  15  16
ATOM     16  C   UNL     1       9.757  -8.471   5.544  1.00  0.00    -0.000 C 
BRANCH  16  17
ATOM     17  C   UNL     1       9.318  -9.231   6.809  1.00  0.00    -0.000 C 
BRANCH  17  18
ATOM     18  C   UNL     1       7.961  -8.747   7.346  1.00  0.00    -0.000 C 
BRANCH  18  19
ATOM     19  C   UNL     1       7.017  -8.280   6.228  1.00  0.00    -0.003 C 
ATOM     20  C   UNL     1       6.508  -6.867   6.495  1.00  0.00     0.004 C 
ENDBRANCH  18  19
ENDBRANCH  17  18
ENDBRANCH  16  17
ENDBRANCH  15  16
ENDBRANCH  14  15
ENDBRANCH  13  14
ENDBRANCH  12  13
ENDBRANCH   1  12
TORSDOF 16
ENDMDL
MODEL 4
REMARK VINA RESULT:    -3.318      4.435     10.056
REMARK INTER + INTRA:          -7.784
REMARK INTER:                  -6.540
REMARK INTRA:                  -1.244
REMARK UNBOUND:                -1.362
REMARK SMILES CCCCCCCCCCCCCCCCCC(=O)[O-]
REMARK SMILES IDX 10 1 11 2 12 3 13 4 14 5 15 6 16 7 17 8 18 9 19 10 20 11
REMARK SMILES IDX 9 12 8 13 7 14 6 15 5 16 4 17 3 18 2 19 1 20
REMARK H PARENT
REMARK Flexibility Score: inf
ROOT
ATOM      1  C   UNL     1      13.260  -8.511   6.186  1.00  0.00     0.000 C 
ENDROOT
BRANCH   1   2
ATOM      2  C   UNL     1      12.089  -7.877   5.408  1.00  0.00     0.000 C 
BRANCH   2   3
ATOM      3  C   UNL     1      11.321  -8.841   4.483  1.00  0.00     0.000 C 
BRANCH   3   4
ATOM      4  C   UNL     1      10.017  -9.409   5.077  1.00  0.00     0.000 C 
BRANCH   4   5
ATOM      5  C   UNL     1       9.731  -8.992   6.534  1.00  0.00     0.000 C 
BRANCH   5   6
ATOM      6  C   UNL     1       8.752  -9.908   7.295  1.00  0.00     0.000 C 
BRANCH   6   7
ATOM      7  C   UNL     1       7.375  -9.286   7.591  1.00  0.00     0.006 C 
BRANCH   7   8
ATOM      8  C   UNL     1       7.219  -7.879   7.000  1.00  0.00     0.053 C 
BRANCH   8   9
ATOM      9  C   UNL     1       6.283  -7.904   5.833  1.00  0.00     0.041 C 
ATOM     10  O   UNL     1       6.236  -8.913   5.081  1.00  0.00    -0.550 OA
ATOM     11  O   UNL     1       5.498  -6.795   5.546  1.00  0.00    -0.550 OA
ENDBRANCH   8   9
ENDBRANCH   7   8
ENDBRANCH   6   7
ENDBRANCH   5   6
ENDBRANCH   4   5
ENDBRANCH   3   4
ENDBRANCH   2   3
ENDBRANCH   1   2
BRANCH   1  12
ATOM     12  C   UNL     1      14.061  -9.573   5.411  1.00  0.00     0.000 C 
BRANCH  12  13
ATOM     13  C   UNL     1      15.405  -9.912   6.080  1.00  0.00    -0.000 C 
BRANCH  13  14
ATOM     14  C   UNL     1      16.606  -9.339   5.311  1.00  0.00    -0.000 C 
BRANCH  14  15
ATOM     15  C   UNL     1      16.881  -7.865   5.661  1.00  0.00    -0.000 C 
BRANCH  15  16
ATOM     16  C   UNL     1      18.152  -7.326   4.985  1.00  0.00    -0.000 C 
BRANCH  16  17
ATOM     17  C   UNL     1      19.366  -7.310   5.932  1.00  0.00    -0.000 C 
BRANCH  17  18
ATOM     18  C   UNL     1      18.964  -7.464   7.408  1.00  0.00    -0.000 C 
BRANCH  18  19
ATOM     19  C   UNL     1      19.703  -8.617   8.103  1.00  0.00    -0.003 C 
ATOM     20  C   UNL     1      19.550  -9.918   7.321  1.00  0.00     0.004 C 
ENDBRANCH  18  19
ENDBRANCH  17  18
ENDBRANCH  16  17
ENDBRANCH  15  16
ENDBRANCH  14  15
ENDBRANCH  13  14
ENDBRANCH  12  13
ENDBRANCH   1  12
TORSDOF 16
ENDMDL
MODEL 5
REMARK VINA RESULT:    -3.299      1.334      2.876
REMARK INTER + INTRA:          -7.747
REMARK INTER:                  -6.509
REMARK INTRA:                  -1.239
REMARK UNBOUND:                -1.362
REMARK SMILES CCCCCCCCCCCCCCCCCC(=O)[O-]
REMARK SMILES IDX 10 1 11 2 12 3 13 4 14 5 15 6 16 7 17 8 18 9 19 10 20 11
REMARK SMILES IDX 9 12 8 13 7 14 6 15 5 16 4 17 3 18 2 19 1 20
REMARK H PARENT
REMARK Flexibility Score: inf
ROOT
ATOM      1  C   UNL     1      10.720  -7.316   4.965  1.00  0.00     0.000 C 
ENDROOT
BRANCH   1   2
ATOM      2  C   UNL     1      11.896  -7.133   3.984  1.00  0.00     0.000 C 
BRANCH   2   3
ATOM      3  C   UNL     1      13.025  -8.173   4.115  1.00  0.00     0.000 C 
BRANCH   3   4
ATOM      4  C   UNL     1      14.279  -7.678   4.863  1.00  0.00     0.000 C 
BRANCH   4   5
ATOM      5  C   UNL     1      14.489  -8.297   6.260  1.00  0.00     0.000 C 
BRANCH   5   6
ATOM      6  C   UNL     1      15.878  -8.051   6.881  1.00  0.00     0.000 C 
BRANCH   6   7
ATOM      7  C   UNL     1      16.836  -7.208   6.020  1.00  0.00     0.006 C 
BRANCH   7   8
ATOM      8  C   UNL     1      18.213  -7.863   5.847  1.00  0.00     0.053 C 
BRANCH   8   9
ATOM      9  C   UNL     1      18.918  -7.949   7.164  1.00  0.00     0.041 C 
ATOM     10  O   UNL     1      19.476  -9.022   7.514  1.00  0.00    -0.550 OA
ATOM     11  O   UNL     1      18.918  -6.859   8.025  1.00  0.00    -0.550 OA
ENDBRANCH   8   9
ENDBRANCH   7   8
ENDBRANCH   6   7
ENDBRANCH   5   6
ENDBRANCH   4   5
ENDBRANCH   3   4
ENDBRANCH   2   3
ENDBRANCH   1   2
BRANCH   1  12
ATOM     12  C   UNL     1      10.796  -8.574   5.849  1.00  0.00     0.000 C 
BRANCH  12  13
ATOM     13  C   UNL     1       9.495  -9.393   5.835  1.00  0.00    -0.000 C 
BRANCH  13  14
ATOM     14  C   UNL     1       8.871  -9.533   7.233  1.00  0.00    -0.000 C 
BRANCH  14  15
ATOM     15  C   UNL     1       7.379  -9.157   7.254  1.00  0.00    -0.000 C 
BRANCH  15  16
ATOM     16  C   UNL     1       7.153  -7.636   7.242  1.00  0.00    -0.000 C 
BRANCH  16  17
ATOM     17  C   UNL     1       6.551  -7.136   5.917  1.00  0.00    -0.000 C 
BRANCH  17  18
ATOM     18  C   UNL     1       5.708  -8.210   5.211  1.00  0.00    -0.000 C 
BRANCH  18  19
ATOM     19  C   UNL     1       4.533  -7.613   4.422  1.00  0.00    -0.003 C 
ATOM     20  C   UNL     1       4.476  -6.097   4.585  1.00  0.00     0.004 C 
ENDBRANCH  18  19
ENDBRANCH  17  18
ENDBRANCH  16  17
ENDBRANCH  15  16
ENDBRANCH  14  15
ENDBRANCH  13  14
ENDBRANCH  12  13
ENDBRANCH   1  12
TORSDOF 16
ENDMDL
MODEL 6
REMARK VINA RESULT:    -3.211      2.121      4.407
REMARK INTER + INTRA:          -7.577
REMARK INTER:                  -5.891
REMARK INTRA:                  -1.686
REMARK UNBOUND:                -1.362
REMARK SMILES CCCCCCCCCCCCCCCCCC(=O)[O-]
REMARK SMILES IDX 10 1 11 2 12 3 13 4 14 5 15 6 16 7 17 8 18 9 19 10 20 11
REMARK SMILES IDX 9 12 8 13 7 14 6 15 5 16 4 17 3 18 2 19 1 20
REMARK H PARENT
REMARK Flexibility Score: inf
ROOT
ATOM      1  C   UNL     1      18.497  -6.910   8.154  1.00  0.00     0.000 C 
ENDROOT
BRANCH   1   2
ATOM      2  C   UNL     1      19.418  -8.146   8.110  1.00  0.00     0.000 C 
BRANCH   2   3
ATOM      3  C   UNL     1      19.106  -9.154   6.987  1.00  0.00     0.000 C 
BRANCH   3   4
ATOM      4  C   UNL     1      20.232  -9.339   5.950  1.00  0.00     0.000 C 
BRANCH   4   5
ATOM      5  C   UNL     1      19.789  -9.204   4.479  1.00  0.00     0.000 C 
BRANCH   5   6
ATOM      6  C   UNL     1      18.582  -8.276   4.243  1.00  0.00     0.000 C 
BRANCH   6   7
ATOM      7  C   UNL     1      18.934  -6.794   4.019  1.00  0.00     0.006 C 
BRANCH   7   8
ATOM      8  C   UNL     1      20.443  -6.556   3.879  1.00  0.00     0.053 C 
BRANCH   8   9
ATOM      9  C   UNL     1      20.866  -5.386   4.710  1.00  0.00     0.041 C 
ATOM     10  O   UNL     1      21.199  -4.305   4.159  1.00  0.00    -0.550 OA
ATOM     11  O   UNL     1      20.937  -5.505   6.092  1.00  0.00    -0.550 OA
ENDBRANCH   8   9
ENDBRANCH   7   8
ENDBRANCH   6   7
ENDBRANCH   5   6
ENDBRANCH   4   5
ENDBRANCH   3   4
ENDBRANCH   2   3
ENDBRANCH   1   2
BRANCH   1  12
ATOM     12  C   UNL     1      16.991  -7.213   8.068  1.00  0.00     0.000 C 
BRANCH  12  13
ATOM     13  C   UNL     1      16.391  -6.871   6.693  1.00  0.00    -0.000 C 
BRANCH  13  14
ATOM     14  C   UNL     1      15.463  -7.976   6.163  1.00  0.00    -0.000 C 
BRANCH  14  15
ATOM     15  C   UNL     1      14.745  -7.570   4.864  1.00  0.00    -0.000 C 
BRANCH  15  16
ATOM     16  C   UNL     1      13.611  -8.539   4.489  1.00  0.00    -0.000 C 
BRANCH  16  17
ATOM     17  C   UNL     1      12.514  -8.613   5.567  1.00  0.00    -0.000 C 
BRANCH  17  18
ATOM     18  C   UNL     1      11.429  -7.541   5.378  1.00  0.00    -0.000 C 
BRANCH  18  19
ATOM     19  C   UNL     1      10.031  -8.147   5.182  1.00  0.00    -0.003 C 
ATOM     20  C   UNL     1       9.593  -8.930   6.416  1.00  0.00     0.004 C 
ENDBRANCH  18  19
ENDBRANCH  17  18
ENDBRANCH  16  17
ENDBRANCH  15  16
ENDBRANCH  14  15
ENDBRANCH  13  14
ENDBRANCH  12  13
ENDBRANCH   1  12
TORSDOF 16
ENDMDL
MODEL 7
REMARK VINA RESULT:    -3.153      1.408      2.370
REMARK INTER + INTRA:          -7.465
REMARK INTER:                  -6.281
REMARK INTRA:                  -1.184
REMARK UNBOUND:                -1.362
REMARK SMILES CCCCCCCCCCCCCCCCCC(=O)[O-]
REMARK SMILES IDX 10 1 11 2 12 3 13 4 14 5 15 6 16 7 17 8 18 9 19 10 20 11
REMARK SMILES IDX 9 12 8 13 7 14 6 15 5 16 4 17 3 18 2 19 1 20
REMARK H PARENT
REMARK Flexibility Score: inf
ROOT
ATOM      1  C   UNL     1      12.302  -7.508   4.629  1.00  0.00     0.000 C 
ENDROOT
BRANCH   1   2
ATOM      2  C   UNL     1      13.688  -8.059   4.236  1.00  0.00     0.000 C 
BRANCH   2   3
ATOM      3  C   UNL     1      14.198  -9.225   5.104  1.00  0.00     0.000 C 
BRANCH   3   4
ATOM      4  C   UNL     1      15.572  -9.790   4.690  1.00  0.00     0.000 C 
BRANCH   4   5
ATOM      5  C   UNL     1      16.667  -9.691   5.770  1.00  0.00     0.000 C 
BRANCH   5   6
ATOM      6  C   UNL     1      17.143  -8.260   6.090  1.00  0.00     0.000 C 
BRANCH   6   7
ATOM      7  C   UNL     1      18.398  -7.805   5.324  1.00  0.00     0.006 C 
BRANCH   7   8
ATOM      8  C   UNL     1      19.431  -7.122   6.229  1.00  0.00     0.053 C 
BRANCH   8   9
ATOM      9  C   UNL     1      19.308  -7.624   7.633  1.00  0.00     0.041 C 
ATOM     10  O   UNL     1      18.870  -6.868   8.540  1.00  0.00    -0.550 OA
ATOM     11  O   UNL     1      19.721  -8.912   7.950  1.00  0.00    -0.550 OA
ENDBRANCH   8   9
ENDBRANCH   7   8
ENDBRANCH   6   7
ENDBRANCH   5   6
ENDBRANCH   4   5
ENDBRANCH   3   4
ENDBRANCH   2   3
ENDBRANCH   1   2
BRANCH   1  12
ATOM     12  C   UNL     1      11.520  -8.366   5.640  1.00  0.00     0.000 C 
BRANCH  12  13
ATOM     13  C   UNL     1      10.123  -8.760   5.133  1.00  0.00    -0.000 C 
BRANCH  13  14
ATOM     14  C   UNL     1       9.579  -7.778   4.082  1.00  0.00    -0.000 C 
BRANCH  14  15
ATOM     15  C   UNL     1       8.132  -7.341   4.375  1.00  0.00    -0.000 C 
BRANCH  15  16
ATOM     16  C   UNL     1       7.152  -8.526   4.399  1.00  0.00    -0.000 C 
BRANCH  16  17
ATOM     17  C   UNL     1       6.343  -8.600   5.708  1.00  0.00    -0.000 C 
BRANCH  17  18
ATOM     18  C   UNL     1       6.970  -7.764   6.835  1.00  0.00    -0.000 C 
BRANCH  18  19
ATOM     19  C   UNL     1       7.711  -8.628   7.867  1.00  0.00    -0.003 C 
ATOM     20  C   UNL     1       7.312 -10.095   7.743  1.00  0.00     0.004 C 
ENDBRANCH  18  19
ENDBRANCH  17  18
ENDBRANCH  16  17
ENDBRANCH  15  16
ENDBRANCH  14  15
ENDBRANCH  13  14
ENDBRANCH  12  13
ENDBRANCH   1  12
TORSDOF 16
ENDMDL
MODEL 8
REMARK VINA RESULT:    -3.129      4.513     10.476
REMARK INTER + INTRA:          -7.417
REMARK INTER:                  -6.472
REMARK INTRA:                  -0.945
REMARK UNBOUND:                -1.362
REMARK SMILES CCCCCCCCCCCCCCCCCC(=O)[O-]
REMARK SMILES IDX 10 1 11 2 12 3 13 4 14 5 15 6 16 7 17 8 18 9 19 10 20 11
REMARK SMILES IDX 9 12 8 13 7 14 6 15 5 16 4 17 3 18 2 19 1 20
REMARK H PARENT
REMARK Flexibility Score: inf
ROOT
ATOM      1  C   UNL     1      11.544  -8.040   6.473  1.00  0.00     0.000 C 
ENDROOT
BRANCH   1   2
ATOM      2  C   UNL     1      10.331  -8.545   5.665  1.00  0.00     0.000 C 
BRANCH   2   3
ATOM      3  C   UNL     1       9.559  -9.714   6.305  1.00  0.00     0.000 C 
BRANCH   3   4
ATOM      4  C   UNL     1       8.483  -9.299   7.328  1.00  0.00     0.000 C 
BRANCH   4   5
ATOM      5  C   UNL     1       7.039  -9.679   6.942  1.00  0.00     0.000 C 
BRANCH   5   6
ATOM      6  C   UNL     1       6.836 -10.055   5.461  1.00  0.00     0.000 C 
BRANCH   6   7
ATOM      7  C   UNL     1       6.521  -8.872   4.527  1.00  0.00     0.006 C 
BRANCH   7   8
ATOM      8  C   UNL     1       5.138  -8.261   4.786  1.00  0.00     0.053 C 
BRANCH   8   9
ATOM      9  C   UNL     1       5.272  -6.839   5.232  1.00  0.00     0.041 C 
ATOM     10  O   UNL     1       4.573  -5.939   4.697  1.00  0.00    -0.550 OA
ATOM     11  O   UNL     1       6.203  -6.500   6.206  1.00  0.00    -0.550 OA
ENDBRANCH   8   9
ENDBRANCH   7   8
ENDBRANCH   6   7
ENDBRANCH   5   6
ENDBRANCH   4   5
ENDBRANCH   3   4
ENDBRANCH   2   3
ENDBRANCH   1   2
BRANCH   1  12
ATOM     12  C   UNL     1      12.917  -8.317   5.835  1.00  0.00     0.000 C 
BRANCH  12  13
ATOM     13  C   UNL     1      14.011  -8.608   6.876  1.00  0.00    -0.000 C 
BRANCH  13  14
ATOM     14  C   UNL     1      14.922  -9.775   6.463  1.00  0.00    -0.000 C 
BRANCH  14  15
ATOM     15  C   UNL     1      16.088  -9.323   5.565  1.00  0.00    -0.000 C 
BRANCH  15  16
ATOM     16  C   UNL     1      16.756  -8.034   6.070  1.00  0.00    -0.000 C 
BRANCH  16  17
ATOM     17  C   UNL     1      18.033  -7.681   5.286  1.00  0.00    -0.000 C 
BRANCH  17  18
ATOM     18  C   UNL     1      19.176  -7.214   6.200  1.00  0.00    -0.000 C 
BRANCH  18  19
ATOM     19  C   UNL     1      19.095  -7.828   7.606  1.00  0.00    -0.003 C 
ATOM     20  C   UNL     1      19.755  -9.202   7.644  1.00  0.00     0.004 C 
ENDBRANCH  18  19
ENDBRANCH  17  18
ENDBRANCH  16  17
ENDBRANCH  15  16
ENDBRANCH  14  15
ENDBRANCH  13  14
ENDBRANCH  12  13
ENDBRANCH   1  12
TORSDOF 16
ENDMDL
MODEL 9
REMARK VINA RESULT:    -3.049      4.161     10.193
REMARK INTER + INTRA:          -7.262
REMARK INTER:                  -6.059
REMARK INTRA:                  -1.204
REMARK UNBOUND:                -1.362
REMARK SMILES CCCCCCCCCCCCCCCCCC(=O)[O-]
REMARK SMILES IDX 10 1 11 2 12 3 13 4 14 5 15 6 16 7 17 8 18 9 19 10 20 11
REMARK SMILES IDX 9 12 8 13 7 14 6 15 5 16 4 17 3 18 2 19 1 20
REMARK H PARENT
REMARK Flexibility Score: inf
ROOT
ATOM      1  C   UNL     1      15.242  -7.166   3.961  1.00  0.00     0.000 C 
ENDROOT
BRANCH   1   2
ATOM      2  C   UNL     1      13.993  -8.005   4.299  1.00  0.00     0.000 C 
BRANCH   2   3
ATOM      3  C   UNL     1      13.747  -8.237   5.802  1.00  0.00     0.000 C 
BRANCH   3   4
ATOM      4  C   UNL     1      12.264  -8.253   6.223  1.00  0.00     0.000 C 
BRANCH   4   5
ATOM      5  C   UNL     1      11.301  -7.566   5.233  1.00  0.00     0.000 C 
BRANCH   5   6
ATOM      6  C   UNL     1       9.942  -8.271   5.051  1.00  0.00     0.000 C 
BRANCH   6   7
ATOM      7  C   UNL     1       8.743  -7.328   4.845  1.00  0.00     0.006 C 
BRANCH   7   8
ATOM      8  C   UNL     1       7.406  -7.973   5.231  1.00  0.00     0.053 C 
BRANCH   8   9
ATOM      9  C   UNL     1       7.000  -7.548   6.607  1.00  0.00     0.041 C 
ATOM     10  O   UNL     1       7.325  -8.242   7.607  1.00  0.00    -0.550 OA
ATOM     11  O   UNL     1       6.221  -6.411   6.783  1.00  0.00    -0.550 OA
ENDBRANCH   8   9
ENDBRANCH   7   8
ENDBRANCH   6   7
ENDBRANCH   5   6
ENDBRANCH   4   5
ENDBRANCH   3   4
ENDBRANCH   2   3
ENDBRANCH   1   2
BRANCH   1  12
ATOM     12  C   UNL     1      16.577  -7.929   4.014  1.00  0.00     0.000 C 
BRANCH  12  13
ATOM     13  C   UNL     1      17.703  -7.117   4.676  1.00  0.00    -0.000 C 
BRANCH  13  14
ATOM     14  C   UNL     1      18.096  -7.671   6.055  1.00  0.00    -0.000 C 
BRANCH  14  15
ATOM     15  C   UNL     1      18.320  -9.194   6.038  1.00  0.00    -0.000 C 
BRANCH  15  16
ATOM     16  C   UNL     1      19.800  -9.570   5.860  1.00  0.00    -0.000 C 
BRANCH  16  17
ATOM     17  C   UNL     1      20.721  -8.339   5.796  1.00  0.00    -0.000 C 
BRANCH  17  18
ATOM     18  C   UNL     1      21.470  -8.231   4.458  1.00  0.00    -0.000 C 
BRANCH  18  19
ATOM     19  C   UNL     1      21.582  -6.782   3.961  1.00  0.00    -0.003 C 
ATOM     20  C   UNL     1      21.188  -5.794   5.054  1.00  0.00     0.004 C 
ENDBRANCH  18  19
ENDBRANCH  17  18
ENDBRANCH  16  17
ENDBRANCH  15  16
ENDBRANCH  14  15
ENDBRANCH  13  14
ENDBRANCH  12  13
ENDBRANCH   1  12
TORSDOF 16
ENDMDL
