MODEL 1
REMARK VINA RESULT:    -4.017      0.000      0.000
REMARK INTER + INTRA:          -6.263
REMARK INTER:                  -5.895
REMARK INTRA:                  -0.368
REMARK UNBOUND:                -0.368
REMARK SMILES O=C([O-])CCCCCCCC(=O)[O-]
REMARK SMILES IDX 7 1 6 2 5 3 4 4 2 5 1 6 3 7 8 8 9 9 10 10 11 11 12 12 13 13
REMARK H PARENT
REMARK Flexibility Score: inf
ROOT
ATOM      1  C   UNL     1     100.721 -69.228   6.513  1.00  0.00     0.000 C 
ENDROOT
BRANCH   1   2
ATOM      2  C   UNL     1      99.881 -69.430   5.241  1.00  0.00     0.000 C 
BRANCH   2   3
ATOM      3  C   UNL     1      99.423 -68.104   4.618  1.00  0.00     0.006 C 
BRANCH   3   4
ATOM      4  C   UNL     1      98.415 -68.349   3.491  1.00  0.00     0.053 C 
BRANCH   4   5
ATOM      5  C   UNL     1      98.999 -67.954   2.170  1.00  0.00     0.041 C 
ATOM      6  O   UNL     1      99.884 -68.668   1.630  1.00  0.00    -0.550 OA
ATOM      7  O   UNL     1      98.601 -66.772   1.560  1.00  0.00    -0.550 OA
ENDBRANCH   4   5
ENDBRANCH   3   4
ENDBRANCH   2   3
ENDBRANCH   1   2
BRANCH   1   8
ATOM      8  C   UNL     1     101.022 -67.748   6.794  1.00  0.00     0.000 C 
BRANCH   8   9
ATOM      9  C   UNL     1     101.032 -67.466   8.301  1.00  0.00     0.006 C 
BRANCH   9  10
ATOM     10  C   UNL     1     100.785 -68.747   9.102  1.00  0.00     0.053 C 
BRANCH  10  11
ATOM     11  C   UNL     1     100.532 -68.426  10.541  1.00  0.00     0.041 C 
ATOM     12  O   UNL     1     100.801 -69.271  11.435  1.00  0.00    -0.550 OA
ATOM     13  O   UNL     1      99.954 -67.212  10.891  1.00  0.00    -0.550 OA
ENDBRANCH  10  11
ENDBRANCH   9  10
ENDBRANCH   8   9
ENDBRANCH   1   8
TORSDOF 8
ENDMDL
MODEL 2
REMARK VINA RESULT:    -3.925      0.228      7.110
REMARK INTER + INTRA:          -6.128
REMARK INTER:                  -5.776
REMARK INTRA:                  -0.352
REMARK UNBOUND:                -0.368
REMARK SMILES O=C([O-])CCCCCCCC(=O)[O-]
REMARK SMILES IDX 7 1 6 2 5 3 4 4 2 5 1 6 3 7 8 8 9 9 10 10 11 11 12 12 13 13
REMARK H PARENT
REMARK Flexibility Score: inf
ROOT
ATOM      1  C   UNL     1     100.696 -69.196   6.498  1.00  0.00     0.000 C 
ENDROOT
BRANCH   1   2
ATOM      2  C   UNL     1     100.973 -67.701   6.724  1.00  0.00     0.000 C 
BRANCH   2   3
ATOM      3  C   UNL     1     101.025 -67.326   8.212  1.00  0.00     0.006 C 
BRANCH   3   4
ATOM      4  C   UNL     1     101.132 -68.578   9.087  1.00  0.00     0.053 C 
BRANCH   4   5
ATOM      5  C   UNL     1     100.554 -68.321  10.444  1.00  0.00     0.041 C 
ATOM      6  O   UNL     1     100.010 -67.215  10.701  1.00  0.00    -0.550 OA
ATOM      7  O   UNL     1     100.658 -69.285  11.438  1.00  0.00    -0.550 OA
ENDBRANCH   4   5
ENDBRANCH   3   4
ENDBRANCH   2   3
ENDBRANCH   1   2
BRANCH   1   8
ATOM      8  C   UNL     1      99.792 -69.454   5.283  1.00  0.00     0.000 C 
BRANCH   8   9
ATOM      9  C   UNL     1      99.777 -68.242   4.344  1.00  0.00     0.006 C 
BRANCH   9  10
ATOM     10  C   UNL     1      98.566 -68.285   3.409  1.00  0.00     0.053 C 
BRANCH  10  11
ATOM     11  C   UNL     1      98.976 -67.976   2.004  1.00  0.00     0.041 C 
ATOM     12  O   UNL     1      99.784 -68.731   1.400  1.00  0.00    -0.550 OA
ATOM     13  O   UNL     1      98.504 -66.830   1.378  1.00  0.00    -0.550 OA
ENDBRANCH  10  11
ENDBRANCH   9  10
ENDBRANCH   8   9
ENDBRANCH   1   8
TORSDOF 8
ENDMDL
MODEL 3
REMARK VINA RESULT:    -3.851      0.851      7.049
REMARK INTER + INTRA:          -6.019
REMARK INTER:                  -5.647
REMARK INTRA:                  -0.372
REMARK UNBOUND:                -0.368
REMARK SMILES O=C([O-])CCCCCCCC(=O)[O-]
REMARK SMILES IDX 7 1 6 2 5 3 4 4 2 5 1 6 3 7 8 8 9 9 10 10 11 11 12 12 13 13
REMARK H PARENT
REMARK Flexibility Score: inf
ROOT
ATOM      1  C   UNL     1     100.619 -69.002   6.543  1.00  0.00     0.000 C 
ENDROOT
BRANCH   1   2
ATOM      2  C   UNL     1     100.987 -67.543   6.860  1.00  0.00     0.000 C 
BRANCH   2   3
ATOM      3  C   UNL     1     100.994 -67.249   8.368  1.00  0.00     0.006 C 
BRANCH   3   4
ATOM      4  C   UNL     1     101.064 -68.547   9.178  1.00  0.00     0.053 C 
BRANCH   4   5
ATOM      5  C   UNL     1     100.512 -68.337  10.553  1.00  0.00     0.041 C 
ATOM      6  O   UNL     1     100.552 -69.267  11.400  1.00  0.00    -0.550 OA
ATOM      7  O   UNL     1      99.910 -67.130  10.884  1.00  0.00    -0.550 OA
ENDBRANCH   4   5
ENDBRANCH   3   4
ENDBRANCH   2   3
ENDBRANCH   1   2
BRANCH   1   8
ATOM      8  C   UNL     1     100.448 -69.255   5.038  1.00  0.00     0.000 C 
BRANCH   8   9
ATOM      9  C   UNL     1      99.141 -68.640   4.523  1.00  0.00     0.006 C 
BRANCH   9  10
ATOM     10  C   UNL     1      99.412 -67.608   3.426  1.00  0.00     0.053 C 
BRANCH  10  11
ATOM     11  C   UNL     1      99.619 -68.285   2.108  1.00  0.00     0.041 C 
ATOM     12  O   UNL     1      98.713 -69.012   1.621  1.00  0.00    -0.550 OA
ATOM     13  O   UNL     1     100.830 -68.154   1.441  1.00  0.00    -0.550 OA
ENDBRANCH  10  11
ENDBRANCH   9  10
ENDBRANCH   8   9
ENDBRANCH   1   8
TORSDOF 8
ENDMDL
MODEL 4
REMARK VINA RESULT:    -3.770      1.514      2.103
REMARK INTER + INTRA:          -5.901
REMARK INTER:                  -5.451
REMARK INTRA:                  -0.451
REMARK UNBOUND:                -0.368
REMARK SMILES O=C([O-])CCCCCCCC(=O)[O-]
REMARK SMILES IDX 7 1 6 2 5 3 4 4 2 5 1 6 3 7 8 8 9 9 10 10 11 11 12 12 13 13
REMARK H PARENT
REMARK Flexibility Score: inf
ROOT
ATOM      1  C   UNL     1      99.864 -69.505   5.417  1.00  0.00     0.000 C 
ENDROOT
BRANCH   1   2
ATOM      2  C   UNL     1      99.717 -68.241   4.554  1.00  0.00     0.000 C 
BRANCH   2   3
ATOM      3  C   UNL     1      98.445 -68.256   3.694  1.00  0.00     0.006 C 
BRANCH   3   4
ATOM      4  C   UNL     1      98.670 -67.518   2.371  1.00  0.00     0.053 C 
BRANCH   4   5
ATOM      5  C   UNL     1      99.477 -68.359   1.432  1.00  0.00     0.041 C 
ATOM      6  O   UNL     1      98.955 -69.355   0.866  1.00  0.00    -0.550 OA
ATOM      7  O   UNL     1     100.819 -68.072   1.219  1.00  0.00    -0.550 OA
ENDBRANCH   4   5
ENDBRANCH   3   4
ENDBRANCH   2   3
ENDBRANCH   1   2
BRANCH   1   8
ATOM      8  C   UNL     1     101.331 -69.855   5.708  1.00  0.00     0.000 C 
BRANCH   8   9
ATOM      9  C   UNL     1     101.935 -68.879   6.725  1.00  0.00     0.006 C 
BRANCH   9  10
ATOM     10  C   UNL     1     101.079 -68.802   7.991  1.00  0.00     0.053 C 
BRANCH  10  11
ATOM     11  C   UNL     1     100.855 -67.377   8.388  1.00  0.00     0.041 C 
ATOM     12  O   UNL     1     100.511 -67.095   9.566  1.00  0.00    -0.550 OA
ATOM     13  O   UNL     1     100.977 -66.365   7.444  1.00  0.00    -0.550 OA
ENDBRANCH  10  11
ENDBRANCH   9  10
ENDBRANCH   8   9
ENDBRANCH   1   8
TORSDOF 8
ENDMDL
MODEL 5
REMARK VINA RESULT:    -3.744      2.738      7.411
REMARK INTER + INTRA:          -5.863
REMARK INTER:                  -5.340
REMARK INTRA:                  -0.523
REMARK UNBOUND:                -0.368
REMARK SMILES O=C([O-])CCCCCCCC(=O)[O-]
REMARK SMILES IDX 7 1 6 2 5 3 4 4 2 5 1 6 3 7 8 8 9 9 10 10 11 11 12 12 13 13
REMARK H PARENT
REMARK Flexibility Score: inf
ROOT
ATOM      1  C   UNL     1      97.959 -66.533   2.875  1.00  0.00     0.000 C 
ENDROOT
BRANCH   1   2
ATOM      2  C   UNL     1      97.955 -67.739   3.828  1.00  0.00     0.000 C 
BRANCH   2   3
ATOM      3  C   UNL     1      99.318 -68.443   3.898  1.00  0.00     0.006 C 
BRANCH   3   4
ATOM      4  C   UNL     1     100.070 -68.054   5.174  1.00  0.00     0.053 C 
BRANCH   4   5
ATOM      5  C   UNL     1     100.436 -69.274   5.960  1.00  0.00     0.041 C 
ATOM      6  O   UNL     1     100.376 -70.413   5.426  1.00  0.00    -0.550 OA
ATOM      7  O   UNL     1     100.795 -69.159   7.296  1.00  0.00    -0.550 OA
ENDBRANCH   4   5
ENDBRANCH   3   4
ENDBRANCH   2   3
ENDBRANCH   1   2
BRANCH   1   8
ATOM      8  C   UNL     1      99.198 -66.500   1.968  1.00  0.00     0.000 C 
BRANCH   8   9
ATOM      9  C   UNL     1      98.802 -66.620   0.492  1.00  0.00     0.006 C 
BRANCH   9  10
ATOM     10  C   UNL     1      99.637 -67.688  -0.218  1.00  0.00     0.053 C 
BRANCH  10  11
ATOM     11  C   UNL     1      98.850 -68.950  -0.378  1.00  0.00     0.041 C 
ATOM     12  O   UNL     1      98.784 -69.780   0.567  1.00  0.00    -0.550 OA
ATOM     13  O   UNL     1      98.229 -69.233  -1.588  1.00  0.00    -0.550 OA
ENDBRANCH  10  11
ENDBRANCH   9  10
ENDBRANCH   8   9
ENDBRANCH   1   8
TORSDOF 8
ENDMDL
MODEL 6
REMARK VINA RESULT:    -3.718      3.010      4.419
REMARK INTER + INTRA:          -5.825
REMARK INTER:                  -5.126
REMARK INTRA:                  -0.699
REMARK UNBOUND:                -0.368
REMARK SMILES O=C([O-])CCCCCCCC(=O)[O-]
REMARK SMILES IDX 7 1 6 2 5 3 4 4 2 5 1 6 3 7 8 8 9 9 10 10 11 11 12 12 13 13
REMARK H PARENT
REMARK Flexibility Score: inf
ROOT
ATOM      1  C   UNL     1      98.314 -66.138   3.577  1.00  0.00     0.000 C 
ENDROOT
BRANCH   1   2
ATOM      2  C   UNL     1      98.018 -65.734   2.124  1.00  0.00     0.000 C 
BRANCH   2   3
ATOM      3  C   UNL     1      99.229 -65.925   1.198  1.00  0.00     0.006 C 
BRANCH   3   4
ATOM      4  C   UNL     1      98.957 -67.018   0.161  1.00  0.00     0.053 C 
BRANCH   4   5
ATOM      5  C   UNL     1      99.722 -68.260   0.496  1.00  0.00     0.041 C 
ATOM      6  O   UNL     1     100.946 -68.193   0.781  1.00  0.00    -0.550 OA
ATOM      7  O   UNL     1      99.094 -69.498   0.445  1.00  0.00    -0.550 OA
ENDBRANCH   4   5
ENDBRANCH   3   4
ENDBRANCH   2   3
ENDBRANCH   1   2
BRANCH   1   8
ATOM      8  C   UNL     1      97.657 -67.470   3.967  1.00  0.00     0.000 C 
BRANCH   8   9
ATOM      9  C   UNL     1      98.686 -68.606   3.982  1.00  0.00     0.006 C 
BRANCH   9  10
ATOM     10  C   UNL     1     100.041 -68.114   4.496  1.00  0.00     0.053 C 
BRANCH  10  11
ATOM     11  C   UNL     1     100.593 -69.064   5.512  1.00  0.00     0.041 C 
ATOM     12  O   UNL     1     101.296 -68.634   6.465  1.00  0.00    -0.550 OA
ATOM     13  O   UNL     1     100.374 -70.429   5.379  1.00  0.00    -0.550 OA
ENDBRANCH  10  11
ENDBRANCH   9  10
ENDBRANCH   8   9
ENDBRANCH   1   8
TORSDOF 8
ENDMDL
MODEL 7
REMARK VINA RESULT:    -3.624      1.372      1.905
REMARK INTER + INTRA:          -5.687
REMARK INTER:                  -5.397
REMARK INTRA:                  -0.290
REMARK UNBOUND:                -0.368
REMARK SMILES O=C([O-])CCCCCCCC(=O)[O-]
REMARK SMILES IDX 7 1 6 2 5 3 4 4 2 5 1 6 3 7 8 8 9 9 10 10 11 11 12 12 13 13
REMARK H PARENT
REMARK Flexibility Score: inf
ROOT
ATOM      1  C   UNL     1      99.901 -69.412   5.436  1.00  0.00     0.000 C 
ENDROOT
BRANCH   1   2
ATOM      2  C   UNL     1      99.860 -68.378   4.299  1.00  0.00     0.000 C 
BRANCH   2   3
ATOM      3  C   UNL     1      98.582 -68.478   3.454  1.00  0.00     0.006 C 
BRANCH   3   4
ATOM      4  C   UNL     1      97.484 -67.567   4.012  1.00  0.00     0.053 C 
BRANCH   4   5
ATOM      5  C   UNL     1      97.684 -66.159   3.546  1.00  0.00     0.041 C 
ATOM      6  O   UNL     1      97.857 -65.233   4.382  1.00  0.00    -0.550 OA
ATOM      7  O   UNL     1      97.630 -65.861   2.191  1.00  0.00    -0.550 OA
ENDBRANCH   4   5
ENDBRANCH   3   4
ENDBRANCH   2   3
ENDBRANCH   1   2
BRANCH   1   8
ATOM      8  C   UNL     1     101.144 -69.265   6.326  1.00  0.00     0.000 C 
BRANCH   8   9
ATOM      9  C   UNL     1     100.895 -68.256   7.454  1.00  0.00     0.006 C 
BRANCH   9  10
ATOM     10  C   UNL     1     101.310 -68.834   8.809  1.00  0.00     0.053 C 
BRANCH  10  11
ATOM     11  C   UNL     1     100.520 -68.203   9.912  1.00  0.00     0.041 C 
ATOM     12  O   UNL     1     100.160 -68.890  10.905  1.00  0.00    -0.550 OA
ATOM     13  O   UNL     1     100.138 -66.871   9.820  1.00  0.00    -0.550 OA
ENDBRANCH  10  11
ENDBRANCH   9  10
ENDBRANCH   8   9
ENDBRANCH   1   8
TORSDOF 8
ENDMDL
MODEL 8
REMARK VINA RESULT:    -3.593      7.436     10.339
REMARK INTER + INTRA:          -5.641
REMARK INTER:                  -4.893
REMARK INTRA:                  -0.748
REMARK UNBOUND:                -0.368
REMARK SMILES O=C([O-])CCCCCCCC(=O)[O-]
REMARK SMILES IDX 7 1 6 2 5 3 4 4 2 5 1 6 3 7 8 8 9 9 10 10 11 11 12 12 13 13
REMARK H PARENT
REMARK Flexibility Score: inf
ROOT
ATOM      1  C   UNL     1     101.668 -68.190  -2.640  1.00  0.00     0.000 C 
ENDROOT
BRANCH   1   2
ATOM      2  C   UNL     1     101.122 -67.171  -1.626  1.00  0.00     0.000 C 
BRANCH   2   3
ATOM      3  C   UNL     1     100.700 -67.822  -0.301  1.00  0.00     0.006 C 
BRANCH   3   4
ATOM      4  C   UNL     1      99.175 -67.850  -0.166  1.00  0.00     0.053 C 
BRANCH   4   5
ATOM      5  C   UNL     1      98.643 -69.207  -0.508  1.00  0.00     0.041 C 
ATOM      6  O   UNL     1      98.149 -69.424  -1.646  1.00  0.00    -0.550 OA
ATOM      7  O   UNL     1      98.648 -70.216   0.445  1.00  0.00    -0.550 OA
ENDBRANCH   4   5
ENDBRANCH   3   4
ENDBRANCH   2   3
ENDBRANCH   1   2
BRANCH   1   8
ATOM      8  C   UNL     1     101.027 -68.045  -4.028  1.00  0.00     0.000 C 
BRANCH   8   9
ATOM      9  C   UNL     1      99.912 -66.992  -4.011  1.00  0.00     0.006 C 
BRANCH   9  10
ATOM     10  C   UNL     1      98.587 -67.585  -4.495  1.00  0.00     0.053 C 
BRANCH  10  11
ATOM     11  C   UNL     1      97.439 -66.730  -4.060  1.00  0.00     0.041 C 
ATOM     12  O   UNL     1      96.641 -66.260  -4.913  1.00  0.00    -0.550 OA
ATOM     13  O   UNL     1      97.280 -66.412  -2.717  1.00  0.00    -0.550 OA
ENDBRANCH  10  11
ENDBRANCH   9  10
ENDBRANCH   8   9
ENDBRANCH   1   8
TORSDOF 8
ENDMDL
MODEL 9
REMARK VINA RESULT:    -3.579      2.004      3.068
REMARK INTER + INTRA:          -5.621
REMARK INTER:                  -5.230
REMARK INTRA:                  -0.391
REMARK UNBOUND:                -0.368
REMARK SMILES O=C([O-])CCCCCCCC(=O)[O-]
REMARK SMILES IDX 7 1 6 2 5 3 4 4 2 5 1 6 3 7 8 8 9 9 10 10 11 11 12 12 13 13
REMARK H PARENT
REMARK Flexibility Score: inf
ROOT
ATOM      1  C   UNL     1     100.298 -67.582   4.207  1.00  0.00     0.000 C 
ENDROOT
BRANCH   1   2
ATOM      2  C   UNL     1     100.445 -67.942   2.720  1.00  0.00     0.000 C 
BRANCH   2   3
ATOM      3  C   UNL     1      99.104 -68.299   2.062  1.00  0.00     0.006 C 
BRANCH   3   4
ATOM      4  C   UNL     1      99.136 -68.005   0.559  1.00  0.00     0.053 C 
BRANCH   4   5
ATOM      5  C   UNL     1      98.744 -69.220  -0.222  1.00  0.00     0.041 C 
ATOM      6  O   UNL     1      98.566 -70.320   0.365  1.00  0.00    -0.550 OA
ATOM      7  O   UNL     1      98.623 -69.149  -1.603  1.00  0.00    -0.550 OA
ENDBRANCH   4   5
ENDBRANCH   3   4
ENDBRANCH   2   3
ENDBRANCH   1   2
BRANCH   1   8
ATOM      8  C   UNL     1      99.417 -68.581   4.973  1.00  0.00     0.000 C 
BRANCH   8   9
ATOM      9  C   UNL     1     100.274 -69.543   5.804  1.00  0.00     0.006 C 
BRANCH   9  10
ATOM     10  C   UNL     1     101.457 -68.813   6.444  1.00  0.00     0.053 C 
BRANCH  10  11
ATOM     11  C   UNL     1     101.036 -68.143   7.714  1.00  0.00     0.041 C 
ATOM     12  O   UNL     1     101.014 -66.885   7.789  1.00  0.00    -0.550 OA
ATOM     13  O   UNL     1     100.715 -68.906   8.830  1.00  0.00    -0.550 OA
ENDBRANCH  10  11
ENDBRANCH   9  10
ENDBRANCH   8   9
ENDBRANCH   1   8
TORSDOF 8
ENDMDL
