MODEL 1
REMARK VINA RESULT:    -4.791      0.000      0.000
REMARK INTER + INTRA:          -7.403
REMARK INTER:                  -6.472
REMARK INTRA:                  -0.931
REMARK UNBOUND:                -0.931
REMARK SMILES CC(=O)CCC=C(C)CCC=C(C)C
REMARK SMILES IDX 7 1 6 2 8 3 9 4 10 5 11 6 13 7 12 8 14 9 5 10 4 11 2 12 3 13
REMARK SMILES IDX 1 14
REMARK H PARENT
REMARK Flexibility Score: inf
ROOT
ATOM      1  C   UNL     1      12.123 -19.172  21.156  1.00  0.00    -0.077 C 
ATOM      2  C   UNL     1      11.873 -20.451  20.790  1.00  0.00    -0.028 C 
ATOM      3  C   UNL     1      11.678 -18.624  22.491  1.00  0.00     0.039 C 
ENDROOT
BRANCH   1   4
ATOM      4  C   UNL     1      12.891 -18.277  20.209  1.00  0.00     0.034 C 
BRANCH   4   5
ATOM      5  C   UNL     1      12.162 -18.151  18.866  1.00  0.00     0.032 C 
BRANCH   5   6
ATOM      6  C   UNL     1      10.733 -17.712  19.072  1.00  0.00    -0.028 C 
ATOM      7  C   UNL     1       8.302 -17.683  18.715  1.00  0.00     0.039 C 
ATOM      8  C   UNL     1       9.670 -18.250  18.435  1.00  0.00    -0.080 C 
ATOM      9  C   UNL     1       9.814 -19.407  17.473  1.00  0.00     0.039 C 
ENDBRANCH   5   6
ENDBRANCH   4   5
ENDBRANCH   1   4
BRANCH   2  10
ATOM     10  C   UNL     1      11.080 -21.435  21.613  1.00  0.00     0.035 C 
BRANCH  10  11
ATOM     11  C   UNL     1       9.617 -21.471  21.146  1.00  0.00     0.079 C 
BRANCH  11  12
ATOM     12  C   UNL     1       8.686 -22.229  22.067  1.00  0.00     0.130 C 
ATOM     13  O   UNL     1       7.513 -21.889  22.113  1.00  0.00    -0.300 OA
ATOM     14  C   UNL     1       9.140 -23.374  22.931  1.00  0.00     0.087 C 
ENDBRANCH  11  12
ENDBRANCH  10  11
ENDBRANCH   2  10
TORSDOF 6
ENDMDL
MODEL 2
REMARK VINA RESULT:    -4.779      2.109      3.329
REMARK INTER + INTRA:          -7.387
REMARK INTER:                  -7.003
REMARK INTRA:                  -0.384
REMARK UNBOUND:                -0.931
REMARK SMILES CC(=O)CCC=C(C)CCC=C(C)C
REMARK SMILES IDX 7 1 6 2 8 3 9 4 10 5 11 6 13 7 12 8 14 9 5 10 4 11 2 12 3 13
REMARK SMILES IDX 1 14
REMARK H PARENT
REMARK Flexibility Score: inf
ROOT
ATOM      1  C   UNL     1      10.419 -21.721  22.427  1.00  0.00    -0.077 C 
ATOM      2  C   UNL     1       9.598 -22.790  22.303  1.00  0.00    -0.028 C 
ATOM      3  C   UNL     1      10.776 -21.142  23.776  1.00  0.00     0.039 C 
ENDROOT
BRANCH   1   4
ATOM      4  C   UNL     1      11.015 -21.107  21.180  1.00  0.00     0.034 C 
BRANCH   4   5
ATOM      5  C   UNL     1       9.958 -20.309  20.408  1.00  0.00     0.032 C 
BRANCH   5   6
ATOM      6  C   UNL     1      10.275 -20.288  18.933  1.00  0.00    -0.028 C 
ATOM      7  C   UNL     1      10.287 -19.420  16.634  1.00  0.00     0.039 C 
ATOM      8  C   UNL     1       9.936 -19.285  18.094  1.00  0.00    -0.080 C 
ATOM      9  C   UNL     1       9.240 -18.035  18.580  1.00  0.00     0.039 C 
ENDBRANCH   5   6
ENDBRANCH   4   5
ENDBRANCH   1   4
BRANCH   2  10
ATOM     10  C   UNL     1       8.900 -23.468  23.454  1.00  0.00     0.035 C 
BRANCH  10  11
ATOM     11  C   UNL     1       8.358 -24.839  23.023  1.00  0.00     0.079 C 
BRANCH  11  12
ATOM     12  C   UNL     1       7.029 -25.209  23.643  1.00  0.00     0.130 C 
ATOM     13  O   UNL     1       6.392 -26.125  23.145  1.00  0.00    -0.300 OA
ATOM     14  C   UNL     1       6.456 -24.498  24.838  1.00  0.00     0.087 C 
ENDBRANCH  11  12
ENDBRANCH  10  11
ENDBRANCH   2  10
TORSDOF 6
ENDMDL
MODEL 3
REMARK VINA RESULT:    -4.774      2.211      6.098
REMARK INTER + INTRA:          -7.380
REMARK INTER:                  -6.693
REMARK INTRA:                  -0.686
REMARK UNBOUND:                -0.931
REMARK SMILES CC(=O)CCC=C(C)CCC=C(C)C
REMARK SMILES IDX 7 1 6 2 8 3 9 4 10 5 11 6 13 7 12 8 14 9 5 10 4 11 2 12 3 13
REMARK SMILES IDX 1 14
REMARK H PARENT
REMARK Flexibility Score: inf
ROOT
ATOM      1  C   UNL     1      10.014 -20.763  20.690  1.00  0.00    -0.077 C 
ATOM      2  C   UNL     1       9.538 -19.919  19.746  1.00  0.00    -0.028 C 
ATOM      3  C   UNL     1      11.456 -21.211  20.706  1.00  0.00     0.039 C 
ENDROOT
BRANCH   1   4
ATOM      4  C   UNL     1       9.077 -21.252  21.773  1.00  0.00     0.034 C 
BRANCH   4   5
ATOM      5  C   UNL     1       9.771 -22.288  22.666  1.00  0.00     0.032 C 
BRANCH   5   6
ATOM      6  C   UNL     1       9.144 -23.649  22.493  1.00  0.00    -0.028 C 
ATOM      7  C   UNL     1       7.688 -25.554  23.034  1.00  0.00     0.039 C 
ATOM      8  C   UNL     1       8.197 -24.162  23.309  1.00  0.00    -0.080 C 
ATOM      9  C   UNL     1       7.627 -23.376  24.468  1.00  0.00     0.039 C 
ENDBRANCH   5   6
ENDBRANCH   4   5
ENDBRANCH   1   4
BRANCH   2  10
ATOM     10  C   UNL     1      10.345 -19.394  18.585  1.00  0.00     0.035 C 
BRANCH  10  11
ATOM     11  C   UNL     1      10.771 -17.940  18.839  1.00  0.00     0.079 C 
BRANCH  11  12
ATOM     12  C   UNL     1      12.039 -17.793  19.650  1.00  0.00     0.130 C 
ATOM     13  O   UNL     1      11.939 -17.544  20.842  1.00  0.00    -0.300 OA
ATOM     14  C   UNL     1      13.414 -17.933  19.055  1.00  0.00     0.087 C 
ENDBRANCH  11  12
ENDBRANCH  10  11
ENDBRANCH   2  10
TORSDOF 6
ENDMDL
MODEL 4
REMARK VINA RESULT:    -4.747      2.951      7.147
REMARK INTER + INTRA:          -7.344
REMARK INTER:                  -6.753
REMARK INTRA:                  -0.591
REMARK UNBOUND:                -0.931
REMARK SMILES CC(=O)CCC=C(C)CCC=C(C)C
REMARK SMILES IDX 7 1 6 2 8 3 9 4 10 5 11 6 13 7 12 8 14 9 5 10 4 11 2 12 3 13
REMARK SMILES IDX 1 14
REMARK H PARENT
REMARK Flexibility Score: inf
ROOT
ATOM      1  C   UNL     1       9.235 -23.122  22.684  1.00  0.00    -0.077 C 
ATOM      2  C   UNL     1       9.670 -22.216  21.778  1.00  0.00    -0.028 C 
ATOM      3  C   UNL     1       9.747 -23.136  24.105  1.00  0.00     0.039 C 
ENDROOT
BRANCH   1   4
ATOM      4  C   UNL     1       8.189 -24.131  22.266  1.00  0.00     0.034 C 
BRANCH   4   5
ATOM      5  C   UNL     1       8.124 -25.293  23.265  1.00  0.00     0.032 C 
BRANCH   5   6
ATOM      6  C   UNL     1       6.716 -25.824  23.376  1.00  0.00    -0.028 C 
ATOM      7  C   UNL     1       4.482 -26.125  24.356  1.00  0.00     0.039 C 
ATOM      8  C   UNL     1       5.846 -25.483  24.352  1.00  0.00    -0.080 C 
ATOM      9  C   UNL     1       6.195 -24.469  25.418  1.00  0.00     0.039 C 
ENDBRANCH   5   6
ENDBRANCH   4   5
ENDBRANCH   1   4
BRANCH   2  10
ATOM     10  C   UNL     1      10.739 -21.187  22.044  1.00  0.00     0.035 C 
BRANCH  10  11
ATOM     11  C   UNL     1      11.552 -20.912  20.770  1.00  0.00     0.079 C 
BRANCH  11  12
ATOM     12  C   UNL     1      11.168 -19.640  20.046  1.00  0.00     0.130 C 
ATOM     13  O   UNL     1      11.657 -18.587  20.425  1.00  0.00    -0.300 OA
ATOM     14  C   UNL     1      10.207 -19.614  18.888  1.00  0.00     0.087 C 
ENDBRANCH  11  12
ENDBRANCH  10  11
ENDBRANCH   2  10
TORSDOF 6
ENDMDL
MODEL 5
REMARK VINA RESULT:    -4.684      1.294      1.860
REMARK INTER + INTRA:          -7.259
REMARK INTER:                  -6.414
REMARK INTRA:                  -0.845
REMARK UNBOUND:                -0.931
REMARK SMILES CC(=O)CCC=C(C)CCC=C(C)C
REMARK SMILES IDX 7 1 6 2 8 3 9 4 10 5 11 6 13 7 12 8 14 9 5 10 4 11 2 12 3 13
REMARK SMILES IDX 1 14
REMARK H PARENT
REMARK Flexibility Score: inf
ROOT
ATOM      1  C   UNL     1      10.866 -19.699  21.431  1.00  0.00    -0.077 C 
ATOM      2  C   UNL     1      10.906 -21.047  21.329  1.00  0.00    -0.028 C 
ATOM      3  C   UNL     1       9.664 -18.976  21.992  1.00  0.00     0.039 C 
ENDROOT
BRANCH   1   4
ATOM      4  C   UNL     1      12.071 -18.896  20.992  1.00  0.00     0.034 C 
BRANCH   4   5
ATOM      5  C   UNL     1      11.683 -17.876  19.915  1.00  0.00     0.032 C 
BRANCH   5   6
ATOM      6  C   UNL     1      11.473 -18.556  18.584  1.00  0.00    -0.028 C 
ATOM      7  C   UNL     1      10.223 -19.365  16.630  1.00  0.00     0.039 C 
ATOM      8  C   UNL     1      10.289 -18.618  17.937  1.00  0.00    -0.080 C 
ATOM      9  C   UNL     1       9.046 -17.948  18.476  1.00  0.00     0.039 C 
ENDBRANCH   5   6
ENDBRANCH   4   5
ENDBRANCH   1   4
BRANCH   2  10
ATOM     10  C   UNL     1       9.763 -21.964  21.684  1.00  0.00     0.035 C 
BRANCH  10  11
ATOM     11  C   UNL     1       9.905 -22.470  23.128  1.00  0.00     0.079 C 
BRANCH  11  12
ATOM     12  C   UNL     1       8.786 -23.377  23.586  1.00  0.00     0.130 C 
ATOM     13  O   UNL     1       8.137 -23.049  24.568  1.00  0.00    -0.300 OA
ATOM     14  C   UNL     1       8.439 -24.666  22.891  1.00  0.00     0.087 C 
ENDBRANCH  11  12
ENDBRANCH  10  11
ENDBRANCH   2  10
TORSDOF 6
ENDMDL
MODEL 6
REMARK VINA RESULT:    -4.657      2.326      6.105
REMARK INTER + INTRA:          -7.222
REMARK INTER:                  -6.549
REMARK INTRA:                  -0.673
REMARK UNBOUND:                -0.931
REMARK SMILES CC(=O)CCC=C(C)CCC=C(C)C
REMARK SMILES IDX 7 1 6 2 8 3 9 4 10 5 11 6 13 7 12 8 14 9 5 10 4 11 2 12 3 13
REMARK SMILES IDX 1 14
REMARK H PARENT
REMARK Flexibility Score: inf
ROOT
ATOM      1  C   UNL     1      10.019 -20.944  21.291  1.00  0.00    -0.077 C 
ATOM      2  C   UNL     1       9.498 -19.700  21.398  1.00  0.00    -0.028 C 
ATOM      3  C   UNL     1      11.465 -21.173  20.917  1.00  0.00     0.039 C 
ENDROOT
BRANCH   1   4
ATOM      4  C   UNL     1       9.134 -22.137  21.580  1.00  0.00     0.034 C 
BRANCH   4   5
ATOM      5  C   UNL     1       9.618 -22.884  22.828  1.00  0.00     0.032 C 
BRANCH   5   6
ATOM      6  C   UNL     1       8.462 -23.199  23.744  1.00  0.00    -0.028 C 
ATOM      7  C   UNL     1       6.559 -24.479  24.628  1.00  0.00     0.039 C 
ATOM      8  C   UNL     1       7.707 -24.317  23.665  1.00  0.00    -0.080 C 
ATOM      9  C   UNL     1       7.994 -25.408  22.658  1.00  0.00     0.039 C 
ENDBRANCH   5   6
ENDBRANCH   4   5
ENDBRANCH   1   4
BRANCH   2  10
ATOM     10  C   UNL     1      10.251 -18.430  21.094  1.00  0.00     0.035 C 
BRANCH  10  11
ATOM     11  C   UNL     1       9.866 -17.894  19.707  1.00  0.00     0.079 C 
BRANCH  11  12
ATOM     12  C   UNL     1      10.657 -18.491  18.565  1.00  0.00     0.130 C 
ATOM     13  O   UNL     1      11.877 -18.424  18.606  1.00  0.00    -0.300 OA
ATOM     14  C   UNL     1      10.011 -19.158  17.381  1.00  0.00     0.087 C 
ENDBRANCH  11  12
ENDBRANCH  10  11
ENDBRANCH   2  10
TORSDOF 6
ENDMDL
MODEL 7
REMARK VINA RESULT:    -4.641      2.599      4.680
REMARK INTER + INTRA:          -7.201
REMARK INTER:                  -6.650
REMARK INTRA:                  -0.551
REMARK UNBOUND:                -0.931
REMARK SMILES CC(=O)CCC=C(C)CCC=C(C)C
REMARK SMILES IDX 7 1 6 2 8 3 9 4 10 5 11 6 13 7 12 8 14 9 5 10 4 11 2 12 3 13
REMARK SMILES IDX 1 14
REMARK H PARENT
REMARK Flexibility Score: inf
ROOT
ATOM      1  C   UNL     1       9.064 -23.126  22.654  1.00  0.00    -0.077 C 
ATOM      2  C   UNL     1       8.310 -24.204  22.339  1.00  0.00    -0.028 C 
ATOM      3  C   UNL     1       9.808 -23.027  23.965  1.00  0.00     0.039 C 
ENDROOT
BRANCH   1   4
ATOM      4  C   UNL     1       9.185 -22.000  21.651  1.00  0.00     0.034 C 
BRANCH   4   5
ATOM      5  C   UNL     1      10.637 -21.518  21.545  1.00  0.00     0.032 C 
BRANCH   5   6
ATOM      6  C   UNL     1      10.831 -20.671  20.312  1.00  0.00    -0.028 C 
ATOM      7  C   UNL     1      10.977 -18.607  18.986  1.00  0.00     0.039 C 
ATOM      8  C   UNL     1      10.805 -19.320  20.303  1.00  0.00    -0.080 C 
ATOM      9  C   UNL     1      10.629 -18.514  21.569  1.00  0.00     0.039 C 
ENDBRANCH   5   6
ENDBRANCH   4   5
ENDBRANCH   1   4
BRANCH   2  10
ATOM     10  C   UNL     1       8.065 -25.373  23.261  1.00  0.00     0.035 C 
BRANCH  10  11
ATOM     11  C   UNL     1       6.601 -25.829  23.176  1.00  0.00     0.079 C 
BRANCH  11  12
ATOM     12  C   UNL     1       5.776 -25.511  24.403  1.00  0.00     0.130 C 
ATOM     13  O   UNL     1       4.733 -26.123  24.576  1.00  0.00    -0.300 OA
ATOM     14  C   UNL     1       6.178 -24.473  25.416  1.00  0.00     0.087 C 
ENDBRANCH  11  12
ENDBRANCH  10  11
ENDBRANCH   2  10
TORSDOF 6
ENDMDL
MODEL 8
REMARK VINA RESULT:    -4.493      1.657      3.338
REMARK INTER + INTRA:          -7.000
REMARK INTER:                  -5.979
REMARK INTRA:                  -1.021
REMARK UNBOUND:                -0.931
REMARK SMILES CC(=O)CCC=C(C)CCC=C(C)C
REMARK SMILES IDX 7 1 6 2 8 3 9 4 10 5 11 6 13 7 12 8 14 9 5 10 4 11 2 12 3 13
REMARK SMILES IDX 1 14
REMARK H PARENT
REMARK Flexibility Score: inf
ROOT
ATOM      1  C   UNL     1       9.676 -19.691  19.808  1.00  0.00    -0.077 C 
ATOM      2  C   UNL     1      10.181 -20.873  20.232  1.00  0.00    -0.028 C 
ATOM      3  C   UNL     1       8.489 -19.043  20.481  1.00  0.00     0.039 C 
ENDROOT
BRANCH   1   4
ATOM      4  C   UNL     1      10.337 -18.990  18.642  1.00  0.00     0.034 C 
BRANCH   4   5
ATOM      5  C   UNL     1      11.152 -17.783  19.123  1.00  0.00     0.032 C 
BRANCH   5   6
ATOM      6  C   UNL     1      12.582 -18.178  19.397  1.00  0.00    -0.028 C 
ATOM      7  C   UNL     1      14.562 -18.712  20.753  1.00  0.00     0.039 C 
ATOM      8  C   UNL     1      13.103 -18.352  20.632  1.00  0.00    -0.080 C 
ATOM      9  C   UNL     1      12.263 -18.216  21.882  1.00  0.00     0.039 C 
ENDBRANCH   5   6
ENDBRANCH   4   5
ENDBRANCH   1   4
BRANCH   2  10
ATOM     10  C   UNL     1       9.594 -21.700  21.348  1.00  0.00     0.035 C 
BRANCH  10  11
ATOM     11  C   UNL     1      10.373 -21.475  22.653  1.00  0.00     0.079 C 
BRANCH  11  12
ATOM     12  C   UNL     1      10.068 -22.476  23.744  1.00  0.00     0.130 C 
ATOM     13  O   UNL     1      10.663 -22.377  24.806  1.00  0.00    -0.300 OA
ATOM     14  C   UNL     1       9.070 -23.590  23.579  1.00  0.00     0.087 C 
ENDBRANCH  11  12
ENDBRANCH  10  11
ENDBRANCH   2  10
TORSDOF 6
ENDMDL
MODEL 9
REMARK VINA RESULT:    -4.411      1.922      3.287
REMARK INTER + INTRA:          -6.889
REMARK INTER:                  -5.462
REMARK INTRA:                  -1.427
REMARK UNBOUND:                -0.931
REMARK SMILES CC(=O)CCC=C(C)CCC=C(C)C
REMARK SMILES IDX 7 1 6 2 8 3 9 4 10 5 11 6 13 7 12 8 14 9 5 10 4 11 2 12 3 13
REMARK SMILES IDX 1 14
REMARK H PARENT
REMARK Flexibility Score: inf
ROOT
ATOM      1  C   UNL     1      10.676 -18.829  19.020  1.00  0.00    -0.077 C 
ATOM      2  C   UNL     1      10.462 -20.092  19.455  1.00  0.00    -0.028 C 
ATOM      3  C   UNL     1      11.937 -18.071  19.363  1.00  0.00     0.039 C 
ENDROOT
BRANCH   1   4
ATOM      4  C   UNL     1       9.632 -18.168  18.147  1.00  0.00     0.034 C 
BRANCH   4   5
ATOM      5  C   UNL     1       8.308 -18.013  18.905  1.00  0.00     0.032 C 
BRANCH   5   6
ATOM      6  C   UNL     1       8.546 -17.486  20.298  1.00  0.00    -0.028 C 
ATOM      7  C   UNL     1       8.394 -17.424  22.750  1.00  0.00     0.039 C 
ATOM      8  C   UNL     1       8.113 -18.089  21.427  1.00  0.00    -0.080 C 
ATOM      9  C   UNL     1       7.377 -19.409  21.398  1.00  0.00     0.039 C 
ENDBRANCH   5   6
ENDBRANCH   4   5
ENDBRANCH   1   4
BRANCH   2  10
ATOM     10  C   UNL     1      11.393 -20.851  20.367  1.00  0.00     0.035 C 
BRANCH  10  11
ATOM     11  C   UNL     1      10.645 -21.337  21.617  1.00  0.00     0.079 C 
BRANCH  11  12
ATOM     12  C   UNL     1      10.718 -20.392  22.796  1.00  0.00     0.130 C 
ATOM     13  O   UNL     1       9.963 -20.580  23.738  1.00  0.00    -0.300 OA
ATOM     14  C   UNL     1      11.671 -19.229  22.857  1.00  0.00     0.087 C 
ENDBRANCH  11  12
ENDBRANCH  10  11
ENDBRANCH   2  10
TORSDOF 6
ENDMDL
