MODEL 1
REMARK VINA RESULT:    -6.425      0.000      0.000
REMARK INTER + INTRA:          -9.148
REMARK INTER:                  -8.115
REMARK INTRA:                  -1.033
REMARK UNBOUND:                -1.033
REMARK SMILES O=C(C=Cc1ccc(O)cc1)c1ccc(O)cc1O
REMARK SMILES IDX 4 1 3 2 5 3 6 4 7 5 8 6 11 7 10 8 9 9 2 11 1 12 12 13 18 14
REMARK SMILES IDX 13 15 17 16 14 17 15 18 19 19 16 21
REMARK H PARENT 9 10 19 20 16 22
REMARK Flexibility Score: inf
ROOT
ATOM      1  C   UNL     1     174.491 172.259 176.917  1.00  0.00     0.012 C 
ATOM      2  C   UNL     1     175.245 172.995 176.084  1.00  0.00     0.053 C 
ENDROOT
BRANCH   1   3
ATOM      3  C   UNL     1     173.926 172.728 178.200  1.00  0.00    -0.025 A 
ATOM      4  C   UNL     1     174.728 172.852 179.348  1.00  0.00     0.012 A 
ATOM      5  C   UNL     1     174.164 173.250 180.563  1.00  0.00     0.047 A 
ATOM      6  C   UNL     1     172.788 173.506 180.649  1.00  0.00     0.115 A 
ATOM      7  C   UNL     1     172.546 172.956 178.299  1.00  0.00     0.012 A 
ATOM      8  C   UNL     1     171.983 173.354 179.517  1.00  0.00     0.047 A 
BRANCH   6   9
ATOM      9  O   UNL     1     172.214 173.904 181.854  1.00  0.00    -0.508 OA
ATOM     10  H   UNL     1     171.264 173.651 182.098  1.00  0.00     0.293 HD
ENDBRANCH   6   9
ENDBRANCH   1   3
BRANCH   2  11
ATOM     11  C   UNL     1     175.489 174.454 176.211  1.00  0.00     0.189 C 
ATOM     12  O   UNL     1     176.556 174.871 176.739  1.00  0.00    -0.289 OA
BRANCH  11  13
ATOM     13  C   UNL     1     174.480 175.441 175.760  1.00  0.00     0.064 A 
ATOM     14  C   UNL     1     174.445 175.861 174.413  1.00  0.00     0.130 A 
ATOM     15  C   UNL     1     173.558 175.990 176.670  1.00  0.00     0.020 A 
ATOM     16  C   UNL     1     173.495 176.806 173.998  1.00  0.00     0.093 A 
ATOM     17  C   UNL     1     172.615 176.929 176.247  1.00  0.00     0.047 A 
ATOM     18  C   UNL     1     172.580 177.339 174.910  1.00  0.00     0.119 A 
BRANCH  14  19
ATOM     19  O   UNL     1     175.340 175.327 173.485  1.00  0.00    -0.507 OA
ATOM     20  H   UNL     1     175.457 174.327 173.374  1.00  0.00     0.293 HD
ENDBRANCH  14  19
BRANCH  18  21
ATOM     21  O   UNL     1     171.644 178.276 174.478  1.00  0.00    -0.508 OA
ATOM     22  H   UNL     1     170.951 178.662 175.108  1.00  0.00     0.293 HD
ENDBRANCH  18  21
ENDBRANCH  11  13
ENDBRANCH   2  11
TORSDOF 6
ENDMDL
MODEL 2
REMARK VINA RESULT:    -6.372      3.515      5.492
REMARK INTER + INTRA:          -9.081
REMARK INTER:                  -8.046
REMARK INTRA:                  -1.035
REMARK UNBOUND:                -1.033
REMARK SMILES O=C(C=Cc1ccc(O)cc1)c1ccc(O)cc1O
REMARK SMILES IDX 4 1 3 2 5 3 6 4 7 5 8 6 11 7 10 8 9 9 2 11 1 12 12 13 18 14
REMARK SMILES IDX 13 15 17 16 14 17 15 18 19 19 16 21
REMARK H PARENT 9 10 19 20 16 22
REMARK Flexibility Score: inf
ROOT
ATOM      1  C   UNL     1     171.863 174.111 176.874  1.00  0.00     0.012 C 
ATOM      2  C   UNL     1     171.094 173.377 176.053  1.00  0.00     0.053 C 
ENDROOT
BRANCH   1   3
ATOM      3  C   UNL     1     172.431 173.647 178.157  1.00  0.00    -0.025 A 
ATOM      4  C   UNL     1     171.636 173.544 179.313  1.00  0.00     0.012 A 
ATOM      5  C   UNL     1     172.205 173.150 180.527  1.00  0.00     0.047 A 
ATOM      6  C   UNL     1     173.578 172.877 180.604  1.00  0.00     0.115 A 
ATOM      7  C   UNL     1     173.809 173.402 178.248  1.00  0.00     0.012 A 
ATOM      8  C   UNL     1     174.376 173.008 179.465  1.00  0.00     0.047 A 
BRANCH   6   9
ATOM      9  O   UNL     1     174.156 172.483 181.810  1.00  0.00    -0.508 OA
ATOM     10  H   UNL     1     174.680 171.619 181.887  1.00  0.00     0.293 HD
ENDBRANCH   6   9
ENDBRANCH   1   3
BRANCH   2  11
ATOM     11  C   UNL     1     170.834 171.922 176.195  1.00  0.00     0.189 C 
ATOM     12  O   UNL     1     169.768 171.521 176.738  1.00  0.00    -0.289 OA
BRANCH  11  13
ATOM     13  C   UNL     1     171.827 170.919 175.742  1.00  0.00     0.064 A 
ATOM     14  C   UNL     1     171.850 170.496 174.395  1.00  0.00     0.130 A 
ATOM     15  C   UNL     1     172.745 170.359 176.649  1.00  0.00     0.020 A 
ATOM     16  C   UNL     1     172.785 169.537 173.978  1.00  0.00     0.093 A 
ATOM     17  C   UNL     1     173.673 169.406 176.223  1.00  0.00     0.047 A 
ATOM     18  C   UNL     1     173.695 168.993 174.887  1.00  0.00     0.119 A 
BRANCH  14  19
ATOM     19  O   UNL     1     170.959 171.041 173.470  1.00  0.00    -0.507 OA
ATOM     20  H   UNL     1     170.331 171.796 173.719  1.00  0.00     0.293 HD
ENDBRANCH  14  19
BRANCH  18  21
ATOM     21  O   UNL     1     174.616 168.042 174.453  1.00  0.00    -0.508 OA
ATOM     22  H   UNL     1     174.320 167.185 174.001  1.00  0.00     0.293 HD
ENDBRANCH  18  21
ENDBRANCH  11  13
ENDBRANCH   2  11
TORSDOF 6
ENDMDL
MODEL 3
REMARK VINA RESULT:    -6.325      1.517      5.399
REMARK INTER + INTRA:          -9.022
REMARK INTER:                  -7.676
REMARK INTRA:                  -1.345
REMARK UNBOUND:                -1.033
REMARK SMILES O=C(C=Cc1ccc(O)cc1)c1ccc(O)cc1O
REMARK SMILES IDX 4 1 3 2 5 3 6 4 7 5 8 6 11 7 10 8 9 9 2 11 1 12 12 13 18 14
REMARK SMILES IDX 13 15 17 16 14 17 15 18 19 19 16 21
REMARK H PARENT 9 10 19 20 16 22
REMARK Flexibility Score: inf
ROOT
ATOM      1  C   UNL     1     175.639 175.260 176.262  1.00  0.00     0.012 C 
ATOM      2  C   UNL     1     175.926 174.022 176.698  1.00  0.00     0.053 C 
ENDROOT
BRANCH   1   3
ATOM      3  C   UNL     1     174.306 175.724 175.822  1.00  0.00    -0.025 A 
ATOM      4  C   UNL     1     173.851 175.499 174.511  1.00  0.00     0.012 A 
ATOM      5  C   UNL     1     172.608 175.990 174.102  1.00  0.00     0.047 A 
ATOM      6  C   UNL     1     171.817 176.730 174.992  1.00  0.00     0.115 A 
ATOM      7  C   UNL     1     173.524 176.491 176.698  1.00  0.00     0.012 A 
ATOM      8  C   UNL     1     172.280 176.982 176.287  1.00  0.00     0.047 A 
BRANCH   6   9
ATOM      9  O   UNL     1     170.575 177.224 174.596  1.00  0.00    -0.508 OA
ATOM     10  H   UNL     1     170.441 178.203 174.376  1.00  0.00     0.293 HD
ENDBRANCH   6   9
ENDBRANCH   1   3
BRANCH   2  11
ATOM     11  C   UNL     1     174.928 172.963 176.991  1.00  0.00     0.189 C 
ATOM     12  O   UNL     1     174.789 171.991 176.199  1.00  0.00    -0.289 OA
BRANCH  11  13
ATOM     13  C   UNL     1     174.056 173.042 178.187  1.00  0.00     0.064 A 
ATOM     14  C   UNL     1     172.661 173.196 178.044  1.00  0.00     0.130 A 
ATOM     15  C   UNL     1     174.608 172.985 179.480  1.00  0.00     0.020 A 
ATOM     16  C   UNL     1     171.845 173.283 179.183  1.00  0.00     0.093 A 
ATOM     17  C   UNL     1     173.787 173.071 180.607  1.00  0.00     0.047 A 
ATOM     18  C   UNL     1     172.404 173.219 180.461  1.00  0.00     0.119 A 
BRANCH  14  19
ATOM     19  O   UNL     1     172.084 173.246 176.775  1.00  0.00    -0.507 OA
ATOM     20  H   UNL     1     171.208 173.727 176.608  1.00  0.00     0.293 HD
ENDBRANCH  14  19
BRANCH  18  21
ATOM     21  O   UNL     1     171.577 173.306 181.579  1.00  0.00    -0.508 OA
ATOM     22  H   UNL     1     170.867 172.609 181.768  1.00  0.00     0.293 HD
ENDBRANCH  18  21
ENDBRANCH  11  13
ENDBRANCH   2  11
TORSDOF 6
ENDMDL
MODEL 4
REMARK VINA RESULT:    -6.297      2.978      5.830
REMARK INTER + INTRA:          -8.987
REMARK INTER:                  -7.642
REMARK INTRA:                  -1.345
REMARK UNBOUND:                -1.033
REMARK SMILES O=C(C=Cc1ccc(O)cc1)c1ccc(O)cc1O
REMARK SMILES IDX 4 1 3 2 5 3 6 4 7 5 8 6 11 7 10 8 9 9 2 11 1 12 12 13 18 14
REMARK SMILES IDX 13 15 17 16 14 17 15 18 19 19 16 21
REMARK H PARENT 9 10 19 20 16 22
REMARK Flexibility Score: inf
ROOT
ATOM      1  C   UNL     1     170.751 171.114 176.249  1.00  0.00     0.012 C 
ATOM      2  C   UNL     1     170.505 172.361 176.682  1.00  0.00     0.053 C 
ENDROOT
BRANCH   1   3
ATOM      3  C   UNL     1     172.063 170.609 175.794  1.00  0.00    -0.025 A 
ATOM      4  C   UNL     1     172.494 170.789 174.467  1.00  0.00     0.012 A 
ATOM      5  C   UNL     1     173.717 170.261 174.045  1.00  0.00     0.047 A 
ATOM      6  C   UNL     1     174.511 169.527 174.937  1.00  0.00     0.115 A 
ATOM      7  C   UNL     1     172.848 169.848 176.673  1.00  0.00     0.012 A 
ATOM      8  C   UNL     1     174.072 169.319 176.247  1.00  0.00     0.047 A 
BRANCH   6   9
ATOM      9  O   UNL     1     175.733 168.996 174.528  1.00  0.00    -0.508 OA
ATOM     10  H   UNL     1     175.826 168.021 174.271  1.00  0.00     0.293 HD
ENDBRANCH   6   9
ENDBRANCH   1   3
BRANCH   2  11
ATOM     11  C   UNL     1     171.537 173.392 176.955  1.00  0.00     0.189 C 
ATOM     12  O   UNL     1     171.699 174.351 176.151  1.00  0.00    -0.289 OA
BRANCH  11  13
ATOM     13  C   UNL     1     172.416 173.301 178.145  1.00  0.00     0.064 A 
ATOM     14  C   UNL     1     173.807 173.117 177.992  1.00  0.00     0.130 A 
ATOM     15  C   UNL     1     171.876 173.375 179.442  1.00  0.00     0.020 A 
ATOM     16  C   UNL     1     174.629 173.018 179.125  1.00  0.00     0.093 A 
ATOM     17  C   UNL     1     172.703 173.277 180.564  1.00  0.00     0.047 A 
ATOM     18  C   UNL     1     174.082 173.099 180.408  1.00  0.00     0.119 A 
BRANCH  14  19
ATOM     19  O   UNL     1     174.373 173.049 176.719  1.00  0.00    -0.507 OA
ATOM     20  H   UNL     1     173.850 173.306 175.891  1.00  0.00     0.293 HD
ENDBRANCH  14  19
BRANCH  18  21
ATOM     21  O   UNL     1     174.915 173.000 181.519  1.00  0.00    -0.508 OA
ATOM     22  H   UNL     1     175.312 173.822 181.960  1.00  0.00     0.293 HD
ENDBRANCH  18  21
ENDBRANCH  11  13
ENDBRANCH   2  11
TORSDOF 6
ENDMDL
MODEL 5
REMARK VINA RESULT:    -6.290      2.972      5.740
REMARK INTER + INTRA:          -8.978
REMARK INTER:                  -7.591
REMARK INTRA:                  -1.387
REMARK UNBOUND:                -1.033
REMARK SMILES O=C(C=Cc1ccc(O)cc1)c1ccc(O)cc1O
REMARK SMILES IDX 4 1 3 2 5 3 6 4 7 5 8 6 11 7 10 8 9 9 2 11 1 12 12 13 18 14
REMARK SMILES IDX 13 15 17 16 14 17 15 18 19 19 16 21
REMARK H PARENT 9 10 19 20 16 22
REMARK Flexibility Score: inf
ROOT
ATOM      1  C   UNL     1     170.739 171.121 176.250  1.00  0.00     0.012 C 
ATOM      2  C   UNL     1     170.510 172.376 176.671  1.00  0.00     0.053 C 
ENDROOT
BRANCH   1   3
ATOM      3  C   UNL     1     172.045 170.593 175.805  1.00  0.00    -0.025 A 
ATOM      4  C   UNL     1     172.872 169.861 176.676  1.00  0.00     0.012 A 
ATOM      5  C   UNL     1     174.125 169.413 176.250  1.00  0.00     0.047 A 
ATOM      6  C   UNL     1     174.575 169.712 174.956  1.00  0.00     0.115 A 
ATOM      7  C   UNL     1     172.514 170.914 174.522  1.00  0.00     0.012 A 
ATOM      8  C   UNL     1     173.769 170.465 174.098  1.00  0.00     0.047 A 
BRANCH   6   9
ATOM      9  O   UNL     1     175.822 169.270 174.518  1.00  0.00    -0.508 OA
ATOM     10  H   UNL     1     176.013 169.109 173.537  1.00  0.00     0.293 HD
ENDBRANCH   6   9
ENDBRANCH   1   3
BRANCH   2  11
ATOM     11  C   UNL     1     171.556 173.394 176.940  1.00  0.00     0.189 C 
ATOM     12  O   UNL     1     171.738 174.341 176.126  1.00  0.00    -0.289 OA
BRANCH  11  13
ATOM     13  C   UNL     1     172.426 173.302 178.136  1.00  0.00     0.064 A 
ATOM     14  C   UNL     1     173.818 173.119 177.995  1.00  0.00     0.130 A 
ATOM     15  C   UNL     1     171.875 173.375 179.429  1.00  0.00     0.020 A 
ATOM     16  C   UNL     1     174.631 173.020 179.134  1.00  0.00     0.093 A 
ATOM     17  C   UNL     1     172.693 173.277 180.557  1.00  0.00     0.047 A 
ATOM     18  C   UNL     1     174.073 173.100 180.412  1.00  0.00     0.119 A 
BRANCH  14  19
ATOM     19  O   UNL     1     174.394 173.053 176.726  1.00  0.00    -0.507 OA
ATOM     20  H   UNL     1     174.633 173.889 176.207  1.00  0.00     0.293 HD
ENDBRANCH  14  19
BRANCH  18  21
ATOM     21  O   UNL     1     174.898 173.000 181.530  1.00  0.00    -0.508 OA
ATOM     22  H   UNL     1     175.301 173.821 181.966  1.00  0.00     0.293 HD
ENDBRANCH  18  21
ENDBRANCH  11  13
ENDBRANCH   2  11
TORSDOF 6
ENDMDL
MODEL 6
REMARK VINA RESULT:    -6.016      2.376      5.290
REMARK INTER + INTRA:          -8.632
REMARK INTER:                  -7.272
REMARK INTRA:                  -1.360
REMARK UNBOUND:                -1.033
REMARK SMILES O=C(C=Cc1ccc(O)cc1)c1ccc(O)cc1O
REMARK SMILES IDX 4 1 3 2 5 3 6 4 7 5 8 6 11 7 10 8 9 9 2 11 1 12 12 13 18 14
REMARK SMILES IDX 13 15 17 16 14 17 15 18 19 19 16 21
REMARK H PARENT 9 10 19 20 16 22
REMARK Flexibility Score: inf
ROOT
ATOM      1  C   UNL     1     176.025 174.208 176.962  1.00  0.00     0.012 C 
ATOM      2  C   UNL     1     175.920 173.372 178.007  1.00  0.00     0.053 C 
ENDROOT
BRANCH   1   3
ATOM      3  C   UNL     1     174.891 174.771 176.199  1.00  0.00    -0.025 A 
ATOM      4  C   UNL     1     174.214 175.921 176.641  1.00  0.00     0.012 A 
ATOM      5  C   UNL     1     173.113 176.408 175.931  1.00  0.00     0.047 A 
ATOM      6  C   UNL     1     172.663 175.737 174.785  1.00  0.00     0.115 A 
ATOM      7  C   UNL     1     174.418 174.088 175.069  1.00  0.00     0.012 A 
ATOM      8  C   UNL     1     173.315 174.576 174.360  1.00  0.00     0.047 A 
BRANCH   6   9
ATOM      9  O   UNL     1     171.567 176.213 174.067  1.00  0.00    -0.508 OA
ATOM     10  H   UNL     1     171.228 175.736 173.241  1.00  0.00     0.293 HD
ENDBRANCH   6   9
ENDBRANCH   1   3
BRANCH   2  11
ATOM     11  C   UNL     1     174.654 173.014 178.695  1.00  0.00     0.189 C 
ATOM     12  O   UNL     1     174.530 173.216 179.934  1.00  0.00    -0.289 OA
BRANCH  11  13
ATOM     13  C   UNL     1     173.534 172.383 177.957  1.00  0.00     0.064 A 
ATOM     14  C   UNL     1     172.243 172.953 177.997  1.00  0.00     0.130 A 
ATOM     15  C   UNL     1     173.736 171.199 177.224  1.00  0.00     0.020 A 
ATOM     16  C   UNL     1     171.186 172.341 177.306  1.00  0.00     0.093 A 
ATOM     17  C   UNL     1     172.677 170.599 176.538  1.00  0.00     0.047 A 
ATOM     18  C   UNL     1     171.400 171.168 176.577  1.00  0.00     0.119 A 
BRANCH  14  19
ATOM     19  O   UNL     1     172.015 174.132 178.706  1.00  0.00    -0.507 OA
ATOM     20  H   UNL     1     172.617 174.417 179.470  1.00  0.00     0.293 HD
ENDBRANCH  14  19
BRANCH  18  21
ATOM     21  O   UNL     1     170.337 170.578 175.897  1.00  0.00    -0.508 OA
ATOM     22  H   UNL     1     170.483 170.034 175.055  1.00  0.00     0.293 HD
ENDBRANCH  18  21
ENDBRANCH  11  13
ENDBRANCH   2  11
TORSDOF 6
ENDMDL
MODEL 7
REMARK VINA RESULT:    -5.962      1.563      2.295
REMARK INTER + INTRA:          -8.564
REMARK INTER:                  -7.194
REMARK INTRA:                  -1.370
REMARK UNBOUND:                -1.033
REMARK SMILES O=C(C=Cc1ccc(O)cc1)c1ccc(O)cc1O
REMARK SMILES IDX 4 1 3 2 5 3 6 4 7 5 8 6 11 7 10 8 9 9 2 11 1 12 12 13 18 14
REMARK SMILES IDX 13 15 17 16 14 17 15 18 19 19 16 21
REMARK H PARENT 9 10 19 20 16 22
REMARK Flexibility Score: inf
ROOT
ATOM      1  C   UNL     1     172.384 171.367 176.615  1.00  0.00     0.012 C 
ATOM      2  C   UNL     1     172.985 171.654 175.449  1.00  0.00     0.053 C 
ENDROOT
BRANCH   1   3
ATOM      3  C   UNL     1     172.571 172.107 177.880  1.00  0.00    -0.025 A 
ATOM      4  C   UNL     1     171.594 173.000 178.354  1.00  0.00     0.012 A 
ATOM      5  C   UNL     1     171.813 173.727 179.528  1.00  0.00     0.047 A 
ATOM      6  C   UNL     1     173.021 173.586 180.227  1.00  0.00     0.115 A 
ATOM      7  C   UNL     1     173.788 171.993 178.568  1.00  0.00     0.012 A 
ATOM      8  C   UNL     1     174.006 172.721 179.742  1.00  0.00     0.047 A 
BRANCH   6   9
ATOM      9  O   UNL     1     173.250 174.304 181.399  1.00  0.00    -0.508 OA
ATOM     10  H   UNL     1     173.608 173.855 182.233  1.00  0.00     0.293 HD
ENDBRANCH   6   9
ENDBRANCH   1   3
BRANCH   2  11
ATOM     11  C   UNL     1     173.794 172.869 175.179  1.00  0.00     0.189 C 
ATOM     12  O   UNL     1     174.983 172.758 174.770  1.00  0.00    -0.289 OA
BRANCH  11  13
ATOM     13  C   UNL     1     173.243 174.225 175.416  1.00  0.00     0.064 A 
ATOM     14  C   UNL     1     173.908 175.125 176.276  1.00  0.00     0.130 A 
ATOM     15  C   UNL     1     172.041 174.627 174.805  1.00  0.00     0.020 A 
ATOM     16  C   UNL     1     173.372 176.401 176.505  1.00  0.00     0.093 A 
ATOM     17  C   UNL     1     171.517 175.900 175.038  1.00  0.00     0.047 A 
ATOM     18  C   UNL     1     172.181 176.791 175.888  1.00  0.00     0.119 A 
BRANCH  14  19
ATOM     19  O   UNL     1     175.107 174.759 176.889  1.00  0.00    -0.507 OA
ATOM     20  H   UNL     1     175.727 175.448 177.297  1.00  0.00     0.293 HD
ENDBRANCH  14  19
BRANCH  18  21
ATOM     21  O   UNL     1     171.666 178.063 176.127  1.00  0.00    -0.508 OA
ATOM     22  H   UNL     1     172.224 178.787 176.564  1.00  0.00     0.293 HD
ENDBRANCH  18  21
ENDBRANCH  11  13
ENDBRANCH   2  11
TORSDOF 6
ENDMDL
MODEL 8
REMARK VINA RESULT:    -5.918      2.859      4.868
REMARK INTER + INTRA:          -8.508
REMARK INTER:                  -7.141
REMARK INTRA:                  -1.367
REMARK UNBOUND:                -1.033
REMARK SMILES O=C(C=Cc1ccc(O)cc1)c1ccc(O)cc1O
REMARK SMILES IDX 4 1 3 2 5 3 6 4 7 5 8 6 11 7 10 8 9 9 2 11 1 12 12 13 18 14
REMARK SMILES IDX 13 15 17 16 14 17 15 18 19 19 16 21
REMARK H PARENT 9 10 19 20 16 22
REMARK Flexibility Score: inf
ROOT
ATOM      1  C   UNL     1     174.043 175.018 176.596  1.00  0.00     0.012 C 
ATOM      2  C   UNL     1     173.447 174.729 175.427  1.00  0.00     0.053 C 
ENDROOT
BRANCH   1   3
ATOM      3  C   UNL     1     173.832 174.293 177.866  1.00  0.00    -0.025 A 
ATOM      4  C   UNL     1     174.788 173.385 178.356  1.00  0.00     0.012 A 
ATOM      5  C   UNL     1     174.546 172.673 179.534  1.00  0.00     0.047 A 
ATOM      6  C   UNL     1     173.336 172.843 180.222  1.00  0.00     0.115 A 
ATOM      7  C   UNL     1     172.611 174.436 178.543  1.00  0.00     0.012 A 
ATOM      8  C   UNL     1     172.371 173.721 179.722  1.00  0.00     0.047 A 
BRANCH   6   9
ATOM      9  O   UNL     1     173.084 172.140 181.399  1.00  0.00    -0.508 OA
ATOM     10  H   UNL     1     173.785 172.054 182.124  1.00  0.00     0.293 HD
ENDBRANCH   6   9
ENDBRANCH   1   3
BRANCH   2  11
ATOM     11  C   UNL     1     172.620 173.525 175.161  1.00  0.00     0.189 C 
ATOM     12  O   UNL     1     171.438 173.652 174.738  1.00  0.00    -0.289 OA
BRANCH  11  13
ATOM     13  C   UNL     1     173.145 172.163 175.418  1.00  0.00     0.064 A 
ATOM     14  C   UNL     1     172.452 171.281 176.274  1.00  0.00     0.130 A 
ATOM     15  C   UNL     1     174.351 171.737 174.830  1.00  0.00     0.020 A 
ATOM     16  C   UNL     1     172.963 169.998 176.522  1.00  0.00     0.093 A 
ATOM     17  C   UNL     1     174.851 170.457 175.082  1.00  0.00     0.047 A 
ATOM     18  C   UNL     1     174.158 169.585 175.928  1.00  0.00     0.119 A 
BRANCH  14  19
ATOM     19  O   UNL     1     171.249 171.671 176.864  1.00  0.00    -0.507 OA
ATOM     20  H   UNL     1     170.798 172.545 176.622  1.00  0.00     0.293 HD
ENDBRANCH  14  19
BRANCH  18  21
ATOM     21  O   UNL     1     174.649 168.307 176.186  1.00  0.00    -0.508 OA
ATOM     22  H   UNL     1     174.037 167.500 176.212  1.00  0.00     0.293 HD
ENDBRANCH  18  21
ENDBRANCH  11  13
ENDBRANCH   2  11
TORSDOF 6
ENDMDL
MODEL 9
REMARK VINA RESULT:    -5.898      2.531      5.150
REMARK INTER + INTRA:          -8.482
REMARK INTER:                  -7.174
REMARK INTRA:                  -1.309
REMARK UNBOUND:                -1.033
REMARK SMILES O=C(C=Cc1ccc(O)cc1)c1ccc(O)cc1O
REMARK SMILES IDX 4 1 3 2 5 3 6 4 7 5 8 6 11 7 10 8 9 9 2 11 1 12 12 13 18 14
REMARK SMILES IDX 13 15 17 16 14 17 15 18 19 19 16 21
REMARK H PARENT 9 10 19 20 16 22
REMARK Flexibility Score: inf
ROOT
ATOM      1  C   UNL     1     170.844 171.967 176.399  1.00  0.00     0.012 C 
ATOM      2  C   UNL     1     170.732 172.921 177.338  1.00  0.00     0.053 C 
ENDROOT
BRANCH   1   3
ATOM      3  C   UNL     1     172.089 171.249 176.052  1.00  0.00    -0.025 A 
ATOM      4  C   UNL     1     172.504 170.118 176.777  1.00  0.00     0.012 A 
ATOM      5  C   UNL     1     173.710 169.483 176.464  1.00  0.00     0.047 A 
ATOM      6  C   UNL     1     174.523 169.987 175.439  1.00  0.00     0.115 A 
ATOM      7  C   UNL     1     172.922 171.766 175.049  1.00  0.00     0.012 A 
ATOM      8  C   UNL     1     174.128 171.129 174.737  1.00  0.00     0.047 A 
BRANCH   6   9
ATOM      9  O   UNL     1     175.727 169.362 175.116  1.00  0.00    -0.508 OA
ATOM     10  H   UNL     1     175.810 168.354 175.093  1.00  0.00     0.293 HD
ENDBRANCH   6   9
ENDBRANCH   1   3
BRANCH   2  11
ATOM     11  C   UNL     1     171.787 173.289 178.315  1.00  0.00     0.189 C 
ATOM     12  O   UNL     1     171.527 173.303 179.550  1.00  0.00    -0.289 OA
BRANCH  11  13
ATOM     13  C   UNL     1     173.144 173.681 177.866  1.00  0.00     0.064 A 
ATOM     14  C   UNL     1     174.280 172.990 178.339  1.00  0.00     0.130 A 
ATOM     15  C   UNL     1     173.322 174.759 176.978  1.00  0.00     0.020 A 
ATOM     16  C   UNL     1     175.562 173.377 177.918  1.00  0.00     0.093 A 
ATOM     17  C   UNL     1     174.602 175.135 176.564  1.00  0.00     0.047 A 
ATOM     18  C   UNL     1     175.724 174.445 177.032  1.00  0.00     0.119 A 
BRANCH  14  19
ATOM     19  O   UNL     1     174.135 171.912 179.212  1.00  0.00    -0.507 OA
ATOM     20  H   UNL     1     174.170 170.954 178.884  1.00  0.00     0.293 HD
ENDBRANCH  14  19
BRANCH  18  21
ATOM     21  O   UNL     1     177.005 174.812 176.626  1.00  0.00    -0.508 OA
ATOM     22  H   UNL     1     177.818 174.260 176.872  1.00  0.00     0.293 HD
ENDBRANCH  18  21
ENDBRANCH  11  13
ENDBRANCH   2  11
TORSDOF 6
ENDMDL
