MODEL 1
REMARK VINA RESULT:    12.015      0.000      0.000
REMARK INTER + INTRA:          14.093
REMARK INTER:                  14.122
REMARK INTRA:                  -0.029
REMARK UNBOUND:                -0.029
REMARK SMILES O=c1c(O)c(-c2ccc(O)c(O)c2)oc2cc(O)ccc12
REMARK SMILES IDX 5 1 3 2 2 3 1 4 21 5 15 6 14 7 16 8 17 9 19 10 20 11 6 12
REMARK SMILES IDX 7 13 8 14 9 15 13 16 11 17 10 18 12 20 4 22 18 24
REMARK H PARENT 10 19 12 21 4 23 18 25
REMARK Flexibility Score: inf
ROOT
ATOM      1  C   UNL     1      28.508  59.430   4.369  1.00  0.00     0.180 A 
ATOM      2  C   UNL     1      27.120  59.648   4.496  1.00  0.00     0.208 A 
ATOM      3  C   UNL     1      26.655  60.961   4.670  1.00  0.00     0.235 A 
ATOM      4  O   UNL     1      25.418  61.183   4.777  1.00  0.00    -0.285 OA
ATOM      5  C   UNL     1      27.578  62.017   4.732  1.00  0.00     0.069 A 
ATOM      6  C   UNL     1      28.952  61.714   4.619  1.00  0.00     0.142 A 
ATOM      7  O   UNL     1      29.350  60.458   4.447  1.00  0.00    -0.452 OA
ATOM      8  C   UNL     1      29.903  62.737   4.686  1.00  0.00     0.094 A 
ATOM      9  C   UNL     1      29.500  64.065   4.862  1.00  0.00     0.119 A 
ATOM     10  C   UNL     1      28.136  64.371   4.973  1.00  0.00     0.047 A 
ATOM     11  C   UNL     1      27.178  63.355   4.910  1.00  0.00     0.020 A 
ENDROOT
BRANCH   1  12
ATOM     12  C   UNL     1      29.075  58.077   4.164  1.00  0.00     0.025 A 
ATOM     13  C   UNL     1      30.154  57.654   4.956  1.00  0.00     0.016 A 
ATOM     14  C   UNL     1      30.718  56.390   4.766  1.00  0.00     0.051 A 
ATOM     15  C   UNL     1      30.224  55.537   3.774  1.00  0.00     0.157 A 
ATOM     16  C   UNL     1      28.593  57.226   3.153  1.00  0.00     0.062 A 
ATOM     17  C   UNL     1      29.161  55.958   2.959  1.00  0.00     0.158 A 
BRANCH  15  18
ATOM     18  O   UNL     1      30.806  54.280   3.610  1.00  0.00    -0.504 OA
ATOM     19  H   UNL     1      30.684  53.537   4.288  1.00  0.00     0.293 HD
ENDBRANCH  15  18
BRANCH  17  20
ATOM     20  O   UNL     1      28.673  55.117   1.960  1.00  0.00    -0.504 OA
ATOM     21  H   UNL     1      29.290  54.686   1.280  1.00  0.00     0.293 HD
ENDBRANCH  17  20
ENDBRANCH   1  12
BRANCH   2  22
ATOM     22  O   UNL     1      26.230  58.571   4.480  1.00  0.00    -0.502 OA
ATOM     23  H   UNL     1      26.177  57.902   5.238  1.00  0.00     0.293 HD
ENDBRANCH   2  22
BRANCH   9  24
ATOM     24  O   UNL     1      30.460  65.072   4.926  1.00  0.00    -0.508 OA
ATOM     25  H   UNL     1      31.436  64.862   5.100  1.00  0.00     0.293 HD
ENDBRANCH   9  24
TORSDOF 5
ENDMDL
MODEL 2
REMARK VINA RESULT:    12.294      3.357      9.079
REMARK INTER + INTRA:          14.421
REMARK INTER:                  14.404
REMARK INTRA:                   0.017
REMARK UNBOUND:                -0.029
REMARK SMILES O=c1c(O)c(-c2ccc(O)c(O)c2)oc2cc(O)ccc12
REMARK SMILES IDX 5 1 3 2 2 3 1 4 21 5 15 6 14 7 16 8 17 9 19 10 20 11 6 12
REMARK SMILES IDX 7 13 8 14 9 15 13 16 11 17 10 18 12 20 4 22 18 24
REMARK H PARENT 10 19 12 21 4 23 18 25
REMARK Flexibility Score: inf
ROOT
ATOM      1  C   UNL     1      27.718  65.444   5.124  1.00  0.00     0.180 A 
ATOM      2  C   UNL     1      29.082  65.207   4.856  1.00  0.00     0.208 A 
ATOM      3  C   UNL     1      29.510  63.888   4.644  1.00  0.00     0.235 A 
ATOM      4  O   UNL     1      30.724  63.651   4.393  1.00  0.00    -0.285 OA
ATOM      5  C   UNL     1      28.580  62.839   4.722  1.00  0.00     0.069 A 
ATOM      6  C   UNL     1      27.236  63.156   5.017  1.00  0.00     0.142 A 
ATOM      7  O   UNL     1      26.870  64.420   5.203  1.00  0.00    -0.452 OA
ATOM      8  C   UNL     1      26.281  62.139   5.114  1.00  0.00     0.094 A 
ATOM      9  C   UNL     1      26.650  60.804   4.916  1.00  0.00     0.119 A 
ATOM     10  C   UNL     1      27.982  60.484   4.621  1.00  0.00     0.047 A 
ATOM     11  C   UNL     1      28.945  61.494   4.524  1.00  0.00     0.020 A 
ENDROOT
BRANCH   1  12
ATOM     12  C   UNL     1      27.186  66.809   5.340  1.00  0.00     0.025 A 
ATOM     13  C   UNL     1      26.297  67.042   6.402  1.00  0.00     0.016 A 
ATOM     14  C   UNL     1      25.766  68.318   6.612  1.00  0.00     0.051 A 
ATOM     15  C   UNL     1      26.101  69.373   5.759  1.00  0.00     0.157 A 
ATOM     16  C   UNL     1      27.504  67.867   4.470  1.00  0.00     0.062 A 
ATOM     17  C   UNL     1      26.970  69.147   4.679  1.00  0.00     0.158 A 
BRANCH  15  18
ATOM     18  O   UNL     1      25.557  70.635   5.995  1.00  0.00    -0.504 OA
ATOM     19  H   UNL     1      25.014  71.127   5.296  1.00  0.00     0.293 HD
ENDBRANCH  15  18
BRANCH  17  20
ATOM     20  O   UNL     1      27.297  70.191   3.816  1.00  0.00    -0.504 OA
ATOM     21  H   UNL     1      27.487  70.029   2.833  1.00  0.00     0.293 HD
ENDBRANCH  17  20
ENDBRANCH   1  12
BRANCH   2  22
ATOM     22  O   UNL     1      29.994  66.266   4.833  1.00  0.00    -0.502 OA
ATOM     23  H   UNL     1      30.838  66.240   4.275  1.00  0.00     0.293 HD
ENDBRANCH   2  22
BRANCH   9  24
ATOM     24  O   UNL     1      25.686  59.804   5.015  1.00  0.00    -0.508 OA
ATOM     25  H   UNL     1      25.943  58.825   5.083  1.00  0.00     0.293 HD
ENDBRANCH   9  24
TORSDOF 5
ENDMDL
