MODEL 1
REMARK VINA RESULT:    -4.334      0.000      0.000
REMARK INTER + INTRA:          -9.130
REMARK INTER:                  -7.628
REMARK INTRA:                  -1.502
REMARK UNBOUND:                -1.502
REMARK SMILES CCCCCCCCCCCCCCC(=O)[O-]
REMARK SMILES IDX 9 1 10 2 11 3 12 4 13 5 14 6 15 7 16 8 17 9 8 10 7 11 6 12
REMARK SMILES IDX 5 13 4 14 3 15 2 16 1 17
REMARK H PARENT
REMARK Flexibility Score: inf
ROOT
ATOM      1  C   UNL     1      25.640  11.995  20.610  1.00  0.00     0.000 C 
ENDROOT
BRANCH   1   2
ATOM      2  C   UNL     1      24.609  12.798  19.797  1.00  0.00     0.000 C 
BRANCH   2   3
ATOM      3  C   UNL     1      23.192  12.209  19.889  1.00  0.00     0.000 C 
BRANCH   3   4
ATOM      4  C   UNL     1      23.170  10.828  20.566  1.00  0.00     0.000 C 
BRANCH   4   5
ATOM      5  C   UNL     1      22.290  10.799  21.830  1.00  0.00     0.006 C 
BRANCH   5   6
ATOM      6  C   UNL     1      23.076  10.742  23.149  1.00  0.00     0.053 C 
BRANCH   6   7
ATOM      7  C   UNL     1      23.022  12.040  23.894  1.00  0.00     0.041 C 
ATOM      8  O   UNL     1      22.613  13.084  23.320  1.00  0.00    -0.550 OA
ATOM      9  O   UNL     1      23.390  12.091  25.233  1.00  0.00    -0.550 OA
ENDBRANCH   6   7
ENDBRANCH   5   6
ENDBRANCH   4   5
ENDBRANCH   3   4
ENDBRANCH   2   3
ENDBRANCH   1   2
BRANCH   1  10
ATOM     10  C   UNL     1      26.018  12.688  21.930  1.00  0.00     0.000 C 
BRANCH  10  11
ATOM     11  C   UNL     1      26.834  11.777  22.861  1.00  0.00    -0.000 C 
BRANCH  11  12
ATOM     12  C   UNL     1      27.123  10.399  22.244  1.00  0.00    -0.000 C 
BRANCH  12  13
ATOM     13  C   UNL     1      28.628  10.085  22.109  1.00  0.00    -0.000 C 
BRANCH  13  14
ATOM     14  C   UNL     1      28.902   8.983  21.074  1.00  0.00    -0.000 C 
BRANCH  14  15
ATOM     15  C   UNL     1      30.010   9.408  20.098  1.00  0.00    -0.000 C 
BRANCH  15  16
ATOM     16  C   UNL     1      29.660   9.095  18.635  1.00  0.00    -0.003 C 
ATOM     17  C   UNL     1      28.311   9.678  18.211  1.00  0.00     0.004 C 
ENDBRANCH  15  16
ENDBRANCH  14  15
ENDBRANCH  13  14
ENDBRANCH  12  13
ENDBRANCH  11  12
ENDBRANCH  10  11
ENDBRANCH   1  10
TORSDOF 13
ENDMDL
MODEL 2
REMARK VINA RESULT:    -3.898      1.401      2.624
REMARK INTER + INTRA:          -8.362
REMARK INTER:                  -6.676
REMARK INTRA:                  -1.686
REMARK UNBOUND:                -1.502
REMARK SMILES CCCCCCCCCCCCCCC(=O)[O-]
REMARK SMILES IDX 9 1 10 2 11 3 12 4 13 5 14 6 15 7 16 8 17 9 8 10 7 11 6 12
REMARK SMILES IDX 5 13 4 14 3 15 2 16 1 17
REMARK H PARENT
REMARK Flexibility Score: inf
ROOT
ATOM      1  C   UNL     1      23.352  11.015  20.464  1.00  0.00     0.000 C 
ENDROOT
BRANCH   1   2
ATOM      2  C   UNL     1      22.289  11.268  21.547  1.00  0.00     0.000 C 
BRANCH   2   3
ATOM      3  C   UNL     1      22.243  10.154  22.606  1.00  0.00     0.000 C 
BRANCH   3   4
ATOM      4  C   UNL     1      22.971  10.544  23.904  1.00  0.00     0.000 C 
BRANCH   4   5
ATOM      5  C   UNL     1      23.062  12.069  24.099  1.00  0.00     0.006 C 
BRANCH   5   6
ATOM      6  C   UNL     1      24.475  12.586  24.414  1.00  0.00     0.053 C 
BRANCH   6   7
ATOM      7  C   UNL     1      24.839  13.775  23.580  1.00  0.00     0.041 C 
ATOM      8  O   UNL     1      26.034  13.961  23.227  1.00  0.00    -0.550 OA
ATOM      9  O   UNL     1      23.853  14.661  23.163  1.00  0.00    -0.550 OA
ENDBRANCH   6   7
ENDBRANCH   5   6
ENDBRANCH   4   5
ENDBRANCH   3   4
ENDBRANCH   2   3
ENDBRANCH   1   2
BRANCH   1  10
ATOM     10  C   UNL     1      24.377  12.157  20.366  1.00  0.00     0.000 C 
BRANCH  10  11
ATOM     11  C   UNL     1      25.826  11.661  20.498  1.00  0.00    -0.000 C 
BRANCH  11  12
ATOM     12  C   UNL     1      26.043  10.772  21.733  1.00  0.00    -0.000 C 
BRANCH  12  13
ATOM     13  C   UNL     1      27.496  10.781  22.255  1.00  0.00    -0.000 C 
BRANCH  13  14
ATOM     14  C   UNL     1      28.006   9.369  22.582  1.00  0.00    -0.000 C 
BRANCH  14  15
ATOM     15  C   UNL     1      29.317   9.072  21.839  1.00  0.00    -0.000 C 
BRANCH  15  16
ATOM     16  C   UNL     1      29.158   9.141  20.312  1.00  0.00    -0.003 C 
ATOM     17  C   UNL     1      30.480   9.403  19.591  1.00  0.00     0.004 C 
ENDBRANCH  15  16
ENDBRANCH  14  15
ENDBRANCH  13  14
ENDBRANCH  12  13
ENDBRANCH  11  12
ENDBRANCH  10  11
ENDBRANCH   1  10
TORSDOF 13
ENDMDL
MODEL 3
REMARK VINA RESULT:    -3.892      3.373      6.725
REMARK INTER + INTRA:          -8.352
REMARK INTER:                  -6.542
REMARK INTRA:                  -1.810
REMARK UNBOUND:                -1.502
REMARK SMILES CCCCCCCCCCCCCCC(=O)[O-]
REMARK SMILES IDX 9 1 10 2 11 3 12 4 13 5 14 6 15 7 16 8 17 9 8 10 7 11 6 12
REMARK SMILES IDX 5 13 4 14 3 15 2 16 1 17
REMARK H PARENT
REMARK Flexibility Score: inf
ROOT
ATOM      1  C   UNL     1      25.586  12.273  21.096  1.00  0.00     0.000 C 
ENDROOT
BRANCH   1   2
ATOM      2  C   UNL     1      26.708  11.936  22.093  1.00  0.00     0.000 C 
BRANCH   2   3
ATOM      3  C   UNL     1      26.859  10.424  22.327  1.00  0.00     0.000 C 
BRANCH   3   4
ATOM      4  C   UNL     1      28.229  10.054  22.921  1.00  0.00     0.000 C 
BRANCH   4   5
ATOM      5  C   UNL     1      29.334   9.954  21.852  1.00  0.00     0.006 C 
BRANCH   5   6
ATOM      6  C   UNL     1      28.997   9.023  20.676  1.00  0.00     0.053 C 
BRANCH   6   7
ATOM      7  C   UNL     1      29.759   9.383  19.438  1.00  0.00     0.041 C 
ATOM      8  O   UNL     1      30.968   9.725  19.514  1.00  0.00    -0.550 OA
ATOM      9  O   UNL     1      29.142   9.306  18.195  1.00  0.00    -0.550 OA
ENDBRANCH   6   7
ENDBRANCH   5   6
ENDBRANCH   4   5
ENDBRANCH   3   4
ENDBRANCH   2   3
ENDBRANCH   1   2
BRANCH   1  10
ATOM     10  C   UNL     1      24.627  11.093  20.868  1.00  0.00     0.000 C 
BRANCH  10  11
ATOM     11  C   UNL     1      23.250  11.543  20.352  1.00  0.00    -0.000 C 
BRANCH  11  12
ATOM     12  C   UNL     1      22.153  11.454  21.425  1.00  0.00    -0.000 C 
BRANCH  12  13
ATOM     13  C   UNL     1      22.315  10.248  22.377  1.00  0.00    -0.000 C 
BRANCH  13  14
ATOM     14  C   UNL     1      22.356  10.674  23.853  1.00  0.00    -0.000 C 
BRANCH  14  15
ATOM     15  C   UNL     1      23.786  10.591  24.408  1.00  0.00    -0.000 C 
BRANCH  15  16
ATOM     16  C   UNL     1      24.246  11.909  25.051  1.00  0.00    -0.003 C 
ATOM     17  C   UNL     1      23.786  13.140  24.270  1.00  0.00     0.004 C 
ENDBRANCH  15  16
ENDBRANCH  14  15
ENDBRANCH  13  14
ENDBRANCH  12  13
ENDBRANCH  11  12
ENDBRANCH  10  11
ENDBRANCH   1  10
TORSDOF 13
ENDMDL
MODEL 4
REMARK VINA RESULT:    -3.844      2.071      3.548
REMARK INTER + INTRA:          -8.268
REMARK INTER:                  -6.344
REMARK INTRA:                  -1.923
REMARK UNBOUND:                -1.502
REMARK SMILES CCCCCCCCCCCCCCC(=O)[O-]
REMARK SMILES IDX 9 1 10 2 11 3 12 4 13 5 14 6 15 7 16 8 17 9 8 10 7 11 6 12
REMARK SMILES IDX 5 13 4 14 3 15 2 16 1 17
REMARK H PARENT
REMARK Flexibility Score: inf
ROOT
ATOM      1  C   UNL     1      23.328  10.963  20.561  1.00  0.00     0.000 C 
ENDROOT
BRANCH   1   2
ATOM      2  C   UNL     1      22.351  11.225  21.721  1.00  0.00     0.000 C 
BRANCH   2   3
ATOM      3  C   UNL     1      22.694  10.414  22.981  1.00  0.00     0.000 C 
BRANCH   3   4
ATOM      4  C   UNL     1      23.432  11.252  24.039  1.00  0.00     0.000 C 
BRANCH   4   5
ATOM      5  C   UNL     1      24.213  10.386  25.045  1.00  0.00     0.006 C 
BRANCH   5   6
ATOM      6  C   UNL     1      25.332  11.132  25.791  1.00  0.00     0.053 C 
BRANCH   6   7
ATOM      7  C   UNL     1      26.500  10.244  26.088  1.00  0.00     0.041 C 
ATOM      8  O   UNL     1      26.431   9.007  25.859  1.00  0.00    -0.550 OA
ATOM      9  O   UNL     1      27.678  10.787  26.587  1.00  0.00    -0.550 OA
ENDBRANCH   6   7
ENDBRANCH   5   6
ENDBRANCH   4   5
ENDBRANCH   3   4
ENDBRANCH   2   3
ENDBRANCH   1   2
BRANCH   1  10
ATOM     10  C   UNL     1      24.100  12.226  20.145  1.00  0.00     0.000 C 
BRANCH  10  11
ATOM     11  C   UNL     1      25.599  12.134  20.471  1.00  0.00    -0.000 C 
BRANCH  11  12
ATOM     12  C   UNL     1      25.949  12.734  21.843  1.00  0.00    -0.000 C 
BRANCH  12  13
ATOM     13  C   UNL     1      26.987  11.907  22.632  1.00  0.00    -0.000 C 
BRANCH  13  14
ATOM     14  C   UNL     1      26.869  10.402  22.349  1.00  0.00    -0.000 C 
BRANCH  14  15
ATOM     15  C   UNL     1      28.134   9.657  22.803  1.00  0.00    -0.000 C 
BRANCH  15  16
ATOM     16  C   UNL     1      29.347   9.955  21.909  1.00  0.00    -0.003 C 
ATOM     17  C   UNL     1      29.307   9.194  20.583  1.00  0.00     0.004 C 
ENDBRANCH  15  16
ENDBRANCH  14  15
ENDBRANCH  13  14
ENDBRANCH  12  13
ENDBRANCH  11  12
ENDBRANCH  10  11
ENDBRANCH   1  10
TORSDOF 13
ENDMDL
MODEL 5
REMARK VINA RESULT:    -3.782      2.760      6.035
REMARK INTER + INTRA:          -8.158
REMARK INTER:                  -6.302
REMARK INTRA:                  -1.856
REMARK UNBOUND:                -1.502
REMARK SMILES CCCCCCCCCCCCCCC(=O)[O-]
REMARK SMILES IDX 9 1 10 2 11 3 12 4 13 5 14 6 15 7 16 8 17 9 8 10 7 11 6 12
REMARK SMILES IDX 5 13 4 14 3 15 2 16 1 17
REMARK H PARENT
REMARK Flexibility Score: inf
ROOT
ATOM      1  C   UNL     1      24.330  12.812  20.115  1.00  0.00     0.000 C 
ENDROOT
BRANCH   1   2
ATOM      2  C   UNL     1      25.506  11.843  20.325  1.00  0.00     0.000 C 
BRANCH   2   3
ATOM      3  C   UNL     1      26.235  12.073  21.659  1.00  0.00     0.000 C 
BRANCH   3   4
ATOM      4  C   UNL     1      26.528  10.759  22.404  1.00  0.00     0.000 C 
BRANCH   4   5
ATOM      5  C   UNL     1      27.972  10.266  22.192  1.00  0.00     0.006 C 
BRANCH   5   6
ATOM      6  C   UNL     1      28.312   8.962  22.932  1.00  0.00     0.053 C 
BRANCH   6   7
ATOM      7  C   UNL     1      28.921   9.218  24.275  1.00  0.00     0.041 C 
ATOM      8  O   UNL     1      28.187   9.472  25.267  1.00  0.00    -0.550 OA
ATOM      9  O   UNL     1      30.299   9.144  24.441  1.00  0.00    -0.550 OA
ENDBRANCH   6   7
ENDBRANCH   5   6
ENDBRANCH   4   5
ENDBRANCH   3   4
ENDBRANCH   2   3
ENDBRANCH   1   2
BRANCH   1  10
ATOM     10  C   UNL     1      22.965  12.128  20.296  1.00  0.00     0.000 C 
BRANCH  10  11
ATOM     11  C   UNL     1      23.088  10.608  20.487  1.00  0.00    -0.000 C 
BRANCH  11  12
ATOM     12  C   UNL     1      22.608  10.140  21.870  1.00  0.00    -0.000 C 
BRANCH  12  13
ATOM     13  C   UNL     1      22.193  11.297  22.805  1.00  0.00    -0.000 C 
BRANCH  13  14
ATOM     14  C   UNL     1      23.187  11.497  23.959  1.00  0.00    -0.000 C 
BRANCH  14  15
ATOM     15  C   UNL     1      23.060  12.907  24.555  1.00  0.00    -0.000 C 
BRANCH  15  16
ATOM     16  C   UNL     1      23.940  13.937  23.829  1.00  0.00    -0.003 C 
ATOM     17  C   UNL     1      25.305  14.120  24.491  1.00  0.00     0.004 C 
ENDBRANCH  15  16
ENDBRANCH  14  15
ENDBRANCH  13  14
ENDBRANCH  12  13
ENDBRANCH  11  12
ENDBRANCH  10  11
ENDBRANCH   1  10
TORSDOF 13
ENDMDL
MODEL 6
REMARK VINA RESULT:    -3.780      2.954      5.749
REMARK INTER + INTRA:          -8.156
REMARK INTER:                  -5.972
REMARK INTRA:                  -2.184
REMARK UNBOUND:                -1.502
REMARK SMILES CCCCCCCCCCCCCCC(=O)[O-]
REMARK SMILES IDX 9 1 10 2 11 3 12 4 13 5 14 6 15 7 16 8 17 9 8 10 7 11 6 12
REMARK SMILES IDX 5 13 4 14 3 15 2 16 1 17
REMARK H PARENT
REMARK Flexibility Score: inf
ROOT
ATOM      1  C   UNL     1      23.770  13.163  24.416  1.00  0.00     0.000 C 
ENDROOT
BRANCH   1   2
ATOM      2  C   UNL     1      24.897  13.821  23.601  1.00  0.00     0.000 C 
BRANCH   2   3
ATOM      3  C   UNL     1      26.258  13.138  23.810  1.00  0.00     0.000 C 
BRANCH   3   4
ATOM      4  C   UNL     1      26.727  12.366  22.565  1.00  0.00     0.000 C 
BRANCH   4   5
ATOM      5  C   UNL     1      27.058  10.892  22.869  1.00  0.00     0.006 C 
BRANCH   5   6
ATOM      6  C   UNL     1      27.666  10.121  21.686  1.00  0.00     0.053 C 
BRANCH   6   7
ATOM      7  C   UNL     1      29.083   9.712  21.949  1.00  0.00     0.041 C 
ATOM      8  O   UNL     1      29.575   9.835  23.102  1.00  0.00    -0.550 OA
ATOM      9  O   UNL     1      29.849   9.162  20.929  1.00  0.00    -0.550 OA
ENDBRANCH   6   7
ENDBRANCH   5   6
ENDBRANCH   4   5
ENDBRANCH   3   4
ENDBRANCH   2   3
ENDBRANCH   1   2
BRANCH   1  10
ATOM     10  C   UNL     1      24.247  11.916  25.179  1.00  0.00     0.000 C 
BRANCH  10  11
ATOM     11  C   UNL     1      23.617  10.620  24.642  1.00  0.00    -0.000 C 
BRANCH  11  12
ATOM     12  C   UNL     1      22.247  10.851  23.984  1.00  0.00    -0.000 C 
BRANCH  12  13
ATOM     13  C   UNL     1      22.161  10.326  22.535  1.00  0.00    -0.000 C 
BRANCH  13  14
ATOM     14  C   UNL     1      23.511  10.404  21.806  1.00  0.00    -0.000 C 
BRANCH  14  15
ATOM     15  C   UNL     1      23.353  11.059  20.425  1.00  0.00    -0.000 C 
BRANCH  15  16
ATOM     16  C   UNL     1      23.385  12.594  20.493  1.00  0.00    -0.003 C 
ATOM     17  C   UNL     1      24.483  13.202  19.620  1.00  0.00     0.004 C 
ENDBRANCH  15  16
ENDBRANCH  14  15
ENDBRANCH  13  14
ENDBRANCH  12  13
ENDBRANCH  11  12
ENDBRANCH  10  11
ENDBRANCH   1  10
TORSDOF 13
ENDMDL
MODEL 7
REMARK VINA RESULT:    -3.768      2.923      5.796
REMARK INTER + INTRA:          -8.134
REMARK INTER:                  -6.168
REMARK INTRA:                  -1.966
REMARK UNBOUND:                -1.502
REMARK SMILES CCCCCCCCCCCCCCC(=O)[O-]
REMARK SMILES IDX 9 1 10 2 11 3 12 4 13 5 14 6 15 7 16 8 17 9 8 10 7 11 6 12
REMARK SMILES IDX 5 13 4 14 3 15 2 16 1 17
REMARK H PARENT
REMARK Flexibility Score: inf
ROOT
ATOM      1  C   UNL     1      23.019  12.111  20.436  1.00  0.00     0.000 C 
ENDROOT
BRANCH   1   2
ATOM      2  C   UNL     1      24.374  12.637  19.932  1.00  0.00     0.000 C 
BRANCH   2   3
ATOM      3  C   UNL     1      25.569  11.912  20.573  1.00  0.00     0.000 C 
BRANCH   3   4
ATOM      4  C   UNL     1      26.047  12.594  21.867  1.00  0.00     0.000 C 
BRANCH   4   5
ATOM      5  C   UNL     1      27.173  11.813  22.570  1.00  0.00     0.006 C 
BRANCH   5   6
ATOM      6  C   UNL     1      27.157  10.299  22.303  1.00  0.00     0.053 C 
BRANCH   6   7
ATOM      7  C   UNL     1      28.505   9.783  21.905  1.00  0.00     0.041 C 
ATOM      8  O   UNL     1      29.434   9.715  22.753  1.00  0.00    -0.550 OA
ATOM      9  O   UNL     1      28.727   9.344  20.605  1.00  0.00    -0.550 OA
ENDBRANCH   6   7
ENDBRANCH   5   6
ENDBRANCH   4   5
ENDBRANCH   3   4
ENDBRANCH   2   3
ENDBRANCH   1   2
BRANCH   1  10
ATOM     10  C   UNL     1      23.047  10.602  20.730  1.00  0.00     0.000 C 
BRANCH  10  11
ATOM     11  C   UNL     1      22.640  10.275  22.176  1.00  0.00    -0.000 C 
BRANCH  11  12
ATOM     12  C   UNL     1      22.630  11.514  23.087  1.00  0.00    -0.000 C 
BRANCH  12  13
ATOM     13  C   UNL     1      22.972  11.200  24.560  1.00  0.00    -0.000 C 
BRANCH  13  14
ATOM     14  C   UNL     1      24.408  10.677  24.725  1.00  0.00    -0.000 C 
BRANCH  14  15
ATOM     15  C   UNL     1      24.951  10.997  26.126  1.00  0.00    -0.000 C 
BRANCH  15  16
ATOM     16  C   UNL     1      26.232  11.845  26.082  1.00  0.00    -0.003 C 
ATOM     17  C   UNL     1      25.962  13.307  25.723  1.00  0.00     0.004 C 
ENDBRANCH  15  16
ENDBRANCH  14  15
ENDBRANCH  13  14
ENDBRANCH  12  13
ENDBRANCH  11  12
ENDBRANCH  10  11
ENDBRANCH   1  10
TORSDOF 13
ENDMDL
MODEL 8
REMARK VINA RESULT:    -3.708      3.094      5.048
REMARK INTER + INTRA:          -8.028
REMARK INTER:                  -5.604
REMARK INTRA:                  -2.423
REMARK UNBOUND:                -1.502
REMARK SMILES CCCCCCCCCCCCCCC(=O)[O-]
REMARK SMILES IDX 9 1 10 2 11 3 12 4 13 5 14 6 15 7 16 8 17 9 8 10 7 11 6 12
REMARK SMILES IDX 5 13 4 14 3 15 2 16 1 17
REMARK H PARENT
REMARK Flexibility Score: inf
ROOT
ATOM      1  C   UNL     1      23.114  10.629  21.159  1.00  0.00     0.000 C 
ENDROOT
BRANCH   1   2
ATOM      2  C   UNL     1      22.187  11.112  22.288  1.00  0.00     0.000 C 
BRANCH   2   3
ATOM      3  C   UNL     1      22.341  10.290  23.577  1.00  0.00     0.000 C 
BRANCH   3   4
ATOM      4  C   UNL     1      23.164  11.025  24.650  1.00  0.00     0.000 C 
BRANCH   4   5
ATOM      5  C   UNL     1      24.295  10.156  25.231  1.00  0.00     0.006 C 
BRANCH   5   6
ATOM      6  C   UNL     1      25.317  10.928  26.080  1.00  0.00     0.053 C 
BRANCH   6   7
ATOM      7  C   UNL     1      26.512  10.093  26.421  1.00  0.00     0.041 C 
ATOM      8  O   UNL     1      26.551   9.455  27.506  1.00  0.00    -0.550 OA
ATOM      9  O   UNL     1      27.570   9.992  25.525  1.00  0.00    -0.550 OA
ENDBRANCH   6   7
ENDBRANCH   5   6
ENDBRANCH   4   5
ENDBRANCH   3   4
ENDBRANCH   2   3
ENDBRANCH   1   2
BRANCH   1  10
ATOM     10  C   UNL     1      23.732  11.793  20.367  1.00  0.00     0.000 C 
BRANCH  10  11
ATOM     11  C   UNL     1      25.263  11.846  20.494  1.00  0.00    -0.000 C 
BRANCH  11  12
ATOM     12  C   UNL     1      25.791  11.029  21.685  1.00  0.00    -0.000 C 
BRANCH  12  13
ATOM     13  C   UNL     1      26.555  11.876  22.726  1.00  0.00    -0.000 C 
BRANCH  13  14
ATOM     14  C   UNL     1      26.244  13.375  22.597  1.00  0.00    -0.000 C 
BRANCH  14  15
ATOM     15  C   UNL     1      25.394  13.863  23.780  1.00  0.00    -0.000 C 
BRANCH  15  16
ATOM     16  C   UNL     1      24.014  14.378  23.342  1.00  0.00    -0.003 C 
ATOM     17  C   UNL     1      24.063  15.155  22.027  1.00  0.00     0.004 C 
ENDBRANCH  15  16
ENDBRANCH  14  15
ENDBRANCH  13  14
ENDBRANCH  12  13
ENDBRANCH  11  12
ENDBRANCH  10  11
ENDBRANCH   1  10
TORSDOF 13
ENDMDL
MODEL 9
REMARK VINA RESULT:    -3.673      2.767      6.134
REMARK INTER + INTRA:          -7.967
REMARK INTER:                  -5.483
REMARK INTRA:                  -2.484
REMARK UNBOUND:                -1.502
REMARK SMILES CCCCCCCCCCCCCCC(=O)[O-]
REMARK SMILES IDX 9 1 10 2 11 3 12 4 13 5 14 6 15 7 16 8 17 9 8 10 7 11 6 12
REMARK SMILES IDX 5 13 4 14 3 15 2 16 1 17
REMARK H PARENT
REMARK Flexibility Score: inf
ROOT
ATOM      1  C   UNL     1      22.210  11.419  22.604  1.00  0.00     0.000 C 
ENDROOT
BRANCH   1   2
ATOM      2  C   UNL     1      23.103  11.706  23.824  1.00  0.00     0.000 C 
BRANCH   2   3
ATOM      3  C   UNL     1      24.530  11.159  23.658  1.00  0.00     0.000 C 
BRANCH   3   4
ATOM      4  C   UNL     1      25.600  12.256  23.782  1.00  0.00     0.000 C 
BRANCH   4   5
ATOM      5  C   UNL     1      26.648  12.196  22.655  1.00  0.00     0.006 C 
BRANCH   5   6
ATOM      6  C   UNL     1      26.690  10.858  21.898  1.00  0.00     0.053 C 
BRANCH   6   7
ATOM      7  C   UNL     1      27.854  10.012  22.314  1.00  0.00     0.041 C 
ATOM      8  O   UNL     1      28.463   9.310  21.464  1.00  0.00    -0.550 OA
ATOM      9  O   UNL     1      28.287  10.025  23.634  1.00  0.00    -0.550 OA
ENDBRANCH   6   7
ENDBRANCH   5   6
ENDBRANCH   4   5
ENDBRANCH   3   4
ENDBRANCH   2   3
ENDBRANCH   1   2
BRANCH   1  10
ATOM     10  C   UNL     1      22.761  10.284  21.726  1.00  0.00     0.000 C 
BRANCH  10  11
ATOM     11  C   UNL     1      23.334  10.793  20.394  1.00  0.00    -0.000 C 
BRANCH  11  12
ATOM     12  C   UNL     1      22.906  12.235  20.073  1.00  0.00    -0.000 C 
BRANCH  12  13
ATOM     13  C   UNL     1      24.091  13.210  19.911  1.00  0.00    -0.000 C 
BRANCH  13  14
ATOM     14  C   UNL     1      24.101  14.299  20.996  1.00  0.00    -0.000 C 
BRANCH  14  15
ATOM     15  C   UNL     1      22.671  14.737  21.347  1.00  0.00    -0.000 C 
BRANCH  15  16
ATOM     16  C   UNL     1      22.602  15.518  22.669  1.00  0.00    -0.003 C 
ATOM     17  C   UNL     1      23.888  15.410  23.489  1.00  0.00     0.004 C 
ENDBRANCH  15  16
ENDBRANCH  14  15
ENDBRANCH  13  14
ENDBRANCH  12  13
ENDBRANCH  11  12
ENDBRANCH  10  11
ENDBRANCH   1  10
TORSDOF 13
ENDMDL
