MODEL 1
REMARK VINA RESULT:    -3.459      0.000      0.000
REMARK INTER + INTRA:          -3.797
REMARK INTER:                  -3.762
REMARK INTRA:                  -0.035
REMARK UNBOUND:                -0.035
REMARK SMILES O=C([O-])c1ccc(O)cc1
REMARK SMILES IDX 4 1 5 2 10 3 6 4 9 5 7 6 2 7 1 8 3 9 8 10
REMARK H PARENT 8 11
REMARK Flexibility Score: inf
ROOT
ATOM      1  C   UNL     1       8.143  17.527  39.636  1.00  0.00    -0.003 A 
ATOM      2  C   UNL     1       8.607  16.202  39.557  1.00  0.00     0.014 A 
ATOM      3  C   UNL     1       8.034  18.283  38.454  1.00  0.00     0.014 A 
ATOM      4  C   UNL     1       8.956  15.646  38.322  1.00  0.00     0.047 A 
ATOM      5  C   UNL     1       8.384  17.724  37.221  1.00  0.00     0.047 A 
ATOM      6  C   UNL     1       8.845  16.406  37.151  1.00  0.00     0.115 A 
ENDROOT
BRANCH   1   7
ATOM      7  C   UNL     1       7.773  18.113  40.944  1.00  0.00     0.071 C 
ATOM      8  O   UNL     1       7.696  19.362  41.086  1.00  0.00    -0.545 OA
ATOM      9  O   UNL     1       7.507  17.292  42.033  1.00  0.00    -0.545 OA
ENDBRANCH   1   7
BRANCH   6  10
ATOM     10  O   UNL     1       9.191  15.862  35.916  1.00  0.00    -0.508 OA
ATOM     11  H   UNL     1       9.733  16.387  35.239  1.00  0.00     0.293 HD
ENDBRANCH   6  10
TORSDOF 2
ENDMDL
MODEL 2
REMARK VINA RESULT:    -3.431      0.135      1.538
REMARK INTER + INTRA:          -3.767
REMARK INTER:                  -3.732
REMARK INTRA:                  -0.035
REMARK UNBOUND:                -0.035
REMARK SMILES O=C([O-])c1ccc(O)cc1
REMARK SMILES IDX 4 1 5 2 10 3 6 4 9 5 7 6 2 7 1 8 3 9 8 10
REMARK H PARENT 8 11
REMARK Flexibility Score: inf
ROOT
ATOM      1  C   UNL     1       8.151  17.537  39.768  1.00  0.00    -0.003 A 
ATOM      2  C   UNL     1       8.069  18.306  38.593  1.00  0.00     0.014 A 
ATOM      3  C   UNL     1       8.600  16.206  39.683  1.00  0.00     0.014 A 
ATOM      4  C   UNL     1       8.428  17.753  37.359  1.00  0.00     0.047 A 
ATOM      5  C   UNL     1       8.957  15.658  38.447  1.00  0.00     0.047 A 
ATOM      6  C   UNL     1       8.872  16.427  37.284  1.00  0.00     0.115 A 
ENDROOT
BRANCH   1   7
ATOM      7  C   UNL     1       7.772  18.124  41.072  1.00  0.00     0.071 C 
ATOM      8  O   UNL     1       7.696  19.374  41.214  1.00  0.00    -0.545 OA
ATOM      9  O   UNL     1       7.494  17.305  42.159  1.00  0.00    -0.545 OA
ENDBRANCH   1   7
BRANCH   6  10
ATOM     10  O   UNL     1       9.232  15.867  36.059  1.00  0.00    -0.508 OA
ATOM     11  H   UNL     1       9.292  16.428  35.217  1.00  0.00     0.293 HD
ENDBRANCH   6  10
TORSDOF 2
ENDMDL
MODEL 3
REMARK VINA RESULT:    -2.769     22.481     24.074
REMARK INTER + INTRA:          -3.047
REMARK INTER:                  -3.020
REMARK INTRA:                  -0.027
REMARK UNBOUND:                -0.035
REMARK SMILES O=C([O-])c1ccc(O)cc1
REMARK SMILES IDX 4 1 5 2 10 3 6 4 9 5 7 6 2 7 1 8 3 9 8 10
REMARK H PARENT 8 11
REMARK Flexibility Score: inf
ROOT
ATOM      1  C   UNL     1      25.323   4.993  27.330  1.00  0.00    -0.003 A 
ATOM      2  C   UNL     1      25.955   3.903  27.954  1.00  0.00     0.014 A 
ATOM      3  C   UNL     1      24.852   6.055  28.124  1.00  0.00     0.014 A 
ATOM      4  C   UNL     1      26.112   3.876  29.343  1.00  0.00     0.047 A 
ATOM      5  C   UNL     1      25.011   6.024  29.513  1.00  0.00     0.047 A 
ATOM      6  C   UNL     1      25.639   4.937  30.126  1.00  0.00     0.115 A 
ENDROOT
BRANCH   1   7
ATOM      7  C   UNL     1      25.159   5.019  25.859  1.00  0.00     0.071 C 
ATOM      8  O   UNL     1      25.937   5.701  25.141  1.00  0.00    -0.545 OA
ATOM      9  O   UNL     1      24.143   4.292  25.251  1.00  0.00    -0.545 OA
ENDBRANCH   1   7
BRANCH   6  10
ATOM     10  O   UNL     1      25.790   4.920  31.511  1.00  0.00    -0.508 OA
ATOM     11  H   UNL     1      26.584   5.359  31.963  1.00  0.00     0.293 HD
ENDBRANCH   6  10
TORSDOF 2
ENDMDL
MODEL 4
REMARK VINA RESULT:    -2.603      1.099      4.588
REMARK INTER + INTRA:          -2.866
REMARK INTER:                  -2.839
REMARK INTRA:                  -0.027
REMARK UNBOUND:                -0.035
REMARK SMILES O=C([O-])c1ccc(O)cc1
REMARK SMILES IDX 4 1 5 2 10 3 6 4 9 5 7 6 2 7 1 8 3 9 8 10
REMARK H PARENT 8 11
REMARK Flexibility Score: inf
ROOT
ATOM      1  C   UNL     1       8.442  16.954  37.005  1.00  0.00    -0.003 A 
ATOM      2  C   UNL     1       7.893  18.162  37.469  1.00  0.00     0.014 A 
ATOM      3  C   UNL     1       8.870  15.995  37.941  1.00  0.00     0.014 A 
ATOM      4  C   UNL     1       7.774  18.405  38.841  1.00  0.00     0.047 A 
ATOM      5  C   UNL     1       8.750  16.241  39.312  1.00  0.00     0.047 A 
ATOM      6  C   UNL     1       8.203  17.445  39.766  1.00  0.00     0.115 A 
ENDROOT
BRANCH   1   7
ATOM      7  C   UNL     1       8.566  16.699  35.552  1.00  0.00     0.071 C 
ATOM      8  O   UNL     1       9.656  16.913  34.956  1.00  0.00    -0.545 OA
ATOM      9  O   UNL     1       7.483  16.220  34.826  1.00  0.00    -0.545 OA
ENDBRANCH   1   7
BRANCH   6  10
ATOM     10  O   UNL     1       8.090  17.677  41.136  1.00  0.00    -0.508 OA
ATOM     11  H   UNL     1       7.387  17.208  41.696  1.00  0.00     0.293 HD
ENDBRANCH   6  10
TORSDOF 2
ENDMDL
MODEL 5
REMARK VINA RESULT:    -2.592      0.861      4.297
REMARK INTER + INTRA:          -2.854
REMARK INTER:                  -2.819
REMARK INTRA:                  -0.035
REMARK UNBOUND:                -0.035
REMARK SMILES O=C([O-])c1ccc(O)cc1
REMARK SMILES IDX 4 1 5 2 10 3 6 4 9 5 7 6 2 7 1 8 3 9 8 10
REMARK H PARENT 8 11
REMARK Flexibility Score: inf
ROOT
ATOM      1  C   UNL     1       8.641  16.891  37.638  1.00  0.00    -0.003 A 
ATOM      2  C   UNL     1       8.833  15.962  38.676  1.00  0.00     0.014 A 
ATOM      3  C   UNL     1       8.150  18.172  37.951  1.00  0.00     0.014 A 
ATOM      4  C   UNL     1       8.541  16.308  39.999  1.00  0.00     0.047 A 
ATOM      5  C   UNL     1       7.859  18.515  39.275  1.00  0.00     0.047 A 
ATOM      6  C   UNL     1       8.052  17.586  40.301  1.00  0.00     0.115 A 
ENDROOT
BRANCH   1   7
ATOM      7  C   UNL     1       8.951  16.522  36.239  1.00  0.00     0.071 C 
ATOM      8  O   UNL     1       8.979  15.312  35.887  1.00  0.00    -0.545 OA
ATOM      9  O   UNL     1       9.216  17.505  35.294  1.00  0.00    -0.545 OA
ENDBRANCH   1   7
BRANCH   6  10
ATOM     10  O   UNL     1       7.757  17.941  41.616  1.00  0.00    -0.508 OA
ATOM     11  H   UNL     1       7.631  17.241  42.338  1.00  0.00     0.293 HD
ENDBRANCH   6  10
TORSDOF 2
ENDMDL
MODEL 6
REMARK VINA RESULT:    -2.424     23.235     24.588
REMARK INTER + INTRA:          -2.672
REMARK INTER:                  -2.637
REMARK INTRA:                  -0.035
REMARK UNBOUND:                -0.035
REMARK SMILES O=C([O-])c1ccc(O)cc1
REMARK SMILES IDX 4 1 5 2 10 3 6 4 9 5 7 6 2 7 1 8 3 9 8 10
REMARK H PARENT 8 11
REMARK Flexibility Score: inf
ROOT
ATOM      1  C   UNL     1      25.381   4.887  27.179  1.00  0.00    -0.003 A 
ATOM      2  C   UNL     1      24.588   5.799  26.459  1.00  0.00     0.014 A 
ATOM      3  C   UNL     1      26.125   3.924  26.473  1.00  0.00     0.014 A 
ATOM      4  C   UNL     1      24.541   5.747  25.062  1.00  0.00     0.047 A 
ATOM      5  C   UNL     1      26.075   3.875  25.076  1.00  0.00     0.047 A 
ATOM      6  C   UNL     1      25.284   4.784  24.368  1.00  0.00     0.115 A 
ENDROOT
BRANCH   1   7
ATOM      7  C   UNL     1      25.429   4.944  28.657  1.00  0.00     0.071 C 
ATOM      8  O   UNL     1      24.999   5.956  29.272  1.00  0.00    -0.545 OA
ATOM      9  O   UNL     1      25.950   3.882  29.386  1.00  0.00    -0.545 OA
ENDBRANCH   1   7
BRANCH   6  10
ATOM     10  O   UNL     1      25.244   4.723  22.976  1.00  0.00    -0.508 OA
ATOM     11  H   UNL     1      24.401   4.948  22.460  1.00  0.00     0.293 HD
ENDBRANCH   6  10
TORSDOF 2
ENDMDL
MODEL 7
REMARK VINA RESULT:    -2.392      1.050      4.382
REMARK INTER + INTRA:          -2.636
REMARK INTER:                  -2.603
REMARK INTRA:                  -0.034
REMARK UNBOUND:                -0.035
REMARK SMILES O=C([O-])c1ccc(O)cc1
REMARK SMILES IDX 4 1 5 2 10 3 6 4 9 5 7 6 2 7 1 8 3 9 8 10
REMARK H PARENT 8 11
REMARK Flexibility Score: inf
ROOT
ATOM      1  C   UNL     1       8.463  17.157  38.614  1.00  0.00    -0.003 A 
ATOM      2  C   UNL     1       8.014  18.448  38.941  1.00  0.00     0.014 A 
ATOM      3  C   UNL     1       8.536  16.182  39.627  1.00  0.00     0.014 A 
ATOM      4  C   UNL     1       7.646  18.758  40.255  1.00  0.00     0.047 A 
ATOM      5  C   UNL     1       8.168  16.496  40.938  1.00  0.00     0.047 A 
ATOM      6  C   UNL     1       7.723  17.782  41.256  1.00  0.00     0.115 A 
ENDROOT
BRANCH   1   7
ATOM      7  C   UNL     1       8.852  16.831  37.224  1.00  0.00     0.071 C 
ATOM      8  O   UNL     1       9.322  17.721  36.465  1.00  0.00    -0.545 OA
ATOM      9  O   UNL     1       8.703  15.539  36.736  1.00  0.00    -0.545 OA
ENDBRANCH   1   7
BRANCH   6  10
ATOM     10  O   UNL     1       7.359  18.081  42.568  1.00  0.00    -0.508 OA
ATOM     11  H   UNL     1       7.430  19.022  42.936  1.00  0.00     0.293 HD
ENDBRANCH   6  10
TORSDOF 2
ENDMDL
MODEL 8
REMARK VINA RESULT:    -2.319      1.734      4.733
REMARK INTER + INTRA:          -2.558
REMARK INTER:                  -2.522
REMARK INTRA:                  -0.036
REMARK UNBOUND:                -0.035
REMARK SMILES O=C([O-])c1ccc(O)cc1
REMARK SMILES IDX 4 1 5 2 10 3 6 4 9 5 7 6 2 7 1 8 3 9 8 10
REMARK H PARENT 8 11
REMARK Flexibility Score: inf
ROOT
ATOM      1  C   UNL     1       8.126  17.525  39.795  1.00  0.00    -0.003 A 
ATOM      2  C   UNL     1       7.751  18.877  39.706  1.00  0.00     0.014 A 
ATOM      3  C   UNL     1       7.934  16.842  41.010  1.00  0.00     0.014 A 
ATOM      4  C   UNL     1       7.197  19.532  40.810  1.00  0.00     0.047 A 
ATOM      5  C   UNL     1       7.380  17.500  42.112  1.00  0.00     0.047 A 
ATOM      6  C   UNL     1       7.010  18.844  42.016  1.00  0.00     0.115 A 
ENDROOT
BRANCH   1   7
ATOM      7  C   UNL     1       8.713  16.834  38.624  1.00  0.00     0.071 C 
ATOM      8  O   UNL     1       9.067  15.627  38.705  1.00  0.00    -0.545 OA
ATOM      9  O   UNL     1       8.880  17.507  37.421  1.00  0.00    -0.545 OA
ENDBRANCH   1   7
BRANCH   6  10
ATOM     10  O   UNL     1       6.459  19.487  43.123  1.00  0.00    -0.508 OA
ATOM     11  H   UNL     1       6.553  20.488  43.255  1.00  0.00     0.293 HD
ENDBRANCH   6  10
TORSDOF 2
ENDMDL
MODEL 9
REMARK VINA RESULT:    -2.185      3.395      5.079
REMARK INTER + INTRA:          -2.412
REMARK INTER:                  -2.377
REMARK INTRA:                  -0.035
REMARK UNBOUND:                -0.035
REMARK SMILES O=C([O-])c1ccc(O)cc1
REMARK SMILES IDX 4 1 5 2 10 3 6 4 9 5 7 6 2 7 1 8 3 9 8 10
REMARK H PARENT 8 11
REMARK Flexibility Score: inf
ROOT
ATOM      1  C   UNL     1       7.257  16.797  42.199  1.00  0.00    -0.003 A 
ATOM      2  C   UNL     1       7.796  17.711  41.276  1.00  0.00     0.014 A 
ATOM      3  C   UNL     1       6.297  17.247  43.124  1.00  0.00     0.014 A 
ATOM      4  C   UNL     1       7.384  19.047  41.280  1.00  0.00     0.047 A 
ATOM      5  C   UNL     1       5.888  18.584  43.125  1.00  0.00     0.047 A 
ATOM      6  C   UNL     1       6.429  19.487  42.205  1.00  0.00     0.115 A 
ENDROOT
BRANCH   1   7
ATOM      7  C   UNL     1       7.695  15.384  42.193  1.00  0.00     0.071 C 
ATOM      8  O   UNL     1       8.796  15.057  41.674  1.00  0.00    -0.545 OA
ATOM      9  O   UNL     1       6.898  14.397  42.760  1.00  0.00    -0.545 OA
ENDBRANCH   1   7
BRANCH   6  10
ATOM     10  O   UNL     1       6.011  20.817  42.218  1.00  0.00    -0.508 OA
ATOM     11  H   UNL     1       6.244  21.452  41.463  1.00  0.00     0.293 HD
ENDBRANCH   6  10
TORSDOF 2
ENDMDL
