MODEL 1
REMARK VINA RESULT:    -3.306      0.000      0.000
REMARK INTER + INTRA:          -4.531
REMARK INTER:                  -4.659
REMARK INTRA:                   0.127
REMARK UNBOUND:                 0.127
REMARK SMILES CC1=CCC(=C(C)C)C(=O)CC(C)=CCC1
REMARK SMILES IDX 12 1 14 2 13 3 15 4 16 5 2 6 1 7 3 8 11 10 9 11 10 12 5 13
REMARK SMILES IDX 6 14 7 15 8 16 4 17
REMARK H PARENT
REMARK Flexibility Score: 60.00
ROOT
ATOM      1  C   UNL     1     165.802 199.763 304.234  1.00  0.00    -0.070 C 
ATOM      2  C   UNL     1     166.690 198.978 303.584  1.00  0.00    -0.027 C 
ATOM      3  C   UNL     1     165.825 199.764 305.742  1.00  0.00     0.039 C 
ENDROOT
BRANCH   2   4
ATOM      4  C   UNL     1     166.708 198.745 302.094  1.00  0.00     0.032 C 
BRANCH   4   5
ATOM      5  C   UNL     1     167.972 199.363 301.486  1.00  0.00     0.034 C 
BRANCH   5   6
ATOM      6  C   UNL     1     167.741 199.900 300.088  1.00  0.00    -0.077 C 
ATOM      7  C   UNL     1     168.028 198.999 298.912  1.00  0.00     0.039 C 
ATOM      8  C   UNL     1     167.219 201.125 299.832  1.00  0.00    -0.023 CG0
ATOM      9  G   UNL     1     166.905 202.222 300.833  1.00  0.00     0.000 G0
ENDBRANCH   5   6
ENDBRANCH   4   5
ENDBRANCH   2   4
BRANCH   1  10
ATOM     10  C   UNL     1     164.802 200.655 303.526  1.00  0.00     0.111 C 
BRANCH  10  11
ATOM     11  C   UNL     1     165.455 201.886 302.948  1.00  0.00     0.163 C 
ATOM     12  O   UNL     1     165.994 202.686 303.761  1.00  0.00    -0.294 OA
BRANCH  11  13
ATOM     13  C   UNL     1     165.516 202.188 301.479  1.00  0.00    -0.002 C 
ATOM     14  C   UNL     1     164.389 202.566 300.800  1.00  0.00    -0.069 C 
ATOM     15  C   UNL     1     163.014 202.425 301.411  1.00  0.00     0.039 C 
ATOM     16  C   UNL     1     164.447 203.100 299.386  1.00  0.00     0.039 C 
BRANCH  13  17
ATOM     17  C   UNL     1     166.888 202.235 300.818  1.00  0.00     0.066 CG0
ATOM     18  G   UNL     1     167.209 201.116 299.843  1.00  0.00     0.000 G0
ENDBRANCH  13  17
ENDBRANCH  11  13
ENDBRANCH  10  11
ENDBRANCH   1  10
TORSDOF 0
ENDMDL
MODEL 2
REMARK VINA RESULT:    -2.931      1.764      3.911
REMARK INTER + INTRA:          -4.003
REMARK INTER:                  -5.065
REMARK INTRA:                   1.063
REMARK UNBOUND:                 0.127
REMARK SMILES CC1=CCC(=C(C)C)C(=O)CC(C)=CCC1
REMARK SMILES IDX 12 1 14 2 13 3 15 4 16 5 2 6 1 7 3 8 11 10 9 11 10 12 5 13
REMARK SMILES IDX 6 14 7 15 8 16 4 17
REMARK H PARENT
REMARK Flexibility Score: 60.00
ROOT
ATOM      1  C   UNL     1     166.433 199.828 304.711  1.00  0.00    -0.070 C 
ATOM      2  C   UNL     1     166.338 201.174 304.812  1.00  0.00    -0.027 C 
ATOM      3  C   UNL     1     165.988 198.996 305.887  1.00  0.00     0.039 C 
ENDROOT
BRANCH   2   4
ATOM      4  C   UNL     1     166.871 202.155 303.797  1.00  0.00     0.032 C 
BRANCH   4   5
ATOM      5  C   UNL     1     165.754 203.111 303.362  1.00  0.00     0.034 C 
BRANCH   5   6
ATOM      6  C   UNL     1     164.465 202.386 303.032  1.00  0.00    -0.077 C 
ATOM      7  C   UNL     1     163.296 202.526 303.975  1.00  0.00     0.039 C 
ATOM      8  C   UNL     1     164.276 201.673 301.894  1.00  0.00    -0.023 CG0
ATOM      9  G   UNL     1     165.307 201.342 300.830  1.00  0.00     0.000 G0
ENDBRANCH   5   6
ENDBRANCH   4   5
ENDBRANCH   2   4
BRANCH   1  10
ATOM     10  C   UNL     1     166.942 199.118 303.473  1.00  0.00     0.111 C 
BRANCH  10  11
ATOM     11  C   UNL     1     166.024 199.318 302.291  1.00  0.00     0.163 C 
ATOM     12  O   UNL     1     164.935 198.681 302.296  1.00  0.00    -0.294 OA
BRANCH  11  13
ATOM     13  C   UNL     1     166.327 200.238 301.145  1.00  0.00    -0.002 C 
ATOM     14  C   UNL     1     167.397 199.998 300.325  1.00  0.00    -0.069 C 
ATOM     15  C   UNL     1     168.463 198.991 300.691  1.00  0.00     0.039 C 
ATOM     16  C   UNL     1     167.601 200.757 299.033  1.00  0.00     0.039 C 
BRANCH  13  17
ATOM     17  C   UNL     1     165.312 201.327 300.819  1.00  0.00     0.066 CG0
ATOM     18  G   UNL     1     164.299 201.654 301.902  1.00  0.00     0.000 G0
ENDBRANCH  13  17
ENDBRANCH  11  13
ENDBRANCH  10  11
ENDBRANCH   1  10
TORSDOF 0
ENDMDL
MODEL 3
REMARK VINA RESULT:    -2.742      1.486      3.836
REMARK INTER + INTRA:          -3.737
REMARK INTER:                  -4.993
REMARK INTRA:                   1.257
REMARK UNBOUND:                 0.127
REMARK SMILES CC1=CCC(=C(C)C)C(=O)CC(C)=CCC1
REMARK SMILES IDX 12 1 14 2 13 3 15 4 16 5 2 6 1 7 3 8 11 10 9 11 10 12 5 13
REMARK SMILES IDX 6 14 7 15 8 16 4 17
REMARK H PARENT
REMARK Flexibility Score: 60.00
ROOT
ATOM      1  C   UNL     1     165.672 200.311 304.841  1.00  0.00    -0.070 C 
ATOM      2  C   UNL     1     165.029 201.494 304.711  1.00  0.00    -0.027 C 
ATOM      3  C   UNL     1     165.331 199.445 306.028  1.00  0.00     0.039 C 
ENDROOT
BRANCH   2   4
ATOM      4  C   UNL     1     165.351 202.542 303.675  1.00  0.00     0.032 C 
BRANCH   4   5
ATOM      5  C   UNL     1     164.053 203.115 303.094  1.00  0.00     0.034 C 
BRANCH   5   6
ATOM      6  C   UNL     1     163.710 202.521 301.743  1.00  0.00    -0.077 C 
ATOM      7  C   UNL     1     162.263 202.488 301.315  1.00  0.00     0.039 C 
ATOM      8  C   UNL     1     164.639 202.080 300.859  1.00  0.00    -0.023 CG0
ATOM      9  G   UNL     1     166.136 201.958 301.079  1.00  0.00     0.000 G0
ENDBRANCH   5   6
ENDBRANCH   4   5
ENDBRANCH   2   4
BRANCH   1  10
ATOM     10  C   UNL     1     166.698 199.806 303.847  1.00  0.00     0.111 C 
BRANCH  10  11
ATOM     11  C   UNL     1     166.148 199.764 302.442  1.00  0.00     0.163 C 
ATOM     12  O   UNL     1     165.150 199.020 302.238  1.00  0.00    -0.294 OA
BRANCH  11  13
ATOM     13  C   UNL     1     166.705 200.567 301.303  1.00  0.00    -0.002 C 
ATOM     14  C   UNL     1     167.567 199.995 300.406  1.00  0.00    -0.069 C 
ATOM     15  C   UNL     1     168.207 198.652 300.671  1.00  0.00     0.039 C 
ATOM     16  C   UNL     1     167.966 200.691 299.124  1.00  0.00     0.039 C 
BRANCH  13  17
ATOM     17  C   UNL     1     166.146 201.966 301.078  1.00  0.00     0.066 CG0
ATOM     18  G   UNL     1     164.649 202.067 300.843  1.00  0.00     0.000 G0
ENDBRANCH  13  17
ENDBRANCH  11  13
ENDBRANCH  10  11
ENDBRANCH   1  10
TORSDOF 0
ENDMDL
MODEL 4
REMARK VINA RESULT:    -2.372      1.382      2.094
REMARK INTER + INTRA:          -3.215
REMARK INTER:                  -3.374
REMARK INTRA:                   0.159
REMARK UNBOUND:                 0.127
REMARK SMILES CC1=CCC(=C(C)C)C(=O)CC(C)=CCC1
REMARK SMILES IDX 12 1 14 2 13 3 15 4 16 5 2 6 1 7 3 8 11 10 9 11 10 12 5 13
REMARK SMILES IDX 6 14 7 15 8 16 4 17
REMARK H PARENT
REMARK Flexibility Score: 60.00
ROOT
ATOM      1  C   UNL     1     165.981 199.684 303.878  1.00  0.00    -0.070 C 
ATOM      2  C   UNL     1     166.498 199.000 302.833  1.00  0.00    -0.027 C 
ATOM      3  C   UNL     1     164.850 199.053 304.651  1.00  0.00     0.039 C 
ENDROOT
BRANCH   2   4
ATOM      4  C   UNL     1     167.523 199.542 301.869  1.00  0.00     0.032 C 
BRANCH   4   5
ATOM      5  C   UNL     1     166.884 199.748 300.490  1.00  0.00     0.034 C 
BRANCH   5   6
ATOM      6  C   UNL     1     166.818 201.210 300.095  1.00  0.00    -0.077 C 
ATOM      7  C   UNL     1     167.922 201.775 299.236  1.00  0.00     0.039 C 
ATOM      8  C   UNL     1     165.782 202.026 300.409  1.00  0.00    -0.023 CG0
ATOM      9  G   UNL     1     164.595 201.709 301.301  1.00  0.00     0.000 G0
ENDBRANCH   5   6
ENDBRANCH   4   5
ENDBRANCH   2   4
BRANCH   1  10
ATOM     10  C   UNL     1     166.493 201.039 304.323  1.00  0.00     0.111 C 
BRANCH  10  11
ATOM     11  C   UNL     1     166.009 202.148 303.421  1.00  0.00     0.163 C 
ATOM     12  O   UNL     1     166.804 203.105 303.210  1.00  0.00    -0.294 OA
BRANCH  11  13
ATOM     13  C   UNL     1     164.664 202.157 302.756  1.00  0.00    -0.002 C 
ATOM     14  C   UNL     1     163.578 202.697 303.392  1.00  0.00    -0.069 C 
ATOM     15  C   UNL     1     163.614 203.041 304.864  1.00  0.00     0.039 C 
ATOM     16  C   UNL     1     162.268 202.936 302.675  1.00  0.00     0.039 C 
BRANCH  13  17
ATOM     17  C   UNL     1     164.587 201.717 301.299  1.00  0.00     0.066 CG0
ATOM     18  G   UNL     1     165.787 202.045 300.429  1.00  0.00     0.000 G0
ENDBRANCH  13  17
ENDBRANCH  11  13
ENDBRANCH  10  11
ENDBRANCH   1  10
TORSDOF 0
ENDMDL
MODEL 5
REMARK VINA RESULT:    -2.349      1.921      4.599
REMARK INTER + INTRA:          -3.182
REMARK INTER:                  -4.251
REMARK INTRA:                   1.069
REMARK UNBOUND:                 0.127
REMARK SMILES CC1=CCC(=C(C)C)C(=O)CC(C)=CCC1
REMARK SMILES IDX 12 1 14 2 13 3 15 4 16 5 2 6 1 7 3 8 11 10 9 11 10 12 5 13
REMARK SMILES IDX 6 14 7 15 8 16 4 17
REMARK H PARENT
REMARK Flexibility Score: 60.00
ROOT
ATOM      1  C   UNL     1     167.135 200.945 299.910  1.00  0.00    -0.070 C 
ATOM      2  C   UNL     1     166.503 201.872 299.155  1.00  0.00    -0.027 C 
ATOM      3  C   UNL     1     167.871 199.836 299.203  1.00  0.00     0.039 C 
ENDROOT
BRANCH   2   4
ATOM      4  C   UNL     1     165.603 202.957 299.692  1.00  0.00     0.032 C 
BRANCH   4   5
ATOM      5  C   UNL     1     164.290 202.984 298.901  1.00  0.00     0.034 C 
BRANCH   5   6
ATOM      6  C   UNL     1     163.146 202.337 299.656  1.00  0.00    -0.077 C 
ATOM      7  C   UNL     1     161.946 201.859 298.876  1.00  0.00     0.039 C 
ATOM      8  C   UNL     1     163.167 202.097 300.990  1.00  0.00    -0.023 CG0
ATOM      9  G   UNL     1     164.225 202.530 301.989  1.00  0.00     0.000 G0
ENDBRANCH   5   6
ENDBRANCH   4   5
ENDBRANCH   2   4
BRANCH   1  10
ATOM     10  C   UNL     1     167.156 200.979 301.425  1.00  0.00     0.111 C 
BRANCH  10  11
ATOM     11  C   UNL     1     165.856 200.492 302.018  1.00  0.00     0.163 C 
ATOM     12  O   UNL     1     165.584 199.268 301.879  1.00  0.00    -0.294 OA
BRANCH  11  13
ATOM     13  C   UNL     1     164.901 201.372 302.771  1.00  0.00    -0.002 C 
ATOM     14  C   UNL     1     164.778 201.261 304.130  1.00  0.00    -0.069 C 
ATOM     15  C   UNL     1     165.365 200.090 304.884  1.00  0.00     0.039 C 
ATOM     16  C   UNL     1     164.009 202.273 304.949  1.00  0.00     0.039 C 
BRANCH  13  17
ATOM     17  C   UNL     1     164.218 202.499 302.006  1.00  0.00     0.066 CG0
ATOM     18  G   UNL     1     163.172 202.087 300.984  1.00  0.00     0.000 G0
ENDBRANCH  13  17
ENDBRANCH  11  13
ENDBRANCH  10  11
ENDBRANCH   1  10
TORSDOF 0
ENDMDL
MODEL 6
REMARK VINA RESULT:    -2.252      1.349      3.973
REMARK INTER + INTRA:          -3.046
REMARK INTER:                  -3.437
REMARK INTRA:                   0.392
REMARK UNBOUND:                 0.127
REMARK SMILES CC1=CCC(=C(C)C)C(=O)CC(C)=CCC1
REMARK SMILES IDX 12 1 14 2 13 3 15 4 16 5 2 6 1 7 3 8 11 10 9 11 10 12 5 13
REMARK SMILES IDX 6 14 7 15 8 16 4 17
REMARK H PARENT
REMARK Flexibility Score: 60.00
ROOT
ATOM      1  C   UNL     1     163.589 202.731 301.691  1.00  0.00    -0.070 C 
ATOM      2  C   UNL     1     163.740 202.831 300.351  1.00  0.00    -0.027 C 
ATOM      3  C   UNL     1     162.192 202.588 302.240  1.00  0.00     0.039 C 
ENDROOT
BRANCH   2   4
ATOM      4  C   UNL     1     165.041 203.125 299.648  1.00  0.00     0.032 C 
BRANCH   4   5
ATOM      5  C   UNL     1     165.612 201.835 299.048  1.00  0.00     0.034 C 
BRANCH   5   6
ATOM      6  C   UNL     1     166.950 201.457 299.650  1.00  0.00    -0.077 C 
ATOM      7  C   UNL     1     168.206 202.010 299.022  1.00  0.00     0.039 C 
ATOM      8  C   UNL     1     167.084 200.706 300.771  1.00  0.00    -0.023 CG0
ATOM      9  G   UNL     1     165.985 199.996 301.542  1.00  0.00     0.000 G0
ENDBRANCH   5   6
ENDBRANCH   4   5
ENDBRANCH   2   4
BRANCH   1  10
ATOM     10  C   UNL     1     164.752 202.733 302.663  1.00  0.00     0.111 C 
BRANCH  10  11
ATOM     11  C   UNL     1     164.873 201.422 303.401  1.00  0.00     0.163 C 
ATOM     12  O   UNL     1     164.091 201.236 304.373  1.00  0.00    -0.294 OA
BRANCH  11  13
ATOM     13  C   UNL     1     165.843 200.340 303.027  1.00  0.00    -0.002 C 
ATOM     14  C   UNL     1     166.454 199.589 303.995  1.00  0.00    -0.069 C 
ATOM     15  C   UNL     1     166.406 199.988 305.452  1.00  0.00     0.039 C 
ATOM     16  C   UNL     1     167.251 198.348 303.661  1.00  0.00     0.039 C 
BRANCH  13  17
ATOM     17  C   UNL     1     165.984 199.989 301.550  1.00  0.00     0.066 CG0
ATOM     18  G   UNL     1     167.072 200.717 300.782  1.00  0.00     0.000 G0
ENDBRANCH  13  17
ENDBRANCH  11  13
ENDBRANCH  10  11
ENDBRANCH   1  10
TORSDOF 0
ENDMDL
MODEL 7
REMARK VINA RESULT:    -2.224      1.905      4.453
REMARK INTER + INTRA:          -3.007
REMARK INTER:                  -3.453
REMARK INTRA:                   0.446
REMARK UNBOUND:                 0.127
REMARK SMILES CC1=CCC(=C(C)C)C(=O)CC(C)=CCC1
REMARK SMILES IDX 12 1 14 2 13 3 15 4 16 5 2 6 1 7 3 8 11 10 9 11 10 12 5 13
REMARK SMILES IDX 6 14 7 15 8 16 4 17
REMARK H PARENT
REMARK Flexibility Score: 60.00
ROOT
ATOM      1  C   UNL     1     163.192 202.997 303.412  1.00  0.00    -0.070 C 
ATOM      2  C   UNL     1     163.156 203.015 302.060  1.00  0.00    -0.027 C 
ATOM      3  C   UNL     1     161.888 203.125 304.158  1.00  0.00     0.039 C 
ENDROOT
BRANCH   2   4
ATOM      4  C   UNL     1     164.369 203.046 301.165  1.00  0.00     0.032 C 
BRANCH   4   5
ATOM      5  C   UNL     1     164.707 201.627 300.696  1.00  0.00     0.034 C 
BRANCH   5   6
ATOM      6  C   UNL     1     166.080 201.176 301.152  1.00  0.00    -0.077 C 
ATOM      7  C   UNL     1     167.285 201.609 300.353  1.00  0.00     0.039 C 
ATOM      8  C   UNL     1     166.298 200.463 302.285  1.00  0.00    -0.023 CG0
ATOM      9  G   UNL     1     165.256 199.867 303.215  1.00  0.00     0.000 G0
ENDBRANCH   5   6
ENDBRANCH   4   5
ENDBRANCH   2   4
BRANCH   1  10
ATOM     10  C   UNL     1     164.470 202.835 304.210  1.00  0.00     0.111 C 
BRANCH  10  11
ATOM     11  C   UNL     1     164.472 201.559 305.017  1.00  0.00     0.163 C 
ATOM     12  O   UNL     1     163.727 201.523 306.035  1.00  0.00    -0.294 OA
BRANCH  11  13
ATOM     13  C   UNL     1     165.282 200.347 304.662  1.00  0.00    -0.002 C 
ATOM     14  C   UNL     1     165.894 199.609 305.640  1.00  0.00    -0.069 C 
ATOM     15  C   UNL     1     166.020 200.123 307.056  1.00  0.00     0.039 C 
ATOM     16  C   UNL     1     166.520 198.263 305.353  1.00  0.00     0.039 C 
BRANCH  13  17
ATOM     17  C   UNL     1     165.251 199.869 303.216  1.00  0.00     0.066 CG0
ATOM     18  G   UNL     1     166.304 200.449 302.288  1.00  0.00     0.000 G0
ENDBRANCH  13  17
ENDBRANCH  11  13
ENDBRANCH  10  11
ENDBRANCH   1  10
TORSDOF 0
ENDMDL
MODEL 8
REMARK VINA RESULT:    -2.191      2.022      4.406
REMARK INTER + INTRA:          -2.960
REMARK INTER:                  -4.783
REMARK INTRA:                   1.823
REMARK UNBOUND:                 0.127
REMARK SMILES CC1=CCC(=C(C)C)C(=O)CC(C)=CCC1
REMARK SMILES IDX 12 1 14 2 13 3 15 4 16 5 2 6 1 7 3 8 11 10 9 11 10 12 5 13
REMARK SMILES IDX 6 14 7 15 8 16 4 17
REMARK H PARENT
REMARK Flexibility Score: 60.00
ROOT
ATOM      1  C   UNL     1     163.357 202.874 302.616  1.00  0.00    -0.070 C 
ATOM      2  C   UNL     1     163.196 202.556 303.921  1.00  0.00    -0.027 C 
ATOM      3  C   UNL     1     162.122 203.071 301.775  1.00  0.00     0.039 C 
ENDROOT
BRANCH   2   4
ATOM      4  C   UNL     1     164.312 202.182 304.863  1.00  0.00     0.032 C 
BRANCH   4   5
ATOM      5  C   UNL     1     165.527 201.697 304.064  1.00  0.00     0.034 C 
BRANCH   5   6
ATOM      6  C   UNL     1     165.728 200.199 304.167  1.00  0.00    -0.077 C 
ATOM      7  C   UNL     1     166.271 199.630 305.455  1.00  0.00     0.039 C 
ATOM      8  C   UNL     1     165.380 199.326 303.190  1.00  0.00    -0.023 CG0
ATOM      9  G   UNL     1     164.873 199.655 301.797  1.00  0.00     0.000 G0
ENDBRANCH   5   6
ENDBRANCH   4   5
ENDBRANCH   2   4
BRANCH   1  10
ATOM     10  C   UNL     1     164.713 203.060 301.965  1.00  0.00     0.111 C 
BRANCH  10  11
ATOM     11  C   UNL     1     164.941 202.075 300.845  1.00  0.00     0.163 C 
ATOM     12  O   UNL     1     164.549 202.412 299.695  1.00  0.00    -0.294 OA
BRANCH  11  13
ATOM     13  C   UNL     1     165.620 200.749 301.025  1.00  0.00    -0.002 C 
ATOM     14  C   UNL     1     166.928 200.582 300.658  1.00  0.00    -0.069 C 
ATOM     15  C   UNL     1     167.649 201.608 299.813  1.00  0.00     0.039 C 
ATOM     16  C   UNL     1     167.713 199.344 301.031  1.00  0.00     0.039 C 
BRANCH  13  17
ATOM     17  C   UNL     1     164.870 199.663 301.787  1.00  0.00     0.066 CG0
ATOM     18  G   UNL     1     165.403 199.312 303.165  1.00  0.00     0.000 G0
ENDBRANCH  13  17
ENDBRANCH  11  13
ENDBRANCH  10  11
ENDBRANCH   1  10
TORSDOF 0
ENDMDL
MODEL 9
REMARK VINA RESULT:    -1.565      1.588      3.868
REMARK INTER + INTRA:          -2.077
REMARK INTER:                  -3.505
REMARK INTRA:                   1.428
REMARK UNBOUND:                 0.127
REMARK SMILES CC1=CCC(=C(C)C)C(=O)CC(C)=CCC1
REMARK SMILES IDX 12 1 14 2 13 3 15 4 16 5 2 6 1 7 3 8 11 10 9 11 10 12 5 13
REMARK SMILES IDX 6 14 7 15 8 16 4 17
REMARK H PARENT
REMARK Flexibility Score: 60.00
ROOT
ATOM      1  C   UNL     1     167.186 200.261 300.682  1.00  0.00    -0.070 C 
ATOM      2  C   UNL     1     166.637 199.358 301.527  1.00  0.00    -0.027 C 
ATOM      3  C   UNL     1     167.385 199.858 299.243  1.00  0.00     0.039 C 
ENDROOT
BRANCH   2   4
ATOM      4  C   UNL     1     166.503 199.540 303.018  1.00  0.00     0.032 C 
BRANCH   4   5
ATOM      5  C   UNL     1     165.021 199.548 303.411  1.00  0.00     0.034 C 
BRANCH   5   6
ATOM      6  C   UNL     1     164.616 200.823 304.121  1.00  0.00    -0.077 C 
ATOM      7  C   UNL     1     164.789 200.901 305.618  1.00  0.00     0.039 C 
ATOM      8  C   UNL     1     164.171 201.931 303.479  1.00  0.00    -0.023 CG0
ATOM      9  G   UNL     1     163.862 202.078 301.999  1.00  0.00     0.000 G0
ENDBRANCH   5   6
ENDBRANCH   4   5
ENDBRANCH   2   4
BRANCH   1  10
ATOM     10  C   UNL     1     167.589 201.659 301.105  1.00  0.00     0.111 C 
BRANCH  10  11
ATOM     11  C   UNL     1     166.432 202.425 301.698  1.00  0.00     0.163 C 
ATOM     12  O   UNL     1     166.658 203.083 302.750  1.00  0.00    -0.294 OA
BRANCH  11  13
ATOM     13  C   UNL     1     165.057 202.459 301.096  1.00  0.00    -0.002 C 
ATOM     14  C   UNL     1     164.892 202.657 299.751  1.00  0.00    -0.069 C 
ATOM     15  C   UNL     1     166.032 203.123 298.875  1.00  0.00     0.039 C 
ATOM     16  C   UNL     1     163.553 202.469 299.073  1.00  0.00     0.039 C 
BRANCH  13  17
ATOM     17  C   UNL     1     163.880 202.091 301.990  1.00  0.00     0.066 CG0
ATOM     18  G   UNL     1     164.178 201.926 303.469  1.00  0.00     0.000 G0
ENDBRANCH  13  17
ENDBRANCH  11  13
ENDBRANCH  10  11
ENDBRANCH   1  10
TORSDOF 0
ENDMDL
