MODEL 1
REMARK VINA RESULT:    -4.582      0.000      0.000
REMARK INTER + INTRA:          -6.127
REMARK INTER:                  -6.458
REMARK INTRA:                   0.330
REMARK UNBOUND:                 0.330
REMARK SMILES CC1=CCC(=C(C)C)C(=O)CC(C)=CCC1
REMARK SMILES IDX 12 1 14 2 13 3 15 4 16 5 2 6 1 7 3 8 11 10 9 11 10 12 5 13
REMARK SMILES IDX 6 14 7 15 8 16 4 17
REMARK H PARENT
REMARK Flexibility Score: 60.00
ROOT
ATOM      1  C   UNL     1      14.917  18.276  57.743  1.00  0.00    -0.070 C 
ATOM      2  C   UNL     1      15.225  17.706  56.554  1.00  0.00    -0.027 C 
ATOM      3  C   UNL     1      15.819  19.381  58.238  1.00  0.00     0.039 C 
ENDROOT
BRANCH   2   4
ATOM      4  C   UNL     1      14.410  16.665  55.824  1.00  0.00     0.032 C 
BRANCH   4   5
ATOM      5  C   UNL     1      13.247  17.280  55.021  1.00  0.00     0.034 C 
BRANCH   5   6
ATOM      6  C   UNL     1      11.937  16.558  55.269  1.00  0.00    -0.077 C 
ATOM      7  C   UNL     1      11.774  15.163  54.721  1.00  0.00     0.039 C 
ATOM      8  C   UNL     1      10.893  17.102  55.934  1.00  0.00    -0.023 CG0
ATOM      9  G   UNL     1      10.851  18.491  56.523  1.00  0.00     0.000 G0
ENDBRANCH   5   6
ENDBRANCH   4   5
ENDBRANCH   2   4
BRANCH   1  10
ATOM     10  C   UNL     1      13.690  17.913  58.561  1.00  0.00     0.111 C 
BRANCH  10  11
ATOM     11  C   UNL     1      12.572  18.906  58.355  1.00  0.00     0.163 C 
ATOM     12  O   UNL     1      12.822  20.128  58.544  1.00  0.00    -0.294 OA
BRANCH  11  13
ATOM     13  C   UNL     1      11.187  18.474  57.992  1.00  0.00    -0.002 C 
ATOM     14  C   UNL     1      10.264  18.143  58.945  1.00  0.00    -0.069 C 
ATOM     15  C   UNL     1       8.876  17.671  58.568  1.00  0.00     0.039 C 
ATOM     16  C   UNL     1      10.569  18.265  60.421  1.00  0.00     0.039 C 
BRANCH  13  17
ATOM     17  C   UNL     1      10.822  18.493  56.518  1.00  0.00     0.066 CG0
ATOM     18  G   UNL     1      10.886  17.093  55.956  1.00  0.00     0.000 G0
ENDBRANCH  13  17
ENDBRANCH  11  13
ENDBRANCH  10  11
ENDBRANCH   1  10
TORSDOF 0
ENDMDL
MODEL 2
REMARK VINA RESULT:    -4.469      1.670      3.819
REMARK INTER + INTRA:          -5.967
REMARK INTER:                  -6.399
REMARK INTRA:                   0.433
REMARK UNBOUND:                 0.330
REMARK SMILES CC1=CCC(=C(C)C)C(=O)CC(C)=CCC1
REMARK SMILES IDX 12 1 14 2 13 3 15 4 16 5 2 6 1 7 3 8 11 10 9 11 10 12 5 13
REMARK SMILES IDX 6 14 7 15 8 16 4 17
REMARK H PARENT
REMARK Flexibility Score: 60.00
ROOT
ATOM      1  C   UNL     1      15.797  18.707  56.944  1.00  0.00    -0.070 C 
ATOM      2  C   UNL     1      15.353  19.165  58.139  1.00  0.00    -0.027 C 
ATOM      3  C   UNL     1      17.115  19.242  56.441  1.00  0.00     0.039 C 
ENDROOT
BRANCH   2   4
ATOM      4  C   UNL     1      14.123  18.693  58.877  1.00  0.00     0.032 C 
BRANCH   4   5
ATOM      5  C   UNL     1      12.873  19.527  58.540  1.00  0.00     0.034 C 
BRANCH   5   6
ATOM      6  C   UNL     1      11.701  18.660  58.125  1.00  0.00    -0.077 C 
ATOM      7  C   UNL     1      10.943  17.920  59.198  1.00  0.00     0.039 C 
ATOM      8  C   UNL     1      11.308  18.491  56.842  1.00  0.00    -0.023 CG0
ATOM      9  G   UNL     1      11.958  19.116  55.632  1.00  0.00     0.000 G0
ENDBRANCH   5   6
ENDBRANCH   4   5
ENDBRANCH   2   4
BRANCH   1  10
ATOM     10  C   UNL     1      15.079  17.646  56.127  1.00  0.00     0.111 C 
BRANCH  10  11
ATOM     11  C   UNL     1      14.282  18.258  55.000  1.00  0.00     0.163 C 
ATOM     12  O   UNL     1      14.896  18.965  54.156  1.00  0.00    -0.294 OA
BRANCH  11  13
ATOM     13  C   UNL     1      12.799  18.091  54.898  1.00  0.00    -0.002 C 
ATOM     14  C   UNL     1      12.240  17.028  54.244  1.00  0.00    -0.069 C 
ATOM     15  C   UNL     1      10.738  16.886  54.112  1.00  0.00     0.039 C 
ATOM     16  C   UNL     1      13.088  15.925  53.651  1.00  0.00     0.039 C 
BRANCH  13  17
ATOM     17  C   UNL     1      11.938  19.112  55.618  1.00  0.00     0.066 CG0
ATOM     18  G   UNL     1      11.313  18.486  56.841  1.00  0.00     0.000 G0
ENDBRANCH  13  17
ENDBRANCH  11  13
ENDBRANCH  10  11
ENDBRANCH   1  10
TORSDOF 0
ENDMDL
MODEL 3
REMARK VINA RESULT:    -4.424      1.486      2.192
REMARK INTER + INTRA:          -5.904
REMARK INTER:                  -6.410
REMARK INTRA:                   0.506
REMARK UNBOUND:                 0.330
REMARK SMILES CC1=CCC(=C(C)C)C(=O)CC(C)=CCC1
REMARK SMILES IDX 12 1 14 2 13 3 15 4 16 5 2 6 1 7 3 8 11 10 9 11 10 12 5 13
REMARK SMILES IDX 6 14 7 15 8 16 4 17
REMARK H PARENT
REMARK Flexibility Score: 60.00
ROOT
ATOM      1  C   UNL     1      15.595  18.521  55.829  1.00  0.00    -0.070 C 
ATOM      2  C   UNL     1      14.976  18.576  54.626  1.00  0.00    -0.027 C 
ATOM      3  C   UNL     1      16.811  19.392  56.027  1.00  0.00     0.039 C 
ENDROOT
BRANCH   2   4
ATOM      4  C   UNL     1      13.693  17.876  54.247  1.00  0.00     0.032 C 
BRANCH   4   5
ATOM      5  C   UNL     1      12.442  18.707  54.588  1.00  0.00     0.034 C 
BRANCH   5   6
ATOM      6  C   UNL     1      11.482  17.954  55.488  1.00  0.00    -0.077 C 
ATOM      7  C   UNL     1      10.589  16.911  54.867  1.00  0.00     0.039 C 
ATOM      8  C   UNL     1      11.363  18.179  56.816  1.00  0.00    -0.023 CG0
ATOM      9  G   UNL     1      12.141  19.201  57.610  1.00  0.00     0.000 G0
ENDBRANCH   5   6
ENDBRANCH   4   5
ENDBRANCH   2   4
BRANCH   1  10
ATOM     10  C   UNL     1      15.094  17.690  56.999  1.00  0.00     0.111 C 
BRANCH  10  11
ATOM     11  C   UNL     1      14.582  18.562  58.120  1.00  0.00     0.163 C 
ATOM     12  O   UNL     1      15.411  19.287  58.733  1.00  0.00    -0.294 OA
BRANCH  11  13
ATOM     13  C   UNL     1      13.148  18.542  58.546  1.00  0.00    -0.002 C 
ATOM     14  C   UNL     1      12.761  18.002  59.742  1.00  0.00    -0.069 C 
ATOM     15  C   UNL     1      11.304  17.953  60.149  1.00  0.00     0.039 C 
ATOM     16  C   UNL     1      13.769  17.462  60.731  1.00  0.00     0.039 C 
BRANCH  13  17
ATOM     17  C   UNL     1      12.146  19.217  57.628  1.00  0.00     0.066 CG0
ATOM     18  G   UNL     1      11.392  18.176  56.837  1.00  0.00     0.000 G0
ENDBRANCH  13  17
ENDBRANCH  11  13
ENDBRANCH  10  11
ENDBRANCH   1  10
TORSDOF 0
ENDMDL
MODEL 4
REMARK VINA RESULT:    -4.016      1.622      4.430
REMARK INTER + INTRA:          -5.329
REMARK INTER:                  -5.904
REMARK INTRA:                   0.575
REMARK UNBOUND:                 0.330
REMARK SMILES CC1=CCC(=C(C)C)C(=O)CC(C)=CCC1
REMARK SMILES IDX 12 1 14 2 13 3 15 4 16 5 2 6 1 7 3 8 11 10 9 11 10 12 5 13
REMARK SMILES IDX 6 14 7 15 8 16 4 17
REMARK H PARENT
REMARK Flexibility Score: 60.00
ROOT
ATOM      1  C   UNL     1      10.637  18.047  59.437  1.00  0.00    -0.070 C 
ATOM      2  C   UNL     1       9.475  18.129  58.747  1.00  0.00    -0.027 C 
ATOM      3  C   UNL     1      10.602  18.403  60.903  1.00  0.00     0.039 C 
ENDROOT
BRANCH   2   4
ATOM      4  C   UNL     1       9.259  17.723  57.308  1.00  0.00     0.032 C 
BRANCH   4   5
ATOM      5  C   UNL     1       8.742  18.884  56.436  1.00  0.00     0.034 C 
BRANCH   5   6
ATOM      6  C   UNL     1       9.641  20.102  56.513  1.00  0.00    -0.077 C 
ATOM      7  C   UNL     1       9.033  21.413  56.942  1.00  0.00     0.039 C 
ATOM      8  C   UNL     1      10.955  20.087  56.195  1.00  0.00    -0.023 CG0
ATOM      9  G   UNL     1      11.732  18.886  55.714  1.00  0.00     0.000 G0
ENDBRANCH   5   6
ENDBRANCH   4   5
ENDBRANCH   2   4
BRANCH   1  10
ATOM     10  C   UNL     1      11.943  17.556  58.837  1.00  0.00     0.111 C 
BRANCH  10  11
ATOM     11  C   UNL     1      12.668  18.660  58.105  1.00  0.00     0.163 C 
ATOM     12  O   UNL     1      13.022  19.674  58.765  1.00  0.00    -0.294 OA
BRANCH  11  13
ATOM     13  C   UNL     1      12.922  18.600  56.633  1.00  0.00    -0.002 C 
ATOM     14  C   UNL     1      14.144  18.250  56.127  1.00  0.00    -0.069 C 
ATOM     15  C   UNL     1      14.403  18.229  54.636  1.00  0.00     0.039 C 
ATOM     16  C   UNL     1      15.285  17.833  57.028  1.00  0.00     0.039 C 
BRANCH  13  17
ATOM     17  C   UNL     1      11.741  18.871  55.717  1.00  0.00     0.066 CG0
ATOM     18  G   UNL     1      10.989  20.089  56.196  1.00  0.00     0.000 G0
ENDBRANCH  13  17
ENDBRANCH  11  13
ENDBRANCH  10  11
ENDBRANCH   1  10
TORSDOF 0
ENDMDL
MODEL 5
REMARK VINA RESULT:    -3.954      1.928      3.917
REMARK INTER + INTRA:          -5.241
REMARK INTER:                  -5.863
REMARK INTRA:                   0.622
REMARK UNBOUND:                 0.330
REMARK SMILES CC1=CCC(=C(C)C)C(=O)CC(C)=CCC1
REMARK SMILES IDX 12 1 14 2 13 3 15 4 16 5 2 6 1 7 3 8 11 10 9 11 10 12 5 13
REMARK SMILES IDX 6 14 7 15 8 16 4 17
REMARK H PARENT
REMARK Flexibility Score: 60.00
ROOT
ATOM      1  C   UNL     1      14.086  17.402  55.052  1.00  0.00    -0.070 C 
ATOM      2  C   UNL     1      14.957  18.074  55.841  1.00  0.00    -0.027 C 
ATOM      3  C   UNL     1      14.122  17.693  53.571  1.00  0.00     0.039 C 
ENDROOT
BRANCH   2   4
ATOM      4  C   UNL     1      15.165  17.866  57.322  1.00  0.00     0.032 C 
BRANCH   4   5
ATOM      5  C   UNL     1      14.516  18.974  58.173  1.00  0.00     0.034 C 
BRANCH   5   6
ATOM      6  C   UNL     1      13.173  18.551  58.735  1.00  0.00    -0.077 C 
ATOM      7  C   UNL     1      13.145  17.858  60.074  1.00  0.00     0.039 C 
ATOM      8  C   UNL     1      11.998  18.736  58.094  1.00  0.00    -0.023 CG0
ATOM      9  G   UNL     1      11.825  19.375  56.737  1.00  0.00     0.000 G0
ENDBRANCH   5   6
ENDBRANCH   4   5
ENDBRANCH   2   4
BRANCH   1  10
ATOM     10  C   UNL     1      13.134  16.335  55.563  1.00  0.00     0.111 C 
BRANCH  10  11
ATOM     11  C   UNL     1      11.809  16.926  55.979  1.00  0.00     0.163 C 
ATOM     12  O   UNL     1      10.978  16.171  56.553  1.00  0.00    -0.294 OA
BRANCH  11  13
ATOM     13  C   UNL     1      11.448  18.346  55.683  1.00  0.00    -0.002 C 
ATOM     14  C   UNL     1      10.760  18.692  54.552  1.00  0.00    -0.069 C 
ATOM     15  C   UNL     1      10.431  20.137  54.241  1.00  0.00     0.039 C 
ATOM     16  C   UNL     1      10.264  17.650  53.575  1.00  0.00     0.039 C 
BRANCH  13  17
ATOM     17  C   UNL     1      11.809  19.384  56.731  1.00  0.00     0.066 CG0
ATOM     18  G   UNL     1      11.987  18.717  58.073  1.00  0.00     0.000 G0
ENDBRANCH  13  17
ENDBRANCH  11  13
ENDBRANCH  10  11
ENDBRANCH   1  10
TORSDOF 0
ENDMDL
MODEL 6
REMARK VINA RESULT:    -3.901      1.577      4.049
REMARK INTER + INTRA:          -5.166
REMARK INTER:                  -5.836
REMARK INTRA:                   0.670
REMARK UNBOUND:                 0.330
REMARK SMILES CC1=CCC(=C(C)C)C(=O)CC(C)=CCC1
REMARK SMILES IDX 12 1 14 2 13 3 15 4 16 5 2 6 1 7 3 8 11 10 9 11 10 12 5 13
REMARK SMILES IDX 6 14 7 15 8 16 4 17
REMARK H PARENT
REMARK Flexibility Score: 60.00
ROOT
ATOM      1  C   UNL     1      12.622  18.403  59.547  1.00  0.00    -0.070 C 
ATOM      2  C   UNL     1      11.364  18.262  60.028  1.00  0.00    -0.027 C 
ATOM      3  C   UNL     1      13.746  17.797  60.352  1.00  0.00     0.039 C 
ENDROOT
BRANCH   2   4
ATOM      4  C   UNL     1      10.090  18.693  59.340  1.00  0.00     0.032 C 
BRANCH   4   5
ATOM      5  C   UNL     1       9.477  17.576  58.475  1.00  0.00     0.034 C 
BRANCH   5   6
ATOM      6  C   UNL     1       9.397  17.963  57.012  1.00  0.00    -0.077 C 
ATOM      7  C   UNL     1       8.213  18.773  56.549  1.00  0.00     0.039 C 
ATOM      8  C   UNL     1      10.317  17.603  56.088  1.00  0.00    -0.023 CG0
ATOM      9  G   UNL     1      11.547  16.767  56.348  1.00  0.00     0.000 G0
ENDBRANCH   5   6
ENDBRANCH   4   5
ENDBRANCH   2   4
BRANCH   1  10
ATOM     10  C   UNL     1      12.950  19.071  58.223  1.00  0.00     0.111 C 
BRANCH  10  11
ATOM     11  C   UNL     1      13.555  18.096  57.243  1.00  0.00     0.163 C 
ATOM     12  O   UNL     1      14.751  17.739  57.425  1.00  0.00    -0.294 OA
BRANCH  11  13
ATOM     13  C   UNL     1      12.799  17.596  56.054  1.00  0.00    -0.002 C 
ATOM     14  C   UNL     1      13.244  17.807  54.778  1.00  0.00    -0.069 C 
ATOM     15  C   UNL     1      12.453  17.330  53.579  1.00  0.00     0.039 C 
ATOM     16  C   UNL     1      14.562  18.493  54.501  1.00  0.00     0.039 C 
BRANCH  13  17
ATOM     17  C   UNL     1      11.551  16.774  56.325  1.00  0.00     0.066 CG0
ATOM     18  G   UNL     1      10.321  17.615  56.083  1.00  0.00     0.000 G0
ENDBRANCH  13  17
ENDBRANCH  11  13
ENDBRANCH  10  11
ENDBRANCH   1  10
TORSDOF 0
ENDMDL
MODEL 7
REMARK VINA RESULT:    -3.863      1.939      3.989
REMARK INTER + INTRA:          -5.114
REMARK INTER:                  -5.486
REMARK INTRA:                   0.372
REMARK UNBOUND:                 0.330
REMARK SMILES CC1=CCC(=C(C)C)C(=O)CC(C)=CCC1
REMARK SMILES IDX 12 1 14 2 13 3 15 4 16 5 2 6 1 7 3 8 11 10 9 11 10 12 5 13
REMARK SMILES IDX 6 14 7 15 8 16 4 17
REMARK H PARENT
REMARK Flexibility Score: 60.00
ROOT
ATOM      1  C   UNL     1      10.663  18.061  59.945  1.00  0.00    -0.070 C 
ATOM      2  C   UNL     1      11.946  18.171  60.363  1.00  0.00    -0.027 C 
ATOM      3  C   UNL     1       9.579  18.486  60.905  1.00  0.00     0.039 C 
ENDROOT
BRANCH   2   4
ATOM      4  C   UNL     1      13.182  17.905  59.537  1.00  0.00     0.032 C 
BRANCH   4   5
ATOM      5  C   UNL     1      13.487  19.042  58.543  1.00  0.00     0.034 C 
BRANCH   5   6
ATOM      6  C   UNL     1      13.727  18.525  57.139  1.00  0.00    -0.077 C 
ATOM      7  C   UNL     1      14.926  17.644  56.896  1.00  0.00     0.039 C 
ATOM      8  C   UNL     1      12.940  18.829  56.082  1.00  0.00    -0.023 CG0
ATOM      9  G   UNL     1      11.721  19.718  56.117  1.00  0.00     0.000 G0
ENDBRANCH   5   6
ENDBRANCH   4   5
ENDBRANCH   2   4
BRANCH   1  10
ATOM     10  C   UNL     1      10.266  17.601  58.553  1.00  0.00     0.111 C 
BRANCH  10  11
ATOM     11  C   UNL     1       9.911  18.768  57.662  1.00  0.00     0.163 C 
ATOM     12  O   UNL     1       9.092  19.620  58.101  1.00  0.00    -0.294 OA
BRANCH  11  13
ATOM     13  C   UNL     1      10.458  18.902  56.277  1.00  0.00    -0.002 C 
ATOM     14  C   UNL     1       9.818  18.362  55.196  1.00  0.00    -0.069 C 
ATOM     15  C   UNL     1      10.398  18.470  53.802  1.00  0.00     0.039 C 
ATOM     16  C   UNL     1       8.484  17.662  55.332  1.00  0.00     0.039 C 
BRANCH  13  17
ATOM     17  C   UNL     1      11.719  19.731  56.111  1.00  0.00     0.066 CG0
ATOM     18  G   UNL     1      12.927  18.827  56.075  1.00  0.00     0.000 G0
ENDBRANCH  13  17
ENDBRANCH  11  13
ENDBRANCH  10  11
ENDBRANCH   1  10
TORSDOF 0
ENDMDL
MODEL 8
REMARK VINA RESULT:    -3.857      2.100      5.124
REMARK INTER + INTRA:          -5.105
REMARK INTER:                  -5.911
REMARK INTRA:                   0.806
REMARK UNBOUND:                 0.330
REMARK SMILES CC1=CCC(=C(C)C)C(=O)CC(C)=CCC1
REMARK SMILES IDX 12 1 14 2 13 3 15 4 16 5 2 6 1 7 3 8 11 10 9 11 10 12 5 13
REMARK SMILES IDX 6 14 7 15 8 16 4 17
REMARK H PARENT
REMARK Flexibility Score: 60.00
ROOT
ATOM      1  C   UNL     1      10.066  20.240  56.200  1.00  0.00    -0.070 C 
ATOM      2  C   UNL     1       9.897  20.641  57.482  1.00  0.00    -0.027 C 
ATOM      3  C   UNL     1       8.837  20.163  55.328  1.00  0.00     0.039 C 
ENDROOT
BRANCH   2   4
ATOM      4  C   UNL     1      10.991  20.889  58.494  1.00  0.00     0.032 C 
BRANCH   4   5
ATOM      5  C   UNL     1      10.750  20.146  59.821  1.00  0.00     0.034 C 
BRANCH   5   6
ATOM      6  C   UNL     1      11.032  18.661  59.706  1.00  0.00    -0.077 C 
ATOM      7  C   UNL     1      10.108  17.700  60.411  1.00  0.00     0.039 C 
ATOM      8  C   UNL     1      12.081  18.146  59.025  1.00  0.00    -0.023 CG0
ATOM      9  G   UNL     1      13.129  18.943  58.288  1.00  0.00     0.000 G0
ENDBRANCH   5   6
ENDBRANCH   4   5
ENDBRANCH   2   4
BRANCH   1  10
ATOM     10  C   UNL     1      11.419  19.933  55.583  1.00  0.00     0.111 C 
BRANCH  10  11
ATOM     11  C   UNL     1      11.949  18.595  56.042  1.00  0.00     0.163 C 
ATOM     12  O   UNL     1      11.270  17.566  55.774  1.00  0.00    -0.294 OA
BRANCH  11  13
ATOM     13  C   UNL     1      13.208  18.473  56.840  1.00  0.00    -0.002 C 
ATOM     14  C   UNL     1      14.377  18.042  56.276  1.00  0.00    -0.069 C 
ATOM     15  C   UNL     1      15.638  17.886  57.098  1.00  0.00     0.039 C 
ATOM     16  C   UNL     1      14.479  17.734  54.799  1.00  0.00     0.039 C 
BRANCH  13  17
ATOM     17  C   UNL     1      13.153  18.923  58.289  1.00  0.00     0.066 CG0
ATOM     18  G   UNL     1      12.090  18.146  59.028  1.00  0.00     0.000 G0
ENDBRANCH  13  17
ENDBRANCH  11  13
ENDBRANCH  10  11
ENDBRANCH   1  10
TORSDOF 0
ENDMDL
MODEL 9
REMARK VINA RESULT:    -3.752      1.359      2.031
REMARK INTER + INTRA:          -4.956
REMARK INTER:                  -5.705
REMARK INTRA:                   0.749
REMARK UNBOUND:                 0.330
REMARK SMILES CC1=CCC(=C(C)C)C(=O)CC(C)=CCC1
REMARK SMILES IDX 12 1 14 2 13 3 15 4 16 5 2 6 1 7 3 8 11 10 9 11 10 12 5 13
REMARK SMILES IDX 6 14 7 15 8 16 4 17
REMARK H PARENT
REMARK Flexibility Score: 60.00
ROOT
ATOM      1  C   UNL     1      13.574  18.194  58.014  1.00  0.00    -0.070 C 
ATOM      2  C   UNL     1      13.375  17.619  56.804  1.00  0.00    -0.027 C 
ATOM      3  C   UNL     1      14.714  19.175  58.140  1.00  0.00     0.039 C 
ENDROOT
BRANCH   2   4
ATOM      4  C   UNL     1      12.240  16.697  56.428  1.00  0.00     0.032 C 
BRANCH   4   5
ATOM      5  C   UNL     1      11.384  17.252  55.274  1.00  0.00     0.034 C 
BRANCH   5   6
ATOM      6  C   UNL     1      10.794  18.610  55.601  1.00  0.00    -0.077 C 
ATOM      7  C   UNL     1      11.123  19.770  54.696  1.00  0.00     0.039 C 
ATOM      8  C   UNL     1      10.007  18.849  56.674  1.00  0.00    -0.023 CG0
ATOM      9  G   UNL     1       9.597  17.830  57.710  1.00  0.00     0.000 G0
ENDBRANCH   5   6
ENDBRANCH   4   5
ENDBRANCH   2   4
BRANCH   1  10
ATOM     10  C   UNL     1      12.679  17.957  59.218  1.00  0.00     0.111 C 
BRANCH  10  11
ATOM     11  C   UNL     1      11.459  18.847  59.187  1.00  0.00     0.163 C 
ATOM     12  O   UNL     1      11.631  20.092  59.289  1.00  0.00    -0.294 OA
BRANCH  11  13
ATOM     13  C   UNL     1      10.075  18.289  59.096  1.00  0.00    -0.002 C 
ATOM     14  C   UNL     1       9.241  18.253  60.180  1.00  0.00    -0.069 C 
ATOM     15  C   UNL     1       7.855  17.652  60.088  1.00  0.00     0.039 C 
ATOM     16  C   UNL     1       9.647  18.841  61.512  1.00  0.00     0.039 C 
BRANCH  13  17
ATOM     17  C   UNL     1       9.603  17.833  57.727  1.00  0.00     0.066 CG0
ATOM     18  G   UNL     1      10.000  18.849  56.683  1.00  0.00     0.000 G0
ENDBRANCH  13  17
ENDBRANCH  11  13
ENDBRANCH  10  11
ENDBRANCH   1  10
TORSDOF 0
ENDMDL
