MODEL 1
REMARK VINA RESULT:    -4.654      0.000      0.000
REMARK INTER + INTRA:          -5.900
REMARK INTER:                  -5.879
REMARK INTRA:                  -0.022
REMARK UNBOUND:                -0.022
REMARK SMILES CSCC[C@H]([NH3+])C(=O)[O-]
REMARK SMILES IDX 4 1 5 2 6 3 7 7 8 8 9 9 3 10 2 11 1 12
REMARK H PARENT 6 4 6 5 6 6
REMARK Flexibility Score: inf
ROOT
ATOM      1  C   UNL     1      -6.720   7.040  -1.113  1.00  0.00     0.082 C 
ENDROOT
BRANCH   1   2
ATOM      2  C   UNL     1      -7.648   6.807   0.099  1.00  0.00     0.228 C 
BRANCH   2   3
ATOM      3  N   UNL     1      -6.897   6.217   1.214  1.00  0.00    -0.350 N 
ATOM      4  H   UNL     1      -7.360   6.457   2.120  1.00  0.00     0.345 HD
ATOM      5  H   UNL     1      -6.883   5.175   1.121  1.00  0.00     0.345 HD
ATOM      6  H   UNL     1      -5.913   6.574   1.227  1.00  0.00     0.345 HD
ENDBRANCH   2   3
BRANCH   2   7
ATOM      7  C   UNL     1      -8.812   5.923  -0.268  1.00  0.00     0.099 C 
ATOM      8  O   UNL     1      -9.792   5.798   0.514  1.00  0.00    -0.544 OA
ATOM      9  O   UNL     1      -8.805   5.233  -1.473  1.00  0.00    -0.544 OA
ENDBRANCH   2   7
ENDBRANCH   1   2
BRANCH   1  10
ATOM     10  C   UNL     1      -5.562   6.037  -1.159  1.00  0.00     0.076 C 
BRANCH  10  11
ATOM     11  S   UNL     1      -4.823   5.983  -2.830  1.00  0.00    -0.165 SA
ATOM     12  C   UNL     1      -4.658   4.170  -2.910  1.00  0.00     0.085 C 
ENDBRANCH  10  11
ENDBRANCH   1  10
TORSDOF 5
ENDMDL
MODEL 2
REMARK VINA RESULT:    -4.480      3.009      4.136
REMARK INTER + INTRA:          -5.680
REMARK INTER:                  -5.524
REMARK INTRA:                  -0.155
REMARK UNBOUND:                -0.022
REMARK SMILES CSCC[C@H]([NH3+])C(=O)[O-]
REMARK SMILES IDX 4 1 5 2 6 3 7 7 8 8 9 9 3 10 2 11 1 12
REMARK H PARENT 6 4 6 5 6 6
REMARK Flexibility Score: inf
ROOT
ATOM      1  C   UNL     1      -6.469   6.670  -1.833  1.00  0.00     0.082 C 
ENDROOT
BRANCH   1   2
ATOM      2  C   UNL     1      -5.168   5.847  -1.952  1.00  0.00     0.228 C 
BRANCH   2   3
ATOM      3  N   UNL     1      -4.117   6.639  -2.601  1.00  0.00    -0.350 N 
ATOM      4  H   UNL     1      -4.060   7.584  -2.158  1.00  0.00     0.345 HD
ATOM      5  H   UNL     1      -3.190   6.167  -2.480  1.00  0.00     0.345 HD
ATOM      6  H   UNL     1      -4.314   6.750  -3.622  1.00  0.00     0.345 HD
ENDBRANCH   2   3
BRANCH   2   7
ATOM      7  C   UNL     1      -5.401   4.569  -2.716  1.00  0.00     0.099 C 
ATOM      8  O   UNL     1      -6.573   4.169  -2.953  1.00  0.00    -0.544 OA
ATOM      9  O   UNL     1      -4.320   3.817  -3.158  1.00  0.00    -0.544 OA
ENDBRANCH   2   7
ENDBRANCH   1   2
BRANCH   1  10
ATOM     10  C   UNL     1      -6.754   7.098  -0.389  1.00  0.00     0.076 C 
BRANCH  10  11
ATOM     11  S   UNL     1      -8.227   6.231   0.260  1.00  0.00    -0.165 SA
ATOM     12  C   UNL     1      -9.082   6.080  -1.342  1.00  0.00     0.085 C 
ENDBRANCH  10  11
ENDBRANCH   1  10
TORSDOF 5
ENDMDL
MODEL 3
REMARK VINA RESULT:    -4.422      3.482      4.416
REMARK INTER + INTRA:          -5.606
REMARK INTER:                  -5.623
REMARK INTRA:                   0.017
REMARK UNBOUND:                -0.022
REMARK SMILES CSCC[C@H]([NH3+])C(=O)[O-]
REMARK SMILES IDX 4 1 5 2 6 3 7 7 8 8 9 9 3 10 2 11 1 12
REMARK H PARENT 6 4 6 5 6 6
REMARK Flexibility Score: inf
ROOT
ATOM      1  C   UNL     1      -6.265   6.201  -0.882  1.00  0.00     0.082 C 
ENDROOT
BRANCH   1   2
ATOM      2  C   UNL     1      -6.227   5.692  -2.339  1.00  0.00     0.228 C 
BRANCH   2   3
ATOM      3  N   UNL     1      -7.097   4.521  -2.495  1.00  0.00    -0.350 N 
ATOM      4  H   UNL     1      -6.518   3.652  -2.554  1.00  0.00     0.345 HD
ATOM      5  H   UNL     1      -7.730   4.435  -1.666  1.00  0.00     0.345 HD
ATOM      6  H   UNL     1      -7.677   4.604  -3.362  1.00  0.00     0.345 HD
ENDBRANCH   2   3
BRANCH   2   7
ATOM      7  C   UNL     1      -4.820   5.353  -2.760  1.00  0.00     0.099 C 
ATOM      8  O   UNL     1      -3.947   6.256  -2.859  1.00  0.00    -0.544 OA
ATOM      9  O   UNL     1      -4.480   4.038  -3.050  1.00  0.00    -0.544 OA
ENDBRANCH   2   7
ENDBRANCH   1   2
BRANCH   1  10
ATOM     10  C   UNL     1      -7.019   7.530  -0.752  1.00  0.00     0.076 C 
BRANCH  10  11
ATOM     11  S   UNL     1      -8.314   7.663  -2.036  1.00  0.00    -0.165 SA
ATOM     12  C   UNL     1      -7.903   9.363  -2.549  1.00  0.00     0.085 C 
ENDBRANCH  10  11
ENDBRANCH   1  10
TORSDOF 5
ENDMDL
MODEL 4
REMARK VINA RESULT:    -4.353      3.281      4.250
REMARK INTER + INTRA:          -5.519
REMARK INTER:                  -5.467
REMARK INTRA:                  -0.053
REMARK UNBOUND:                -0.022
REMARK SMILES CSCC[C@H]([NH3+])C(=O)[O-]
REMARK SMILES IDX 4 1 5 2 6 3 7 7 8 8 9 9 3 10 2 11 1 12
REMARK H PARENT 6 4 6 5 6 6
REMARK Flexibility Score: inf
ROOT
ATOM      1  C   UNL     1      -7.076   7.129  -2.083  1.00  0.00     0.082 C 
ENDROOT
BRANCH   1   2
ATOM      2  C   UNL     1      -6.386   5.856  -1.548  1.00  0.00     0.228 C 
BRANCH   2   3
ATOM      3  N   UNL     1      -5.948   6.054  -0.161  1.00  0.00    -0.350 N 
ATOM      4  H   UNL     1      -4.931   5.824  -0.074  1.00  0.00     0.345 HD
ATOM      5  H   UNL     1      -6.081   7.055   0.114  1.00  0.00     0.345 HD
ATOM      6  H   UNL     1      -6.493   5.444   0.490  1.00  0.00     0.345 HD
ENDBRANCH   2   3
BRANCH   2   7
ATOM      7  C   UNL     1      -5.215   5.467  -2.413  1.00  0.00     0.099 C 
ATOM      8  O   UNL     1      -4.474   6.351  -2.921  1.00  0.00    -0.544 OA
ATOM      9  O   UNL     1      -4.950   4.127  -2.661  1.00  0.00    -0.544 OA
ENDBRANCH   2   7
ENDBRANCH   1   2
BRANCH   1  10
ATOM     10  C   UNL     1      -8.597   7.089  -1.892  1.00  0.00     0.076 C 
BRANCH  10  11
ATOM     11  S   UNL     1      -9.395   8.472  -2.783  1.00  0.00    -0.165 SA
ATOM     12  C   UNL     1      -7.935   9.564  -2.789  1.00  0.00     0.085 C 
ENDBRANCH  10  11
ENDBRANCH   1  10
TORSDOF 5
ENDMDL
MODEL 5
REMARK VINA RESULT:    -4.244      1.723      2.053
REMARK INTER + INTRA:          -5.382
REMARK INTER:                  -5.228
REMARK INTRA:                  -0.154
REMARK UNBOUND:                -0.022
REMARK SMILES CSCC[C@H]([NH3+])C(=O)[O-]
REMARK SMILES IDX 4 1 5 2 6 3 7 7 8 8 9 9 3 10 2 11 1 12
REMARK H PARENT 6 4 6 5 6 6
REMARK Flexibility Score: inf
ROOT
ATOM      1  C   UNL     1      -6.986   7.193  -1.152  1.00  0.00     0.082 C 
ENDROOT
BRANCH   1   2
ATOM      2  C   UNL     1      -8.098   6.627  -2.062  1.00  0.00     0.228 C 
BRANCH   2   3
ATOM      3  N   UNL     1      -9.038   7.688  -2.443  1.00  0.00    -0.350 N 
ATOM      4  H   UNL     1      -9.008   7.836  -3.477  1.00  0.00     0.345 HD
ATOM      5  H   UNL     1     -10.013   7.409  -2.182  1.00  0.00     0.345 HD
ATOM      6  H   UNL     1      -8.799   8.586  -1.962  1.00  0.00     0.345 HD
ENDBRANCH   2   3
BRANCH   2   7
ATOM      7  C   UNL     1      -8.833   5.499  -1.387  1.00  0.00     0.099 C 
ATOM      8  O   UNL     1      -9.137   4.458  -2.030  1.00  0.00    -0.544 OA
ATOM      9  O   UNL     1      -9.187   5.604  -0.048  1.00  0.00    -0.544 OA
ENDBRANCH   2   7
ENDBRANCH   1   2
BRANCH   1  10
ATOM     10  C   UNL     1      -5.807   6.225  -1.007  1.00  0.00     0.076 C 
BRANCH  10  11
ATOM     11  S   UNL     1      -4.813   6.186  -2.541  1.00  0.00    -0.165 SA
ATOM     12  C   UNL     1      -4.900   4.382  -2.782  1.00  0.00     0.085 C 
ENDBRANCH  10  11
ENDBRANCH   1  10
TORSDOF 5
ENDMDL
MODEL 6
REMARK VINA RESULT:    -4.191      3.064      3.763
REMARK INTER + INTRA:          -5.315
REMARK INTER:                  -5.222
REMARK INTRA:                  -0.094
REMARK UNBOUND:                -0.022
REMARK SMILES CSCC[C@H]([NH3+])C(=O)[O-]
REMARK SMILES IDX 4 1 5 2 6 3 7 7 8 8 9 9 3 10 2 11 1 12
REMARK H PARENT 6 4 6 5 6 6
REMARK Flexibility Score: inf
ROOT
ATOM      1  C   UNL     1      -8.502   7.331  -2.290  1.00  0.00     0.082 C 
ENDROOT
BRANCH   1   2
ATOM      2  C   UNL     1      -7.704   6.159  -1.680  1.00  0.00     0.228 C 
BRANCH   2   3
ATOM      3  N   UNL     1      -8.216   4.876  -2.177  1.00  0.00    -0.350 N 
ATOM      4  H   UNL     1      -8.561   4.298  -1.377  1.00  0.00     0.345 HD
ATOM      5  H   UNL     1      -9.019   5.042  -2.828  1.00  0.00     0.345 HD
ATOM      6  H   UNL     1      -7.468   4.349  -2.683  1.00  0.00     0.345 HD
ENDBRANCH   2   3
BRANCH   2   7
ATOM      7  C   UNL     1      -7.755   6.191  -0.175  1.00  0.00     0.099 C 
ATOM      8  O   UNL     1      -6.742   6.531   0.493  1.00  0.00    -0.544 OA
ATOM      9  O   UNL     1      -8.923   5.836   0.487  1.00  0.00    -0.544 OA
ENDBRANCH   2   7
ENDBRANCH   1   2
BRANCH   1  10
ATOM     10  C   UNL     1      -7.820   8.683  -2.052  1.00  0.00     0.076 C 
BRANCH  10  11
ATOM     11  S   UNL     1      -8.108   9.808  -3.464  1.00  0.00    -0.165 SA
ATOM     12  C   UNL     1      -9.678   9.050  -3.997  1.00  0.00     0.085 C 
ENDBRANCH  10  11
ENDBRANCH   1  10
TORSDOF 5
ENDMDL
MODEL 7
REMARK VINA RESULT:    -4.084      2.764      3.571
REMARK INTER + INTRA:          -5.180
REMARK INTER:                  -5.053
REMARK INTRA:                  -0.127
REMARK UNBOUND:                -0.022
REMARK SMILES CSCC[C@H]([NH3+])C(=O)[O-]
REMARK SMILES IDX 4 1 5 2 6 3 7 7 8 8 9 9 3 10 2 11 1 12
REMARK H PARENT 6 4 6 5 6 6
REMARK Flexibility Score: inf
ROOT
ATOM      1  C   UNL     1      -7.224   7.587  -2.229  1.00  0.00     0.082 C 
ENDROOT
BRANCH   1   2
ATOM      2  C   UNL     1      -7.113   6.965  -0.821  1.00  0.00     0.228 C 
BRANCH   2   3
ATOM      3  N   UNL     1      -5.821   6.289  -0.658  1.00  0.00    -0.350 N 
ATOM      4  H   UNL     1      -5.078   6.814  -1.174  1.00  0.00     0.345 HD
ATOM      5  H   UNL     1      -5.558   6.264   0.355  1.00  0.00     0.345 HD
ATOM      6  H   UNL     1      -5.866   5.310  -1.025  1.00  0.00     0.345 HD
ENDBRANCH   2   3
BRANCH   2   7
ATOM      7  C   UNL     1      -8.241   5.998  -0.563  1.00  0.00     0.099 C 
ATOM      8  O   UNL     1      -8.648   5.233  -1.477  1.00  0.00    -0.544 OA
ATOM      9  O   UNL     1      -8.843   5.952   0.687  1.00  0.00    -0.544 OA
ENDBRANCH   2   7
ENDBRANCH   1   2
BRANCH   1  10
ATOM     10  C   UNL     1      -7.998   8.911  -2.220  1.00  0.00     0.076 C 
BRANCH  10  11
ATOM     11  S   UNL     1      -9.679   8.678  -2.901  1.00  0.00    -0.165 SA
ATOM     12  C   UNL     1      -9.280   9.232  -4.590  1.00  0.00     0.085 C 
ENDBRANCH  10  11
ENDBRANCH   1  10
TORSDOF 5
ENDMDL
MODEL 8
REMARK VINA RESULT:    -3.962      2.437      2.619
REMARK INTER + INTRA:          -5.026
REMARK INTER:                  -4.899
REMARK INTRA:                  -0.127
REMARK UNBOUND:                -0.022
REMARK SMILES CSCC[C@H]([NH3+])C(=O)[O-]
REMARK SMILES IDX 4 1 5 2 6 3 7 7 8 8 9 9 3 10 2 11 1 12
REMARK H PARENT 6 4 6 5 6 6
REMARK Flexibility Score: inf
ROOT
ATOM      1  C   UNL     1      -6.883   7.248  -0.898  1.00  0.00     0.082 C 
ENDROOT
BRANCH   1   2
ATOM      2  C   UNL     1      -8.309   7.092  -1.471  1.00  0.00     0.228 C 
BRANCH   2   3
ATOM      3  N   UNL     1      -8.484   5.757  -2.054  1.00  0.00    -0.350 N 
ATOM      4  H   UNL     1      -7.980   5.047  -1.475  1.00  0.00     0.345 HD
ATOM      5  H   UNL     1      -9.500   5.505  -2.067  1.00  0.00     0.345 HD
ATOM      6  H   UNL     1      -8.111   5.728  -3.032  1.00  0.00     0.345 HD
ENDBRANCH   2   3
BRANCH   2   7
ATOM      7  C   UNL     1      -8.600   8.152  -2.502  1.00  0.00     0.099 C 
ATOM      8  O   UNL     1      -9.786   8.500  -2.745  1.00  0.00    -0.544 OA
ATOM      9  O   UNL     1      -7.556   8.747  -3.199  1.00  0.00    -0.544 OA
ENDBRANCH   2   7
ENDBRANCH   1   2
BRANCH   1  10
ATOM     10  C   UNL     1      -6.051   5.970  -1.058  1.00  0.00     0.076 C 
BRANCH  10  11
ATOM     11  S   UNL     1      -4.955   6.094  -2.516  1.00  0.00    -0.165 SA
ATOM     12  C   UNL     1      -4.846   4.301  -2.827  1.00  0.00     0.085 C 
ENDBRANCH  10  11
ENDBRANCH   1  10
TORSDOF 5
ENDMDL
MODEL 9
REMARK VINA RESULT:    -3.568      3.213      4.298
REMARK INTER + INTRA:          -4.528
REMARK INTER:                  -4.447
REMARK INTRA:                  -0.081
REMARK UNBOUND:                -0.022
REMARK SMILES CSCC[C@H]([NH3+])C(=O)[O-]
REMARK SMILES IDX 4 1 5 2 6 3 7 7 8 8 9 9 3 10 2 11 1 12
REMARK H PARENT 6 4 6 5 6 6
REMARK Flexibility Score: inf
ROOT
ATOM      1  C   UNL     1      -9.026   6.163  -0.006  1.00  0.00     0.082 C 
ENDROOT
BRANCH   1   2
ATOM      2  C   UNL     1      -7.486   6.111  -0.105  1.00  0.00     0.228 C 
BRANCH   2   3
ATOM      3  N   UNL     1      -6.878   6.383   1.202  1.00  0.00    -0.350 N 
ATOM      4  H   UNL     1      -7.142   5.632   1.880  1.00  0.00     0.345 HD
ATOM      5  H   UNL     1      -5.835   6.391   1.114  1.00  0.00     0.345 HD
ATOM      6  H   UNL     1      -7.197   7.307   1.574  1.00  0.00     0.345 HD
ENDBRANCH   2   3
BRANCH   2   7
ATOM      7  C   UNL     1      -6.974   7.089  -1.131  1.00  0.00     0.099 C 
ATOM      8  O   UNL     1      -7.161   8.326  -0.984  1.00  0.00    -0.544 OA
ATOM      9  O   UNL     1      -6.295   6.628  -2.251  1.00  0.00    -0.544 OA
ENDBRANCH   2   7
ENDBRANCH   1   2
BRANCH   1  10
ATOM     10  C   UNL     1      -9.701   6.015  -1.374  1.00  0.00     0.076 C 
BRANCH  10  11
ATOM     11  S   UNL     1     -11.518   5.922  -1.189  1.00  0.00    -0.165 SA
ATOM     12  C   UNL     1     -11.881   7.469  -2.081  1.00  0.00     0.085 C 
ENDBRANCH  10  11
ENDBRANCH   1  10
TORSDOF 5
ENDMDL
