MODEL 1
REMARK VINA RESULT:    -3.944      0.000      0.000
REMARK INTER + INTRA:          -3.944
REMARK INTER:                  -3.944
REMARK INTRA:                   0.000
REMARK UNBOUND:                 0.000
REMARK SMILES O=c1ccc2ccccc2o1
REMARK SMILES IDX 7 1 8 2 9 3 10 4 5 5 6 6 4 7 3 8 2 9 1 10 11 11
REMARK H PARENT
REMARK Flexibility Score: inf
ROOT
ATOM      1  C   UNL     1      73.195  37.506  18.998  1.00  0.00     0.001 A 
ATOM      2  C   UNL     1      72.724  37.557  20.314  1.00  0.00     0.004 A 
ATOM      3  C   UNL     1      73.235  38.503  21.209  1.00  0.00     0.048 A 
ATOM      4  C   UNL     1      74.222  39.402  20.790  1.00  0.00     0.138 A 
ATOM      5  C   UNL     1      74.699  39.350  19.461  1.00  0.00     0.018 A 
ATOM      6  C   UNL     1      74.182  38.399  18.569  1.00  0.00     0.012 A 
ATOM      7  C   UNL     1      75.685  40.260  19.070  1.00  0.00     0.019 A 
ATOM      8  C   UNL     1      76.166  41.187  19.996  1.00  0.00     0.094 A 
ATOM      9  C   UNL     1      75.647  41.180  21.294  1.00  0.00     0.336 A 
ATOM     10  O   UNL     1      76.068  42.008  22.144  1.00  0.00    -0.246 OA
ATOM     11  O   UNL     1      74.708  40.302  21.640  1.00  0.00    -0.423 OA
ENDROOT
TORSDOF 0
ENDMDL
MODEL 2
REMARK VINA RESULT:    -3.943      1.169      2.345
REMARK INTER + INTRA:          -3.943
REMARK INTER:                  -3.943
REMARK INTRA:                   0.000
REMARK UNBOUND:                 0.000
REMARK SMILES O=c1ccc2ccccc2o1
REMARK SMILES IDX 7 1 8 2 9 3 10 4 5 5 6 6 4 7 3 8 2 9 1 10 11 11
REMARK H PARENT
REMARK Flexibility Score: inf
ROOT
ATOM      1  C   UNL     1      73.419  37.246  18.363  1.00  0.00     0.001 A 
ATOM      2  C   UNL     1      74.543  37.920  17.875  1.00  0.00     0.004 A 
ATOM      3  C   UNL     1      75.139  38.935  18.631  1.00  0.00     0.048 A 
ATOM      4  C   UNL     1      74.612  39.279  19.880  1.00  0.00     0.138 A 
ATOM      5  C   UNL     1      73.476  38.599  20.374  1.00  0.00     0.018 A 
ATOM      6  C   UNL     1      72.883  37.583  19.610  1.00  0.00     0.012 A 
ATOM      7  C   UNL     1      72.971  38.964  21.625  1.00  0.00     0.019 A 
ATOM      8  C   UNL     1      73.598  39.982  22.345  1.00  0.00     0.094 A 
ATOM      9  C   UNL     1      74.718  40.611  21.794  1.00  0.00     0.336 A 
ATOM     10  O   UNL     1      75.298  41.531  22.428  1.00  0.00    -0.246 OA
ATOM     11  O   UNL     1      75.179  40.244  20.600  1.00  0.00    -0.423 OA
ENDROOT
TORSDOF 0
ENDMDL
MODEL 3
REMARK VINA RESULT:    -3.886      1.930      4.376
REMARK INTER + INTRA:          -3.886
REMARK INTER:                  -3.886
REMARK INTRA:                   0.000
REMARK UNBOUND:                 0.000
REMARK SMILES O=c1ccc2ccccc2o1
REMARK SMILES IDX 7 1 8 2 9 3 10 4 5 5 6 6 4 7 3 8 2 9 1 10 11 11
REMARK H PARENT
REMARK Flexibility Score: inf
ROOT
ATOM      1  C   UNL     1      75.690  41.334  21.384  1.00  0.00     0.001 A 
ATOM      2  C   UNL     1      76.155  41.252  20.067  1.00  0.00     0.004 A 
ATOM      3  C   UNL     1      75.639  40.285  19.197  1.00  0.00     0.048 A 
ATOM      4  C   UNL     1      74.655  39.396  19.643  1.00  0.00     0.138 A 
ATOM      5  C   UNL     1      74.186  39.478  20.973  1.00  0.00     0.018 A 
ATOM      6  C   UNL     1      74.707  40.450  21.840  1.00  0.00     0.012 A 
ATOM      7  C   UNL     1      73.202  38.577  21.390  1.00  0.00     0.019 A 
ATOM      8  C   UNL     1      72.716  37.630  20.489  1.00  0.00     0.094 A 
ATOM      9  C   UNL     1      73.228  37.607  19.187  1.00  0.00     0.336 A 
ATOM     10  O   UNL     1      72.802  36.759  18.359  1.00  0.00    -0.246 OA
ATOM     11  O   UNL     1      74.164  38.476  18.816  1.00  0.00    -0.423 OA
ENDROOT
TORSDOF 0
ENDMDL
MODEL 4
REMARK VINA RESULT:    -3.796      1.216      2.143
REMARK INTER + INTRA:          -3.796
REMARK INTER:                  -3.796
REMARK INTRA:                   0.000
REMARK UNBOUND:                 0.000
REMARK SMILES O=c1ccc2ccccc2o1
REMARK SMILES IDX 7 1 8 2 9 3 10 4 5 5 6 6 4 7 3 8 2 9 1 10 11 11
REMARK H PARENT
REMARK Flexibility Score: inf
ROOT
ATOM      1  C   UNL     1      72.711  37.761  20.497  1.00  0.00     0.001 A 
ATOM      2  C   UNL     1      73.280  37.626  19.226  1.00  0.00     0.004 A 
ATOM      3  C   UNL     1      74.323  38.470  18.828  1.00  0.00     0.048 A 
ATOM      4  C   UNL     1      74.800  39.453  19.702  1.00  0.00     0.138 A 
ATOM      5  C   UNL     1      74.225  39.590  20.985  1.00  0.00     0.018 A 
ATOM      6  C   UNL     1      73.180  38.741  21.378  1.00  0.00     0.012 A 
ATOM      7  C   UNL     1      74.722  40.582  21.836  1.00  0.00     0.019 A 
ATOM      8  C   UNL     1      75.763  41.400  21.398  1.00  0.00     0.094 A 
ATOM      9  C   UNL     1      76.283  41.207  20.114  1.00  0.00     0.336 A 
ATOM     10  O   UNL     1      77.222  41.936  19.701  1.00  0.00    -0.246 OA
ATOM     11  O   UNL     1      75.791  40.256  19.324  1.00  0.00    -0.423 OA
ENDROOT
TORSDOF 0
ENDMDL
MODEL 5
REMARK VINA RESULT:    -3.782      2.316      3.898
REMARK INTER + INTRA:          -3.782
REMARK INTER:                  -3.782
REMARK INTRA:                   0.000
REMARK UNBOUND:                 0.000
REMARK SMILES O=c1ccc2ccccc2o1
REMARK SMILES IDX 7 1 8 2 9 3 10 4 5 5 6 6 4 7 3 8 2 9 1 10 11 11
REMARK H PARENT
REMARK Flexibility Score: inf
ROOT
ATOM      1  C   UNL     1      74.604  40.898  21.647  1.00  0.00     0.001 A 
ATOM      2  C   UNL     1      73.498  40.238  22.193  1.00  0.00     0.004 A 
ATOM      3  C   UNL     1      72.917  39.160  21.518  1.00  0.00     0.048 A 
ATOM      4  C   UNL     1      73.441  38.737  20.292  1.00  0.00     0.138 A 
ATOM      5  C   UNL     1      74.558  39.403  19.740  1.00  0.00     0.018 A 
ATOM      6  C   UNL     1      75.136  40.484  20.422  1.00  0.00     0.012 A 
ATOM      7  C   UNL     1      75.060  38.958  18.513  1.00  0.00     0.019 A 
ATOM      8  C   UNL     1      74.450  37.878  17.875  1.00  0.00     0.094 A 
ATOM      9  C   UNL     1      73.348  37.267  18.481  1.00  0.00     0.336 A 
ATOM     10  O   UNL     1      72.783  36.291  17.921  1.00  0.00    -0.246 OA
ATOM     11  O   UNL     1      72.889  37.711  19.649  1.00  0.00    -0.423 OA
ENDROOT
TORSDOF 0
ENDMDL
MODEL 6
REMARK VINA RESULT:    -3.774      1.519      3.824
REMARK INTER + INTRA:          -3.774
REMARK INTER:                  -3.774
REMARK INTRA:                   0.000
REMARK UNBOUND:                 0.000
REMARK SMILES O=c1ccc2ccccc2o1
REMARK SMILES IDX 7 1 8 2 9 3 10 4 5 5 6 6 4 7 3 8 2 9 1 10 11 11
REMARK H PARENT
REMARK Flexibility Score: inf
ROOT
ATOM      1  C   UNL     1      76.476  42.007  20.794  1.00  0.00     0.001 A 
ATOM      2  C   UNL     1      75.753  41.897  21.986  1.00  0.00     0.004 A 
ATOM      3  C   UNL     1      74.797  40.887  22.140  1.00  0.00     0.048 A 
ATOM      4  C   UNL     1      74.561  39.982  21.099  1.00  0.00     0.138 A 
ATOM      5  C   UNL     1      75.290  40.094  19.894  1.00  0.00     0.018 A 
ATOM      6  C   UNL     1      76.247  41.109  19.746  1.00  0.00     0.012 A 
ATOM      7  C   UNL     1      75.032  39.176  18.872  1.00  0.00     0.019 A 
ATOM      8  C   UNL     1      74.071  38.185  19.069  1.00  0.00     0.094 A 
ATOM      9  C   UNL     1      73.388  38.135  20.288  1.00  0.00     0.336 A 
ATOM     10  O   UNL     1      72.516  37.248  20.485  1.00  0.00    -0.246 OA
ATOM     11  O   UNL     1      73.652  39.021  21.245  1.00  0.00    -0.423 OA
ENDROOT
TORSDOF 0
ENDMDL
MODEL 7
REMARK VINA RESULT:    -3.748      2.142      2.863
REMARK INTER + INTRA:          -3.748
REMARK INTER:                  -3.748
REMARK INTRA:                   0.000
REMARK UNBOUND:                 0.000
REMARK SMILES O=c1ccc2ccccc2o1
REMARK SMILES IDX 7 1 8 2 9 3 10 4 5 5 6 6 4 7 3 8 2 9 1 10 11 11
REMARK H PARENT
REMARK Flexibility Score: inf
ROOT
ATOM      1  C   UNL     1      75.214  38.179  17.928  1.00  0.00     0.001 A 
ATOM      2  C   UNL     1      74.047  37.409  17.889  1.00  0.00     0.004 A 
ATOM      3  C   UNL     1      73.024  37.631  18.818  1.00  0.00     0.048 A 
ATOM      4  C   UNL     1      73.167  38.626  19.791  1.00  0.00     0.138 A 
ATOM      5  C   UNL     1      74.346  39.403  19.832  1.00  0.00     0.018 A 
ATOM      6  C   UNL     1      75.367  39.176  18.898  1.00  0.00     0.012 A 
ATOM      7  C   UNL     1      74.460  40.390  20.816  1.00  0.00     0.019 A 
ATOM      8  C   UNL     1      73.416  40.577  21.721  1.00  0.00     0.094 A 
ATOM      9  C   UNL     1      72.278  39.770  21.621  1.00  0.00     0.336 A 
ATOM     10  O   UNL     1      71.325  39.923  22.429  1.00  0.00    -0.246 OA
ATOM     11  O   UNL     1      72.195  38.837  20.675  1.00  0.00    -0.423 OA
ENDROOT
TORSDOF 0
ENDMDL
MODEL 8
REMARK VINA RESULT:    -3.605      1.946      3.980
REMARK INTER + INTRA:          -3.605
REMARK INTER:                  -3.605
REMARK INTRA:                   0.000
REMARK UNBOUND:                 0.000
REMARK SMILES O=c1ccc2ccccc2o1
REMARK SMILES IDX 7 1 8 2 9 3 10 4 5 5 6 6 4 7 3 8 2 9 1 10 11 11
REMARK H PARENT
REMARK Flexibility Score: inf
ROOT
ATOM      1  C   UNL     1      76.684  41.862  18.974  1.00  0.00     0.001 A 
ATOM      2  C   UNL     1      76.283  41.064  17.898  1.00  0.00     0.004 A 
ATOM      3  C   UNL     1      75.370  40.022  18.095  1.00  0.00     0.048 A 
ATOM      4  C   UNL     1      74.855  39.775  19.372  1.00  0.00     0.138 A 
ATOM      5  C   UNL     1      75.261  40.581  20.460  1.00  0.00     0.018 A 
ATOM      6  C   UNL     1      76.176  41.623  20.255  1.00  0.00     0.012 A 
ATOM      7  C   UNL     1      74.729  40.311  21.724  1.00  0.00     0.019 A 
ATOM      8  C   UNL     1      73.822  39.263  21.875  1.00  0.00     0.094 A 
ATOM      9  C   UNL     1      73.466  38.507  20.753  1.00  0.00     0.336 A 
ATOM     10  O   UNL     1      72.648  37.557  20.869  1.00  0.00    -0.246 OA
ATOM     11  O   UNL     1      73.986  38.785  19.561  1.00  0.00    -0.423 OA
ENDROOT
TORSDOF 0
ENDMDL
MODEL 9
REMARK VINA RESULT:    -3.375      1.484      3.873
REMARK INTER + INTRA:          -3.375
REMARK INTER:                  -3.375
REMARK INTRA:                   0.000
REMARK UNBOUND:                 0.000
REMARK SMILES O=c1ccc2ccccc2o1
REMARK SMILES IDX 7 1 8 2 9 3 10 4 5 5 6 6 4 7 3 8 2 9 1 10 11 11
REMARK H PARENT
REMARK Flexibility Score: inf
ROOT
ATOM      1  C   UNL     1      76.909  42.041  19.086  1.00  0.00     0.001 A 
ATOM      2  C   UNL     1      76.545  42.125  20.435  1.00  0.00     0.004 A 
ATOM      3  C   UNL     1      75.654  41.196  20.983  1.00  0.00     0.048 A 
ATOM      4  C   UNL     1      75.124  40.178  20.183  1.00  0.00     0.138 A 
ATOM      5  C   UNL     1      75.491  40.093  18.821  1.00  0.00     0.018 A 
ATOM      6  C   UNL     1      76.384  41.028  18.278  1.00  0.00     0.012 A 
ATOM      7  C   UNL     1      74.945  39.065  18.047  1.00  0.00     0.019 A 
ATOM      8  C   UNL     1      74.062  38.160  18.635  1.00  0.00     0.094 A 
ATOM      9  C   UNL     1      73.744  38.306  19.989  1.00  0.00     0.336 A 
ATOM     10  O   UNL     1      72.949  37.499  20.539  1.00  0.00    -0.246 OA
ATOM     11  O   UNL     1      74.278  39.293  20.704  1.00  0.00    -0.423 OA
ENDROOT
TORSDOF 0
ENDMDL
