MODEL 1
REMARK VINA RESULT:    15.775      0.000      0.000
REMARK INTER + INTRA:          26.283
REMARK INTER:                  24.075
REMARK INTRA:                   2.208
REMARK UNBOUND:                 2.208
REMARK SMILES CC1=CCC[C@H](C)C(=O)C[C@H](C(C)C)C(=O)C1
REMARK SMILES IDX 8 1 9 2 6 3 7 4 5 5 4 6 3 7 2 8 1 9 10 11 11 12 15 13 16 14
REMARK SMILES IDX 17 15 12 17 13 18 14 19
REMARK H PARENT
REMARK Flexibility Score: 70.00
ROOT
ATOM      1  C   UNL     1      17.846  18.699 -12.021  1.00  0.00     0.136 C 
ATOM      2  O   UNL     1      17.872  19.261 -10.935  1.00  0.00    -0.299 OA
ENDROOT
BRANCH   1   3
ATOM      3  C   UNL     1      18.119  19.494 -13.282  1.00  0.00     0.053 C 
ATOM      4  C   UNL     1      17.293  20.784 -13.256  1.00  0.00     0.016 C 
BRANCH   3   5
ATOM      5  C   UNL     1      19.622  19.827 -13.451  1.00  0.00     0.015 C 
BRANCH   5   6
ATOM      6  C   UNL     1      20.401  19.917 -12.129  1.00  0.00     0.028 C 
BRANCH   6   7
ATOM      7  C   UNL     1      21.614  19.016 -12.138  1.00  0.00    -0.028 C 
ATOM      8  C   UNL     1      21.631  17.729 -11.721  1.00  0.00    -0.070 CG0
ATOM      9  C   UNL     1      22.931  16.971 -11.813  1.00  0.00     0.039 C 
ATOM     10  G   UNL     1      20.402  17.019 -11.179  1.00  0.00     0.000 G0
ENDBRANCH   6   7
ENDBRANCH   5   6
ENDBRANCH   3   5
ENDBRANCH   1   3
BRANCH   1  11
ATOM     11  C   UNL     1      17.491  17.230 -12.079  1.00  0.00     0.087 C 
BRANCH  11  12
ATOM     12  C   UNL     1      18.488  16.396 -12.924  1.00  0.00     0.066 C 
BRANCH  12  13
ATOM     13  C   UNL     1      19.739  16.047 -12.129  1.00  0.00     0.140 C 
ATOM     14  O   UNL     1      20.282  14.967 -12.312  1.00  0.00    -0.299 OA
BRANCH  13  15
ATOM     15  C   UNL     1      20.385  17.017 -11.164  1.00  0.00     0.106 CG0
ATOM     16  G   UNL     1      21.621  17.705 -11.718  1.00  0.00     0.000 G0
ENDBRANCH  13  15
ENDBRANCH  12  13
BRANCH  12  17
ATOM     17  C   UNL     1      17.863  15.117 -13.561  1.00  0.00    -0.006 C 
ATOM     18  C   UNL     1      18.689  13.838 -13.343  1.00  0.00     0.008 C 
ATOM     19  C   UNL     1      16.416  14.894 -13.094  1.00  0.00     0.008 C 
ENDBRANCH  12  17
ENDBRANCH  11  12
ENDBRANCH   1  11
TORSDOF 1
ENDMDL
MODEL 2
REMARK VINA RESULT:    16.265      1.657      3.534
REMARK INTER + INTRA:          27.030
REMARK INTER:                  25.774
REMARK INTRA:                   1.256
REMARK UNBOUND:                 2.208
REMARK SMILES CC1=CCC[C@H](C)C(=O)C[C@H](C(C)C)C(=O)C1
REMARK SMILES IDX 8 1 9 2 6 3 7 4 5 5 4 6 3 7 2 8 1 9 10 11 11 12 15 13 16 14
REMARK SMILES IDX 17 15 12 17 13 18 14 19
REMARK H PARENT
REMARK Flexibility Score: 70.00
ROOT
ATOM      1  C   UNL     1      20.729  16.862 -11.170  1.00  0.00     0.136 C 
ATOM      2  O   UNL     1      20.376  16.725 -10.007  1.00  0.00    -0.299 OA
ENDROOT
BRANCH   1   3
ATOM      3  C   UNL     1      21.707  17.963 -11.530  1.00  0.00     0.053 C 
ATOM      4  C   UNL     1      23.007  17.335 -12.044  1.00  0.00     0.016 C 
BRANCH   3   5
ATOM      5  C   UNL     1      21.131  18.937 -12.588  1.00  0.00     0.015 C 
BRANCH   5   6
ATOM      6  C   UNL     1      20.730  20.311 -12.029  1.00  0.00     0.028 C 
BRANCH   6   7
ATOM      7  C   UNL     1      19.442  20.806 -12.644  1.00  0.00    -0.028 C 
ATOM      8  C   UNL     1      18.267  20.135 -12.635  1.00  0.00    -0.070 CG0
ATOM      9  C   UNL     1      17.074  20.785 -13.288  1.00  0.00     0.039 C 
ATOM     10  G   UNL     1      18.099  18.770 -11.989  1.00  0.00     0.000 G0
ENDBRANCH   6   7
ENDBRANCH   5   6
ENDBRANCH   3   5
ENDBRANCH   1   3
BRANCH   1  11
ATOM     11  C   UNL     1      20.138  15.957 -12.228  1.00  0.00     0.087 C 
BRANCH  11  12
ATOM     12  C   UNL     1      18.621  16.187 -12.448  1.00  0.00     0.066 C 
BRANCH  12  13
ATOM     13  C   UNL     1      18.336  17.600 -12.939  1.00  0.00     0.140 C 
ATOM     14  O   UNL     1      18.250  17.810 -14.141  1.00  0.00    -0.299 OA
BRANCH  13  15
ATOM     15  C   UNL     1      18.080  18.753 -11.993  1.00  0.00     0.106 CG0
ATOM     16  G   UNL     1      18.242  20.121 -12.633  1.00  0.00     0.000 G0
ENDBRANCH  13  15
ENDBRANCH  12  13
BRANCH  12  17
ATOM     17  C   UNL     1      17.949  15.132 -13.380  1.00  0.00    -0.006 C 
ATOM     18  C   UNL     1      18.541  13.718 -13.258  1.00  0.00     0.008 C 
ATOM     19  C   UNL     1      16.426  15.082 -13.183  1.00  0.00     0.008 C 
ENDBRANCH  12  17
ENDBRANCH  11  12
ENDBRANCH   1  11
TORSDOF 1
ENDMDL
MODEL 3
REMARK VINA RESULT:    17.292      1.392      4.178
REMARK INTER + INTRA:          28.599
REMARK INTER:                  27.445
REMARK INTRA:                   1.154
REMARK UNBOUND:                 2.208
REMARK SMILES CC1=CCC[C@H](C)C(=O)C[C@H](C(C)C)C(=O)C1
REMARK SMILES IDX 8 1 9 2 6 3 7 4 5 5 4 6 3 7 2 8 1 9 10 11 11 12 15 13 16 14
REMARK SMILES IDX 17 15 12 17 13 18 14 19
REMARK H PARENT
REMARK Flexibility Score: 70.00
ROOT
ATOM      1  C   UNL     1      17.286  15.872 -13.201  1.00  0.00     0.136 C 
ATOM      2  O   UNL     1      16.122  16.089 -12.893  1.00  0.00    -0.299 OA
ENDROOT
BRANCH   1   3
ATOM      3  C   UNL     1      17.796  14.445 -13.237  1.00  0.00     0.053 C 
ATOM      4  C   UNL     1      17.078  13.679 -14.353  1.00  0.00     0.016 C 
BRANCH   3   5
ATOM      5  C   UNL     1      19.329  14.375 -13.445  1.00  0.00     0.015 C 
BRANCH   5   6
ATOM      6  C   UNL     1      20.145  14.394 -12.142  1.00  0.00     0.028 C 
BRANCH   6   7
ATOM      7  C   UNL     1      21.000  15.635 -12.042  1.00  0.00    -0.028 C 
ATOM      8  C   UNL     1      20.625  16.794 -11.452  1.00  0.00    -0.070 CG0
ATOM      9  C   UNL     1      21.613  17.932 -11.432  1.00  0.00     0.039 C 
ATOM     10  G   UNL     1      19.264  16.990 -10.806  1.00  0.00     0.000 G0
ENDBRANCH   6   7
ENDBRANCH   5   6
ENDBRANCH   3   5
ENDBRANCH   1   3
BRANCH   1  11
ATOM     11  C   UNL     1      18.200  17.041 -13.491  1.00  0.00     0.087 C 
BRANCH  11  12
ATOM     12  C   UNL     1      17.872  18.295 -12.639  1.00  0.00     0.066 C 
BRANCH  12  13
ATOM     13  C   UNL     1      18.480  18.197 -11.246  1.00  0.00     0.140 C 
ATOM     14  O   UNL     1      18.291  19.102 -10.446  1.00  0.00    -0.299 OA
BRANCH  13  15
ATOM     15  C   UNL     1      19.257  16.984 -10.782  1.00  0.00     0.106 CG0
ATOM     16  G   UNL     1      20.613  16.830 -11.450  1.00  0.00     0.000 G0
ENDBRANCH  13  15
ENDBRANCH  12  13
BRANCH  12  17
ATOM     17  C   UNL     1      18.265  19.643 -13.319  1.00  0.00    -0.006 C 
ATOM     18  C   UNL     1      17.076  20.580 -13.589  1.00  0.00     0.008 C 
ATOM     19  C   UNL     1      19.352  20.387 -12.529  1.00  0.00     0.008 C 
ENDBRANCH  12  17
ENDBRANCH  11  12
ENDBRANCH   1  11
TORSDOF 1
ENDMDL
MODEL 4
REMARK VINA RESULT:    18.031      2.022      4.971
REMARK INTER + INTRA:          29.726
REMARK INTER:                  29.817
REMARK INTRA:                  -0.091
REMARK UNBOUND:                 2.208
REMARK SMILES CC1=CCC[C@H](C)C(=O)C[C@H](C(C)C)C(=O)C1
REMARK SMILES IDX 8 1 9 2 6 3 7 4 5 5 4 6 3 7 2 8 1 9 10 11 11 12 15 13 16 14
REMARK SMILES IDX 17 15 12 17 13 18 14 19
REMARK H PARENT
REMARK Flexibility Score: 70.00
ROOT
ATOM      1  C   UNL     1      19.693  16.930 -10.654  1.00  0.00     0.136 C 
ATOM      2  O   UNL     1      19.918  16.610  -9.495  1.00  0.00    -0.299 OA
ENDROOT
BRANCH   1   3
ATOM      3  C   UNL     1      20.650  16.500 -11.748  1.00  0.00     0.053 C 
ATOM      4  C   UNL     1      22.057  17.007 -11.417  1.00  0.00     0.016 C 
BRANCH   3   5
ATOM      5  C   UNL     1      20.669  14.964 -11.941  1.00  0.00     0.015 C 
BRANCH   5   6
ATOM      6  C   UNL     1      19.854  14.468 -13.147  1.00  0.00     0.028 C 
BRANCH   6   7
ATOM      7  C   UNL     1      18.370  14.511 -12.867  1.00  0.00    -0.028 C 
ATOM      8  C   UNL     1      17.532  15.500 -13.256  1.00  0.00    -0.070 CG0
ATOM      9  C   UNL     1      16.073  15.373 -12.901  1.00  0.00     0.039 C 
ATOM     10  G   UNL     1      17.996  16.716 -14.039  1.00  0.00     0.000 G0
ENDBRANCH   6   7
ENDBRANCH   5   6
ENDBRANCH   3   5
ENDBRANCH   1   3
BRANCH   1  11
ATOM     11  C   UNL     1      18.486  17.789 -10.957  1.00  0.00     0.087 C 
BRANCH  11  12
ATOM     12  C   UNL     1      18.634  18.605 -12.267  1.00  0.00     0.066 C 
BRANCH  12  13
ATOM     13  C   UNL     1      17.746  18.051 -13.373  1.00  0.00     0.140 C 
ATOM     14  O   UNL     1      16.819  18.729 -13.793  1.00  0.00    -0.299 OA
BRANCH  13  15
ATOM     15  C   UNL     1      18.006  16.712 -14.030  1.00  0.00     0.106 CG0
ATOM     16  G   UNL     1      17.522  15.524 -13.217  1.00  0.00     0.000 G0
ENDBRANCH  13  15
ENDBRANCH  12  13
BRANCH  12  17
ATOM     17  C   UNL     1      18.402  20.137 -12.088  1.00  0.00    -0.006 C 
ATOM     18  C   UNL     1      17.632  20.512 -10.810  1.00  0.00     0.008 C 
ATOM     19  C   UNL     1      19.718  20.927 -12.159  1.00  0.00     0.008 C 
ENDBRANCH  12  17
ENDBRANCH  11  12
ENDBRANCH   1  11
TORSDOF 1
ENDMDL
MODEL 5
REMARK VINA RESULT:    18.651      2.243      5.335
REMARK INTER + INTRA:          30.672
REMARK INTER:                  30.512
REMARK INTRA:                   0.160
REMARK UNBOUND:                 2.208
REMARK SMILES CC1=CCC[C@H](C)C(=O)C[C@H](C(C)C)C(=O)C1
REMARK SMILES IDX 8 1 9 2 6 3 7 4 5 5 4 6 3 7 2 8 1 9 10 11 11 12 15 13 16 14
REMARK SMILES IDX 17 15 12 17 13 18 14 19
REMARK H PARENT
REMARK Flexibility Score: 70.00
ROOT
ATOM      1  C   UNL     1      18.216  16.457 -13.678  1.00  0.00     0.136 C 
ATOM      2  O   UNL     1      17.903  17.088 -14.678  1.00  0.00    -0.299 OA
ENDROOT
BRANCH   1   3
ATOM      3  C   UNL     1      17.920  14.973 -13.607  1.00  0.00     0.053 C 
ATOM      4  C   UNL     1      19.069  14.262 -12.884  1.00  0.00     0.016 C 
BRANCH   3   5
ATOM      5  C   UNL     1      16.577  14.675 -12.893  1.00  0.00     0.015 C 
BRANCH   5   6
ATOM      6  C   UNL     1      15.747  15.927 -12.564  1.00  0.00     0.028 C 
BRANCH   6   7
ATOM      7  C   UNL     1      15.211  15.881 -11.152  1.00  0.00    -0.028 C 
ATOM      8  C   UNL     1      15.866  16.330 -10.056  1.00  0.00    -0.070 CG0
ATOM      9  C   UNL     1      15.175  16.217  -8.722  1.00  0.00     0.039 C 
ATOM     10  G   UNL     1      17.253  16.948 -10.117  1.00  0.00     0.000 G0
ENDBRANCH   6   7
ENDBRANCH   5   6
ENDBRANCH   3   5
ENDBRANCH   1   3
BRANCH   1  11
ATOM     11  C   UNL     1      18.847  17.190 -12.515  1.00  0.00     0.087 C 
BRANCH  11  12
ATOM     12  C   UNL     1      18.071  18.469 -12.108  1.00  0.00     0.066 C 
BRANCH  12  13
ATOM     13  C   UNL     1      17.397  18.306 -10.753  1.00  0.00     0.140 C 
ATOM     14  O   UNL     1      16.884  19.278 -10.219  1.00  0.00    -0.299 OA
BRANCH  13  15
ATOM     15  C   UNL     1      17.272  16.964 -10.064  1.00  0.00     0.106 CG0
ATOM     16  G   UNL     1      15.869  16.383 -10.100  1.00  0.00     0.000 G0
ENDBRANCH  13  15
ENDBRANCH  12  13
BRANCH  12  17
ATOM     17  C   UNL     1      18.932  19.770 -12.144  1.00  0.00    -0.006 C 
ATOM     18  C   UNL     1      20.360  19.565 -12.676  1.00  0.00     0.008 C 
ATOM     19  C   UNL     1      18.236  20.895 -12.926  1.00  0.00     0.008 C 
ENDBRANCH  12  17
ENDBRANCH  11  12
ENDBRANCH   1  11
TORSDOF 1
ENDMDL
