MODEL 1
REMARK VINA RESULT:    18.964      0.000      0.000
REMARK INTER + INTRA:          20.970
REMARK INTER:                  21.181
REMARK INTRA:                  -0.211
REMARK UNBOUND:                -0.211
REMARK SMILES CC(C)c1ccc(C(=O)[O-])cc1
REMARK SMILES IDX 7 1 6 2 11 3 5 4 12 5 4 6 8 7 9 8 10 9 2 10 1 11 3 12
REMARK H PARENT
REMARK Flexibility Score: inf
ROOT
ATOM      1  C   UNL     1      -1.200   8.333 -23.719  1.00  0.00    -0.003 A 
ATOM      2  C   UNL     1      -0.532   8.506 -22.496  1.00  0.00     0.010 A 
ATOM      3  C   UNL     1      -2.494   7.785 -23.715  1.00  0.00     0.010 A 
ATOM      4  C   UNL     1      -1.144   8.139 -21.293  1.00  0.00     0.004 A 
ATOM      5  C   UNL     1      -3.107   7.418 -22.515  1.00  0.00     0.004 A 
ATOM      6  C   UNL     1      -2.438   7.593 -21.289  1.00  0.00    -0.045 A 
ENDROOT
BRANCH   1   7
ATOM      7  C   UNL     1      -0.547   8.722 -24.988  1.00  0.00     0.071 C 
ATOM      8  O   UNL     1      -0.790   9.841 -25.516  1.00  0.00    -0.545 OA
ATOM      9  O   UNL     1       0.344   7.860 -25.616  1.00  0.00    -0.545 OA
ENDBRANCH   1   7
BRANCH   6  10
ATOM     10  C   UNL     1      -3.091   7.198 -19.977  1.00  0.00     0.013 C 
ATOM     11  C   UNL     1      -4.543   7.687 -19.912  1.00  0.00     0.012 C 
ATOM     12  C   UNL     1      -2.281   7.712 -18.781  1.00  0.00     0.012 C 
ENDBRANCH   6  10
TORSDOF 2
ENDMDL
MODEL 2
REMARK VINA RESULT:    19.197      3.129      5.099
REMARK INTER + INTRA:          21.230
REMARK INTER:                  21.435
REMARK INTRA:                  -0.205
REMARK UNBOUND:                -0.211
REMARK SMILES CC(C)c1ccc(C(=O)[O-])cc1
REMARK SMILES IDX 7 1 6 2 11 3 5 4 12 5 4 6 8 7 9 8 10 9 2 10 1 11 3 12
REMARK H PARENT
REMARK Flexibility Score: inf
ROOT
ATOM      1  C   UNL     1      -2.546   7.624 -20.952  1.00  0.00    -0.003 A 
ATOM      2  C   UNL     1      -1.281   8.216 -21.099  1.00  0.00     0.010 A 
ATOM      3  C   UNL     1      -3.261   7.254 -22.104  1.00  0.00     0.010 A 
ATOM      4  C   UNL     1      -0.741   8.435 -22.369  1.00  0.00     0.004 A 
ATOM      5  C   UNL     1      -2.722   7.471 -23.375  1.00  0.00     0.004 A 
ATOM      6  C   UNL     1      -1.454   8.064 -23.522  1.00  0.00    -0.045 A 
ENDROOT
BRANCH   1   7
ATOM      7  C   UNL     1      -3.112   7.396 -19.605  1.00  0.00     0.071 C 
ATOM      8  O   UNL     1      -2.412   6.875 -18.696  1.00  0.00    -0.545 OA
ATOM      9  O   UNL     1      -4.426   7.752 -19.323  1.00  0.00    -0.545 OA
ENDBRANCH   1   7
BRANCH   6  10
ATOM     10  C   UNL     1      -0.857   8.307 -24.895  1.00  0.00     0.013 C 
ATOM     11  C   UNL     1       0.489   7.589 -25.049  1.00  0.00     0.012 C 
ATOM     12  C   UNL     1      -0.717   9.807 -25.179  1.00  0.00     0.012 C 
ENDBRANCH   6  10
TORSDOF 2
ENDMDL
MODEL 3
REMARK VINA RESULT:    19.728      2.757      5.350
REMARK INTER + INTRA:          21.824
REMARK INTER:                  22.033
REMARK INTRA:                  -0.209
REMARK UNBOUND:                -0.211
REMARK SMILES CC(C)c1ccc(C(=O)[O-])cc1
REMARK SMILES IDX 7 1 6 2 11 3 5 4 12 5 4 6 8 7 9 8 10 9 2 10 1 11 3 12
REMARK H PARENT
REMARK Flexibility Score: inf
ROOT
ATOM      1  C   UNL     1      -1.858   7.797 -22.882  1.00  0.00    -0.003 A 
ATOM      2  C   UNL     1      -0.614   7.154 -22.993  1.00  0.00     0.010 A 
ATOM      3  C   UNL     1      -2.230   8.732 -23.864  1.00  0.00     0.010 A 
ATOM      4  C   UNL     1       0.241   7.439 -24.062  1.00  0.00     0.004 A 
ATOM      5  C   UNL     1      -1.376   9.018 -24.932  1.00  0.00     0.004 A 
ATOM      6  C   UNL     1      -0.130   8.373 -25.044  1.00  0.00    -0.045 A 
ENDROOT
BRANCH   1   7
ATOM      7  C   UNL     1      -2.759   7.491 -21.750  1.00  0.00     0.071 C 
ATOM      8  O   UNL     1      -2.332   7.526 -20.565  1.00  0.00    -0.545 OA
ATOM      9  O   UNL     1      -4.089   7.161 -21.977  1.00  0.00    -0.545 OA
ENDBRANCH   1   7
BRANCH   6  10
ATOM     10  C   UNL     1       0.808   8.674 -26.198  1.00  0.00     0.013 C 
ATOM     11  C   UNL     1       0.348   9.912 -26.977  1.00  0.00     0.012 C 
ATOM     12  C   UNL     1       0.950   7.460 -27.125  1.00  0.00     0.012 C 
ENDBRANCH   6  10
TORSDOF 2
ENDMDL
