MODEL 1
REMARK VINA RESULT:    -3.544      0.000      0.000
REMARK INTER + INTRA:          -8.095
REMARK INTER:                  -6.651
REMARK INTRA:                  -1.444
REMARK UNBOUND:                -1.444
REMARK SMILES O=C([O-])CCCCCCCCCCCCCCC(=O)[O-]
REMARK SMILES IDX 10 1 9 2 8 3 7 4 6 5 5 6 4 7 2 8 1 9 3 10 11 11 12 12 13 13
REMARK SMILES IDX 14 14 15 15 16 16 17 17 18 18 19 19 20 20
REMARK H PARENT
REMARK Flexibility Score: inf
ROOT
ATOM      1  C   UNL     1      47.617  44.752  15.109  1.00  0.00     0.000 C 
ENDROOT
BRANCH   1   2
ATOM      2  C   UNL     1      46.546  43.826  14.515  1.00  0.00     0.000 C 
BRANCH   2   3
ATOM      3  C   UNL     1      47.098  42.438  14.154  1.00  0.00     0.000 C 
BRANCH   3   4
ATOM      4  C   UNL     1      46.336  41.295  14.850  1.00  0.00     0.000 C 
BRANCH   4   5
ATOM      5  C   UNL     1      45.274  41.821  15.840  1.00  0.00     0.000 C 
BRANCH   5   6
ATOM      6  C   UNL     1      45.704  41.720  17.313  1.00  0.00     0.006 C 
BRANCH   6   7
ATOM      7  C   UNL     1      44.875  42.616  18.240  1.00  0.00     0.053 C 
BRANCH   7   8
ATOM      8  C   UNL     1      45.474  43.985  18.318  1.00  0.00     0.041 C 
ATOM      9  O   UNL     1      46.515  44.184  18.998  1.00  0.00    -0.550 OA
ATOM     10  O   UNL     1      44.911  45.031  17.597  1.00  0.00    -0.550 OA
ENDBRANCH   7   8
ENDBRANCH   6   7
ENDBRANCH   5   6
ENDBRANCH   4   5
ENDBRANCH   3   4
ENDBRANCH   2   3
ENDBRANCH   1   2
BRANCH   1  11
ATOM     11  C   UNL     1      49.028  44.245  14.779  1.00  0.00     0.000 C 
BRANCH  11  12
ATOM     12  C   UNL     1      50.005  45.379  14.412  1.00  0.00     0.000 C 
BRANCH  12  13
ATOM     13  C   UNL     1      50.540  46.190  15.607  1.00  0.00     0.000 C 
BRANCH  13  14
ATOM     14  C   UNL     1      50.041  47.645  15.615  1.00  0.00     0.000 C 
BRANCH  14  15
ATOM     15  C   UNL     1      49.064  47.948  14.465  1.00  0.00     0.000 C 
BRANCH  15  16
ATOM     16  C   UNL     1      49.638  48.835  13.340  1.00  0.00     0.006 C 
BRANCH  16  17
ATOM     17  C   UNL     1      51.119  49.212  13.513  1.00  0.00     0.053 C 
BRANCH  17  18
ATOM     18  C   UNL     1      51.983  48.584  12.463  1.00  0.00     0.041 C 
ATOM     19  O   UNL     1      52.870  47.750  12.788  1.00  0.00    -0.550 OA
ATOM     20  O   UNL     1      51.788  48.894  11.124  1.00  0.00    -0.550 OA
ENDBRANCH  17  18
ENDBRANCH  16  17
ENDBRANCH  15  16
ENDBRANCH  14  15
ENDBRANCH  13  14
ENDBRANCH  12  13
ENDBRANCH  11  12
ENDBRANCH   1  11
TORSDOF 15
ENDMDL
MODEL 2
REMARK VINA RESULT:    -3.520     11.822     14.178
REMARK INTER + INTRA:          -8.052
REMARK INTER:                  -6.275
REMARK INTRA:                  -1.777
REMARK UNBOUND:                -1.444
REMARK SMILES O=C([O-])CCCCCCCCCCCCCCC(=O)[O-]
REMARK SMILES IDX 10 1 9 2 8 3 7 4 6 5 5 6 4 7 2 8 1 9 3 10 11 11 12 12 13 13
REMARK SMILES IDX 14 14 15 15 16 16 17 17 18 18 19 19 20 20
REMARK H PARENT
REMARK Flexibility Score: inf
ROOT
ATOM      1  C   UNL     1      64.799  42.434  15.266  1.00  0.00     0.000 C 
ENDROOT
BRANCH   1   2
ATOM      2  C   UNL     1      64.007  41.166  15.618  1.00  0.00     0.000 C 
BRANCH   2   3
ATOM      3  C   UNL     1      64.155  40.767  17.094  1.00  0.00     0.000 C 
BRANCH   3   4
ATOM      4  C   UNL     1      64.433  41.972  18.012  1.00  0.00     0.000 C 
BRANCH   4   5
ATOM      5  C   UNL     1      63.342  42.145  19.091  1.00  0.00     0.000 C 
BRANCH   5   6
ATOM      6  C   UNL     1      62.237  41.077  19.023  1.00  0.00     0.006 C 
BRANCH   6   7
ATOM      7  C   UNL     1      60.826  41.676  19.036  1.00  0.00     0.053 C 
BRANCH   7   8
ATOM      8  C   UNL     1      60.134  41.356  20.323  1.00  0.00     0.041 C 
ATOM      9  O   UNL     1      58.927  40.996  20.321  1.00  0.00    -0.550 OA
ATOM     10  O   UNL     1      60.836  41.409  21.521  1.00  0.00    -0.550 OA
ENDBRANCH   7   8
ENDBRANCH   6   7
ENDBRANCH   5   6
ENDBRANCH   4   5
ENDBRANCH   3   4
ENDBRANCH   2   3
ENDBRANCH   1   2
BRANCH   1  11
ATOM     11  C   UNL     1      63.854  43.597  14.929  1.00  0.00     0.000 C 
BRANCH  11  12
ATOM     12  C   UNL     1      64.128  44.858  15.771  1.00  0.00     0.000 C 
BRANCH  12  13
ATOM     13  C   UNL     1      62.877  45.516  16.385  1.00  0.00     0.000 C 
BRANCH  13  14
ATOM     14  C   UNL     1      61.786  44.498  16.756  1.00  0.00     0.000 C 
BRANCH  14  15
ATOM     15  C   UNL     1      60.625  45.127  17.546  1.00  0.00     0.000 C 
BRANCH  15  16
ATOM     16  C   UNL     1      59.234  44.529  17.248  1.00  0.00     0.006 C 
BRANCH  16  17
ATOM     17  C   UNL     1      58.279  45.469  16.497  1.00  0.00     0.053 C 
BRANCH  17  18
ATOM     18  C   UNL     1      57.317  44.717  15.630  1.00  0.00     0.041 C 
ATOM     19  O   UNL     1      57.405  43.464  15.524  1.00  0.00    -0.550 OA
ATOM     20  O   UNL     1      56.302  45.394  14.966  1.00  0.00    -0.550 OA
ENDBRANCH  17  18
ENDBRANCH  16  17
ENDBRANCH  15  16
ENDBRANCH  14  15
ENDBRANCH  13  14
ENDBRANCH  12  13
ENDBRANCH  11  12
ENDBRANCH   1  11
TORSDOF 15
ENDMDL
MODEL 3
REMARK VINA RESULT:    -3.506      2.149      7.981
REMARK INTER + INTRA:          -8.024
REMARK INTER:                  -6.515
REMARK INTRA:                  -1.508
REMARK UNBOUND:                -1.444
REMARK SMILES O=C([O-])CCCCCCCCCCCCCCC(=O)[O-]
REMARK SMILES IDX 10 1 9 2 8 3 7 4 6 5 5 6 4 7 2 8 1 9 3 10 11 11 12 12 13 13
REMARK SMILES IDX 14 14 15 15 16 16 17 17 18 18 19 19 20 20
REMARK H PARENT
REMARK Flexibility Score: inf
ROOT
ATOM      1  C   UNL     1      47.745  44.760  15.215  1.00  0.00     0.000 C 
ENDROOT
BRANCH   1   2
ATOM      2  C   UNL     1      48.988  43.875  15.393  1.00  0.00     0.000 C 
BRANCH   2   3
ATOM      3  C   UNL     1      50.298  44.640  15.153  1.00  0.00     0.000 C 
BRANCH   3   4
ATOM      4  C   UNL     1      50.109  45.877  14.255  1.00  0.00     0.000 C 
BRANCH   4   5
ATOM      5  C   UNL     1      51.365  46.774  14.228  1.00  0.00     0.000 C 
BRANCH   5   6
ATOM      6  C   UNL     1      51.570  47.504  12.890  1.00  0.00     0.006 C 
BRANCH   6   7
ATOM      7  C   UNL     1      51.482  49.029  13.021  1.00  0.00     0.053 C 
BRANCH   7   8
ATOM      8  C   UNL     1      50.199  49.532  12.439  1.00  0.00     0.041 C 
ATOM      9  O   UNL     1      49.171  49.629  13.160  1.00  0.00    -0.550 OA
ATOM     10  O   UNL     1      50.151  49.940  11.112  1.00  0.00    -0.550 OA
ENDBRANCH   7   8
ENDBRANCH   6   7
ENDBRANCH   5   6
ENDBRANCH   4   5
ENDBRANCH   3   4
ENDBRANCH   2   3
ENDBRANCH   1   2
BRANCH   1  11
ATOM     11  C   UNL     1      46.604  43.977  14.550  1.00  0.00     0.000 C 
BRANCH  11  12
ATOM     12  C   UNL     1      47.038  42.587  14.049  1.00  0.00     0.000 C 
BRANCH  12  13
ATOM     13  C   UNL     1      46.346  41.398  14.742  1.00  0.00     0.000 C 
BRANCH  13  14
ATOM     14  C   UNL     1      45.194  41.831  15.664  1.00  0.00     0.000 C 
BRANCH  14  15
ATOM     15  C   UNL     1      45.455  41.500  17.144  1.00  0.00     0.000 C 
BRANCH  15  16
ATOM     16  C   UNL     1      46.320  42.532  17.899  1.00  0.00     0.006 C 
BRANCH  16  17
ATOM     17  C   UNL     1      47.435  41.923  18.764  1.00  0.00     0.053 C 
BRANCH  17  18
ATOM     18  C   UNL     1      48.076  40.741  18.105  1.00  0.00     0.041 C 
ATOM     19  O   UNL     1      48.857  40.905  17.131  1.00  0.00    -0.550 OA
ATOM     20  O   UNL     1      47.836  39.461  18.588  1.00  0.00    -0.550 OA
ENDBRANCH  17  18
ENDBRANCH  16  17
ENDBRANCH  15  16
ENDBRANCH  14  15
ENDBRANCH  13  14
ENDBRANCH  12  13
ENDBRANCH  11  12
ENDBRANCH   1  11
TORSDOF 15
ENDMDL
MODEL 4
REMARK VINA RESULT:    -3.434     12.676     15.456
REMARK INTER + INTRA:          -7.889
REMARK INTER:                  -5.507
REMARK INTRA:                  -2.382
REMARK UNBOUND:                -1.444
REMARK SMILES O=C([O-])CCCCCCCCCCCCCCC(=O)[O-]
REMARK SMILES IDX 10 1 9 2 8 3 7 4 6 5 5 6 4 7 2 8 1 9 3 10 11 11 12 12 13 13
REMARK SMILES IDX 14 14 15 15 16 16 17 17 18 18 19 19 20 20
REMARK H PARENT
REMARK Flexibility Score: inf
ROOT
ATOM      1  C   UNL     1      65.076  41.654  15.716  1.00  0.00     0.000 C 
ENDROOT
BRANCH   1   2
ATOM      2  C   UNL     1      64.030  40.690  16.296  1.00  0.00     0.000 C 
BRANCH   2   3
ATOM      3  C   UNL     1      63.886  40.823  17.820  1.00  0.00     0.000 C 
BRANCH   3   4
ATOM      4  C   UNL     1      62.716  41.736  18.230  1.00  0.00     0.000 C 
BRANCH   4   5
ATOM      5  C   UNL     1      63.165  42.865  19.182  1.00  0.00     0.000 C 
BRANCH   5   6
ATOM      6  C   UNL     1      64.671  43.171  19.104  1.00  0.00     0.006 C 
BRANCH   6   7
ATOM      7  C   UNL     1      64.990  44.657  19.305  1.00  0.00     0.053 C 
BRANCH   7   8
ATOM      8  C   UNL     1      64.339  45.168  20.551  1.00  0.00     0.041 C 
ATOM      9  O   UNL     1      63.443  46.051  20.481  1.00  0.00    -0.550 OA
ATOM     10  O   UNL     1      64.685  44.634  21.786  1.00  0.00    -0.550 OA
ENDBRANCH   7   8
ENDBRANCH   6   7
ENDBRANCH   5   6
ENDBRANCH   4   5
ENDBRANCH   3   4
ENDBRANCH   2   3
ENDBRANCH   1   2
BRANCH   1  11
ATOM     11  C   UNL     1      64.418  42.688  14.791  1.00  0.00     0.000 C 
BRANCH  11  12
ATOM     12  C   UNL     1      64.288  44.079  15.441  1.00  0.00     0.000 C 
BRANCH  12  13
ATOM     13  C   UNL     1      62.853  44.487  15.825  1.00  0.00     0.000 C 
BRANCH  13  14
ATOM     14  C   UNL     1      62.803  45.761  16.685  1.00  0.00     0.000 C 
BRANCH  14  15
ATOM     15  C   UNL     1      61.520  45.862  17.529  1.00  0.00     0.000 C 
BRANCH  15  16
ATOM     16  C   UNL     1      60.465  44.772  17.244  1.00  0.00     0.006 C 
BRANCH  16  17
ATOM     17  C   UNL     1      59.038  45.301  17.028  1.00  0.00     0.053 C 
BRANCH  17  18
ATOM     18  C   UNL     1      58.133  44.257  16.449  1.00  0.00     0.041 C 
ATOM     19  O   UNL     1      57.559  44.458  15.346  1.00  0.00    -0.550 OA
ATOM     20  O   UNL     1      57.952  43.050  17.111  1.00  0.00    -0.550 OA
ENDBRANCH  17  18
ENDBRANCH  16  17
ENDBRANCH  15  16
ENDBRANCH  14  15
ENDBRANCH  13  14
ENDBRANCH  12  13
ENDBRANCH  11  12
ENDBRANCH   1  11
TORSDOF 15
ENDMDL
MODEL 5
REMARK VINA RESULT:    -3.402     12.304     14.875
REMARK INTER + INTRA:          -7.828
REMARK INTER:                  -5.985
REMARK INTRA:                  -1.843
REMARK UNBOUND:                -1.444
REMARK SMILES O=C([O-])CCCCCCCCCCCCCCC(=O)[O-]
REMARK SMILES IDX 10 1 9 2 8 3 7 4 6 5 5 6 4 7 2 8 1 9 3 10 11 11 12 12 13 13
REMARK SMILES IDX 14 14 15 15 16 16 17 17 18 18 19 19 20 20
REMARK H PARENT
REMARK Flexibility Score: inf
ROOT
ATOM      1  C   UNL     1      64.012  40.765  17.200  1.00  0.00     0.000 C 
ENDROOT
BRANCH   1   2
ATOM      2  C   UNL     1      64.733  41.904  17.936  1.00  0.00     0.000 C 
BRANCH   2   3
ATOM      3  C   UNL     1      63.782  42.746  18.799  1.00  0.00     0.000 C 
BRANCH   3   4
ATOM      4  C   UNL     1      62.338  42.750  18.262  1.00  0.00     0.000 C 
BRANCH   4   5
ATOM      5  C   UNL     1      61.690  44.149  18.346  1.00  0.00     0.000 C 
BRANCH   5   6
ATOM      6  C   UNL     1      60.907  44.540  17.082  1.00  0.00     0.006 C 
BRANCH   6   7
ATOM      7  C   UNL     1      59.539  45.159  17.394  1.00  0.00     0.053 C 
BRANCH   7   8
ATOM      8  C   UNL     1      58.439  44.257  16.931  1.00  0.00     0.041 C 
ATOM      9  O   UNL     1      57.971  44.375  15.768  1.00  0.00    -0.550 OA
ATOM     10  O   UNL     1      57.965  43.254  17.767  1.00  0.00    -0.550 OA
ENDBRANCH   7   8
ENDBRANCH   6   7
ENDBRANCH   5   6
ENDBRANCH   4   5
ENDBRANCH   3   4
ENDBRANCH   2   3
ENDBRANCH   1   2
BRANCH   1  11
ATOM     11  C   UNL     1      64.063  40.972  15.680  1.00  0.00     0.000 C 
BRANCH  11  12
ATOM     12  C   UNL     1      64.815  42.254  15.272  1.00  0.00     0.000 C 
BRANCH  12  13
ATOM     13  C   UNL     1      63.916  43.463  14.952  1.00  0.00     0.000 C 
BRANCH  13  14
ATOM     14  C   UNL     1      64.676  44.799  14.984  1.00  0.00     0.000 C 
BRANCH  14  15
ATOM     15  C   UNL     1      64.581  45.508  16.347  1.00  0.00     0.000 C 
BRANCH  15  16
ATOM     16  C   UNL     1      63.760  46.815  16.346  1.00  0.00     0.006 C 
BRANCH  16  17
ATOM     17  C   UNL     1      64.593  48.096  16.513  1.00  0.00     0.053 C 
BRANCH  17  18
ATOM     18  C   UNL     1      63.731  49.307  16.697  1.00  0.00     0.041 C 
ATOM     19  O   UNL     1      63.219  49.877  15.697  1.00  0.00    -0.550 OA
ATOM     20  O   UNL     1      63.465  49.785  17.973  1.00  0.00    -0.550 OA
ENDBRANCH  17  18
ENDBRANCH  16  17
ENDBRANCH  15  16
ENDBRANCH  14  15
ENDBRANCH  13  14
ENDBRANCH  12  13
ENDBRANCH  11  12
ENDBRANCH   1  11
TORSDOF 15
ENDMDL
MODEL 6
REMARK VINA RESULT:    -3.395      2.084      7.380
REMARK INTER + INTRA:          -7.816
REMARK INTER:                  -5.583
REMARK INTRA:                  -2.233
REMARK UNBOUND:                -1.444
REMARK SMILES O=C([O-])CCCCCCCCCCCCCCC(=O)[O-]
REMARK SMILES IDX 10 1 9 2 8 3 7 4 6 5 5 6 4 7 2 8 1 9 3 10 11 11 12 12 13 13
REMARK SMILES IDX 14 14 15 15 16 16 17 17 18 18 19 19 20 20
REMARK H PARENT
REMARK Flexibility Score: inf
ROOT
ATOM      1  C   UNL     1      46.482  44.707  17.332  1.00  0.00     0.000 C 
ENDROOT
BRANCH   1   2
ATOM      2  C   UNL     1      47.866  44.822  17.986  1.00  0.00     0.000 C 
BRANCH   2   3
ATOM      3  C   UNL     1      48.938  45.338  17.014  1.00  0.00     0.000 C 
BRANCH   3   4
ATOM      4  C   UNL     1      50.094  44.339  16.818  1.00  0.00     0.000 C 
BRANCH   4   5
ATOM      5  C   UNL     1      50.803  44.529  15.460  1.00  0.00     0.000 C 
BRANCH   5   6
ATOM      6  C   UNL     1      49.984  45.349  14.449  1.00  0.00     0.006 C 
BRANCH   6   7
ATOM      7  C   UNL     1      50.746  46.562  13.904  1.00  0.00     0.053 C 
BRANCH   7   8
ATOM      8  C   UNL     1      50.005  47.826  14.208  1.00  0.00     0.041 C 
ATOM      9  O   UNL     1      48.760  47.800  14.397  1.00  0.00    -0.550 OA
ATOM     10  O   UNL     1      50.697  49.024  14.332  1.00  0.00    -0.550 OA
ENDBRANCH   7   8
ENDBRANCH   6   7
ENDBRANCH   5   6
ENDBRANCH   4   5
ENDBRANCH   3   4
ENDBRANCH   2   3
ENDBRANCH   1   2
BRANCH   1  11
ATOM     11  C   UNL     1      46.516  45.202  15.880  1.00  0.00     0.000 C 
BRANCH  11  12
ATOM     12  C   UNL     1      46.118  44.114  14.863  1.00  0.00     0.000 C 
BRANCH  12  13
ATOM     13  C   UNL     1      47.224  43.094  14.534  1.00  0.00     0.000 C 
BRANCH  13  14
ATOM     14  C   UNL     1      46.691  41.660  14.380  1.00  0.00     0.000 C 
BRANCH  14  15
ATOM     15  C   UNL     1      45.408  41.409  15.192  1.00  0.00     0.000 C 
BRANCH  15  16
ATOM     16  C   UNL     1      45.575  40.458  16.396  1.00  0.00     0.006 C 
BRANCH  16  17
ATOM     17  C   UNL     1      45.624  41.158  17.764  1.00  0.00     0.053 C 
BRANCH  17  18
ATOM     18  C   UNL     1      47.000  41.137  18.356  1.00  0.00     0.041 C 
ATOM     19  O   UNL     1      48.011  41.250  17.612  1.00  0.00    -0.550 OA
ATOM     20  O   UNL     1      47.165  41.028  19.730  1.00  0.00    -0.550 OA
ENDBRANCH  17  18
ENDBRANCH  16  17
ENDBRANCH  15  16
ENDBRANCH  14  15
ENDBRANCH  13  14
ENDBRANCH  12  13
ENDBRANCH  11  12
ENDBRANCH   1  11
TORSDOF 15
ENDMDL
MODEL 7
REMARK VINA RESULT:    -3.337      2.950      7.091
REMARK INTER + INTRA:          -7.706
REMARK INTER:                  -5.444
REMARK INTRA:                  -2.262
REMARK UNBOUND:                -1.444
REMARK SMILES O=C([O-])CCCCCCCCCCCCCCC(=O)[O-]
REMARK SMILES IDX 10 1 9 2 8 3 7 4 6 5 5 6 4 7 2 8 1 9 3 10 11 11 12 12 13 13
REMARK SMILES IDX 14 14 15 15 16 16 17 17 18 18 19 19 20 20
REMARK H PARENT
REMARK Flexibility Score: inf
ROOT
ATOM      1  C   UNL     1      48.612  47.505  16.589  1.00  0.00     0.000 C 
ENDROOT
BRANCH   1   2
ATOM      2  C   UNL     1      48.635  47.444  15.055  1.00  0.00     0.000 C 
BRANCH   2   3
ATOM      3  C   UNL     1      50.042  47.655  14.476  1.00  0.00     0.000 C 
BRANCH   3   4
ATOM      4  C   UNL     1      50.776  46.330  14.197  1.00  0.00     0.000 C 
BRANCH   4   5
ATOM      5  C   UNL     1      49.872  45.102  14.441  1.00  0.00     0.000 C 
BRANCH   5   6
ATOM      6  C   UNL     1      50.427  44.132  15.497  1.00  0.00     0.006 C 
BRANCH   6   7
ATOM      7  C   UNL     1      51.304  44.826  16.545  1.00  0.00     0.053 C 
BRANCH   7   8
ATOM      8  C   UNL     1      52.668  44.211  16.577  1.00  0.00     0.041 C 
ATOM      9  O   UNL     1      53.619  44.809  17.145  1.00  0.00    -0.550 OA
ATOM     10  O   UNL     1      52.876  42.954  16.024  1.00  0.00    -0.550 OA
ENDBRANCH   7   8
ENDBRANCH   6   7
ENDBRANCH   5   6
ENDBRANCH   4   5
ENDBRANCH   3   4
ENDBRANCH   2   3
ENDBRANCH   1   2
BRANCH   1  11
ATOM     11  C   UNL     1      47.351  46.831  17.148  1.00  0.00     0.000 C 
BRANCH  11  12
ATOM     12  C   UNL     1      47.624  45.429  17.725  1.00  0.00     0.000 C 
BRANCH  12  13
ATOM     13  C   UNL     1      47.046  44.262  16.902  1.00  0.00     0.000 C 
BRANCH  13  14
ATOM     14  C   UNL     1      46.303  44.729  15.640  1.00  0.00     0.000 C 
BRANCH  14  15
ATOM     15  C   UNL     1      46.420  43.731  14.473  1.00  0.00     0.000 C 
BRANCH  15  16
ATOM     16  C   UNL     1      47.120  42.401  14.822  1.00  0.00     0.006 C 
BRANCH  16  17
ATOM     17  C   UNL     1      46.176  41.195  14.955  1.00  0.00     0.053 C 
BRANCH  17  18
ATOM     18  C   UNL     1      46.484  40.371  16.167  1.00  0.00     0.041 C 
ATOM     19  O   UNL     1      45.716  39.432  16.507  1.00  0.00    -0.550 OA
ATOM     20  O   UNL     1      47.637  40.619  16.902  1.00  0.00    -0.550 OA
ENDBRANCH  17  18
ENDBRANCH  16  17
ENDBRANCH  15  16
ENDBRANCH  14  15
ENDBRANCH  13  14
ENDBRANCH  12  13
ENDBRANCH  11  12
ENDBRANCH   1  11
TORSDOF 15
ENDMDL
MODEL 8
REMARK VINA RESULT:    -3.332     12.277     15.236
REMARK INTER + INTRA:          -7.697
REMARK INTER:                  -5.257
REMARK INTRA:                  -2.441
REMARK UNBOUND:                -1.444
REMARK SMILES O=C([O-])CCCCCCCCCCCCCCC(=O)[O-]
REMARK SMILES IDX 10 1 9 2 8 3 7 4 6 5 5 6 4 7 2 8 1 9 3 10 11 11 12 12 13 13
REMARK SMILES IDX 14 14 15 15 16 16 17 17 18 18 19 19 20 20
REMARK H PARENT
REMARK Flexibility Score: inf
ROOT
ATOM      1  C   UNL     1      63.655  43.982  14.964  1.00  0.00     0.000 C 
ENDROOT
BRANCH   1   2
ATOM      2  C   UNL     1      64.744  42.921  15.180  1.00  0.00     0.000 C 
BRANCH   2   3
ATOM      3  C   UNL     1      64.163  41.535  15.501  1.00  0.00     0.000 C 
BRANCH   3   4
ATOM      4  C   UNL     1      63.863  41.348  17.000  1.00  0.00     0.000 C 
BRANCH   4   5
ATOM      5  C   UNL     1      64.885  42.082  17.894  1.00  0.00     0.000 C 
BRANCH   5   6
ATOM      6  C   UNL     1      64.244  42.824  19.079  1.00  0.00     0.006 C 
BRANCH   6   7
ATOM      7  C   UNL     1      64.910  44.173  19.371  1.00  0.00     0.053 C 
BRANCH   7   8
ATOM      8  C   UNL     1      64.031  45.012  20.245  1.00  0.00     0.041 C 
ATOM      9  O   UNL     1      63.575  44.543  21.321  1.00  0.00    -0.550 OA
ATOM     10  O   UNL     1      63.757  46.328  19.896  1.00  0.00    -0.550 OA
ENDBRANCH   7   8
ENDBRANCH   6   7
ENDBRANCH   5   6
ENDBRANCH   4   5
ENDBRANCH   3   4
ENDBRANCH   2   3
ENDBRANCH   1   2
BRANCH   1  11
ATOM     11  C   UNL     1      63.873  45.191  15.885  1.00  0.00     0.000 C 
BRANCH  11  12
ATOM     12  C   UNL     1      62.595  45.617  16.632  1.00  0.00     0.000 C 
BRANCH  12  13
ATOM     13  C   UNL     1      61.647  44.464  17.011  1.00  0.00     0.000 C 
BRANCH  13  14
ATOM     14  C   UNL     1      60.963  44.673  18.372  1.00  0.00     0.000 C 
BRANCH  14  15
ATOM     15  C   UNL     1      60.550  43.351  19.043  1.00  0.00     0.000 C 
BRANCH  15  16
ATOM     16  C   UNL     1      59.368  42.620  18.370  1.00  0.00     0.006 C 
BRANCH  16  17
ATOM     17  C   UNL     1      58.111  43.482  18.171  1.00  0.00     0.053 C 
BRANCH  17  18
ATOM     18  C   UNL     1      57.801  43.696  16.722  1.00  0.00     0.041 C 
ATOM     19  O   UNL     1      57.270  42.777  16.044  1.00  0.00    -0.550 OA
ATOM     20  O   UNL     1      58.068  44.923  16.127  1.00  0.00    -0.550 OA
ENDBRANCH  17  18
ENDBRANCH  16  17
ENDBRANCH  15  16
ENDBRANCH  14  15
ENDBRANCH  13  14
ENDBRANCH  12  13
ENDBRANCH  11  12
ENDBRANCH   1  11
TORSDOF 15
ENDMDL
MODEL 9
REMARK VINA RESULT:    -3.322      2.078      7.362
REMARK INTER + INTRA:          -7.678
REMARK INTER:                  -5.768
REMARK INTRA:                  -1.910
REMARK UNBOUND:                -1.444
REMARK SMILES O=C([O-])CCCCCCCCCCCCCCC(=O)[O-]
REMARK SMILES IDX 10 1 9 2 8 3 7 4 6 5 5 6 4 7 2 8 1 9 3 10 11 11 12 12 13 13
REMARK SMILES IDX 14 14 15 15 16 16 17 17 18 18 19 19 20 20
REMARK H PARENT
REMARK Flexibility Score: inf
ROOT
ATOM      1  C   UNL     1      49.642  44.581  17.989  1.00  0.00     0.000 C 
ENDROOT
BRANCH   1   2
ATOM      2  C   UNL     1      50.192  45.539  16.921  1.00  0.00     0.000 C 
BRANCH   2   3
ATOM      3  C   UNL     1      50.640  44.808  15.647  1.00  0.00     0.000 C 
BRANCH   3   4
ATOM      4  C   UNL     1      50.032  45.415  14.368  1.00  0.00     0.000 C 
BRANCH   4   5
ATOM      5  C   UNL     1      49.416  46.808  14.621  1.00  0.00     0.000 C 
BRANCH   5   6
ATOM      6  C   UNL     1      50.420  47.962  14.460  1.00  0.00     0.006 C 
BRANCH   6   7
ATOM      7  C   UNL     1      50.360  48.619  13.076  1.00  0.00     0.053 C 
BRANCH   7   8
ATOM      8  C   UNL     1      51.641  48.400  12.336  1.00  0.00     0.041 C 
ATOM      9  O   UNL     1      52.455  47.521  12.724  1.00  0.00    -0.550 OA
ATOM     10  O   UNL     1      51.915  49.134  11.189  1.00  0.00    -0.550 OA
ENDBRANCH   7   8
ENDBRANCH   6   7
ENDBRANCH   5   6
ENDBRANCH   4   5
ENDBRANCH   3   4
ENDBRANCH   2   3
ENDBRANCH   1   2
BRANCH   1  11
ATOM     11  C   UNL     1      48.108  44.555  17.968  1.00  0.00     0.000 C 
BRANCH  11  12
ATOM     12  C   UNL     1      47.485  45.942  17.712  1.00  0.00     0.000 C 
BRANCH  12  13
ATOM     13  C   UNL     1      46.404  45.978  16.616  1.00  0.00     0.000 C 
BRANCH  13  14
ATOM     14  C   UNL     1      45.523  44.717  16.602  1.00  0.00     0.000 C 
BRANCH  14  15
ATOM     15  C   UNL     1      45.428  44.070  15.209  1.00  0.00     0.000 C 
BRANCH  15  16
ATOM     16  C   UNL     1      46.784  43.785  14.529  1.00  0.00     0.006 C 
BRANCH  16  17
ATOM     17  C   UNL     1      46.999  42.320  14.116  1.00  0.00     0.053 C 
BRANCH  17  18
ATOM     18  C   UNL     1      46.631  41.367  15.212  1.00  0.00     0.041 C 
ATOM     19  O   UNL     1      45.661  40.577  15.066  1.00  0.00    -0.550 OA
ATOM     20  O   UNL     1      47.380  41.329  16.381  1.00  0.00    -0.550 OA
ENDBRANCH  17  18
ENDBRANCH  16  17
ENDBRANCH  15  16
ENDBRANCH  14  15
ENDBRANCH  13  14
ENDBRANCH  12  13
ENDBRANCH  11  12
ENDBRANCH   1  11
TORSDOF 15
ENDMDL
