MODEL 1
REMARK VINA RESULT:    -6.369      0.000      0.000
REMARK INTER + INTRA:          -9.441
REMARK INTER:                  -8.417
REMARK INTRA:                  -1.024
REMARK UNBOUND:                -1.024
REMARK SMILES CC[C@H](C=C[C@@H](C)[C@H]1CC[C@@H]2C3=CC[C@H]4C[C@@H](O)CC[C@]4(C)[C@H]3CC[C@@]21C)C(C)C
REMARK SMILES IDX 6 1 7 2 5 3 4 4 3 5 2 6 1 7 28 8 29 9 30 10 8 11 9 12 26 13
REMARK SMILES IDX 10 14 11 15 25 16 27 17 12 18 24 19 23 20 13 21 21 22 14 23
REMARK SMILES IDX 15 24 20 25 22 26 16 27 19 28 17 29 18 30
REMARK H PARENT 18 31
REMARK Flexibility Score: inf
ROOT
ATOM      1  C   UNL     1      10.472  -2.289  -5.892  1.00  0.00     0.012 C 
ATOM      2  C   UNL     1      11.187  -1.271  -4.986  1.00  0.00     0.012 C 
ENDROOT
BRANCH   1   3
ATOM      3  C   UNL     1       9.751  -1.574  -7.025  1.00  0.00    -0.028 C 
ATOM      4  C   UNL     1       8.926  -0.527  -6.838  1.00  0.00    -0.027 C 
BRANCH   4   5
ATOM      5  C   UNL     1       8.370   0.322  -7.971  1.00  0.00     0.014 C 
BRANCH   5   6
ATOM      6  C   UNL     1       6.825   0.415  -7.932  1.00  0.00     0.004 C 
ATOM      7  C   UNL     1       6.156  -0.945  -8.125  1.00  0.00     0.004 C 
ENDBRANCH   5   6
BRANCH   5   8
ATOM      8  C   UNL     1       9.053   1.716  -8.125  1.00  0.00    -0.011 C 
ATOM      9  C   UNL     1       9.933   2.139  -6.936  1.00  0.00     0.008 C 
ATOM     10  C   UNL     1       9.852   1.815  -9.435  1.00  0.00     0.008 C 
ENDBRANCH   5   8
ENDBRANCH   4   5
ENDBRANCH   1   3
BRANCH   1  11
ATOM     11  C   UNL     1       9.619  -3.298  -5.051  1.00  0.00     0.002 C 
ATOM     12  C   UNL     1       8.465  -3.979  -5.776  1.00  0.00     0.005 C 
ATOM     13  C   UNL     1      10.368  -4.456  -4.322  1.00  0.00    -0.023 C 
ATOM     14  C   UNL     1       7.996  -5.048  -4.804  1.00  0.00     0.009 C 
ATOM     15  C   UNL     1       9.246  -5.500  -4.025  1.00  0.00     0.021 C 
ATOM     16  C   UNL     1      11.090  -3.991  -3.029  1.00  0.00     0.008 C 
ATOM     17  C   UNL     1      11.433  -5.111  -5.239  1.00  0.00     0.012 C 
ATOM     18  C   UNL     1       8.924  -5.693  -2.548  1.00  0.00    -0.067 C 
ATOM     19  C   UNL     1      10.146  -3.507  -1.923  1.00  0.00     0.009 C 
ATOM     20  C   UNL     1       8.998  -4.505  -1.581  1.00  0.00     0.021 C 
ATOM     21  C   UNL     1       8.352  -6.864  -2.177  1.00  0.00    -0.027 C 
ATOM     22  C   UNL     1       8.977  -4.953  -0.071  1.00  0.00    -0.023 C 
ATOM     23  C   UNL     1       7.944  -7.189  -0.765  1.00  0.00     0.031 C 
ATOM     24  C   UNL     1       7.764  -5.928   0.092  1.00  0.00     0.002 C 
ATOM     25  C   UNL     1       8.733  -3.717   0.849  1.00  0.00     0.010 C 
ATOM     26  C   UNL     1      10.324  -5.641   0.307  1.00  0.00     0.012 C 
ATOM     27  C   UNL     1       7.467  -6.300   1.560  1.00  0.00     0.036 C 
ATOM     28  C   UNL     1       8.453  -4.103   2.310  1.00  0.00     0.032 C 
ATOM     29  C   UNL     1       7.249  -5.044   2.417  1.00  0.00     0.114 C 
BRANCH  29  30
ATOM     30  O   UNL     1       7.070  -5.407   3.761  1.00  0.00    -0.393 OA
ATOM     31  H   UNL     1       6.128  -5.193   3.992  1.00  0.00     0.210 HD
ENDBRANCH  29  30
ENDBRANCH   1  11
TORSDOF 6
ENDMDL
MODEL 2
REMARK VINA RESULT:    -6.336      2.800      5.182
REMARK INTER + INTRA:          -9.397
REMARK INTER:                  -8.321
REMARK INTRA:                  -1.076
REMARK UNBOUND:                -1.024
REMARK SMILES CC[C@H](C=C[C@@H](C)[C@H]1CC[C@@H]2C3=CC[C@H]4C[C@@H](O)CC[C@]4(C)[C@H]3CC[C@@]21C)C(C)C
REMARK SMILES IDX 6 1 7 2 5 3 4 4 3 5 2 6 1 7 28 8 29 9 30 10 8 11 9 12 26 13
REMARK SMILES IDX 10 14 11 15 25 16 27 17 12 18 24 19 23 20 13 21 21 22 14 23
REMARK SMILES IDX 15 24 20 25 22 26 16 27 19 28 17 29 18 30
REMARK H PARENT 18 31
REMARK Flexibility Score: inf
ROOT
ATOM      1  C   UNL     1       6.786  -0.692  -8.583  1.00  0.00     0.012 C 
ATOM      2  C   UNL     1       7.345   0.271  -7.522  1.00  0.00     0.012 C 
ENDROOT
BRANCH   1   3
ATOM      3  C   UNL     1       5.527  -0.116  -9.212  1.00  0.00    -0.028 C 
ATOM      4  C   UNL     1       4.537   0.457  -8.502  1.00  0.00    -0.027 C 
BRANCH   4   5
ATOM      5  C   UNL     1       3.381   1.220  -9.130  1.00  0.00     0.014 C 
BRANCH   5   6
ATOM      6  C   UNL     1       3.582   1.447 -10.649  1.00  0.00     0.004 C 
ATOM      7  C   UNL     1       4.034   2.871 -10.969  1.00  0.00     0.004 C 
ENDBRANCH   5   6
BRANCH   5   8
ATOM      8  C   UNL     1       1.971   0.648  -8.788  1.00  0.00    -0.011 C 
ATOM      9  C   UNL     1       1.983  -0.713  -8.073  1.00  0.00     0.008 C 
ATOM     10  C   UNL     1       1.127   1.656  -7.992  1.00  0.00     0.008 C 
ENDBRANCH   5   8
ENDBRANCH   4   5
ENDBRANCH   1   3
BRANCH   1  11
ATOM     11  C   UNL     1       6.681  -2.152  -8.026  1.00  0.00     0.002 C 
ATOM     12  C   UNL     1       5.478  -2.967  -8.486  1.00  0.00     0.005 C 
ATOM     13  C   UNL     1       7.903  -3.101  -8.228  1.00  0.00    -0.023 C 
ATOM     14  C   UNL     1       5.774  -4.374  -7.993  1.00  0.00     0.009 C 
ATOM     15  C   UNL     1       7.307  -4.530  -8.029  1.00  0.00     0.021 C 
ATOM     16  C   UNL     1       9.065  -2.810  -7.241  1.00  0.00     0.008 C 
ATOM     17  C   UNL     1       8.476  -2.993  -9.665  1.00  0.00     0.012 C 
ATOM     18  C   UNL     1       7.805  -5.266  -6.792  1.00  0.00    -0.067 C 
ATOM     19  C   UNL     1       8.721  -3.080  -5.772  1.00  0.00     0.009 C 
ATOM     20  C   UNL     1       8.116  -4.491  -5.505  1.00  0.00     0.021 C 
ATOM     21  C   UNL     1       7.735  -6.619  -6.795  1.00  0.00    -0.027 C 
ATOM     22  C   UNL     1       8.935  -5.347  -4.468  1.00  0.00    -0.023 C 
ATOM     23  C   UNL     1       8.155  -7.485  -5.637  1.00  0.00     0.031 C 
ATOM     24  C   UNL     1       8.182  -6.709  -4.312  1.00  0.00     0.002 C 
ATOM     25  C   UNL     1       8.945  -4.635  -3.079  1.00  0.00     0.010 C 
ATOM     26  C   UNL     1      10.397  -5.551  -4.971  1.00  0.00     0.012 C 
ATOM     27  C   UNL     1       8.733  -7.591  -3.171  1.00  0.00     0.036 C 
ATOM     28  C   UNL     1       9.509  -5.521  -1.956  1.00  0.00     0.032 C 
ATOM     29  C   UNL     1       8.728  -6.833  -1.835  1.00  0.00     0.114 C 
BRANCH  29  30
ATOM     30  O   UNL     1       9.315  -7.624  -0.835  1.00  0.00    -0.393 OA
ATOM     31  H   UNL     1       9.120  -8.570  -1.067  1.00  0.00     0.210 HD
ENDBRANCH  29  30
ENDBRANCH   1  11
TORSDOF 6
ENDMDL
MODEL 3
REMARK VINA RESULT:    -6.269      5.498      8.969
REMARK INTER + INTRA:          -9.309
REMARK INTER:                  -8.245
REMARK INTRA:                  -1.063
REMARK UNBOUND:                -1.024
REMARK SMILES CC[C@H](C=C[C@@H](C)[C@H]1CC[C@@H]2C3=CC[C@H]4C[C@@H](O)CC[C@]4(C)[C@H]3CC[C@@]21C)C(C)C
REMARK SMILES IDX 6 1 7 2 5 3 4 4 3 5 2 6 1 7 28 8 29 9 30 10 8 11 9 12 26 13
REMARK SMILES IDX 10 14 11 15 25 16 27 17 12 18 24 19 23 20 13 21 21 22 14 23
REMARK SMILES IDX 15 24 20 25 22 26 16 27 19 28 17 29 18 30
REMARK H PARENT 18 31
REMARK Flexibility Score: inf
ROOT
ATOM      1  C   UNL     1       2.676   0.080  -9.623  1.00  0.00     0.012 C 
ATOM      2  C   UNL     1       2.874   1.605  -9.566  1.00  0.00     0.012 C 
ENDROOT
BRANCH   1   3
ATOM      3  C   UNL     1       1.242  -0.282  -9.267  1.00  0.00    -0.028 C 
ATOM      4  C   UNL     1       0.532   0.347  -8.312  1.00  0.00    -0.027 C 
BRANCH   4   5
ATOM      5  C   UNL     1      -0.958   0.138  -8.093  1.00  0.00     0.014 C 
BRANCH   5   6
ATOM      6  C   UNL     1      -1.250  -0.875  -6.958  1.00  0.00     0.004 C 
ATOM      7  C   UNL     1      -1.584  -2.267  -7.493  1.00  0.00     0.004 C 
ENDBRANCH   5   6
BRANCH   5   8
ATOM      8  C   UNL     1      -1.778   1.457  -7.947  1.00  0.00    -0.011 C 
ATOM      9  C   UNL     1      -1.191   2.667  -8.693  1.00  0.00     0.008 C 
ATOM     10  C   UNL     1      -3.250   1.257  -8.341  1.00  0.00     0.008 C 
ENDBRANCH   5   8
ENDBRANCH   4   5
ENDBRANCH   1   3
BRANCH   1  11
ATOM     11  C   UNL     1       3.800  -0.670  -8.831  1.00  0.00     0.002 C 
ATOM     12  C   UNL     1       3.385  -1.948  -8.112  1.00  0.00     0.005 C 
ATOM     13  C   UNL     1       5.103  -1.052  -9.599  1.00  0.00    -0.023 C 
ATOM     14  C   UNL     1       4.700  -2.559  -7.656  1.00  0.00     0.009 C 
ATOM     15  C   UNL     1       5.749  -2.164  -8.714  1.00  0.00     0.021 C 
ATOM     16  C   UNL     1       6.058   0.154  -9.809  1.00  0.00     0.008 C 
ATOM     17  C   UNL     1       4.788  -1.644 -10.996  1.00  0.00     0.012 C 
ATOM     18  C   UNL     1       7.065  -1.774  -8.051  1.00  0.00    -0.067 C 
ATOM     19  C   UNL     1       6.637   0.729  -8.511  1.00  0.00     0.009 C 
ATOM     20  C   UNL     1       7.294  -0.333  -7.579  1.00  0.00     0.021 C 
ATOM     21  C   UNL     1       7.906  -2.773  -7.688  1.00  0.00    -0.027 C 
ATOM     22  C   UNL     1       8.805  -0.039  -7.248  1.00  0.00    -0.023 C 
ATOM     23  C   UNL     1       9.223  -2.550  -6.995  1.00  0.00     0.031 C 
ATOM     24  C   UNL     1       9.289  -1.184  -6.299  1.00  0.00     0.002 C 
ATOM     25  C   UNL     1       8.929   1.314  -6.480  1.00  0.00     0.010 C 
ATOM     26  C   UNL     1       9.644   0.015  -8.561  1.00  0.00     0.012 C 
ATOM     27  C   UNL     1      10.693  -0.938  -5.704  1.00  0.00     0.036 C 
ATOM     28  C   UNL     1      10.336   1.551  -5.907  1.00  0.00     0.032 C 
ATOM     29  C   UNL     1      10.756   0.411  -4.973  1.00  0.00     0.114 C 
BRANCH  29  30
ATOM     30  O   UNL     1      12.063   0.649  -4.521  1.00  0.00    -0.393 OA
ATOM     31  H   UNL     1      12.626   0.777  -5.328  1.00  0.00     0.210 HD
ENDBRANCH  29  30
ENDBRANCH   1  11
TORSDOF 6
ENDMDL
MODEL 4
REMARK VINA RESULT:    -6.269      2.629      4.857
REMARK INTER + INTRA:          -9.308
REMARK INTER:                  -8.458
REMARK INTRA:                  -0.851
REMARK UNBOUND:                -1.024
REMARK SMILES CC[C@H](C=C[C@@H](C)[C@H]1CC[C@@H]2C3=CC[C@H]4C[C@@H](O)CC[C@]4(C)[C@H]3CC[C@@]21C)C(C)C
REMARK SMILES IDX 6 1 7 2 5 3 4 4 3 5 2 6 1 7 28 8 29 9 30 10 8 11 9 12 26 13
REMARK SMILES IDX 10 14 11 15 25 16 27 17 12 18 24 19 23 20 13 21 21 22 14 23
REMARK SMILES IDX 15 24 20 25 22 26 16 27 19 28 17 29 18 30
REMARK H PARENT 18 31
REMARK Flexibility Score: inf
ROOT
ATOM      1  C   UNL     1       6.412  -0.173  -8.408  1.00  0.00     0.012 C 
ATOM      2  C   UNL     1       6.027   0.004  -9.887  1.00  0.00     0.012 C 
ENDROOT
BRANCH   1   3
ATOM      3  C   UNL     1       7.709   0.562  -8.106  1.00  0.00    -0.028 C 
ATOM      4  C   UNL     1       8.125   0.854  -6.860  1.00  0.00    -0.027 C 
BRANCH   4   5
ATOM      5  C   UNL     1       9.509   1.395  -6.537  1.00  0.00     0.014 C 
BRANCH   5   6
ATOM      6  C   UNL     1      10.283   0.480  -5.556  1.00  0.00     0.004 C 
ATOM      7  C   UNL     1      10.684   1.209  -4.274  1.00  0.00     0.004 C 
ENDBRANCH   5   6
BRANCH   5   8
ATOM      8  C   UNL     1      10.354   1.788  -7.787  1.00  0.00    -0.011 C 
ATOM      9  C   UNL     1      11.055   3.154  -7.688  1.00  0.00     0.008 C 
ATOM     10  C   UNL     1      11.374   0.696  -8.149  1.00  0.00     0.008 C 
ENDBRANCH   5   8
ENDBRANCH   4   5
ENDBRANCH   1   3
BRANCH   1  11
ATOM     11  C   UNL     1       6.348  -1.678  -7.980  1.00  0.00     0.002 C 
ATOM     12  C   UNL     1       5.093  -2.444  -8.380  1.00  0.00     0.005 C 
ATOM     13  C   UNL     1       7.530  -2.606  -8.399  1.00  0.00    -0.023 C 
ATOM     14  C   UNL     1       5.424  -3.891  -8.055  1.00  0.00     0.009 C 
ATOM     15  C   UNL     1       6.941  -4.046  -8.270  1.00  0.00     0.021 C 
ATOM     16  C   UNL     1       8.795  -2.412  -7.521  1.00  0.00     0.008 C 
ATOM     17  C   UNL     1       7.947  -2.366  -9.873  1.00  0.00     0.012 C 
ATOM     18  C   UNL     1       7.561  -4.896  -7.167  1.00  0.00    -0.067 C 
ATOM     19  C   UNL     1       8.607  -2.816  -6.054  1.00  0.00     0.009 C 
ATOM     20  C   UNL     1       8.018  -4.245  -5.855  1.00  0.00     0.021 C 
ATOM     21  C   UNL     1       7.475  -6.243  -7.288  1.00  0.00    -0.027 C 
ATOM     22  C   UNL     1       8.933  -5.195  -4.996  1.00  0.00    -0.023 C 
ATOM     23  C   UNL     1       8.006  -7.213  -6.267  1.00  0.00     0.031 C 
ATOM     24  C   UNL     1       8.184  -6.564  -4.887  1.00  0.00     0.002 C 
ATOM     25  C   UNL     1       9.100  -4.616  -3.556  1.00  0.00     0.010 C 
ATOM     26  C   UNL     1      10.330  -5.354  -5.671  1.00  0.00     0.012 C 
ATOM     27  C   UNL     1       8.843  -7.550  -3.898  1.00  0.00     0.036 C 
ATOM     28  C   UNL     1       9.771  -5.603  -2.588  1.00  0.00     0.032 C 
ATOM     29  C   UNL     1       8.991  -6.920  -2.505  1.00  0.00     0.114 C 
BRANCH  29  30
ATOM     30  O   UNL     1       9.673  -7.802  -1.652  1.00  0.00    -0.393 OA
ATOM     31  H   UNL     1       9.370  -7.598  -0.728  1.00  0.00     0.210 HD
ENDBRANCH  29  30
ENDBRANCH   1  11
TORSDOF 6
ENDMDL
MODEL 5
REMARK VINA RESULT:    -6.260      7.438     11.411
REMARK INTER + INTRA:          -9.297
REMARK INTER:                  -8.392
REMARK INTRA:                  -0.905
REMARK UNBOUND:                -1.024
REMARK SMILES CC[C@H](C=C[C@@H](C)[C@H]1CC[C@@H]2C3=CC[C@H]4C[C@@H](O)CC[C@]4(C)[C@H]3CC[C@@]21C)C(C)C
REMARK SMILES IDX 6 1 7 2 5 3 4 4 3 5 2 6 1 7 28 8 29 9 30 10 8 11 9 12 26 13
REMARK SMILES IDX 10 14 11 15 25 16 27 17 12 18 24 19 23 20 13 21 21 22 14 23
REMARK SMILES IDX 15 24 20 25 22 26 16 27 19 28 17 29 18 30
REMARK H PARENT 18 31
REMARK Flexibility Score: inf
ROOT
ATOM      1  C   UNL     1       3.306  -0.680  -8.789  1.00  0.00     0.012 C 
ATOM      2  C   UNL     1       3.510  -2.063  -8.146  1.00  0.00     0.012 C 
ENDROOT
BRANCH   1   3
ATOM      3  C   UNL     1       4.482   0.231  -8.471  1.00  0.00    -0.028 C 
ATOM      4  C   UNL     1       5.755  -0.200  -8.388  1.00  0.00    -0.027 C 
BRANCH   4   5
ATOM      5  C   UNL     1       6.955   0.729  -8.281  1.00  0.00     0.014 C 
BRANCH   5   6
ATOM      6  C   UNL     1       7.957   0.271  -7.193  1.00  0.00     0.004 C 
ATOM      7  C   UNL     1       8.153  -1.245  -7.184  1.00  0.00     0.004 C 
ENDBRANCH   5   6
BRANCH   5   8
ATOM      8  C   UNL     1       7.647   1.045  -9.642  1.00  0.00    -0.011 C 
ATOM      9  C   UNL     1       6.847   1.972 -10.573  1.00  0.00     0.008 C 
ATOM     10  C   UNL     1       9.068   1.595  -9.442  1.00  0.00     0.008 C 
ENDBRANCH   5   8
ENDBRANCH   4   5
ENDBRANCH   1   3
BRANCH   1  11
ATOM     11  C   UNL     1       1.881  -0.111  -8.474  1.00  0.00     0.002 C 
ATOM     12  C   UNL     1       1.772   1.401  -8.324  1.00  0.00     0.005 C 
ATOM     13  C   UNL     1       0.712  -0.500  -9.432  1.00  0.00    -0.023 C 
ATOM     14  C   UNL     1       0.276   1.661  -8.272  1.00  0.00     0.009 C 
ATOM     15  C   UNL     1      -0.381   0.577  -9.147  1.00  0.00     0.021 C 
ATOM     16  C   UNL     1       0.188  -1.942  -9.195  1.00  0.00     0.008 C 
ATOM     17  C   UNL     1       1.139  -0.399 -10.920  1.00  0.00     0.012 C 
ATOM     18  C   UNL     1      -1.649   0.046  -8.490  1.00  0.00    -0.067 C 
ATOM     19  C   UNL     1      -0.469  -2.152  -7.827  1.00  0.00     0.009 C 
ATOM     20  C   UNL     1      -1.570  -1.105  -7.479  1.00  0.00     0.021 C 
ATOM     21  C   UNL     1      -2.787   0.765  -8.646  1.00  0.00    -0.027 C 
ATOM     22  C   UNL     1      -2.978  -1.742  -7.177  1.00  0.00    -0.023 C 
ATOM     23  C   UNL     1      -4.108   0.389  -8.030  1.00  0.00     0.031 C 
ATOM     24  C   UNL     1      -3.943  -0.559  -6.834  1.00  0.00     0.002 C 
ATOM     25  C   UNL     1      -2.887  -2.671  -5.927  1.00  0.00     0.010 C 
ATOM     26  C   UNL     1      -3.479  -2.555  -8.410  1.00  0.00     0.012 C 
ATOM     27  C   UNL     1      -5.319  -1.019  -6.305  1.00  0.00     0.036 C 
ATOM     28  C   UNL     1      -4.263  -3.133  -5.421  1.00  0.00     0.032 C 
ATOM     29  C   UNL     1      -5.163  -1.939  -5.085  1.00  0.00     0.114 C 
BRANCH  29  30
ATOM     30  O   UNL     1      -6.420  -2.414  -4.681  1.00  0.00    -0.393 OA
ATOM     31  H   UNL     1      -6.280  -3.331  -4.327  1.00  0.00     0.210 HD
ENDBRANCH  29  30
ENDBRANCH   1  11
TORSDOF 6
ENDMDL
MODEL 6
REMARK VINA RESULT:    -6.254      2.714      4.852
REMARK INTER + INTRA:          -9.289
REMARK INTER:                  -8.211
REMARK INTRA:                  -1.078
REMARK UNBOUND:                -1.024
REMARK SMILES CC[C@H](C=C[C@@H](C)[C@H]1CC[C@@H]2C3=CC[C@H]4C[C@@H](O)CC[C@]4(C)[C@H]3CC[C@@]21C)C(C)C
REMARK SMILES IDX 6 1 7 2 5 3 4 4 3 5 2 6 1 7 28 8 29 9 30 10 8 11 9 12 26 13
REMARK SMILES IDX 10 14 11 15 25 16 27 17 12 18 24 19 23 20 13 21 21 22 14 23
REMARK SMILES IDX 15 24 20 25 22 26 16 27 19 28 17 29 18 30
REMARK H PARENT 18 31
REMARK Flexibility Score: inf
ROOT
ATOM      1  C   UNL     1       7.152  -0.207  -8.191  1.00  0.00     0.012 C 
ATOM      2  C   UNL     1       8.010   0.606  -7.206  1.00  0.00     0.012 C 
ENDROOT
BRANCH   1   3
ATOM      3  C   UNL     1       5.900   0.570  -8.569  1.00  0.00    -0.028 C 
ATOM      4  C   UNL     1       5.452   0.689  -9.833  1.00  0.00    -0.027 C 
BRANCH   4   5
ATOM      5  C   UNL     1       4.098   1.279 -10.197  1.00  0.00     0.014 C 
BRANCH   5   6
ATOM      6  C   UNL     1       3.061   1.116  -9.058  1.00  0.00     0.004 C 
ATOM      7  C   UNL     1       2.436  -0.279  -9.036  1.00  0.00     0.004 C 
ENDBRANCH   5   6
BRANCH   5   8
ATOM      8  C   UNL     1       4.158   2.735 -10.751  1.00  0.00    -0.011 C 
ATOM      9  C   UNL     1       5.497   3.123 -11.401  1.00  0.00     0.008 C 
ATOM     10  C   UNL     1       2.999   3.022 -11.719  1.00  0.00     0.008 C 
ENDBRANCH   5   8
ENDBRANCH   4   5
ENDBRANCH   1   3
BRANCH   1  11
ATOM     11  C   UNL     1       6.934  -1.672  -7.682  1.00  0.00     0.002 C 
ATOM     12  C   UNL     1       5.602  -2.322  -8.035  1.00  0.00     0.005 C 
ATOM     13  C   UNL     1       8.008  -2.741  -8.054  1.00  0.00    -0.023 C 
ATOM     14  C   UNL     1       5.781  -3.776  -7.632  1.00  0.00     0.009 C 
ATOM     15  C   UNL     1       7.272  -4.102  -7.844  1.00  0.00     0.021 C 
ATOM     16  C   UNL     1       9.294  -2.634  -7.192  1.00  0.00     0.008 C 
ATOM     17  C   UNL     1       8.434  -2.626  -9.541  1.00  0.00     0.012 C 
ATOM     18  C   UNL     1       7.809  -4.951  -6.699  1.00  0.00    -0.067 C 
ATOM     19  C   UNL     1       9.079  -2.936  -5.705  1.00  0.00     0.009 C 
ATOM     20  C   UNL     1       8.344  -4.282  -5.426  1.00  0.00     0.021 C 
ATOM     21  C   UNL     1       7.581  -6.286  -6.745  1.00  0.00    -0.027 C 
ATOM     22  C   UNL     1       9.162  -5.276  -4.519  1.00  0.00    -0.023 C 
ATOM     23  C   UNL     1       8.016  -7.250  -5.675  1.00  0.00     0.031 C 
ATOM     24  C   UNL     1       8.274  -6.551  -4.333  1.00  0.00     0.002 C 
ATOM     25  C   UNL     1       9.402  -4.641  -3.114  1.00  0.00     0.010 C 
ATOM     26  C   UNL     1      10.528  -5.618  -5.189  1.00  0.00     0.012 C 
ATOM     27  C   UNL     1       8.835  -7.545  -3.294  1.00  0.00     0.036 C 
ATOM     28  C   UNL     1       9.974  -5.640  -2.096  1.00  0.00     0.032 C 
ATOM     29  C   UNL     1       9.061  -6.860  -1.938  1.00  0.00     0.114 C 
BRANCH  29  30
ATOM     30  O   UNL     1       9.654  -7.762  -1.040  1.00  0.00    -0.393 OA
ATOM     31  H   UNL     1       9.899  -8.569  -1.565  1.00  0.00     0.210 HD
ENDBRANCH  29  30
ENDBRANCH   1  11
TORSDOF 6
ENDMDL
MODEL 7
REMARK VINA RESULT:    -6.108      3.873      9.560
REMARK INTER + INTRA:          -9.097
REMARK INTER:                  -8.453
REMARK INTRA:                  -0.644
REMARK UNBOUND:                -1.024
REMARK SMILES CC[C@H](C=C[C@@H](C)[C@H]1CC[C@@H]2C3=CC[C@H]4C[C@@H](O)CC[C@]4(C)[C@H]3CC[C@@]21C)C(C)C
REMARK SMILES IDX 6 1 7 2 5 3 4 4 3 5 2 6 1 7 28 8 29 9 30 10 8 11 9 12 26 13
REMARK SMILES IDX 10 14 11 15 25 16 27 17 12 18 24 19 23 20 13 21 21 22 14 23
REMARK SMILES IDX 15 24 20 25 22 26 16 27 19 28 17 29 18 30
REMARK H PARENT 18 31
REMARK Flexibility Score: inf
ROOT
ATOM      1  C   UNL     1       8.437  -4.260  -6.715  1.00  0.00     0.012 C 
ATOM      2  C   UNL     1       7.439  -5.395  -7.007  1.00  0.00     0.012 C 
ENDROOT
BRANCH   1   3
ATOM      3  C   UNL     1       9.019  -4.414  -5.318  1.00  0.00    -0.028 C 
ATOM      4  C   UNL     1       8.377  -5.030  -4.308  1.00  0.00    -0.027 C 
BRANCH   4   5
ATOM      5  C   UNL     1       9.028  -5.374  -2.978  1.00  0.00     0.014 C 
BRANCH   5   6
ATOM      6  C   UNL     1       8.764  -4.296  -1.898  1.00  0.00     0.004 C 
ATOM      7  C   UNL     1      10.044  -3.863  -1.184  1.00  0.00     0.004 C 
ENDBRANCH   5   6
BRANCH   5   8
ATOM      8  C   UNL     1       8.733  -6.819  -2.470  1.00  0.00    -0.011 C 
ATOM      9  C   UNL     1       8.017  -6.891  -1.111  1.00  0.00     0.008 C 
ATOM     10  C   UNL     1       7.964  -7.642  -3.516  1.00  0.00     0.008 C 
ENDBRANCH   5   8
ENDBRANCH   4   5
ENDBRANCH   1   3
BRANCH   1  11
ATOM     11  C   UNL     1       7.825  -2.861  -7.064  1.00  0.00     0.002 C 
ATOM     12  C   UNL     1       8.664  -1.644  -6.696  1.00  0.00     0.005 C 
ATOM     13  C   UNL     1       7.380  -2.606  -8.538  1.00  0.00    -0.023 C 
ATOM     14  C   UNL     1       7.944  -0.483  -7.362  1.00  0.00     0.009 C 
ATOM     15  C   UNL     1       7.303  -1.051  -8.643  1.00  0.00     0.021 C 
ATOM     16  C   UNL     1       6.028  -3.283  -8.889  1.00  0.00     0.008 C 
ATOM     17  C   UNL     1       8.436  -3.125  -9.548  1.00  0.00     0.012 C 
ATOM     18  C   UNL     1       5.900  -0.490  -8.841  1.00  0.00    -0.067 C 
ATOM     19  C   UNL     1       4.829  -2.724  -8.117  1.00  0.00     0.009 C 
ATOM     20  C   UNL     1       4.696  -1.172  -8.179  1.00  0.00     0.021 C 
ATOM     21  C   UNL     1       5.787   0.735  -9.408  1.00  0.00    -0.027 C 
ATOM     22  C   UNL     1       3.322  -0.675  -8.767  1.00  0.00    -0.023 C 
ATOM     23  C   UNL     1       4.475   1.436  -9.638  1.00  0.00     0.031 C 
ATOM     24  C   UNL     1       3.358   0.888  -8.738  1.00  0.00     0.002 C 
ATOM     25  C   UNL     1       2.148  -1.151  -7.855  1.00  0.00     0.010 C 
ATOM     26  C   UNL     1       3.126  -1.221 -10.214  1.00  0.00     0.012 C 
ATOM     27  C   UNL     1       2.004   1.542  -9.084  1.00  0.00     0.036 C 
ATOM     28  C   UNL     1       0.804  -0.503  -8.221  1.00  0.00     0.032 C 
ATOM     29  C   UNL     1       0.888   1.026  -8.162  1.00  0.00     0.114 C 
BRANCH  29  30
ATOM     30  O   UNL     1      -0.346   1.568  -8.556  1.00  0.00    -0.393 OA
ATOM     31  H   UNL     1      -0.264   2.554  -8.475  1.00  0.00     0.210 HD
ENDBRANCH  29  30
ENDBRANCH   1  11
TORSDOF 6
ENDMDL
MODEL 8
REMARK VINA RESULT:    -5.934      6.378      8.575
REMARK INTER + INTRA:          -8.866
REMARK INTER:                  -8.132
REMARK INTRA:                  -0.735
REMARK UNBOUND:                -1.024
REMARK SMILES CC[C@H](C=C[C@@H](C)[C@H]1CC[C@@H]2C3=CC[C@H]4C[C@@H](O)CC[C@]4(C)[C@H]3CC[C@@]21C)C(C)C
REMARK SMILES IDX 6 1 7 2 5 3 4 4 3 5 2 6 1 7 28 8 29 9 30 10 8 11 9 12 26 13
REMARK SMILES IDX 10 14 11 15 25 16 27 17 12 18 24 19 23 20 13 21 21 22 14 23
REMARK SMILES IDX 15 24 20 25 22 26 16 27 19 28 17 29 18 30
REMARK H PARENT 18 31
REMARK Flexibility Score: inf
ROOT
ATOM      1  C   UNL     1       8.962   1.794  -9.510  1.00  0.00     0.012 C 
ATOM      2  C   UNL     1       9.119   2.125 -11.005  1.00  0.00     0.012 C 
ENDROOT
BRANCH   1   3
ATOM      3  C   UNL     1      10.221   2.178  -8.747  1.00  0.00    -0.028 C 
ATOM      4  C   UNL     1      10.206   2.825  -7.567  1.00  0.00    -0.027 C 
BRANCH   4   5
ATOM      5  C   UNL     1      11.439   3.026  -6.699  1.00  0.00     0.014 C 
BRANCH   5   6
ATOM      6  C   UNL     1      11.520   4.458  -6.117  1.00  0.00     0.004 C 
ATOM      7  C   UNL     1      12.108   5.458  -7.112  1.00  0.00     0.004 C 
ENDBRANCH   5   6
BRANCH   5   8
ATOM      8  C   UNL     1      11.651   1.923  -5.617  1.00  0.00    -0.011 C 
ATOM      9  C   UNL     1      10.611   1.924  -4.483  1.00  0.00     0.008 C 
ATOM     10  C   UNL     1      11.748   0.523  -6.243  1.00  0.00     0.008 C 
ENDBRANCH   5   8
ENDBRANCH   4   5
ENDBRANCH   1   3
BRANCH   1  11
ATOM     11  C   UNL     1       8.444   0.330  -9.304  1.00  0.00     0.002 C 
ATOM     12  C   UNL     1       9.505  -0.762  -9.240  1.00  0.00     0.005 C 
ATOM     13  C   UNL     1       7.513   0.051  -8.083  1.00  0.00    -0.023 C 
ATOM     14  C   UNL     1       8.738  -1.998  -8.800  1.00  0.00     0.009 C 
ATOM     15  C   UNL     1       7.597  -1.497  -7.893  1.00  0.00     0.021 C 
ATOM     16  C   UNL     1       6.055   0.533  -8.309  1.00  0.00     0.008 C 
ATOM     17  C   UNL     1       8.038   0.742  -6.798  1.00  0.00     0.012 C 
ATOM     18  C   UNL     1       6.304  -2.250  -8.184  1.00  0.00    -0.067 C 
ATOM     19  C   UNL     1       5.314  -0.214  -9.423  1.00  0.00     0.009 C 
ATOM     20  C   UNL     1       5.363  -1.766  -9.294  1.00  0.00     0.021 C 
ATOM     21  C   UNL     1       6.140  -3.463  -7.605  1.00  0.00    -0.027 C 
ATOM     22  C   UNL     1       3.942  -2.441  -9.218  1.00  0.00    -0.023 C 
ATOM     23  C   UNL     1       4.936  -4.341  -7.822  1.00  0.00     0.031 C 
ATOM     24  C   UNL     1       4.182  -3.983  -9.110  1.00  0.00     0.002 C 
ATOM     25  C   UNL     1       3.148  -2.164 -10.533  1.00  0.00     0.010 C 
ATOM     26  C   UNL     1       3.149  -1.894  -7.992  1.00  0.00     0.012 C 
ATOM     27  C   UNL     1       2.889  -4.818  -9.239  1.00  0.00     0.036 C 
ATOM     28  C   UNL     1       1.857  -2.991 -10.639  1.00  0.00     0.032 C 
ATOM     29  C   UNL     1       2.147  -4.492 -10.544  1.00  0.00     0.114 C 
BRANCH  29  30
ATOM     30  O   UNL     1       0.934  -5.197 -10.593  1.00  0.00    -0.393 OA
ATOM     31  H   UNL     1       0.391  -4.781 -11.312  1.00  0.00     0.210 HD
ENDBRANCH  29  30
ENDBRANCH   1  11
TORSDOF 6
ENDMDL
MODEL 9
REMARK VINA RESULT:    -5.777      6.940     11.444
REMARK INTER + INTRA:          -8.659
REMARK INTER:                  -7.366
REMARK INTRA:                  -1.293
REMARK UNBOUND:                -1.024
REMARK SMILES CC[C@H](C=C[C@@H](C)[C@H]1CC[C@@H]2C3=CC[C@H]4C[C@@H](O)CC[C@]4(C)[C@H]3CC[C@@]21C)C(C)C
REMARK SMILES IDX 6 1 7 2 5 3 4 4 3 5 2 6 1 7 28 8 29 9 30 10 8 11 9 12 26 13
REMARK SMILES IDX 10 14 11 15 25 16 27 17 12 18 24 19 23 20 13 21 21 22 14 23
REMARK SMILES IDX 15 24 20 25 22 26 16 27 19 28 17 29 18 30
REMARK H PARENT 18 31
REMARK Flexibility Score: inf
ROOT
ATOM      1  C   UNL     1      -0.739   1.489  -8.763  1.00  0.00     0.012 C 
ATOM      2  C   UNL     1      -0.122   2.875  -8.507  1.00  0.00     0.012 C 
ENDROOT
BRANCH   1   3
ATOM      3  C   UNL     1      -2.108   1.389  -8.108  1.00  0.00    -0.028 C 
ATOM      4  C   UNL     1      -3.172   0.812  -8.696  1.00  0.00    -0.027 C 
BRANCH   4   5
ATOM      5  C   UNL     1      -4.479   0.519  -7.975  1.00  0.00     0.014 C 
BRANCH   5   6
ATOM      6  C   UNL     1      -5.711   1.037  -8.757  1.00  0.00     0.004 C 
ATOM      7  C   UNL     1      -5.748   2.563  -8.839  1.00  0.00     0.004 C 
ENDBRANCH   5   6
BRANCH   5   8
ATOM      8  C   UNL     1      -4.640  -0.962  -7.511  1.00  0.00    -0.011 C 
ATOM      9  C   UNL     1      -3.740  -1.970  -8.246  1.00  0.00     0.008 C 
ATOM     10  C   UNL     1      -4.461  -1.103  -5.991  1.00  0.00     0.008 C 
ENDBRANCH   5   8
ENDBRANCH   4   5
ENDBRANCH   1   3
BRANCH   1  11
ATOM     11  C   UNL     1       0.277   0.344  -8.430  1.00  0.00     0.002 C 
ATOM     12  C   UNL     1      -0.269  -0.837  -7.638  1.00  0.00     0.005 C 
ATOM     13  C   UNL     1       1.064  -0.300  -9.613  1.00  0.00    -0.023 C 
ATOM     14  C   UNL     1       0.851  -1.863  -7.684  1.00  0.00     0.009 C 
ATOM     15  C   UNL     1       1.567  -1.660  -9.033  1.00  0.00     0.021 C 
ATOM     16  C   UNL     1       2.232   0.587 -10.119  1.00  0.00     0.008 C 
ATOM     17  C   UNL     1       0.138  -0.585 -10.824  1.00  0.00     0.012 C 
ATOM     18  C   UNL     1       3.078  -1.766  -8.866  1.00  0.00    -0.067 C 
ATOM     19  C   UNL     1       3.354   0.790  -9.095  1.00  0.00     0.009 C 
ATOM     20  C   UNL     1       3.899  -0.531  -8.473  1.00  0.00     0.021 C 
ATOM     21  C   UNL     1       3.622  -3.006  -8.841  1.00  0.00    -0.027 C 
ATOM     22  C   UNL     1       5.445  -0.741  -8.686  1.00  0.00    -0.023 C 
ATOM     23  C   UNL     1       5.091  -3.275  -8.648  1.00  0.00     0.031 C 
ATOM     24  C   UNL     1       5.816  -2.092  -7.991  1.00  0.00     0.002 C 
ATOM     25  C   UNL     1       6.241   0.402  -7.983  1.00  0.00     0.010 C 
ATOM     26  C   UNL     1       5.782  -0.765 -10.209  1.00  0.00     0.012 C 
ATOM     27  C   UNL     1       7.336  -2.352  -7.920  1.00  0.00     0.036 C 
ATOM     28  C   UNL     1       7.754   0.136  -7.933  1.00  0.00     0.032 C 
ATOM     29  C   UNL     1       8.065  -1.189  -7.229  1.00  0.00     0.114 C 
BRANCH  29  30
ATOM     30  O   UNL     1       9.451  -1.408  -7.258  1.00  0.00    -0.393 OA
ATOM     31  H   UNL     1       9.583  -2.377  -7.433  1.00  0.00     0.210 HD
ENDBRANCH  29  30
ENDBRANCH   1  11
TORSDOF 6
ENDMDL
