MODEL 1
REMARK VINA RESULT:    -4.493      0.000      0.000
REMARK INTER + INTRA:          -7.403
REMARK INTER:                  -6.464
REMARK INTRA:                  -0.940
REMARK UNBOUND:                -0.940
REMARK SMILES O=C(CO)[C@@H](O)[C@H](O)[C@H](O)CO
REMARK SMILES IDX 7 1 9 2 11 3 12 4 10 6 5 8 2 9 1 10 3 11 4 12 6 14 8 16
REMARK H PARENT 12 5 10 7 4 13 6 15 8 17
REMARK Flexibility Score: inf
ROOT
ATOM      1  C   UNL     1      61.851  -6.313  -2.734  1.00  0.00     0.181 C 
ENDROOT
BRANCH   1   2
ATOM      2  C   UNL     1      63.124  -6.852  -3.450  1.00  0.00     0.171 C 
BRANCH   2   3
ATOM      3  C   UNL     1      62.926  -7.268  -4.926  1.00  0.00     0.190 C 
BRANCH   3   4
ATOM      4  O   UNL     1      61.650  -7.815  -5.129  1.00  0.00    -0.394 OA
ATOM      5  H   UNL     1      61.083  -7.508  -4.374  1.00  0.00     0.210 HD
ENDBRANCH   3   4
ENDBRANCH   2   3
BRANCH   2   6
ATOM      6  O   UNL     1      64.125  -5.868  -3.375  1.00  0.00    -0.388 OA
ATOM      7  H   UNL     1      63.946  -5.330  -2.560  1.00  0.00     0.211 HD
ENDBRANCH   2   6
ENDBRANCH   1   2
BRANCH   1   8
ATOM      8  C   UNL     1      62.126  -5.339  -1.553  1.00  0.00     0.214 C 
BRANCH   8   9
ATOM      9  C   UNL     1      60.843  -4.686  -1.069  1.00  0.00     0.189 C 
ATOM     10  O   UNL     1      59.908  -4.578  -1.849  1.00  0.00    -0.294 OA
BRANCH   9  11
ATOM     11  C   UNL     1      60.702  -4.155   0.337  1.00  0.00     0.234 C 
BRANCH  11  12
ATOM     12  O   UNL     1      61.844  -3.441   0.729  1.00  0.00    -0.388 OA
ATOM     13  H   UNL     1      62.547  -4.114   0.926  1.00  0.00     0.211 HD
ENDBRANCH  11  12
ENDBRANCH   9  11
ENDBRANCH   8   9
BRANCH   8  14
ATOM     14  O   UNL     1      62.822  -5.961  -0.499  1.00  0.00    -0.382 OA
ATOM     15  H   UNL     1      63.323  -6.735  -0.864  1.00  0.00     0.211 HD
ENDBRANCH   8  14
ENDBRANCH   1   8
BRANCH   1  16
ATOM     16  O   UNL     1      60.959  -7.340  -2.365  1.00  0.00    -0.387 OA
ATOM     17  H   UNL     1      61.466  -8.188  -2.299  1.00  0.00     0.211 HD
ENDBRANCH   1  16
TORSDOF 10
ENDMDL
MODEL 2
REMARK VINA RESULT:    -4.397      1.447      2.309
REMARK INTER + INTRA:          -7.265
REMARK INTER:                  -6.306
REMARK INTRA:                  -0.959
REMARK UNBOUND:                -0.940
REMARK SMILES O=C(CO)[C@@H](O)[C@H](O)[C@H](O)CO
REMARK SMILES IDX 7 1 9 2 11 3 12 4 10 6 5 8 2 9 1 10 3 11 4 12 6 14 8 16
REMARK H PARENT 12 5 10 7 4 13 6 15 8 17
REMARK Flexibility Score: inf
ROOT
ATOM      1  C   UNL     1      61.950  -7.052  -1.352  1.00  0.00     0.181 C 
ENDROOT
BRANCH   1   2
ATOM      2  C   UNL     1      62.645  -7.517  -2.665  1.00  0.00     0.171 C 
BRANCH   2   3
ATOM      3  C   UNL     1      64.087  -7.000  -2.869  1.00  0.00     0.190 C 
BRANCH   3   4
ATOM      4  O   UNL     1      64.110  -5.602  -2.980  1.00  0.00    -0.394 OA
ATOM      5  H   UNL     1      63.856  -5.384  -3.915  1.00  0.00     0.210 HD
ENDBRANCH   3   4
ENDBRANCH   2   3
BRANCH   2   6
ATOM      6  O   UNL     1      62.647  -8.923  -2.691  1.00  0.00    -0.388 OA
ATOM      7  H   UNL     1      63.377  -9.225  -2.090  1.00  0.00     0.211 HD
ENDBRANCH   2   6
ENDBRANCH   1   2
BRANCH   1   8
ATOM      8  C   UNL     1      60.725  -6.114  -1.556  1.00  0.00     0.214 C 
BRANCH   8   9
ATOM      9  C   UNL     1      61.055  -4.685  -1.160  1.00  0.00     0.189 C 
ATOM     10  O   UNL     1      61.724  -4.003  -1.923  1.00  0.00    -0.294 OA
BRANCH   9  11
ATOM     11  C   UNL     1      60.595  -4.097   0.152  1.00  0.00     0.234 C 
BRANCH  11  12
ATOM     12  O   UNL     1      61.685  -3.735   0.958  1.00  0.00    -0.388 OA
ATOM     13  H   UNL     1      61.308  -3.347   1.790  1.00  0.00     0.211 HD
ENDBRANCH  11  12
ENDBRANCH   9  11
ENDBRANCH   8   9
BRANCH   8  14
ATOM     14  O   UNL     1      60.210  -6.185  -2.864  1.00  0.00    -0.382 OA
ATOM     15  H   UNL     1      60.955  -6.381  -3.487  1.00  0.00     0.211 HD
ENDBRANCH   8  14
ENDBRANCH   1   8
BRANCH   1  16
ATOM     16  O   UNL     1      62.859  -6.523  -0.415  1.00  0.00    -0.387 OA
ATOM     17  H   UNL     1      63.651  -6.181  -0.902  1.00  0.00     0.211 HD
ENDBRANCH   1  16
TORSDOF 10
ENDMDL
MODEL 3
REMARK VINA RESULT:    -4.347      1.345      4.226
REMARK INTER + INTRA:          -7.193
REMARK INTER:                  -6.295
REMARK INTRA:                  -0.897
REMARK UNBOUND:                -0.940
REMARK SMILES O=C(CO)[C@@H](O)[C@H](O)[C@H](O)CO
REMARK SMILES IDX 7 1 9 2 11 3 12 4 10 6 5 8 2 9 1 10 3 11 4 12 6 14 8 16
REMARK H PARENT 12 5 10 7 4 13 6 15 8 17
REMARK Flexibility Score: inf
ROOT
ATOM      1  C   UNL     1      60.753  -6.195  -1.650  1.00  0.00     0.181 C 
ENDROOT
BRANCH   1   2
ATOM      2  C   UNL     1      60.734  -4.686  -1.270  1.00  0.00     0.171 C 
BRANCH   2   3
ATOM      3  C   UNL     1      60.732  -4.386   0.247  1.00  0.00     0.190 C 
BRANCH   3   4
ATOM      4  O   UNL     1      61.804  -3.551   0.597  1.00  0.00    -0.394 OA
ATOM      5  H   UNL     1      62.628  -3.978   0.243  1.00  0.00     0.210 HD
ENDBRANCH   3   4
ENDBRANCH   2   3
BRANCH   2   6
ATOM      6  O   UNL     1      61.846  -4.064  -1.865  1.00  0.00    -0.388 OA
ATOM      7  H   UNL     1      61.507  -3.280  -2.370  1.00  0.00     0.211 HD
ENDBRANCH   2   6
ENDBRANCH   1   2
BRANCH   1   8
ATOM      8  C   UNL     1      62.060  -6.950  -1.270  1.00  0.00     0.214 C 
BRANCH   8   9
ATOM      9  C   UNL     1      62.715  -7.565  -2.495  1.00  0.00     0.189 C 
ATOM     10  O   UNL     1      62.162  -8.504  -3.048  1.00  0.00    -0.294 OA
BRANCH   9  11
ATOM     11  C   UNL     1      64.032  -7.058  -3.033  1.00  0.00     0.234 C 
BRANCH  11  12
ATOM     12  O   UNL     1      64.065  -5.656  -3.062  1.00  0.00    -0.388 OA
ATOM     13  H   UNL     1      64.901  -5.381  -2.603  1.00  0.00     0.211 HD
ENDBRANCH  11  12
ENDBRANCH   9  11
ENDBRANCH   8   9
BRANCH   8  14
ATOM     14  O   UNL     1      62.958  -6.136  -0.554  1.00  0.00    -0.382 OA
ATOM     15  H   UNL     1      62.641  -6.065   0.382  1.00  0.00     0.211 HD
ENDBRANCH   8  14
ENDBRANCH   1   8
BRANCH   1  16
ATOM     16  O   UNL     1      60.393  -6.422  -2.993  1.00  0.00    -0.387 OA
ATOM     17  H   UNL     1      60.503  -7.386  -3.190  1.00  0.00     0.211 HD
ENDBRANCH   1  16
TORSDOF 10
ENDMDL
MODEL 4
REMARK VINA RESULT:    -4.197      1.517      4.309
REMARK INTER + INTRA:          -6.977
REMARK INTER:                  -5.791
REMARK INTRA:                  -1.186
REMARK UNBOUND:                -0.940
REMARK SMILES O=C(CO)[C@@H](O)[C@H](O)[C@H](O)CO
REMARK SMILES IDX 7 1 9 2 11 3 12 4 10 6 5 8 2 9 1 10 3 11 4 12 6 14 8 16
REMARK H PARENT 12 5 10 7 4 13 6 15 8 17
REMARK Flexibility Score: inf
ROOT
ATOM      1  C   UNL     1      62.701  -6.634  -1.265  1.00  0.00     0.181 C 
ENDROOT
BRANCH   1   2
ATOM      2  C   UNL     1      61.879  -5.325  -1.443  1.00  0.00     0.171 C 
BRANCH   2   3
ATOM      3  C   UNL     1      60.429  -5.518  -1.943  1.00  0.00     0.190 C 
BRANCH   3   4
ATOM      4  O   UNL     1      60.386  -6.384  -3.046  1.00  0.00    -0.394 OA
ATOM      5  H   UNL     1      60.506  -7.304  -2.693  1.00  0.00     0.210 HD
ENDBRANCH   3   4
ENDBRANCH   2   3
BRANCH   2   6
ATOM      6  O   UNL     1      61.860  -4.642  -0.214  1.00  0.00    -0.388 OA
ATOM      7  H   UNL     1      62.798  -4.397  -0.002  1.00  0.00     0.211 HD
ENDBRANCH   2   6
ENDBRANCH   1   2
BRANCH   1   8
ATOM      8  C   UNL     1      63.928  -6.771  -2.211  1.00  0.00     0.214 C 
BRANCH   8   9
ATOM      9  C   UNL     1      63.830  -8.027  -3.061  1.00  0.00     0.189 C 
ATOM     10  O   UNL     1      64.035  -9.111  -2.534  1.00  0.00    -0.294 OA
BRANCH   9  11
ATOM     11  C   UNL     1      63.503  -7.967  -4.534  1.00  0.00     0.234 C 
BRANCH  11  12
ATOM     12  O   UNL     1      62.328  -7.238  -4.766  1.00  0.00    -0.388 OA
ATOM     13  H   UNL     1      61.584  -7.895  -4.783  1.00  0.00     0.211 HD
ENDBRANCH  11  12
ENDBRANCH   9  11
ENDBRANCH   8   9
BRANCH   8  14
ATOM     14  O   UNL     1      64.125  -5.623  -3.001  1.00  0.00    -0.382 OA
ATOM     15  H   UNL     1      64.814  -5.825  -3.684  1.00  0.00     0.211 HD
ENDBRANCH   8  14
ENDBRANCH   1   8
BRANCH   1  16
ATOM     16  O   UNL     1      61.895  -7.789  -1.288  1.00  0.00    -0.387 OA
ATOM     17  H   UNL     1      62.147  -8.334  -2.076  1.00  0.00     0.211 HD
ENDBRANCH   1  16
TORSDOF 10
ENDMDL
MODEL 5
REMARK VINA RESULT:    -4.157      1.111      4.640
REMARK INTER + INTRA:          -6.919
REMARK INTER:                  -6.132
REMARK INTRA:                  -0.787
REMARK UNBOUND:                -0.940
REMARK SMILES O=C(CO)[C@@H](O)[C@H](O)[C@H](O)CO
REMARK SMILES IDX 7 1 9 2 11 3 12 4 10 6 5 8 2 9 1 10 3 11 4 12 6 14 8 16
REMARK H PARENT 12 5 10 7 4 13 6 15 8 17
REMARK Flexibility Score: inf
ROOT
ATOM      1  C   UNL     1      61.687  -6.679  -2.515  1.00  0.00     0.181 C 
ENDROOT
BRANCH   1   2
ATOM      2  C   UNL     1      61.832  -5.363  -1.696  1.00  0.00     0.171 C 
BRANCH   2   3
ATOM      3  C   UNL     1      60.515  -4.797  -1.117  1.00  0.00     0.190 C 
BRANCH   3   4
ATOM      4  O   UNL     1      59.659  -4.362  -2.141  1.00  0.00    -0.394 OA
ATOM      5  H   UNL     1      60.039  -3.515  -2.492  1.00  0.00     0.210 HD
ENDBRANCH   3   4
ENDBRANCH   2   3
BRANCH   2   6
ATOM      6  O   UNL     1      62.740  -5.591  -0.647  1.00  0.00    -0.388 OA
ATOM      7  H   UNL     1      63.620  -5.794  -1.061  1.00  0.00     0.211 HD
ENDBRANCH   2   6
ENDBRANCH   1   2
BRANCH   1   8
ATOM      8  C   UNL     1      62.946  -7.082  -3.335  1.00  0.00     0.214 C 
BRANCH   8   9
ATOM      9  C   UNL     1      62.560  -7.649  -4.691  1.00  0.00     0.189 C 
ATOM     10  O   UNL     1      62.662  -6.933  -5.677  1.00  0.00    -0.294 OA
BRANCH   9  11
ATOM     11  C   UNL     1      62.042  -9.058  -4.846  1.00  0.00     0.234 C 
BRANCH  11  12
ATOM     12  O   UNL     1      60.661  -9.069  -5.093  1.00  0.00    -0.388 OA
ATOM     13  H   UNL     1      60.482  -8.341  -5.743  1.00  0.00     0.211 HD
ENDBRANCH  11  12
ENDBRANCH   9  11
ENDBRANCH   8   9
BRANCH   8  14
ATOM     14  O   UNL     1      63.866  -6.024  -3.457  1.00  0.00    -0.382 OA
ATOM     15  H   UNL     1      64.772  -6.368  -3.253  1.00  0.00     0.211 HD
ENDBRANCH   8  14
ENDBRANCH   1   8
BRANCH   1  16
ATOM     16  O   UNL     1      60.522  -6.700  -3.307  1.00  0.00    -0.387 OA
ATOM     17  H   UNL     1      60.454  -7.586  -3.743  1.00  0.00     0.211 HD
ENDBRANCH   1  16
TORSDOF 10
ENDMDL
MODEL 6
REMARK VINA RESULT:    -4.095      1.566      4.561
REMARK INTER + INTRA:          -6.831
REMARK INTER:                  -5.829
REMARK INTRA:                  -1.001
REMARK UNBOUND:                -0.940
REMARK SMILES O=C(CO)[C@@H](O)[C@H](O)[C@H](O)CO
REMARK SMILES IDX 7 1 9 2 11 3 12 4 10 6 5 8 2 9 1 10 3 11 4 12 6 14 8 16
REMARK H PARENT 12 5 10 7 4 13 6 15 8 17
REMARK Flexibility Score: inf
ROOT
ATOM      1  C   UNL     1      62.083  -5.581  -1.664  1.00  0.00     0.181 C 
ENDROOT
BRANCH   1   2
ATOM      2  C   UNL     1      60.759  -5.172  -0.955  1.00  0.00     0.171 C 
BRANCH   2   3
ATOM      3  C   UNL     1      60.931  -4.400   0.373  1.00  0.00     0.190 C 
BRANCH   3   4
ATOM      4  O   UNL     1      61.947  -3.437   0.269  1.00  0.00    -0.394 OA
ATOM      5  H   UNL     1      61.957  -2.937   1.126  1.00  0.00     0.210 HD
ENDBRANCH   3   4
ENDBRANCH   2   3
BRANCH   2   6
ATOM      6  O   UNL     1      59.999  -4.397  -1.848  1.00  0.00    -0.388 OA
ATOM      7  H   UNL     1      60.634  -3.982  -2.489  1.00  0.00     0.211 HD
ENDBRANCH   2   6
ENDBRANCH   1   2
BRANCH   1   8
ATOM      8  C   UNL     1      61.932  -6.684  -2.749  1.00  0.00     0.214 C 
BRANCH   8   9
ATOM      9  C   UNL     1      62.432  -8.026  -2.243  1.00  0.00     0.189 C 
ATOM     10  O   UNL     1      63.555  -8.392  -2.559  1.00  0.00    -0.294 OA
BRANCH   9  11
ATOM     11  C   UNL     1      61.577  -8.920  -1.378  1.00  0.00     0.234 C 
BRANCH  11  12
ATOM     12  O   UNL     1      61.753  -8.633  -0.016  1.00  0.00    -0.388 OA
ATOM     13  H   UNL     1      62.492  -9.213   0.304  1.00  0.00     0.211 HD
ENDBRANCH  11  12
ENDBRANCH   9  11
ENDBRANCH   8   9
BRANCH   8  14
ATOM     14  O   UNL     1      60.616  -6.773  -3.241  1.00  0.00    -0.382 OA
ATOM     15  H   UNL     1      60.636  -6.641  -4.223  1.00  0.00     0.211 HD
ENDBRANCH   8  14
ENDBRANCH   1   8
BRANCH   1  16
ATOM     16  O   UNL     1      63.115  -5.884  -0.754  1.00  0.00    -0.387 OA
ATOM     17  H   UNL     1      62.738  -6.435  -0.022  1.00  0.00     0.211 HD
ENDBRANCH   1  16
TORSDOF 10
ENDMDL
MODEL 7
REMARK VINA RESULT:    -4.025      1.632      2.208
REMARK INTER + INTRA:          -6.729
REMARK INTER:                  -5.695
REMARK INTRA:                  -1.034
REMARK UNBOUND:                -0.940
REMARK SMILES O=C(CO)[C@@H](O)[C@H](O)[C@H](O)CO
REMARK SMILES IDX 7 1 9 2 11 3 12 4 10 6 5 8 2 9 1 10 3 11 4 12 6 14 8 16
REMARK H PARENT 12 5 10 7 4 13 6 15 8 17
REMARK Flexibility Score: inf
ROOT
ATOM      1  C   UNL     1      61.814  -7.080  -2.573  1.00  0.00     0.181 C 
ENDROOT
BRANCH   1   2
ATOM      2  C   UNL     1      61.140  -8.142  -1.657  1.00  0.00     0.171 C 
BRANCH   2   3
ATOM      3  C   UNL     1      60.669  -9.428  -2.372  1.00  0.00     0.190 C 
BRANCH   3   4
ATOM      4  O   UNL     1      59.498  -9.195  -3.110  1.00  0.00    -0.394 OA
ATOM      5  H   UNL     1      59.182 -10.079  -3.434  1.00  0.00     0.210 HD
ENDBRANCH   3   4
ENDBRANCH   2   3
BRANCH   2   6
ATOM      6  O   UNL     1      62.043  -8.482  -0.635  1.00  0.00    -0.388 OA
ATOM      7  H   UNL     1      62.825  -7.877  -0.721  1.00  0.00     0.211 HD
ENDBRANCH   2   6
ENDBRANCH   1   2
BRANCH   1   8
ATOM      8  C   UNL     1      62.178  -5.741  -1.868  1.00  0.00     0.214 C 
BRANCH   8   9
ATOM      9  C   UNL     1      60.937  -5.049  -1.331  1.00  0.00     0.189 C 
ATOM     10  O   UNL     1      59.988  -4.876  -2.082  1.00  0.00    -0.294 OA
BRANCH   9  11
ATOM     11  C   UNL     1      60.854  -4.558   0.095  1.00  0.00     0.234 C 
BRANCH  11  12
ATOM     12  O   UNL     1      61.856  -3.616   0.368  1.00  0.00    -0.388 OA
ATOM     13  H   UNL     1      62.683  -3.944  -0.073  1.00  0.00     0.211 HD
ENDBRANCH  11  12
ENDBRANCH   9  11
ENDBRANCH   8   9
BRANCH   8  14
ATOM     14  O   UNL     1      63.152  -5.912  -0.868  1.00  0.00    -0.382 OA
ATOM     15  H   UNL     1      63.953  -5.382  -1.114  1.00  0.00     0.211 HD
ENDBRANCH   8  14
ENDBRANCH   1   8
BRANCH   1  16
ATOM     16  O   UNL     1      61.100  -6.861  -3.768  1.00  0.00    -0.387 OA
ATOM     17  H   UNL     1      60.895  -5.895  -3.840  1.00  0.00     0.211 HD
ENDBRANCH   1  16
TORSDOF 10
ENDMDL
MODEL 8
REMARK VINA RESULT:    -4.018      1.697      4.497
REMARK INTER + INTRA:          -6.719
REMARK INTER:                  -5.472
REMARK INTRA:                  -1.247
REMARK UNBOUND:                -0.940
REMARK SMILES O=C(CO)[C@@H](O)[C@H](O)[C@H](O)CO
REMARK SMILES IDX 7 1 9 2 11 3 12 4 10 6 5 8 2 9 1 10 3 11 4 12 6 14 8 16
REMARK H PARENT 12 5 10 7 4 13 6 15 8 17
REMARK Flexibility Score: inf
ROOT
ATOM      1  C   UNL     1      62.233  -6.312  -0.267  1.00  0.00     0.181 C 
ENDROOT
BRANCH   1   2
ATOM      2  C   UNL     1      61.153  -5.376  -0.883  1.00  0.00     0.171 C 
BRANCH   2   3
ATOM      3  C   UNL     1      60.682  -4.220   0.030  1.00  0.00     0.190 C 
BRANCH   3   4
ATOM      4  O   UNL     1      61.728  -3.764   0.846  1.00  0.00    -0.394 OA
ATOM      5  H   UNL     1      62.442  -3.435   0.239  1.00  0.00     0.210 HD
ENDBRANCH   3   4
ENDBRANCH   2   3
BRANCH   2   6
ATOM      6  O   UNL     1      61.658  -4.846  -2.082  1.00  0.00    -0.388 OA
ATOM      7  H   UNL     1      60.947  -4.271  -2.470  1.00  0.00     0.211 HD
ENDBRANCH   2   6
ENDBRANCH   1   2
BRANCH   1   8
ATOM      8  C   UNL     1      62.797  -7.389  -1.237  1.00  0.00     0.214 C 
BRANCH   8   9
ATOM      9  C   UNL     1      61.706  -8.342  -1.695  1.00  0.00     0.189 C 
ATOM     10  O   UNL     1      61.138  -9.030  -0.859  1.00  0.00    -0.294 OA
BRANCH   9  11
ATOM     11  C   UNL     1      61.321  -8.471  -3.149  1.00  0.00     0.234 C 
BRANCH  11  12
ATOM     12  O   UNL     1      60.965  -7.228  -3.695  1.00  0.00    -0.388 OA
ATOM     13  H   UNL     1      60.397  -6.773  -3.020  1.00  0.00     0.211 HD
ENDBRANCH  11  12
ENDBRANCH   9  11
ENDBRANCH   8   9
BRANCH   8  14
ATOM     14  O   UNL     1      63.482  -6.821  -2.327  1.00  0.00    -0.382 OA
ATOM     15  H   UNL     1      64.432  -7.100  -2.284  1.00  0.00     0.211 HD
ENDBRANCH   8  14
ENDBRANCH   1   8
BRANCH   1  16
ATOM     16  O   UNL     1      61.828  -6.877   0.959  1.00  0.00    -0.387 OA
ATOM     17  H   UNL     1      62.069  -6.253   1.689  1.00  0.00     0.211 HD
ENDBRANCH   1  16
TORSDOF 10
ENDMDL
MODEL 9
REMARK VINA RESULT:    -4.007      1.308      1.836
REMARK INTER + INTRA:          -6.703
REMARK INTER:                  -5.893
REMARK INTRA:                  -0.810
REMARK UNBOUND:                -0.940
REMARK SMILES O=C(CO)[C@@H](O)[C@H](O)[C@H](O)CO
REMARK SMILES IDX 7 1 9 2 11 3 12 4 10 6 5 8 2 9 1 10 3 11 4 12 6 14 8 16
REMARK H PARENT 12 5 10 7 4 13 6 15 8 17
REMARK Flexibility Score: inf
ROOT
ATOM      1  C   UNL     1      62.843  -6.678  -2.269  1.00  0.00     0.181 C 
ENDROOT
BRANCH   1   2
ATOM      2  C   UNL     1      63.024  -8.064  -2.954  1.00  0.00     0.171 C 
BRANCH   2   3
ATOM      3  C   UNL     1      63.296  -8.018  -4.475  1.00  0.00     0.190 C 
BRANCH   3   4
ATOM      4  O   UNL     1      62.261  -7.358  -5.153  1.00  0.00    -0.394 OA
ATOM      5  H   UNL     1      62.103  -7.860  -5.995  1.00  0.00     0.210 HD
ENDBRANCH   3   4
ENDBRANCH   2   3
BRANCH   2   6
ATOM      6  O   UNL     1      64.077  -8.740  -2.313  1.00  0.00    -0.388 OA
ATOM      7  H   UNL     1      64.478  -8.107  -1.662  1.00  0.00     0.211 HD
ENDBRANCH   2   6
ENDBRANCH   1   2
BRANCH   1   8
ATOM      8  C   UNL     1      61.377  -6.323  -1.886  1.00  0.00     0.214 C 
BRANCH   8   9
ATOM      9  C   UNL     1      61.298  -4.961  -1.219  1.00  0.00     0.189 C 
ATOM     10  O   UNL     1      61.388  -3.959  -1.915  1.00  0.00    -0.294 OA
BRANCH   9  11
ATOM     11  C   UNL     1      61.130  -4.814   0.274  1.00  0.00     0.234 C 
BRANCH  11  12
ATOM     12  O   UNL     1      61.740  -3.641   0.743  1.00  0.00    -0.388 OA
ATOM     13  H   UNL     1      62.254  -3.892   1.555  1.00  0.00     0.211 HD
ENDBRANCH  11  12
ENDBRANCH   9  11
ENDBRANCH   8   9
BRANCH   8  14
ATOM     14  O   UNL     1      60.501  -6.415  -2.984  1.00  0.00    -0.382 OA
ATOM     15  H   UNL     1      60.990  -6.819  -3.745  1.00  0.00     0.211 HD
ENDBRANCH   8  14
ENDBRANCH   1   8
BRANCH   1  16
ATOM     16  O   UNL     1      63.461  -5.633  -2.984  1.00  0.00    -0.387 OA
ATOM     17  H   UNL     1      62.810  -5.269  -3.635  1.00  0.00     0.211 HD
ENDBRANCH   1  16
TORSDOF 10
ENDMDL
