MODEL 1
REMARK VINA RESULT:    -3.782      0.000      0.000
REMARK INTER + INTRA:         -12.936
REMARK INTER:                  -8.646
REMARK INTRA:                  -4.289
REMARK UNBOUND:                -4.289
REMARK SMILES CCCCCCCCCCCCCCCCCCCCCCCC(=O)[O-]
REMARK SMILES IDX 13 1 14 2 15 3 16 4 17 5 18 6 19 7 20 8 21 9 22 10 23 11
REMARK SMILES IDX 24 12 25 13 26 14 12 15 11 16 10 17 9 18 8 19 7 20 6 21 5 22
REMARK SMILES IDX 4 23 3 24 2 25 1 26
REMARK H PARENT
REMARK Flexibility Score: inf
ROOT
ATOM      1  C   UNL     1      77.852 -77.055  -0.758  1.00  0.00     0.000 C 
ENDROOT
BRANCH   1   2
ATOM      2  C   UNL     1      78.446 -75.999  -1.706  1.00  0.00     0.000 C 
BRANCH   2   3
ATOM      3  C   UNL     1      77.560 -74.749  -1.822  1.00  0.00     0.000 C 
BRANCH   3   4
ATOM      4  C   UNL     1      77.241 -74.392  -3.284  1.00  0.00     0.000 C 
BRANCH   4   5
ATOM      5  C   UNL     1      77.392 -72.889  -3.572  1.00  0.00     0.000 C 
BRANCH   5   6
ATOM      6  C   UNL     1      76.038 -72.186  -3.767  1.00  0.00     0.000 C 
BRANCH   6   7
ATOM      7  C   UNL     1      74.853 -73.168  -3.793  1.00  0.00     0.000 C 
BRANCH   7   8
ATOM      8  C   UNL     1      73.794 -72.894  -2.705  1.00  0.00     0.000 C 
BRANCH   8   9
ATOM      9  C   UNL     1      74.429 -72.571  -1.340  1.00  0.00     0.000 C 
BRANCH   9  10
ATOM     10  C   UNL     1      74.002 -71.194  -0.798  1.00  0.00     0.006 C 
BRANCH  10  11
ATOM     11  C   UNL     1      72.660 -71.198  -0.046  1.00  0.00     0.053 C 
BRANCH  11  12
ATOM     12  C   UNL     1      72.519 -70.010   0.858  1.00  0.00     0.041 C 
ATOM     13  O   UNL     1      71.623 -69.990   1.742  1.00  0.00    -0.550 OA
ATOM     14  O   UNL     1      73.364 -68.917   0.707  1.00  0.00    -0.550 OA
ENDBRANCH  11  12
ENDBRANCH  10  11
ENDBRANCH   9  10
ENDBRANCH   8   9
ENDBRANCH   7   8
ENDBRANCH   6   7
ENDBRANCH   5   6
ENDBRANCH   4   5
ENDBRANCH   3   4
ENDBRANCH   2   3
ENDBRANCH   1   2
BRANCH   1  15
ATOM     15  C   UNL     1      77.955 -78.482  -1.319  1.00  0.00     0.000 C 
BRANCH  15  16
ATOM     16  C   UNL     1      78.025 -78.514  -2.856  1.00  0.00     0.000 C 
BRANCH  16  17
ATOM     17  C   UNL     1      76.945 -79.416  -3.475  1.00  0.00     0.000 C 
BRANCH  17  18
ATOM     18  C   UNL     1      75.518 -78.908  -3.199  1.00  0.00    -0.000 C 
BRANCH  18  19
ATOM     19  C   UNL     1      75.331 -77.436  -3.621  1.00  0.00    -0.000 C 
BRANCH  19  20
ATOM     20  C   UNL     1      74.308 -76.675  -2.758  1.00  0.00    -0.000 C 
BRANCH  20  21
ATOM     21  C   UNL     1      74.233 -77.205  -1.316  1.00  0.00    -0.000 C 
BRANCH  21  22
ATOM     22  C   UNL     1      74.414 -76.093  -0.271  1.00  0.00    -0.000 C 
BRANCH  22  23
ATOM     23  C   UNL     1      73.573 -76.329   0.994  1.00  0.00    -0.000 C 
BRANCH  23  24
ATOM     24  C   UNL     1      72.080 -76.104   0.711  1.00  0.00    -0.000 C 
BRANCH  24  25
ATOM     25  C   UNL     1      71.805 -74.754   0.033  1.00  0.00    -0.003 C 
ATOM     26  C   UNL     1      70.887 -74.879  -1.184  1.00  0.00     0.004 C 
ENDBRANCH  24  25
ENDBRANCH  23  24
ENDBRANCH  22  23
ENDBRANCH  21  22
ENDBRANCH  20  21
ENDBRANCH  19  20
ENDBRANCH  18  19
ENDBRANCH  17  18
ENDBRANCH  16  17
ENDBRANCH  15  16
ENDBRANCH   1  15
TORSDOF 22
ENDMDL
MODEL 2
REMARK VINA RESULT:    -3.751      1.193      2.367
REMARK INTER + INTRA:         -12.865
REMARK INTER:                  -9.127
REMARK INTRA:                  -3.738
REMARK UNBOUND:                -4.289
REMARK SMILES CCCCCCCCCCCCCCCCCCCCCCCC(=O)[O-]
REMARK SMILES IDX 13 1 14 2 15 3 16 4 17 5 18 6 19 7 20 8 21 9 22 10 23 11
REMARK SMILES IDX 24 12 25 13 26 14 12 15 11 16 10 17 9 18 8 19 7 20 6 21 5 22
REMARK SMILES IDX 4 23 3 24 2 25 1 26
REMARK H PARENT
REMARK Flexibility Score: inf
ROOT
ATOM      1  C   UNL     1      76.763 -74.665  -1.365  1.00  0.00     0.000 C 
ENDROOT
BRANCH   1   2
ATOM      2  C   UNL     1      77.595 -73.986  -2.467  1.00  0.00     0.000 C 
BRANCH   2   3
ATOM      3  C   UNL     1      76.762 -73.670  -3.719  1.00  0.00     0.000 C 
BRANCH   3   4
ATOM      4  C   UNL     1      76.374 -72.183  -3.804  1.00  0.00     0.000 C 
BRANCH   4   5
ATOM      5  C   UNL     1      74.871 -71.951  -3.583  1.00  0.00     0.000 C 
BRANCH   5   6
ATOM      6  C   UNL     1      74.010 -73.107  -4.119  1.00  0.00     0.000 C 
BRANCH   6   7
ATOM      7  C   UNL     1      73.098 -73.722  -3.041  1.00  0.00     0.000 C 
BRANCH   7   8
ATOM      8  C   UNL     1      73.461 -73.296  -1.604  1.00  0.00     0.000 C 
BRANCH   8   9
ATOM      9  C   UNL     1      72.231 -73.247  -0.679  1.00  0.00     0.000 C 
BRANCH   9  10
ATOM     10  C   UNL     1      71.872 -71.812  -0.247  1.00  0.00     0.006 C 
BRANCH  10  11
ATOM     11  C   UNL     1      73.079 -70.867  -0.125  1.00  0.00     0.053 C 
BRANCH  11  12
ATOM     12  C   UNL     1      72.925 -69.905   1.014  1.00  0.00     0.041 C 
ATOM     13  O   UNL     1      73.335 -68.720   0.902  1.00  0.00    -0.550 OA
ATOM     14  O   UNL     1      72.351 -70.325   2.208  1.00  0.00    -0.550 OA
ENDBRANCH  11  12
ENDBRANCH  10  11
ENDBRANCH   9  10
ENDBRANCH   8   9
ENDBRANCH   7   8
ENDBRANCH   6   7
ENDBRANCH   5   6
ENDBRANCH   4   5
ENDBRANCH   3   4
ENDBRANCH   2   3
ENDBRANCH   1   2
BRANCH   1  15
ATOM     15  C   UNL     1      77.477 -75.876  -0.742  1.00  0.00     0.000 C 
BRANCH  15  16
ATOM     16  C   UNL     1      78.389 -76.608  -1.742  1.00  0.00     0.000 C 
BRANCH  16  17
ATOM     17  C   UNL     1      77.774 -77.925  -2.243  1.00  0.00     0.000 C 
BRANCH  17  18
ATOM     18  C   UNL     1      77.186 -77.804  -3.660  1.00  0.00    -0.000 C 
BRANCH  18  19
ATOM     19  C   UNL     1      75.673 -77.501  -3.639  1.00  0.00    -0.000 C 
BRANCH  19  20
ATOM     20  C   UNL     1      74.950 -78.061  -2.401  1.00  0.00    -0.000 C 
BRANCH  20  21
ATOM     21  C   UNL     1      74.012 -77.035  -1.743  1.00  0.00    -0.000 C 
BRANCH  21  22
ATOM     22  C   UNL     1      73.740 -77.352  -0.264  1.00  0.00    -0.000 C 
BRANCH  22  23
ATOM     23  C   UNL     1      73.836 -76.108   0.633  1.00  0.00    -0.000 C 
BRANCH  23  24
ATOM     24  C   UNL     1      72.794 -76.161   1.761  1.00  0.00    -0.000 C 
BRANCH  24  25
ATOM     25  C   UNL     1      73.009 -77.352   2.707  1.00  0.00    -0.003 C 
ATOM     26  C   UNL     1      73.515 -76.928   4.086  1.00  0.00     0.004 C 
ENDBRANCH  24  25
ENDBRANCH  23  24
ENDBRANCH  22  23
ENDBRANCH  21  22
ENDBRANCH  20  21
ENDBRANCH  19  20
ENDBRANCH  18  19
ENDBRANCH  17  18
ENDBRANCH  16  17
ENDBRANCH  15  16
ENDBRANCH   1  15
TORSDOF 22
ENDMDL
MODEL 3
REMARK VINA RESULT:    -3.746      2.229      5.158
REMARK INTER + INTRA:         -12.852
REMARK INTER:                  -8.795
REMARK INTRA:                  -4.057
REMARK UNBOUND:                -4.289
REMARK SMILES CCCCCCCCCCCCCCCCCCCCCCCC(=O)[O-]
REMARK SMILES IDX 13 1 14 2 15 3 16 4 17 5 18 6 19 7 20 8 21 9 22 10 23 11
REMARK SMILES IDX 24 12 25 13 26 14 12 15 11 16 10 17 9 18 8 19 7 20 6 21 5 22
REMARK SMILES IDX 4 23 3 24 2 25 1 26
REMARK H PARENT
REMARK Flexibility Score: inf
ROOT
ATOM      1  C   UNL     1      76.728 -76.215  -0.403  1.00  0.00     0.000 C 
ENDROOT
BRANCH   1   2
ATOM      2  C   UNL     1      77.886 -77.091  -0.913  1.00  0.00     0.000 C 
BRANCH   2   3
ATOM      3  C   UNL     1      77.467 -78.555  -1.118  1.00  0.00     0.000 C 
BRANCH   3   4
ATOM      4  C   UNL     1      76.092 -78.681  -1.797  1.00  0.00     0.000 C 
BRANCH   4   5
ATOM      5  C   UNL     1      76.185 -78.660  -3.331  1.00  0.00     0.000 C 
BRANCH   5   6
ATOM      6  C   UNL     1      75.842 -77.284  -3.925  1.00  0.00     0.000 C 
BRANCH   6   7
ATOM      7  C   UNL     1      74.328 -77.070  -4.101  1.00  0.00     0.000 C 
BRANCH   7   8
ATOM      8  C   UNL     1      73.726 -76.045  -3.118  1.00  0.00     0.000 C 
BRANCH   8   9
ATOM      9  C   UNL     1      72.741 -76.692  -2.128  1.00  0.00     0.000 C 
BRANCH   9  10
ATOM     10  C   UNL     1      72.969 -76.228  -0.676  1.00  0.00     0.006 C 
BRANCH  10  11
ATOM     11  C   UNL     1      73.324 -77.360   0.302  1.00  0.00     0.053 C 
BRANCH  11  12
ATOM     12  C   UNL     1      72.832 -77.078   1.690  1.00  0.00     0.041 C 
ATOM     13  O   UNL     1      72.551 -78.028   2.468  1.00  0.00    -0.550 OA
ATOM     14  O   UNL     1      72.662 -75.766   2.115  1.00  0.00    -0.550 OA
ENDBRANCH  11  12
ENDBRANCH  10  11
ENDBRANCH   9  10
ENDBRANCH   8   9
ENDBRANCH   7   8
ENDBRANCH   6   7
ENDBRANCH   5   6
ENDBRANCH   4   5
ENDBRANCH   3   4
ENDBRANCH   2   3
ENDBRANCH   1   2
BRANCH   1  15
ATOM     15  C   UNL     1      76.627 -74.873  -1.145  1.00  0.00     0.000 C 
BRANCH  15  16
ATOM     16  C   UNL     1      77.750 -74.679  -2.180  1.00  0.00     0.000 C 
BRANCH  16  17
ATOM     17  C   UNL     1      77.648 -73.331  -2.912  1.00  0.00     0.000 C 
BRANCH  17  18
ATOM     18  C   UNL     1      76.427 -73.253  -3.845  1.00  0.00    -0.000 C 
BRANCH  18  19
ATOM     19  C   UNL     1      75.891 -71.812  -3.986  1.00  0.00    -0.000 C 
BRANCH  19  20
ATOM     20  C   UNL     1      74.908 -71.411  -2.872  1.00  0.00    -0.000 C 
BRANCH  20  21
ATOM     21  C   UNL     1      73.990 -72.567  -2.442  1.00  0.00    -0.000 C 
BRANCH  21  22
ATOM     22  C   UNL     1      73.728 -72.578  -0.927  1.00  0.00    -0.000 C 
BRANCH  22  23
ATOM     23  C   UNL     1      72.262 -72.273  -0.581  1.00  0.00    -0.000 C 
BRANCH  23  24
ATOM     24  C   UNL     1      72.161 -71.068   0.367  1.00  0.00    -0.000 C 
BRANCH  24  25
ATOM     25  C   UNL     1      73.503 -70.342   0.544  1.00  0.00    -0.003 C 
ATOM     26  C   UNL     1      73.335 -68.849   0.827  1.00  0.00     0.004 C 
ENDBRANCH  24  25
ENDBRANCH  23  24
ENDBRANCH  22  23
ENDBRANCH  21  22
ENDBRANCH  20  21
ENDBRANCH  19  20
ENDBRANCH  18  19
ENDBRANCH  17  18
ENDBRANCH  16  17
ENDBRANCH  15  16
ENDBRANCH   1  15
TORSDOF 22
ENDMDL
MODEL 4
REMARK VINA RESULT:    -3.743      1.651      2.687
REMARK INTER + INTRA:         -12.847
REMARK INTER:                  -9.045
REMARK INTRA:                  -3.802
REMARK UNBOUND:                -4.289
REMARK SMILES CCCCCCCCCCCCCCCCCCCCCCCC(=O)[O-]
REMARK SMILES IDX 13 1 14 2 15 3 16 4 17 5 18 6 19 7 20 8 21 9 22 10 23 11
REMARK SMILES IDX 24 12 25 13 26 14 12 15 11 16 10 17 9 18 8 19 7 20 6 21 5 22
REMARK SMILES IDX 4 23 3 24 2 25 1 26
REMARK H PARENT
REMARK Flexibility Score: inf
ROOT
ATOM      1  C   UNL     1      76.634 -78.242  -1.389  1.00  0.00     0.000 C 
ENDROOT
BRANCH   1   2
ATOM      2  C   UNL     1      77.610 -77.055  -1.299  1.00  0.00     0.000 C 
BRANCH   2   3
ATOM      3  C   UNL     1      77.047 -75.895  -0.464  1.00  0.00     0.000 C 
BRANCH   3   4
ATOM      4  C   UNL     1      76.744 -74.652  -1.320  1.00  0.00     0.000 C 
BRANCH   4   5
ATOM      5  C   UNL     1      77.910 -74.272  -2.246  1.00  0.00     0.000 C 
BRANCH   5   6
ATOM      6  C   UNL     1      77.434 -73.710  -3.595  1.00  0.00     0.000 C 
BRANCH   6   7
ATOM      7  C   UNL     1      76.468 -72.521  -3.440  1.00  0.00     0.000 C 
BRANCH   7   8
ATOM      8  C   UNL     1      75.102 -72.737  -4.123  1.00  0.00     0.000 C 
BRANCH   8   9
ATOM      9  C   UNL     1      73.928 -72.615  -3.134  1.00  0.00     0.000 C 
BRANCH   9  10
ATOM     10  C   UNL     1      74.333 -71.929  -1.815  1.00  0.00     0.006 C 
BRANCH  10  11
ATOM     11  C   UNL     1      73.291 -72.054  -0.691  1.00  0.00     0.053 C 
BRANCH  11  12
ATOM     12  C   UNL     1      73.184 -70.796   0.117  1.00  0.00     0.041 C 
ATOM     13  O   UNL     1      74.058 -69.896   0.008  1.00  0.00    -0.550 OA
ATOM     14  O   UNL     1      72.130 -70.629   1.008  1.00  0.00    -0.550 OA
ENDBRANCH  11  12
ENDBRANCH  10  11
ENDBRANCH   9  10
ENDBRANCH   8   9
ENDBRANCH   7   8
ENDBRANCH   6   7
ENDBRANCH   5   6
ENDBRANCH   4   5
ENDBRANCH   3   4
ENDBRANCH   2   3
ENDBRANCH   1   2
BRANCH   1  15
ATOM     15  C   UNL     1      76.184 -78.534  -2.829  1.00  0.00     0.000 C 
BRANCH  15  16
ATOM     16  C   UNL     1      76.419 -77.345  -3.778  1.00  0.00     0.000 C 
BRANCH  16  17
ATOM     17  C   UNL     1      75.154 -76.496  -3.980  1.00  0.00     0.000 C 
BRANCH  17  18
ATOM     18  C   UNL     1      73.864 -77.259  -3.630  1.00  0.00    -0.000 C 
BRANCH  18  19
ATOM     19  C   UNL     1      72.870 -76.390  -2.831  1.00  0.00    -0.000 C 
BRANCH  19  20
ATOM     20  C   UNL     1      73.465 -75.809  -1.536  1.00  0.00    -0.000 C 
BRANCH  20  21
ATOM     21  C   UNL     1      73.424 -76.802  -0.363  1.00  0.00    -0.000 C 
BRANCH  21  22
ATOM     22  C   UNL     1      73.250 -76.101   0.995  1.00  0.00    -0.000 C 
BRANCH  22  23
ATOM     23  C   UNL     1      73.038 -77.094   2.148  1.00  0.00    -0.000 C 
BRANCH  23  24
ATOM     24  C   UNL     1      72.460 -76.386   3.383  1.00  0.00    -0.000 C 
BRANCH  24  25
ATOM     25  C   UNL     1      72.635 -77.208   4.669  1.00  0.00    -0.003 C 
ATOM     26  C   UNL     1      73.310 -76.415   5.790  1.00  0.00     0.004 C 
ENDBRANCH  24  25
ENDBRANCH  23  24
ENDBRANCH  22  23
ENDBRANCH  21  22
ENDBRANCH  20  21
ENDBRANCH  19  20
ENDBRANCH  18  19
ENDBRANCH  17  18
ENDBRANCH  16  17
ENDBRANCH  15  16
ENDBRANCH   1  15
TORSDOF 22
ENDMDL
MODEL 5
REMARK VINA RESULT:    -3.724      2.312      5.286
REMARK INTER + INTRA:         -12.804
REMARK INTER:                  -9.320
REMARK INTRA:                  -3.484
REMARK UNBOUND:                -4.289
REMARK SMILES CCCCCCCCCCCCCCCCCCCCCCCC(=O)[O-]
REMARK SMILES IDX 13 1 14 2 15 3 16 4 17 5 18 6 19 7 20 8 21 9 22 10 23 11
REMARK SMILES IDX 24 12 25 13 26 14 12 15 11 16 10 17 9 18 8 19 7 20 6 21 5 22
REMARK SMILES IDX 4 23 3 24 2 25 1 26
REMARK H PARENT
REMARK Flexibility Score: inf
ROOT
ATOM      1  C   UNL     1      76.889 -75.871  -0.546  1.00  0.00     0.000 C 
ENDROOT
BRANCH   1   2
ATOM      2  C   UNL     1      78.074 -76.643  -1.153  1.00  0.00     0.000 C 
BRANCH   2   3
ATOM      3  C   UNL     1      77.623 -77.854  -1.984  1.00  0.00     0.000 C 
BRANCH   3   4
ATOM      4  C   UNL     1      76.102 -78.075  -1.918  1.00  0.00     0.000 C 
BRANCH   4   5
ATOM      5  C   UNL     1      75.419 -77.903  -3.284  1.00  0.00     0.000 C 
BRANCH   5   6
ATOM      6  C   UNL     1      74.145 -77.046  -3.204  1.00  0.00     0.000 C 
BRANCH   6   7
ATOM      7  C   UNL     1      73.544 -76.999  -1.788  1.00  0.00     0.000 C 
BRANCH   7   8
ATOM      8  C   UNL     1      73.060 -75.597  -1.365  1.00  0.00     0.000 C 
BRANCH   8   9
ATOM      9  C   UNL     1      72.914 -75.465   0.162  1.00  0.00     0.000 C 
BRANCH   9  10
ATOM     10  C   UNL     1      73.695 -76.549   0.929  1.00  0.00     0.006 C 
BRANCH  10  11
ATOM     11  C   UNL     1      72.869 -77.292   1.993  1.00  0.00     0.053 C 
BRANCH  11  12
ATOM     12  C   UNL     1      73.083 -76.727   3.365  1.00  0.00     0.041 C 
ATOM     13  O   UNL     1      72.357 -75.787   3.784  1.00  0.00    -0.550 OA
ATOM     14  O   UNL     1      74.102 -77.223   4.171  1.00  0.00    -0.550 OA
ENDBRANCH  11  12
ENDBRANCH  10  11
ENDBRANCH   9  10
ENDBRANCH   8   9
ENDBRANCH   7   8
ENDBRANCH   6   7
ENDBRANCH   5   6
ENDBRANCH   4   5
ENDBRANCH   3   4
ENDBRANCH   2   3
ENDBRANCH   1   2
BRANCH   1  15
ATOM     15  C   UNL     1      76.593 -74.557  -1.286  1.00  0.00     0.000 C 
BRANCH  15  16
ATOM     16  C   UNL     1      77.695 -74.180  -2.292  1.00  0.00     0.000 C 
BRANCH  16  17
ATOM     17  C   UNL     1      77.140 -73.451  -3.526  1.00  0.00     0.000 C 
BRANCH  17  18
ATOM     18  C   UNL     1      75.612 -73.584  -3.657  1.00  0.00    -0.000 C 
BRANCH  18  19
ATOM     19  C   UNL     1      74.907 -72.212  -3.677  1.00  0.00    -0.000 C 
BRANCH  19  20
ATOM     20  C   UNL     1      74.573 -71.671  -2.275  1.00  0.00    -0.000 C 
BRANCH  20  21
ATOM     21  C   UNL     1      73.258 -72.238  -1.714  1.00  0.00    -0.000 C 
BRANCH  21  22
ATOM     22  C   UNL     1      72.818 -71.533  -0.421  1.00  0.00    -0.000 C 
BRANCH  22  23
ATOM     23  C   UNL     1      73.872 -70.545   0.100  1.00  0.00    -0.000 C 
BRANCH  23  24
ATOM     24  C   UNL     1      73.208 -69.353   0.807  1.00  0.00    -0.000 C 
BRANCH  24  25
ATOM     25  C   UNL     1      71.942 -69.756   1.579  1.00  0.00    -0.003 C 
ATOM     26  C   UNL     1      72.239 -70.191   3.015  1.00  0.00     0.004 C 
ENDBRANCH  24  25
ENDBRANCH  23  24
ENDBRANCH  22  23
ENDBRANCH  21  22
ENDBRANCH  20  21
ENDBRANCH  19  20
ENDBRANCH  18  19
ENDBRANCH  17  18
ENDBRANCH  16  17
ENDBRANCH  15  16
ENDBRANCH   1  15
TORSDOF 22
ENDMDL
MODEL 6
REMARK VINA RESULT:    -3.707      2.460      4.906
REMARK INTER + INTRA:         -12.764
REMARK INTER:                  -8.051
REMARK INTRA:                  -4.712
REMARK UNBOUND:                -4.289
REMARK SMILES CCCCCCCCCCCCCCCCCCCCCCCC(=O)[O-]
REMARK SMILES IDX 13 1 14 2 15 3 16 4 17 5 18 6 19 7 20 8 21 9 22 10 23 11
REMARK SMILES IDX 24 12 25 13 26 14 12 15 11 16 10 17 9 18 8 19 7 20 6 21 5 22
REMARK SMILES IDX 4 23 3 24 2 25 1 26
REMARK H PARENT
REMARK Flexibility Score: inf
ROOT
ATOM      1  C   UNL     1      76.644 -75.850  -0.444  1.00  0.00     0.000 C 
ENDROOT
BRANCH   1   2
ATOM      2  C   UNL     1      77.873 -76.714  -0.777  1.00  0.00     0.000 C 
BRANCH   2   3
ATOM      3  C   UNL     1      77.488 -78.109  -1.291  1.00  0.00     0.000 C 
BRANCH   3   4
ATOM      4  C   UNL     1      75.999 -78.205  -1.665  1.00  0.00     0.000 C 
BRANCH   4   5
ATOM      5  C   UNL     1      75.775 -78.292  -3.184  1.00  0.00     0.000 C 
BRANCH   5   6
ATOM      6  C   UNL     1      75.487 -76.921  -3.817  1.00  0.00     0.000 C 
BRANCH   6   7
ATOM      7  C   UNL     1      73.984 -76.593  -3.873  1.00  0.00     0.000 C 
BRANCH   7   8
ATOM      8  C   UNL     1      73.506 -75.674  -2.729  1.00  0.00     0.000 C 
BRANCH   8   9
ATOM      9  C   UNL     1      72.669 -76.431  -1.682  1.00  0.00     0.000 C 
BRANCH   9  10
ATOM     10  C   UNL     1      73.057 -76.066  -0.236  1.00  0.00     0.006 C 
BRANCH  10  11
ATOM     11  C   UNL     1      73.238 -77.276   0.696  1.00  0.00     0.053 C 
BRANCH  11  12
ATOM     12  C   UNL     1      72.711 -77.008   2.073  1.00  0.00     0.041 C 
ATOM     13  O   UNL     1      73.501 -76.943   3.052  1.00  0.00    -0.550 OA
ATOM     14  O   UNL     1      71.345 -76.854   2.278  1.00  0.00    -0.550 OA
ENDBRANCH  11  12
ENDBRANCH  10  11
ENDBRANCH   9  10
ENDBRANCH   8   9
ENDBRANCH   7   8
ENDBRANCH   6   7
ENDBRANCH   5   6
ENDBRANCH   4   5
ENDBRANCH   3   4
ENDBRANCH   2   3
ENDBRANCH   1   2
BRANCH   1  15
ATOM     15  C   UNL     1      76.610 -74.533  -1.236  1.00  0.00     0.000 C 
BRANCH  15  16
ATOM     16  C   UNL     1      77.744 -74.433  -2.271  1.00  0.00     0.000 C 
BRANCH  16  17
ATOM     17  C   UNL     1      77.575 -73.229  -3.212  1.00  0.00     0.000 C 
BRANCH  17  18
ATOM     18  C   UNL     1      76.244 -73.261  -3.984  1.00  0.00    -0.000 C 
BRANCH  18  19
ATOM     19  C   UNL     1      75.430 -71.963  -3.796  1.00  0.00    -0.000 C 
BRANCH  19  20
ATOM     20  C   UNL     1      74.101 -72.174  -3.048  1.00  0.00    -0.000 C 
BRANCH  20  21
ATOM     21  C   UNL     1      74.165 -71.724  -1.579  1.00  0.00    -0.000 C 
BRANCH  21  22
ATOM     22  C   UNL     1      73.237 -72.546  -0.671  1.00  0.00    -0.000 C 
BRANCH  22  23
ATOM     23  C   UNL     1      71.771 -72.092  -0.760  1.00  0.00    -0.000 C 
BRANCH  23  24
ATOM     24  C   UNL     1      70.893 -73.189  -1.382  1.00  0.00    -0.000 C 
BRANCH  24  25
ATOM     25  C   UNL     1      70.348 -72.794  -2.763  1.00  0.00    -0.003 C 
ATOM     26  C   UNL     1      70.543 -73.890  -3.812  1.00  0.00     0.004 C 
ENDBRANCH  24  25
ENDBRANCH  23  24
ENDBRANCH  22  23
ENDBRANCH  21  22
ENDBRANCH  20  21
ENDBRANCH  19  20
ENDBRANCH  18  19
ENDBRANCH  17  18
ENDBRANCH  16  17
ENDBRANCH  15  16
ENDBRANCH   1  15
TORSDOF 22
ENDMDL
MODEL 7
REMARK VINA RESULT:    -3.689      2.843      6.334
REMARK INTER + INTRA:         -12.724
REMARK INTER:                  -9.220
REMARK INTRA:                  -3.503
REMARK UNBOUND:                -4.289
REMARK SMILES CCCCCCCCCCCCCCCCCCCCCCCC(=O)[O-]
REMARK SMILES IDX 13 1 14 2 15 3 16 4 17 5 18 6 19 7 20 8 21 9 22 10 23 11
REMARK SMILES IDX 24 12 25 13 26 14 12 15 11 16 10 17 9 18 8 19 7 20 6 21 5 22
REMARK SMILES IDX 4 23 3 24 2 25 1 26
REMARK H PARENT
REMARK Flexibility Score: inf
ROOT
ATOM      1  C   UNL     1      74.138 -72.428  -1.672  1.00  0.00     0.000 C 
ENDROOT
BRANCH   1   2
ATOM      2  C   UNL     1      72.992 -71.842  -0.827  1.00  0.00     0.000 C 
BRANCH   2   3
ATOM      3  C   UNL     1      71.712 -72.687  -0.908  1.00  0.00     0.000 C 
BRANCH   3   4
ATOM      4  C   UNL     1      71.639 -73.516  -2.202  1.00  0.00     0.000 C 
BRANCH   4   5
ATOM      5  C   UNL     1      71.480 -75.021  -1.933  1.00  0.00     0.000 C 
BRANCH   5   6
ATOM      6  C   UNL     1      72.793 -75.797  -2.126  1.00  0.00     0.000 C 
BRANCH   6   7
ATOM      7  C   UNL     1      73.236 -76.547  -0.857  1.00  0.00     0.000 C 
BRANCH   7   8
ATOM      8  C   UNL     1      73.683 -75.617   0.290  1.00  0.00     0.000 C 
BRANCH   8   9
ATOM      9  C   UNL     1      72.673 -75.595   1.452  1.00  0.00     0.000 C 
BRANCH   9  10
ATOM     10  C   UNL     1      72.933 -76.709   2.484  1.00  0.00     0.006 C 
BRANCH  10  11
ATOM     11  C   UNL     1      72.249 -76.485   3.843  1.00  0.00     0.053 C 
BRANCH  11  12
ATOM     12  C   UNL     1      73.139 -76.863   4.989  1.00  0.00     0.041 C 
ATOM     13  O   UNL     1      72.688 -76.875   6.165  1.00  0.00    -0.550 OA
ATOM     14  O   UNL     1      74.473 -77.178   4.759  1.00  0.00    -0.550 OA
ENDBRANCH  11  12
ENDBRANCH  10  11
ENDBRANCH   9  10
ENDBRANCH   8   9
ENDBRANCH   7   8
ENDBRANCH   6   7
ENDBRANCH   5   6
ENDBRANCH   4   5
ENDBRANCH   3   4
ENDBRANCH   2   3
ENDBRANCH   1   2
BRANCH   1  15
ATOM     15  C   UNL     1      74.845 -71.367  -2.531  1.00  0.00     0.000 C 
BRANCH  15  16
ATOM     16  C   UNL     1      75.373 -71.935  -3.860  1.00  0.00     0.000 C 
BRANCH  16  17
ATOM     17  C   UNL     1      74.881 -73.367  -4.125  1.00  0.00     0.000 C 
BRANCH  17  18
ATOM     18  C   UNL     1      76.014 -74.406  -4.061  1.00  0.00    -0.000 C 
BRANCH  18  19
ATOM     19  C   UNL     1      77.366 -73.772  -3.669  1.00  0.00    -0.000 C 
BRANCH  19  20
ATOM     20  C   UNL     1      77.847 -74.172  -2.263  1.00  0.00    -0.000 C 
BRANCH  20  21
ATOM     21  C   UNL     1      76.782 -74.941  -1.464  1.00  0.00    -0.000 C 
BRANCH  21  22
ATOM     22  C   UNL     1      77.390 -76.044  -0.583  1.00  0.00    -0.000 C 
BRANCH  22  23
ATOM     23  C   UNL     1      77.151 -77.452  -1.150  1.00  0.00    -0.000 C 
BRANCH  23  24
ATOM     24  C   UNL     1      78.376 -78.351  -0.923  1.00  0.00    -0.000 C 
BRANCH  24  25
ATOM     25  C   UNL     1      79.093 -78.712  -2.233  1.00  0.00    -0.003 C 
ATOM     26  C   UNL     1      79.365 -77.493  -3.114  1.00  0.00     0.004 C 
ENDBRANCH  24  25
ENDBRANCH  23  24
ENDBRANCH  22  23
ENDBRANCH  21  22
ENDBRANCH  20  21
ENDBRANCH  19  20
ENDBRANCH  18  19
ENDBRANCH  17  18
ENDBRANCH  16  17
ENDBRANCH  15  16
ENDBRANCH   1  15
TORSDOF 22
ENDMDL
MODEL 8
REMARK VINA RESULT:    -3.663      2.555      5.050
REMARK INTER + INTRA:         -12.662
REMARK INTER:                  -8.346
REMARK INTRA:                  -4.317
REMARK UNBOUND:                -4.289
REMARK SMILES CCCCCCCCCCCCCCCCCCCCCCCC(=O)[O-]
REMARK SMILES IDX 13 1 14 2 15 3 16 4 17 5 18 6 19 7 20 8 21 9 22 10 23 11
REMARK SMILES IDX 24 12 25 13 26 14 12 15 11 16 10 17 9 18 8 19 7 20 6 21 5 22
REMARK SMILES IDX 4 23 3 24 2 25 1 26
REMARK H PARENT
REMARK Flexibility Score: inf
ROOT
ATOM      1  C   UNL     1      75.258 -76.541  -0.994  1.00  0.00     0.000 C 
ENDROOT
BRANCH   1   2
ATOM      2  C   UNL     1      75.197 -77.913  -1.687  1.00  0.00     0.000 C 
BRANCH   2   3
ATOM      3  C   UNL     1      74.844 -77.803  -3.178  1.00  0.00     0.000 C 
BRANCH   3   4
ATOM      4  C   UNL     1      74.171 -76.463  -3.523  1.00  0.00     0.000 C 
BRANCH   4   5
ATOM      5  C   UNL     1      72.710 -76.632  -3.970  1.00  0.00     0.000 C 
BRANCH   5   6
ATOM      6  C   UNL     1      71.709 -76.124  -2.919  1.00  0.00     0.000 C 
BRANCH   6   7
ATOM      7  C   UNL     1      71.136 -77.254  -2.044  1.00  0.00     0.000 C 
BRANCH   7   8
ATOM      8  C   UNL     1      71.672 -77.251  -0.598  1.00  0.00     0.000 C 
BRANCH   8   9
ATOM      9  C   UNL     1      71.681 -75.840   0.020  1.00  0.00     0.000 C 
BRANCH   9  10
ATOM     10  C   UNL     1      72.625 -75.731   1.233  1.00  0.00     0.006 C 
BRANCH  10  11
ATOM     11  C   UNL     1      72.989 -77.080   1.876  1.00  0.00     0.053 C 
BRANCH  11  12
ATOM     12  C   UNL     1      72.928 -77.023   3.373  1.00  0.00     0.041 C 
ATOM     13  O   UNL     1      73.989 -76.966   4.048  1.00  0.00    -0.550 OA
ATOM     14  O   UNL     1      71.699 -77.056   4.022  1.00  0.00    -0.550 OA
ENDBRANCH  11  12
ENDBRANCH  10  11
ENDBRANCH   9  10
ENDBRANCH   8   9
ENDBRANCH   7   8
ENDBRANCH   6   7
ENDBRANCH   5   6
ENDBRANCH   4   5
ENDBRANCH   3   4
ENDBRANCH   2   3
ENDBRANCH   1   2
BRANCH   1  15
ATOM     15  C   UNL     1      76.635 -76.247  -0.378  1.00  0.00     0.000 C 
BRANCH  15  16
ATOM     16  C   UNL     1      77.722 -77.226  -0.856  1.00  0.00     0.000 C 
BRANCH  16  17
ATOM     17  C   UNL     1      78.619 -76.620  -1.947  1.00  0.00     0.000 C 
BRANCH  17  18
ATOM     18  C   UNL     1      78.255 -75.161  -2.273  1.00  0.00    -0.000 C 
BRANCH  18  19
ATOM     19  C   UNL     1      77.697 -75.004  -3.704  1.00  0.00    -0.000 C 
BRANCH  19  20
ATOM     20  C   UNL     1      76.640 -73.893  -3.833  1.00  0.00    -0.000 C 
BRANCH  20  21
ATOM     21  C   UNL     1      76.254 -73.276  -2.478  1.00  0.00    -0.000 C 
BRANCH  21  22
ATOM     22  C   UNL     1      74.966 -72.441  -2.558  1.00  0.00    -0.000 C 
BRANCH  22  23
ATOM     23  C   UNL     1      73.741 -73.194  -2.015  1.00  0.00    -0.000 C 
BRANCH  23  24
ATOM     24  C   UNL     1      72.956 -72.323  -1.022  1.00  0.00    -0.000 C 
BRANCH  24  25
ATOM     25  C   UNL     1      73.820 -71.218  -0.396  1.00  0.00    -0.003 C 
ATOM     26  C   UNL     1      73.007 -70.244   0.458  1.00  0.00     0.004 C 
ENDBRANCH  24  25
ENDBRANCH  23  24
ENDBRANCH  22  23
ENDBRANCH  21  22
ENDBRANCH  20  21
ENDBRANCH  19  20
ENDBRANCH  18  19
ENDBRANCH  17  18
ENDBRANCH  16  17
ENDBRANCH  15  16
ENDBRANCH   1  15
TORSDOF 22
ENDMDL
MODEL 9
REMARK VINA RESULT:    -3.648      2.254      4.829
REMARK INTER + INTRA:         -12.629
REMARK INTER:                  -8.049
REMARK INTRA:                  -4.580
REMARK UNBOUND:                -4.289
REMARK SMILES CCCCCCCCCCCCCCCCCCCCCCCC(=O)[O-]
REMARK SMILES IDX 13 1 14 2 15 3 16 4 17 5 18 6 19 7 20 8 21 9 22 10 23 11
REMARK SMILES IDX 24 12 25 13 26 14 12 15 11 16 10 17 9 18 8 19 7 20 6 21 5 22
REMARK SMILES IDX 4 23 3 24 2 25 1 26
REMARK H PARENT
REMARK Flexibility Score: inf
ROOT
ATOM      1  C   UNL     1      76.938 -75.908  -0.448  1.00  0.00     0.000 C 
ENDROOT
BRANCH   1   2
ATOM      2  C   UNL     1      77.942 -76.902  -1.059  1.00  0.00     0.000 C 
BRANCH   2   3
ATOM      3  C   UNL     1      77.277 -78.218  -1.491  1.00  0.00     0.000 C 
BRANCH   3   4
ATOM      4  C   UNL     1      77.278 -78.400  -3.019  1.00  0.00     0.000 C 
BRANCH   4   5
ATOM      5  C   UNL     1      76.075 -77.724  -3.696  1.00  0.00     0.000 C 
BRANCH   5   6
ATOM      6  C   UNL     1      74.755 -77.981  -2.950  1.00  0.00     0.000 C 
BRANCH   6   7
ATOM      7  C   UNL     1      73.826 -76.754  -2.939  1.00  0.00     0.000 C 
BRANCH   7   8
ATOM      8  C   UNL     1      73.052 -76.573  -1.617  1.00  0.00     0.000 C 
BRANCH   8   9
ATOM      9  C   UNL     1      73.662 -77.393  -0.465  1.00  0.00     0.000 C 
BRANCH   9  10
ATOM     10  C   UNL     1      73.625 -76.643   0.880  1.00  0.00     0.006 C 
BRANCH  10  11
ATOM     11  C   UNL     1      72.699 -77.275   1.932  1.00  0.00     0.053 C 
BRANCH  11  12
ATOM     12  C   UNL     1      72.852 -76.628   3.276  1.00  0.00     0.041 C 
ATOM     13  O   UNL     1      72.248 -75.554   3.535  1.00  0.00    -0.550 OA
ATOM     14  O   UNL     1      73.681 -77.200   4.234  1.00  0.00    -0.550 OA
ENDBRANCH  11  12
ENDBRANCH  10  11
ENDBRANCH   9  10
ENDBRANCH   8   9
ENDBRANCH   7   8
ENDBRANCH   6   7
ENDBRANCH   5   6
ENDBRANCH   4   5
ENDBRANCH   3   4
ENDBRANCH   2   3
ENDBRANCH   1   2
BRANCH   1  15
ATOM     15  C   UNL     1      76.652 -74.711  -1.369  1.00  0.00     0.000 C 
BRANCH  15  16
ATOM     16  C   UNL     1      77.852 -74.345  -2.260  1.00  0.00     0.000 C 
BRANCH  16  17
ATOM     17  C   UNL     1      77.495 -74.348  -3.756  1.00  0.00     0.000 C 
BRANCH  17  18
ATOM     18  C   UNL     1      76.041 -73.918  -4.020  1.00  0.00    -0.000 C 
BRANCH  18  19
ATOM     19  C   UNL     1      75.892 -72.385  -4.106  1.00  0.00    -0.000 C 
BRANCH  19  20
ATOM     20  C   UNL     1      74.525 -71.872  -3.619  1.00  0.00    -0.000 C 
BRANCH  20  21
ATOM     21  C   UNL     1      73.817 -72.862  -2.679  1.00  0.00    -0.000 C 
BRANCH  21  22
ATOM     22  C   UNL     1      72.426 -73.268  -3.193  1.00  0.00    -0.000 C 
BRANCH  22  23
ATOM     23  C   UNL     1      71.347 -73.185  -2.103  1.00  0.00    -0.000 C 
BRANCH  23  24
ATOM     24  C   UNL     1      71.924 -72.609  -0.801  1.00  0.00    -0.000 C 
BRANCH  24  25
ATOM     25  C   UNL     1      71.777 -73.573   0.386  1.00  0.00    -0.003 C 
ATOM     26  C   UNL     1      70.584 -74.518   0.236  1.00  0.00     0.004 C 
ENDBRANCH  24  25
ENDBRANCH  23  24
ENDBRANCH  22  23
ENDBRANCH  21  22
ENDBRANCH  20  21
ENDBRANCH  19  20
ENDBRANCH  18  19
ENDBRANCH  17  18
ENDBRANCH  16  17
ENDBRANCH  15  16
ENDBRANCH   1  15
TORSDOF 22
ENDMDL
