MODEL 1
REMARK VINA RESULT:     0.000      0.000      0.000
REMARK INTER + INTRA:           0.000
REMARK INTER:                   0.000
REMARK INTRA:                   0.000
REMARK UNBOUND:                 0.000
REMARK SMILES O=c1ccc2cc(O)c(O)cc2o1
REMARK SMILES IDX 4 1 3 2 2 3 1 4 13 5 12 6 11 7 9 8 7 9 6 10 5 11 8 12 10 14
REMARK H PARENT 8 13 10 15
REMARK Flexibility Score: inf
ROOT
ATOM      1  C   UNL     1     117.603  16.492 109.327  1.00  0.00     0.019 A 
ATOM      2  C   UNL     1     118.828  16.623 109.980  1.00  0.00     0.094 A 
ATOM      3  C   UNL     1     119.487  17.857 109.944  1.00  0.00     0.336 A 
ATOM      4  O   UNL     1     120.594  17.995 110.528  1.00  0.00    -0.246 OA
ATOM      5  O   UNL     1     118.952  18.887 109.295  1.00  0.00    -0.423 OA
ATOM      6  C   UNL     1     117.785  18.806 108.658  1.00  0.00     0.142 A 
ATOM      7  C   UNL     1     117.272  19.922 107.993  1.00  0.00     0.098 A 
ATOM      8  C   UNL     1     116.043  19.842 107.321  1.00  0.00     0.161 A 
ATOM      9  C   UNL     1     115.326  18.637 107.315  1.00  0.00     0.158 A 
ATOM     10  C   UNL     1     115.837  17.513 107.981  1.00  0.00     0.062 A 
ATOM     11  C   UNL     1     117.063  17.592 108.653  1.00  0.00     0.022 A 
ENDROOT
BRANCH   9  12
ATOM     12  O   UNL     1     114.106  18.565 106.645  1.00  0.00    -0.504 OA
ATOM     13  H   UNL     1     113.485  19.365 106.587  1.00  0.00     0.293 HD
ENDBRANCH   9  12
BRANCH   8  14
ATOM     14  O   UNL     1     115.530  20.954 106.656  1.00  0.00    -0.504 OA
ATOM     15  H   UNL     1     115.892  21.249 105.757  1.00  0.00     0.293 HD
ENDBRANCH   8  14
TORSDOF 2
ENDMDL
MODEL 2
REMARK VINA RESULT:     0.000      2.307      2.505
REMARK INTER + INTRA:           0.000
REMARK INTER:                   0.000
REMARK INTRA:                   0.000
REMARK UNBOUND:                 0.000
REMARK SMILES O=c1ccc2cc(O)c(O)cc2o1
REMARK SMILES IDX 4 1 3 2 2 3 1 4 13 5 12 6 11 7 9 8 7 9 6 10 5 11 8 12 10 14
REMARK H PARENT 8 13 10 15
REMARK Flexibility Score: inf
ROOT
ATOM      1  C   UNL     1     118.554  16.694 107.544  1.00  0.00     0.019 A 
ATOM      2  C   UNL     1     119.736  16.313 108.177  1.00  0.00     0.094 A 
ATOM      3  C   UNL     1     120.797  17.222 108.238  1.00  0.00     0.336 A 
ATOM      4  O   UNL     1     121.873  16.896 108.806  1.00  0.00    -0.246 OA
ATOM      5  O   UNL     1     120.678  18.432 107.698  1.00  0.00    -0.423 OA
ATOM      6  C   UNL     1     119.569  18.837 107.084  1.00  0.00     0.142 A 
ATOM      7  C   UNL     1     119.502  20.121 106.535  1.00  0.00     0.098 A 
ATOM      8  C   UNL     1     118.334  20.552 105.887  1.00  0.00     0.161 A 
ATOM      9  C   UNL     1     117.230  19.694 105.789  1.00  0.00     0.158 A 
ATOM     10  C   UNL     1     117.292  18.404 106.337  1.00  0.00     0.062 A 
ATOM     11  C   UNL     1     118.457  17.973 106.985  1.00  0.00     0.022 A 
ENDROOT
BRANCH   9  12
ATOM     12  O   UNL     1     116.074  20.131 105.143  1.00  0.00    -0.504 OA
ATOM     13  H   UNL     1     115.785  21.102 105.174  1.00  0.00     0.293 HD
ENDBRANCH   9  12
BRANCH   8  14
ATOM     14  O   UNL     1     118.265  21.832 105.339  1.00  0.00    -0.504 OA
ATOM     15  H   UNL     1     117.516  22.101 104.712  1.00  0.00     0.293 HD
ENDBRANCH   8  14
TORSDOF 2
ENDMDL
MODEL 3
REMARK VINA RESULT:     0.000      3.686      4.355
REMARK INTER + INTRA:           0.000
REMARK INTER:                   0.000
REMARK INTRA:                   0.000
REMARK UNBOUND:                 0.000
REMARK SMILES O=c1ccc2cc(O)c(O)cc2o1
REMARK SMILES IDX 4 1 3 2 2 3 1 4 13 5 12 6 11 7 9 8 7 9 6 10 5 11 8 12 10 14
REMARK H PARENT 8 13 10 15
REMARK Flexibility Score: inf
ROOT
ATOM      1  C   UNL     1     119.693  16.479 107.067  1.00  0.00     0.019 A 
ATOM      2  C   UNL     1     120.411  15.546 107.814  1.00  0.00     0.094 A 
ATOM      3  C   UNL     1     121.594  15.947 108.444  1.00  0.00     0.336 A 
ATOM      4  O   UNL     1     122.256  15.119 109.123  1.00  0.00    -0.246 OA
ATOM      5  O   UNL     1     122.026  17.200 108.330  1.00  0.00    -0.423 OA
ATOM      6  C   UNL     1     121.372  18.123 107.627  1.00  0.00     0.142 A 
ATOM      7  C   UNL     1     121.874  19.424 107.543  1.00  0.00     0.098 A 
ATOM      8  C   UNL     1     121.188  20.400 106.804  1.00  0.00     0.161 A 
ATOM      9  C   UNL     1     119.995  20.070 106.146  1.00  0.00     0.158 A 
ATOM     10  C   UNL     1     119.487  18.765 106.226  1.00  0.00     0.062 A 
ATOM     11  C   UNL     1     120.170  17.790 106.965  1.00  0.00     0.022 A 
ENDROOT
BRANCH   9  12
ATOM     12  O   UNL     1     119.320  21.045 105.413  1.00  0.00    -0.504 OA
ATOM     13  H   UNL     1     119.330  22.020 105.693  1.00  0.00     0.293 HD
ENDBRANCH   9  12
BRANCH   8  14
ATOM     14  O   UNL     1     121.687  21.699 106.719  1.00  0.00    -0.504 OA
ATOM     15  H   UNL     1     121.243  22.470 107.202  1.00  0.00     0.293 HD
ENDBRANCH   8  14
TORSDOF 2
ENDMDL
MODEL 4
REMARK VINA RESULT:     0.000      8.142      9.902
REMARK INTER + INTRA:           0.000
REMARK INTER:                   0.000
REMARK INTRA:                   0.000
REMARK UNBOUND:                 0.000
REMARK SMILES O=c1ccc2cc(O)c(O)cc2o1
REMARK SMILES IDX 4 1 3 2 2 3 1 4 13 5 12 6 11 7 9 8 7 9 6 10 5 11 8 12 10 14
REMARK H PARENT 8 13 10 15
REMARK Flexibility Score: inf
ROOT
ATOM      1  C   UNL     1     108.189  15.459 109.699  1.00  0.00     0.019 A 
ATOM      2  C   UNL     1     107.056  16.264 109.601  1.00  0.00     0.094 A 
ATOM      3  C   UNL     1     106.679  16.754 108.346  1.00  0.00     0.336 A 
ATOM      4  O   UNL     1     105.658  17.484 108.237  1.00  0.00    -0.246 OA
ATOM      5  O   UNL     1     107.393  16.456 107.265  1.00  0.00    -0.423 OA
ATOM      6  C   UNL     1     108.481  15.690 107.313  1.00  0.00     0.142 A 
ATOM      7  C   UNL     1     109.193  15.410 106.143  1.00  0.00     0.098 A 
ATOM      8  C   UNL     1     110.340  14.604 106.189  1.00  0.00     0.161 A 
ATOM      9  C   UNL     1     110.777  14.077 107.413  1.00  0.00     0.158 A 
ATOM     10  C   UNL     1     110.068  14.356 108.591  1.00  0.00     0.062 A 
ATOM     11  C   UNL     1     108.921  15.160 108.546  1.00  0.00     0.022 A 
ENDROOT
BRANCH   9  12
ATOM     12  O   UNL     1     111.918  13.277 107.450  1.00  0.00    -0.504 OA
ATOM     13  H   UNL     1     112.845  13.680 107.540  1.00  0.00     0.293 HD
ENDBRANCH   9  12
BRANCH   8  14
ATOM     14  O   UNL     1     111.051  14.324 105.023  1.00  0.00    -0.504 OA
ATOM     15  H   UNL     1     110.610  14.359 104.112  1.00  0.00     0.293 HD
ENDBRANCH   8  14
TORSDOF 2
ENDMDL
MODEL 5
REMARK VINA RESULT:     0.000      8.925     10.721
REMARK INTER + INTRA:           0.000
REMARK INTER:                   0.000
REMARK INTRA:                   0.000
REMARK UNBOUND:                 0.000
REMARK SMILES O=c1ccc2cc(O)c(O)cc2o1
REMARK SMILES IDX 4 1 3 2 2 3 1 4 13 5 12 6 11 7 9 8 7 9 6 10 5 11 8 12 10 14
REMARK H PARENT 8 13 10 15
REMARK Flexibility Score: inf
ROOT
ATOM      1  C   UNL     1     107.001  15.126 107.468  1.00  0.00     0.019 A 
ATOM      2  C   UNL     1     105.914  16.000 107.469  1.00  0.00     0.094 A 
ATOM      3  C   UNL     1     105.822  16.969 106.464  1.00  0.00     0.336 A 
ATOM      4  O   UNL     1     104.848  17.767 106.449  1.00  0.00    -0.246 OA
ATOM      5  O   UNL     1     106.759  17.055 105.524  1.00  0.00    -0.423 OA
ATOM      6  C   UNL     1     107.812  16.242 105.486  1.00  0.00     0.142 A 
ATOM      7  C   UNL     1     108.766  16.380 104.473  1.00  0.00     0.098 A 
ATOM      8  C   UNL     1     109.878  15.526 104.428  1.00  0.00     0.161 A 
ATOM      9  C   UNL     1     110.036  14.530 105.402  1.00  0.00     0.158 A 
ATOM     10  C   UNL     1     109.082  14.387 106.421  1.00  0.00     0.062 A 
ATOM     11  C   UNL     1     107.971  15.239 106.467  1.00  0.00     0.022 A 
ENDROOT
BRANCH   9  12
ATOM     12  O   UNL     1     111.143  13.685 105.350  1.00  0.00    -0.504 OA
ATOM     13  H   UNL     1     111.799  13.718 104.577  1.00  0.00     0.293 HD
ENDBRANCH   9  12
BRANCH   8  14
ATOM     14  O   UNL     1     110.830  15.662 103.419  1.00  0.00    -0.504 OA
ATOM     15  H   UNL     1     111.815  15.766 103.630  1.00  0.00     0.293 HD
ENDBRANCH   8  14
TORSDOF 2
ENDMDL
MODEL 6
REMARK VINA RESULT:     0.000     10.532     11.546
REMARK INTER + INTRA:           0.000
REMARK INTER:                   0.000
REMARK INTRA:                   0.000
REMARK UNBOUND:                 0.000
REMARK SMILES O=c1ccc2cc(O)c(O)cc2o1
REMARK SMILES IDX 4 1 3 2 2 3 1 4 13 5 12 6 11 7 9 8 7 9 6 10 5 11 8 12 10 14
REMARK H PARENT 8 13 10 15
REMARK Flexibility Score: inf
ROOT
ATOM      1  C   UNL     1     106.537  13.749 107.094  1.00  0.00     0.019 A 
ATOM      2  C   UNL     1     105.894  14.985 107.044  1.00  0.00     0.094 A 
ATOM      3  C   UNL     1     106.276  15.909 106.065  1.00  0.00     0.336 A 
ATOM      4  O   UNL     1     105.707  17.031 106.005  1.00  0.00    -0.246 OA
ATOM      5  O   UNL     1     107.238  15.610 105.197  1.00  0.00    -0.423 OA
ATOM      6  C   UNL     1     107.877  14.442 105.208  1.00  0.00     0.142 A 
ATOM      7  C   UNL     1     108.880  14.185 104.270  1.00  0.00     0.098 A 
ATOM      8  C   UNL     1     109.556  12.955 104.278  1.00  0.00     0.161 A 
ATOM      9  C   UNL     1     109.227  11.981 105.230  1.00  0.00     0.158 A 
ATOM     10  C   UNL     1     108.221  12.234 106.175  1.00  0.00     0.062 A 
ATOM     11  C   UNL     1     107.544  13.461 106.167  1.00  0.00     0.022 A 
ENDROOT
BRANCH   9  12
ATOM     12  O   UNL     1     109.903  10.762 105.231  1.00  0.00    -0.504 OA
ATOM     13  H   UNL     1     109.613   9.994 104.636  1.00  0.00     0.293 HD
ENDBRANCH   9  12
BRANCH   8  14
ATOM     14  O   UNL     1     110.557  12.696 103.343  1.00  0.00    -0.504 OA
ATOM     15  H   UNL     1     111.426  13.219 103.337  1.00  0.00     0.293 HD
ENDBRANCH   8  14
TORSDOF 2
ENDMDL
MODEL 7
REMARK VINA RESULT:     0.000      7.399      9.049
REMARK INTER + INTRA:           0.000
REMARK INTER:                   0.000
REMARK INTRA:                   0.000
REMARK UNBOUND:                 0.000
REMARK SMILES O=c1ccc2cc(O)c(O)cc2o1
REMARK SMILES IDX 4 1 3 2 2 3 1 4 13 5 12 6 11 7 9 8 7 9 6 10 5 11 8 12 10 14
REMARK H PARENT 8 13 10 15
REMARK Flexibility Score: inf
ROOT
ATOM      1  C   UNL     1     110.836  13.739 108.448  1.00  0.00     0.019 A 
ATOM      2  C   UNL     1     109.500  13.967 108.773  1.00  0.00     0.094 A 
ATOM      3  C   UNL     1     108.584  14.214 107.744  1.00  0.00     0.336 A 
ATOM      4  O   UNL     1     107.373  14.423 108.018  1.00  0.00    -0.246 OA
ATOM      5  O   UNL     1     108.985  14.232 106.476  1.00  0.00    -0.423 OA
ATOM      6  C   UNL     1     110.250  14.019 106.121  1.00  0.00     0.142 A 
ATOM      7  C   UNL     1     110.613  14.049 104.772  1.00  0.00     0.098 A 
ATOM      8  C   UNL     1     111.945  13.825 104.393  1.00  0.00     0.161 A 
ATOM      9  C   UNL     1     112.918  13.571 105.370  1.00  0.00     0.158 A 
ATOM     10  C   UNL     1     112.560  13.540 106.726  1.00  0.00     0.062 A 
ATOM     11  C   UNL     1     111.229  13.762 107.106  1.00  0.00     0.022 A 
ENDROOT
BRANCH   9  12
ATOM     12  O   UNL     1     114.240  13.350 104.985  1.00  0.00    -0.504 OA
ATOM     13  H   UNL     1     114.744  12.520 105.275  1.00  0.00     0.293 HD
ENDBRANCH   9  12
BRANCH   8  14
ATOM     14  O   UNL     1     112.309  13.855 103.048  1.00  0.00    -0.504 OA
ATOM     15  H   UNL     1     113.015  14.496 102.703  1.00  0.00     0.293 HD
ENDBRANCH   8  14
TORSDOF 2
ENDMDL
MODEL 8
REMARK VINA RESULT:     0.000      5.738      6.833
REMARK INTER + INTRA:           0.000
REMARK INTER:                   0.000
REMARK INTRA:                   0.000
REMARK UNBOUND:                 0.000
REMARK SMILES O=c1ccc2cc(O)c(O)cc2o1
REMARK SMILES IDX 4 1 3 2 2 3 1 4 13 5 12 6 11 7 9 8 7 9 6 10 5 11 8 12 10 14
REMARK H PARENT 8 13 10 15
REMARK Flexibility Score: inf
ROOT
ATOM      1  C   UNL     1     122.572  21.800 109.732  1.00  0.00     0.019 A 
ATOM      2  C   UNL     1     122.141  22.945 110.401  1.00  0.00     0.094 A 
ATOM      3  C   UNL     1     121.395  22.803 111.576  1.00  0.00     0.336 A 
ATOM      4  O   UNL     1     120.996  23.825 112.194  1.00  0.00    -0.246 OA
ATOM      5  O   UNL     1     121.101  21.594 112.045  1.00  0.00    -0.423 OA
ATOM      6  C   UNL     1     121.493  20.475 111.438  1.00  0.00     0.142 A 
ATOM      7  C   UNL     1     121.154  19.231 111.978  1.00  0.00     0.098 A 
ATOM      8  C   UNL     1     121.564  18.049 111.342  1.00  0.00     0.161 A 
ATOM      9  C   UNL     1     122.316  18.114 110.161  1.00  0.00     0.158 A 
ATOM     10  C   UNL     1     122.658  19.360 109.614  1.00  0.00     0.062 A 
ATOM     11  C   UNL     1     122.250  20.541 110.248  1.00  0.00     0.022 A 
ENDROOT
BRANCH   9  12
ATOM     12  O   UNL     1     122.720  16.936 109.535  1.00  0.00    -0.504 OA
ATOM     13  H   UNL     1     122.073  16.170 109.379  1.00  0.00     0.293 HD
ENDBRANCH   9  12
BRANCH   8  14
ATOM     14  O   UNL     1     121.228  16.808 111.879  1.00  0.00    -0.504 OA
ATOM     15  H   UNL     1     120.641  16.153 111.375  1.00  0.00     0.293 HD
ENDBRANCH   8  14
TORSDOF 2
ENDMDL
MODEL 9
REMARK VINA RESULT:     0.000      3.689      5.092
REMARK INTER + INTRA:           0.000
REMARK INTER:                   0.000
REMARK INTRA:                   0.000
REMARK UNBOUND:                 0.000
REMARK SMILES O=c1ccc2cc(O)c(O)cc2o1
REMARK SMILES IDX 4 1 3 2 2 3 1 4 13 5 12 6 11 7 9 8 7 9 6 10 5 11 8 12 10 14
REMARK H PARENT 8 13 10 15
REMARK Flexibility Score: inf
ROOT
ATOM      1  C   UNL     1     120.703  21.800 109.732  1.00  0.00     0.019 A 
ATOM      2  C   UNL     1     121.446  21.657 108.561  1.00  0.00     0.094 A 
ATOM      3  C   UNL     1     121.452  20.420 107.908  1.00  0.00     0.336 A 
ATOM      4  O   UNL     1     122.117  20.271 106.850  1.00  0.00    -0.246 OA
ATOM      5  O   UNL     1     120.760  19.396 108.400  1.00  0.00    -0.423 OA
ATOM      6  C   UNL     1     120.038  19.489 109.515  1.00  0.00     0.142 A 
ATOM      7  C   UNL     1     119.330  18.378 109.984  1.00  0.00     0.098 A 
ATOM      8  C   UNL     1     118.568  18.471 111.158  1.00  0.00     0.161 A 
ATOM      9  C   UNL     1     118.514  19.680 111.865  1.00  0.00     0.158 A 
ATOM     10  C   UNL     1     119.223  20.798 111.399  1.00  0.00     0.062 A 
ATOM     11  C   UNL     1     119.984  20.707 110.226  1.00  0.00     0.022 A 
ENDROOT
BRANCH   9  12
ATOM     12  O   UNL     1     117.754  19.764 113.031  1.00  0.00    -0.504 OA
ATOM     13  H   UNL     1     117.811  19.054 113.753  1.00  0.00     0.293 HD
ENDBRANCH   9  12
BRANCH   8  14
ATOM     14  O   UNL     1     117.862  17.365 111.628  1.00  0.00    -0.504 OA
ATOM     15  H   UNL     1     118.233  16.770 112.360  1.00  0.00     0.293 HD
ENDBRANCH   8  14
TORSDOF 2
ENDMDL
