MODEL 1
REMARK VINA RESULT:    -6.322      0.000      0.000
REMARK INTER + INTRA:          -7.682
REMARK INTER:                  -7.615
REMARK INTRA:                  -0.066
REMARK UNBOUND:                -0.066
REMARK SMILES O=c1c(O)c(-c2ccc(O)c(O)c2)oc2cc(O)cc(O)c12
REMARK SMILES IDX 5 1 3 2 2 3 1 4 22 5 20 6 19 7 17 8 16 9 15 10 14 11 6 12
REMARK SMILES IDX 7 13 8 14 9 15 13 16 11 17 10 18 12 20 4 22 21 24 18 26
REMARK H PARENT 10 19 12 21 4 23 21 25 18 27
REMARK Flexibility Score: inf
ROOT
ATOM      1  C   UNL     1      -7.632   5.875   2.501  1.00  0.00     0.180 A 
ATOM      2  C   UNL     1      -6.566   5.765   1.592  1.00  0.00     0.208 A 
ATOM      3  C   UNL     1      -6.839   5.805   0.215  1.00  0.00     0.238 A 
ATOM      4  O   UNL     1      -5.876   5.761  -0.594  1.00  0.00    -0.285 OA
ATOM      5  C   UNL     1      -8.174   5.936  -0.235  1.00  0.00     0.111 A 
ATOM      6  C   UNL     1      -8.571   5.946  -1.607  1.00  0.00     0.134 A 
ATOM      7  C   UNL     1      -9.905   6.213  -1.939  1.00  0.00     0.093 A 
ATOM      8  C   UNL     1     -10.868   6.404  -0.949  1.00  0.00     0.123 A 
ATOM      9  C   UNL     1     -10.504   6.336   0.397  1.00  0.00     0.094 A 
ATOM     10  C   UNL     1      -9.174   6.109   0.758  1.00  0.00     0.146 A 
ATOM     11  O   UNL     1      -8.866   6.063   2.048  1.00  0.00    -0.452 OA
ENDROOT
BRANCH   1  12
ATOM     12  C   UNL     1      -7.426   5.818   3.967  1.00  0.00     0.025 A 
ATOM     13  C   UNL     1      -6.559   6.712   4.618  1.00  0.00     0.016 A 
ATOM     14  C   UNL     1      -6.361   6.625   6.000  1.00  0.00     0.051 A 
ATOM     15  C   UNL     1      -7.014   5.635   6.744  1.00  0.00     0.157 A 
ATOM     16  C   UNL     1      -8.062   4.814   4.716  1.00  0.00     0.062 A 
ATOM     17  C   UNL     1      -7.864   4.726   6.102  1.00  0.00     0.158 A 
BRANCH  15  18
ATOM     18  O   UNL     1      -6.821   5.546   8.122  1.00  0.00    -0.504 OA
ATOM     19  H   UNL     1      -7.602   5.533   8.768  1.00  0.00     0.293 HD
ENDBRANCH  15  18
BRANCH  17  20
ATOM     20  O   UNL     1      -8.507   3.738   6.844  1.00  0.00    -0.504 OA
ATOM     21  H   UNL     1      -9.438   3.416   6.605  1.00  0.00     0.293 HD
ENDBRANCH  17  20
ENDBRANCH   1  12
BRANCH   2  22
ATOM     22  O   UNL     1      -5.253   5.659   2.057  1.00  0.00    -0.502 OA
ATOM     23  H   UNL     1      -4.992   5.887   3.010  1.00  0.00     0.293 HD
ENDBRANCH   2  22
BRANCH   6  24
ATOM     24  O   UNL     1      -7.706   5.675  -2.671  1.00  0.00    -0.507 OA
ATOM     25  H   UNL     1      -7.977   5.658  -3.643  1.00  0.00     0.293 HD
ENDBRANCH   6  24
BRANCH   8  26
ATOM     26  O   UNL     1     -12.190   6.651  -1.316  1.00  0.00    -0.508 OA
ATOM     27  H   UNL     1     -12.519   6.480  -2.259  1.00  0.00     0.293 HD
ENDBRANCH   8  26
TORSDOF 6
ENDMDL
MODEL 2
REMARK VINA RESULT:    -6.022      2.223      2.764
REMARK INTER + INTRA:          -7.321
REMARK INTER:                  -6.995
REMARK INTRA:                  -0.326
REMARK UNBOUND:                -0.066
REMARK SMILES O=c1c(O)c(-c2ccc(O)c(O)c2)oc2cc(O)cc(O)c12
REMARK SMILES IDX 5 1 3 2 2 3 1 4 22 5 20 6 19 7 17 8 16 9 15 10 14 11 6 12
REMARK SMILES IDX 7 13 8 14 9 15 13 16 11 17 10 18 12 20 4 22 21 24 18 26
REMARK H PARENT 10 19 12 21 4 23 21 25 18 27
REMARK Flexibility Score: inf
ROOT
ATOM      1  C   UNL     1      -7.052   6.508   1.075  1.00  0.00     0.180 A 
ATOM      2  C   UNL     1      -6.128   5.874   0.227  1.00  0.00     0.208 A 
ATOM      3  C   UNL     1      -6.069   6.258  -1.123  1.00  0.00     0.238 A 
ATOM      4  O   UNL     1      -5.203   5.725  -1.865  1.00  0.00    -0.285 OA
ATOM      5  C   UNL     1      -6.944   7.257  -1.610  1.00  0.00     0.111 A 
ATOM      6  C   UNL     1      -7.000   7.695  -2.968  1.00  0.00     0.134 A 
ATOM      7  C   UNL     1      -7.813   8.781  -3.312  1.00  0.00     0.093 A 
ATOM      8  C   UNL     1      -8.622   9.403  -2.361  1.00  0.00     0.123 A 
ATOM      9  C   UNL     1      -8.622   8.945  -1.043  1.00  0.00     0.094 A 
ATOM     10  C   UNL     1      -7.793   7.887  -0.662  1.00  0.00     0.146 A 
ATOM     11  O   UNL     1      -7.814   7.488   0.603  1.00  0.00    -0.452 OA
ENDROOT
BRANCH   1  12
ATOM     12  C   UNL     1      -7.190   6.142   2.504  1.00  0.00     0.025 A 
ATOM     13  C   UNL     1      -8.128   5.184   2.926  1.00  0.00     0.016 A 
ATOM     14  C   UNL     1      -8.259   4.872   4.282  1.00  0.00     0.051 A 
ATOM     15  C   UNL     1      -7.463   5.522   5.235  1.00  0.00     0.157 A 
ATOM     16  C   UNL     1      -6.410   6.805   3.466  1.00  0.00     0.062 A 
ATOM     17  C   UNL     1      -6.540   6.492   4.827  1.00  0.00     0.158 A 
BRANCH  15  18
ATOM     18  O   UNL     1      -7.589   5.211   6.588  1.00  0.00    -0.504 OA
ATOM     19  H   UNL     1      -8.366   4.663   6.937  1.00  0.00     0.293 HD
ENDBRANCH  15  18
BRANCH  17  20
ATOM     20  O   UNL     1      -5.755   7.141   5.777  1.00  0.00    -0.504 OA
ATOM     21  H   UNL     1      -4.743   7.131   5.727  1.00  0.00     0.293 HD
ENDBRANCH  17  20
ENDBRANCH   1  12
BRANCH   2  22
ATOM     22  O   UNL     1      -5.257   4.906   0.734  1.00  0.00    -0.502 OA
ATOM     23  H   UNL     1      -5.388   3.915   0.566  1.00  0.00     0.293 HD
ENDBRANCH   2  22
BRANCH   6  24
ATOM     24  O   UNL     1      -6.302   7.084  -4.014  1.00  0.00    -0.507 OA
ATOM     25  H   UNL     1      -6.639   7.005  -4.962  1.00  0.00     0.293 HD
ENDBRANCH   6  24
BRANCH   8  26
ATOM     26  O   UNL     1      -9.432  10.472  -2.741  1.00  0.00    -0.508 OA
ATOM     27  H   UNL     1     -10.092  10.892  -2.097  1.00  0.00     0.293 HD
ENDBRANCH   8  26
TORSDOF 6
ENDMDL
MODEL 3
REMARK VINA RESULT:    -5.894      2.126      6.790
REMARK INTER + INTRA:          -7.166
REMARK INTER:                  -6.901
REMARK INTRA:                  -0.265
REMARK UNBOUND:                -0.066
REMARK SMILES O=c1c(O)c(-c2ccc(O)c(O)c2)oc2cc(O)cc(O)c12
REMARK SMILES IDX 5 1 3 2 2 3 1 4 22 5 20 6 19 7 17 8 16 9 15 10 14 11 6 12
REMARK SMILES IDX 7 13 8 14 9 15 13 16 11 17 10 18 12 20 4 22 21 24 18 26
REMARK H PARENT 10 19 12 21 4 23 21 25 18 27
REMARK Flexibility Score: inf
ROOT
ATOM      1  C   UNL     1      -8.036   6.087   3.156  1.00  0.00     0.180 A 
ATOM      2  C   UNL     1      -6.789   6.036   3.802  1.00  0.00     0.208 A 
ATOM      3  C   UNL     1      -6.719   6.337   5.172  1.00  0.00     0.238 A 
ATOM      4  O   UNL     1      -5.609   6.237   5.757  1.00  0.00    -0.285 OA
ATOM      5  C   UNL     1      -7.893   6.700   5.874  1.00  0.00     0.111 A 
ATOM      6  C   UNL     1      -7.933   7.064   7.254  1.00  0.00     0.134 A 
ATOM      7  C   UNL     1      -9.169   7.279   7.877  1.00  0.00     0.093 A 
ATOM      8  C   UNL     1     -10.360   7.207   7.156  1.00  0.00     0.123 A 
ATOM      9  C   UNL     1     -10.329   6.911   5.792  1.00  0.00     0.094 A 
ATOM     10  C   UNL     1      -9.114   6.655   5.151  1.00  0.00     0.146 A 
ATOM     11  O   UNL     1      -9.129   6.367   3.856  1.00  0.00    -0.452 OA
ENDROOT
BRANCH   1  12
ATOM     12  C   UNL     1      -8.186   5.806   1.709  1.00  0.00     0.025 A 
ATOM     13  C   UNL     1      -8.686   4.575   1.251  1.00  0.00     0.016 A 
ATOM     14  C   UNL     1      -8.796   4.322  -0.119  1.00  0.00     0.051 A 
ATOM     15  C   UNL     1      -8.394   5.289  -1.049  1.00  0.00     0.157 A 
ATOM     16  C   UNL     1      -7.765   6.764   0.772  1.00  0.00     0.062 A 
ATOM     17  C   UNL     1      -7.875   6.511  -0.603  1.00  0.00     0.158 A 
BRANCH  15  18
ATOM     18  O   UNL     1      -8.504   5.042  -2.417  1.00  0.00    -0.504 OA
ATOM     19  H   UNL     1      -7.685   4.926  -3.002  1.00  0.00     0.293 HD
ENDBRANCH  15  18
BRANCH  17  20
ATOM     20  O   UNL     1      -7.470   7.469  -1.531  1.00  0.00    -0.504 OA
ATOM     21  H   UNL     1      -7.421   8.452  -1.291  1.00  0.00     0.293 HD
ENDBRANCH  17  20
ENDBRANCH   1  12
BRANCH   2  22
ATOM     22  O   UNL     1      -5.646   5.653   3.095  1.00  0.00    -0.502 OA
ATOM     23  H   UNL     1      -5.665   4.946   2.370  1.00  0.00     0.293 HD
ENDBRANCH   2  22
BRANCH   6  24
ATOM     24  O   UNL     1      -6.795   7.254   8.043  1.00  0.00    -0.507 OA
ATOM     25  H   UNL     1      -5.939   7.682   7.725  1.00  0.00     0.293 HD
ENDBRANCH   6  24
BRANCH   8  26
ATOM     26  O   UNL     1     -11.571   7.442   7.805  1.00  0.00    -0.508 OA
ATOM     27  H   UNL     1     -12.118   8.275   7.620  1.00  0.00     0.293 HD
ENDBRANCH   8  26
TORSDOF 6
ENDMDL
MODEL 4
REMARK VINA RESULT:    -5.875      2.508      7.539
REMARK INTER + INTRA:          -7.144
REMARK INTER:                  -7.107
REMARK INTRA:                  -0.036
REMARK UNBOUND:                -0.066
REMARK SMILES O=c1c(O)c(-c2ccc(O)c(O)c2)oc2cc(O)cc(O)c12
REMARK SMILES IDX 5 1 3 2 2 3 1 4 22 5 20 6 19 7 17 8 16 9 15 10 14 11 6 12
REMARK SMILES IDX 7 13 8 14 9 15 13 16 11 17 10 18 12 20 4 22 21 24 18 26
REMARK H PARENT 10 19 12 21 4 23 21 25 18 27
REMARK Flexibility Score: inf
ROOT
ATOM      1  C   UNL     1      -7.684   6.394  -1.661  1.00  0.00     0.180 A 
ATOM      2  C   UNL     1      -6.426   5.993  -1.178  1.00  0.00     0.208 A 
ATOM      3  C   UNL     1      -6.268   5.761   0.198  1.00  0.00     0.238 A 
ATOM      4  O   UNL     1      -5.155   5.350   0.618  1.00  0.00    -0.285 OA
ATOM      5  C   UNL     1      -7.363   5.951   1.075  1.00  0.00     0.111 A 
ATOM      6  C   UNL     1      -7.305   5.785   2.492  1.00  0.00     0.134 A 
ATOM      7  C   UNL     1      -8.482   5.871   3.246  1.00  0.00     0.093 A 
ATOM      8  C   UNL     1      -9.701   6.181   2.645  1.00  0.00     0.123 A 
ATOM      9  C   UNL     1      -9.759   6.405   1.269  1.00  0.00     0.094 A 
ATOM     10  C   UNL     1      -8.608   6.290   0.485  1.00  0.00     0.146 A 
ATOM     11  O   UNL     1      -8.708   6.499  -0.822  1.00  0.00    -0.452 OA
ENDROOT
BRANCH   1  12
ATOM     12  C   UNL     1      -7.922   6.680  -3.095  1.00  0.00     0.025 A 
ATOM     13  C   UNL     1      -8.920   6.004  -3.818  1.00  0.00     0.016 A 
ATOM     14  C   UNL     1      -9.112   6.271  -5.177  1.00  0.00     0.051 A 
ATOM     15  C   UNL     1      -8.300   7.206  -5.833  1.00  0.00     0.157 A 
ATOM     16  C   UNL     1      -7.098   7.600  -3.763  1.00  0.00     0.062 A 
ATOM     17  C   UNL     1      -7.290   7.869  -5.126  1.00  0.00     0.158 A 
BRANCH  15  18
ATOM     18  O   UNL     1      -8.489   7.477  -7.188  1.00  0.00    -0.504 OA
ATOM     19  H   UNL     1      -8.641   6.735  -7.861  1.00  0.00     0.293 HD
ENDBRANCH  15  18
BRANCH  17  20
ATOM     20  O   UNL     1      -6.480   8.794  -5.782  1.00  0.00    -0.504 OA
ATOM     21  H   UNL     1      -6.547   8.942  -6.783  1.00  0.00     0.293 HD
ENDBRANCH  17  20
ENDBRANCH   1  12
BRANCH   2  22
ATOM     22  O   UNL     1      -5.365   5.790  -2.064  1.00  0.00    -0.502 OA
ATOM     23  H   UNL     1      -4.843   4.922  -2.099  1.00  0.00     0.293 HD
ENDBRANCH   2  22
BRANCH   6  24
ATOM     24  O   UNL     1      -6.123   5.563   3.204  1.00  0.00    -0.507 OA
ATOM     25  H   UNL     1      -5.301   6.146   3.149  1.00  0.00     0.293 HD
ENDBRANCH   6  24
BRANCH   8  26
ATOM     26  O   UNL     1     -10.849   6.275   3.429  1.00  0.00    -0.508 OA
ATOM     27  H   UNL     1     -11.497   7.049   3.330  1.00  0.00     0.293 HD
ENDBRANCH   8  26
TORSDOF 6
ENDMDL
MODEL 5
REMARK VINA RESULT:    -5.825      2.499      3.838
REMARK INTER + INTRA:          -7.084
REMARK INTER:                  -6.853
REMARK INTRA:                  -0.230
REMARK UNBOUND:                -0.066
REMARK SMILES O=c1c(O)c(-c2ccc(O)c(O)c2)oc2cc(O)cc(O)c12
REMARK SMILES IDX 5 1 3 2 2 3 1 4 22 5 20 6 19 7 17 8 16 9 15 10 14 11 6 12
REMARK SMILES IDX 7 13 8 14 9 15 13 16 11 17 10 18 12 20 4 22 21 24 18 26
REMARK H PARENT 10 19 12 21 4 23 21 25 18 27
REMARK Flexibility Score: inf
ROOT
ATOM      1  C   UNL     1      -7.732   6.332  -0.198  1.00  0.00     0.180 A 
ATOM      2  C   UNL     1      -8.247   5.295  -0.995  1.00  0.00     0.208 A 
ATOM      3  C   UNL     1      -8.323   5.480  -2.385  1.00  0.00     0.238 A 
ATOM      4  O   UNL     1      -8.735   4.528  -3.099  1.00  0.00    -0.285 OA
ATOM      5  C   UNL     1      -7.900   6.702  -2.958  1.00  0.00     0.111 A 
ATOM      6  C   UNL     1      -7.971   7.013  -4.349  1.00  0.00     0.134 A 
ATOM      7  C   UNL     1      -7.403   8.203  -4.822  1.00  0.00     0.093 A 
ATOM      8  C   UNL     1      -6.826   9.122  -3.946  1.00  0.00     0.123 A 
ATOM      9  C   UNL     1      -6.805   8.856  -2.576  1.00  0.00     0.094 A 
ATOM     10  C   UNL     1      -7.331   7.661  -2.079  1.00  0.00     0.146 A 
ATOM     11  O   UNL     1      -7.282   7.441  -0.772  1.00  0.00    -0.452 OA
ENDROOT
BRANCH   1  12
ATOM     12  C   UNL     1      -7.642   6.221   1.277  1.00  0.00     0.025 A 
ATOM     13  C   UNL     1      -6.407   6.034   1.921  1.00  0.00     0.016 A 
ATOM     14  C   UNL     1      -6.347   5.907   3.313  1.00  0.00     0.051 A 
ATOM     15  C   UNL     1      -7.521   5.952   4.075  1.00  0.00     0.157 A 
ATOM     16  C   UNL     1      -8.818   6.244   2.045  1.00  0.00     0.062 A 
ATOM     17  C   UNL     1      -8.758   6.118   3.441  1.00  0.00     0.158 A 
BRANCH  15  18
ATOM     18  O   UNL     1      -7.467   5.828   5.463  1.00  0.00    -0.504 OA
ATOM     19  H   UNL     1      -7.340   6.635   6.062  1.00  0.00     0.293 HD
ENDBRANCH  15  18
BRANCH  17  20
ATOM     20  O   UNL     1      -9.925   6.155   4.201  1.00  0.00    -0.504 OA
ATOM     21  H   UNL     1      -9.921   5.938   5.191  1.00  0.00     0.293 HD
ENDBRANCH  17  20
ENDBRANCH   1  12
BRANCH   2  22
ATOM     22  O   UNL     1      -8.638   4.087  -0.411  1.00  0.00    -0.502 OA
ATOM     23  H   UNL     1      -8.795   3.246  -0.953  1.00  0.00     0.293 HD
ENDBRANCH   2  22
BRANCH   6  24
ATOM     24  O   UNL     1      -8.607   6.207  -5.298  1.00  0.00    -0.507 OA
ATOM     25  H   UNL     1      -8.210   5.942  -6.187  1.00  0.00     0.293 HD
ENDBRANCH   6  24
BRANCH   8  26
ATOM     26  O   UNL     1      -6.284  10.303  -4.449  1.00  0.00    -0.508 OA
ATOM     27  H   UNL     1      -6.849  10.965  -4.970  1.00  0.00     0.293 HD
ENDBRANCH   8  26
TORSDOF 6
ENDMDL
MODEL 6
REMARK VINA RESULT:    -5.770      1.230      2.875
REMARK INTER + INTRA:          -7.017
REMARK INTER:                  -7.006
REMARK INTRA:                  -0.011
REMARK UNBOUND:                -0.066
REMARK SMILES O=c1c(O)c(-c2ccc(O)c(O)c2)oc2cc(O)cc(O)c12
REMARK SMILES IDX 5 1 3 2 2 3 1 4 22 5 20 6 19 7 17 8 16 9 15 10 14 11 6 12
REMARK SMILES IDX 7 13 8 14 9 15 13 16 11 17 10 18 12 20 4 22 21 24 18 26
REMARK H PARENT 10 19 12 21 4 23 21 25 18 27
REMARK Flexibility Score: inf
ROOT
ATOM      1  C   UNL     1      -8.055   5.874   2.637  1.00  0.00     0.180 A 
ATOM      2  C   UNL     1      -9.391   5.969   2.210  1.00  0.00     0.208 A 
ATOM      3  C   UNL     1      -9.660   6.083   0.836  1.00  0.00     0.238 A 
ATOM      4  O   UNL     1     -10.859   6.113   0.456  1.00  0.00    -0.285 OA
ATOM      5  C   UNL     1      -8.591   6.117  -0.090  1.00  0.00     0.111 A 
ATOM      6  C   UNL     1      -8.745   6.271  -1.501  1.00  0.00     0.134 A 
ATOM      7  C   UNL     1      -7.626   6.160  -2.336  1.00  0.00     0.093 A 
ATOM      8  C   UNL     1      -6.351   5.966  -1.806  1.00  0.00     0.123 A 
ATOM      9  C   UNL     1      -6.179   5.875  -0.424  1.00  0.00     0.094 A 
ATOM     10  C   UNL     1      -7.282   5.945   0.431  1.00  0.00     0.146 A 
ATOM     11  O   UNL     1      -7.078   5.843   1.738  1.00  0.00    -0.452 OA
ENDROOT
BRANCH   1  12
ATOM     12  C   UNL     1      -7.691   5.775   4.069  1.00  0.00     0.025 A 
ATOM     13  C   UNL     1      -6.755   6.649   4.647  1.00  0.00     0.016 A 
ATOM     14  C   UNL     1      -6.407   6.522   5.996  1.00  0.00     0.051 A 
ATOM     15  C   UNL     1      -6.981   5.512   6.779  1.00  0.00     0.157 A 
ATOM     16  C   UNL     1      -8.247   4.752   4.855  1.00  0.00     0.062 A 
ATOM     17  C   UNL     1      -7.899   4.624   6.208  1.00  0.00     0.158 A 
BRANCH  15  18
ATOM     18  O   UNL     1      -6.639   5.384   8.125  1.00  0.00    -0.504 OA
ATOM     19  H   UNL     1      -7.325   5.506   8.860  1.00  0.00     0.293 HD
ENDBRANCH  15  18
BRANCH  17  20
ATOM     20  O   UNL     1      -8.463   3.616   6.988  1.00  0.00    -0.504 OA
ATOM     21  H   UNL     1      -9.377   3.233   6.779  1.00  0.00     0.293 HD
ENDBRANCH  17  20
ENDBRANCH   1  12
BRANCH   2  22
ATOM     22  O   UNL     1     -10.432   5.911   3.140  1.00  0.00    -0.502 OA
ATOM     23  H   UNL     1     -11.120   5.166   3.141  1.00  0.00     0.293 HD
ENDBRANCH   2  22
BRANCH   6  24
ATOM     24  O   UNL     1      -9.962   6.559  -2.126  1.00  0.00    -0.507 OA
ATOM     25  H   UNL     1     -10.674   5.877  -2.341  1.00  0.00     0.293 HD
ENDBRANCH   6  24
BRANCH   8  26
ATOM     26  O   UNL     1      -5.257   5.876  -2.665  1.00  0.00    -0.508 OA
ATOM     27  H   UNL     1      -5.154   6.498  -3.459  1.00  0.00     0.293 HD
ENDBRANCH   8  26
TORSDOF 6
ENDMDL
MODEL 7
REMARK VINA RESULT:    -5.756      3.107      4.528
REMARK INTER + INTRA:          -7.000
REMARK INTER:                  -6.916
REMARK INTRA:                  -0.084
REMARK UNBOUND:                -0.066
REMARK SMILES O=c1c(O)c(-c2ccc(O)c(O)c2)oc2cc(O)cc(O)c12
REMARK SMILES IDX 5 1 3 2 2 3 1 4 22 5 20 6 19 7 17 8 16 9 15 10 14 11 6 12
REMARK SMILES IDX 7 13 8 14 9 15 13 16 11 17 10 18 12 20 4 22 21 24 18 26
REMARK H PARENT 10 19 12 21 4 23 21 25 18 27
REMARK Flexibility Score: inf
ROOT
ATOM      1  C   UNL     1      -7.659   7.428  -0.650  1.00  0.00     0.180 A 
ATOM      2  C   UNL     1      -7.267   8.777  -0.692  1.00  0.00     0.208 A 
ATOM      3  C   UNL     1      -7.085   9.394  -1.941  1.00  0.00     0.238 A 
ATOM      4  O   UNL     1      -6.787  10.616  -1.973  1.00  0.00    -0.285 OA
ATOM      5  C   UNL     1      -7.279   8.650  -3.129  1.00  0.00     0.111 A 
ATOM      6  C   UNL     1      -7.082   9.162  -4.447  1.00  0.00     0.134 A 
ATOM      7  C   UNL     1      -7.430   8.376  -5.553  1.00  0.00     0.093 A 
ATOM      8  C   UNL     1      -7.905   7.075  -5.390  1.00  0.00     0.123 A 
ATOM      9  C   UNL     1      -8.044   6.542  -4.107  1.00  0.00     0.094 A 
ATOM     10  C   UNL     1      -7.740   7.315  -2.984  1.00  0.00     0.146 A 
ATOM     11  O   UNL     1      -7.897   6.776  -1.782  1.00  0.00    -0.452 OA
ENDROOT
BRANCH   1  12
ATOM     12  C   UNL     1      -7.849   6.703   0.628  1.00  0.00     0.025 A 
ATOM     13  C   UNL     1      -9.091   6.144   0.974  1.00  0.00     0.016 A 
ATOM     14  C   UNL     1      -9.255   5.485   2.196  1.00  0.00     0.051 A 
ATOM     15  C   UNL     1      -8.183   5.388   3.093  1.00  0.00     0.157 A 
ATOM     16  C   UNL     1      -6.784   6.621   1.541  1.00  0.00     0.062 A 
ATOM     17  C   UNL     1      -6.947   5.959   2.767  1.00  0.00     0.158 A 
BRANCH  15  18
ATOM     18  O   UNL     1      -8.341   4.730   4.312  1.00  0.00    -0.504 OA
ATOM     19  H   UNL     1      -7.585   4.202   4.732  1.00  0.00     0.293 HD
ENDBRANCH  15  18
BRANCH  17  20
ATOM     20  O   UNL     1      -5.885   5.867   3.664  1.00  0.00    -0.504 OA
ATOM     21  H   UNL     1      -5.406   6.692   4.006  1.00  0.00     0.293 HD
ENDBRANCH  17  20
ENDBRANCH   1  12
BRANCH   2  22
ATOM     22  O   UNL     1      -7.103   9.499   0.493  1.00  0.00    -0.502 OA
ATOM     23  H   UNL     1      -7.797  10.156   0.831  1.00  0.00     0.293 HD
ENDBRANCH   2  22
BRANCH   6  24
ATOM     24  O   UNL     1      -6.527  10.414  -4.723  1.00  0.00    -0.507 OA
ATOM     25  H   UNL     1      -6.469  11.176  -4.063  1.00  0.00     0.293 HD
ENDBRANCH   6  24
BRANCH   8  26
ATOM     26  O   UNL     1      -8.226   6.315  -6.513  1.00  0.00    -0.508 OA
ATOM     27  H   UNL     1      -7.508   5.881  -7.082  1.00  0.00     0.293 HD
ENDBRANCH   8  26
TORSDOF 6
ENDMDL
MODEL 8
REMARK VINA RESULT:    -5.730      3.443      7.907
REMARK INTER + INTRA:          -6.969
REMARK INTER:                  -6.638
REMARK INTRA:                  -0.331
REMARK UNBOUND:                -0.066
REMARK SMILES O=c1c(O)c(-c2ccc(O)c(O)c2)oc2cc(O)cc(O)c12
REMARK SMILES IDX 5 1 3 2 2 3 1 4 22 5 20 6 19 7 17 8 16 9 15 10 14 11 6 12
REMARK SMILES IDX 7 13 8 14 9 15 13 16 11 17 10 18 12 20 4 22 21 24 18 26
REMARK H PARENT 10 19 12 21 4 23 21 25 18 27
REMARK Flexibility Score: inf
ROOT
ATOM      1  C   UNL     1      -8.281   6.843  -2.755  1.00  0.00     0.180 A 
ATOM      2  C   UNL     1      -7.316   6.205  -1.958  1.00  0.00     0.208 A 
ATOM      3  C   UNL     1      -7.695   5.699  -0.703  1.00  0.00     0.238 A 
ATOM      4  O   UNL     1      -6.840   5.081  -0.017  1.00  0.00    -0.285 OA
ATOM      5  C   UNL     1      -9.028   5.854  -0.255  1.00  0.00     0.111 A 
ATOM      6  C   UNL     1      -9.513   5.417   1.014  1.00  0.00     0.134 A 
ATOM      7  C   UNL     1     -10.881   5.505   1.299  1.00  0.00     0.093 A 
ATOM      8  C   UNL     1     -11.771   6.072   0.388  1.00  0.00     0.123 A 
ATOM      9  C   UNL     1     -11.299   6.557  -0.832  1.00  0.00     0.094 A 
ATOM     10  C   UNL     1      -9.946   6.450  -1.160  1.00  0.00     0.146 A 
ATOM     11  O   UNL     1      -9.539   6.914  -2.335  1.00  0.00    -0.452 OA
ENDROOT
BRANCH   1  12
ATOM     12  C   UNL     1      -7.952   7.422  -4.078  1.00  0.00     0.025 A 
ATOM     13  C   UNL     1      -7.531   8.757  -4.208  1.00  0.00     0.016 A 
ATOM     14  C   UNL     1      -7.250   9.290  -5.469  1.00  0.00     0.051 A 
ATOM     15  C   UNL     1      -7.399   8.501  -6.617  1.00  0.00     0.157 A 
ATOM     16  C   UNL     1      -8.120   6.642  -5.235  1.00  0.00     0.062 A 
ATOM     17  C   UNL     1      -7.837   7.177  -6.500  1.00  0.00     0.158 A 
BRANCH  15  18
ATOM     18  O   UNL     1      -7.117   9.028  -7.877  1.00  0.00    -0.504 OA
ATOM     19  H   UNL     1      -7.673   9.776  -8.275  1.00  0.00     0.293 HD
ENDBRANCH  15  18
BRANCH  17  20
ATOM     20  O   UNL     1      -7.991   6.397  -7.645  1.00  0.00    -0.504 OA
ATOM     21  H   UNL     1      -7.422   6.547  -8.470  1.00  0.00     0.293 HD
ENDBRANCH  17  20
ENDBRANCH   1  12
BRANCH   2  22
ATOM     22  O   UNL     1      -6.010   6.043  -2.429  1.00  0.00    -0.502 OA
ATOM     23  H   UNL     1      -5.545   5.143  -2.445  1.00  0.00     0.293 HD
ENDBRANCH   2  22
BRANCH   6  24
ATOM     24  O   UNL     1      -8.695   4.920   2.033  1.00  0.00    -0.507 OA
ATOM     25  H   UNL     1      -8.203   5.490   2.706  1.00  0.00     0.293 HD
ENDBRANCH   6  24
BRANCH   8  26
ATOM     26  O   UNL     1     -13.124   6.157   0.711  1.00  0.00    -0.508 OA
ATOM     27  H   UNL     1     -13.443   6.110   1.672  1.00  0.00     0.293 HD
ENDBRANCH   8  26
TORSDOF 6
ENDMDL
MODEL 9
REMARK VINA RESULT:    -5.727      1.997      6.887
REMARK INTER + INTRA:          -6.965
REMARK INTER:                  -6.653
REMARK INTRA:                  -0.312
REMARK UNBOUND:                -0.066
REMARK SMILES O=c1c(O)c(-c2ccc(O)c(O)c2)oc2cc(O)cc(O)c12
REMARK SMILES IDX 5 1 3 2 2 3 1 4 22 5 20 6 19 7 17 8 16 9 15 10 14 11 6 12
REMARK SMILES IDX 7 13 8 14 9 15 13 16 11 17 10 18 12 20 4 22 21 24 18 26
REMARK H PARENT 10 19 12 21 4 23 21 25 18 27
REMARK Flexibility Score: inf
ROOT
ATOM      1  C   UNL     1      -7.938   6.169   0.313  1.00  0.00     0.180 A 
ATOM      2  C   UNL     1      -6.631   5.895   0.751  1.00  0.00     0.208 A 
ATOM      3  C   UNL     1      -6.367   5.868   2.131  1.00  0.00     0.238 A 
ATOM      4  O   UNL     1      -5.208   5.569   2.518  1.00  0.00    -0.285 OA
ATOM      5  C   UNL     1      -7.408   6.132   3.052  1.00  0.00     0.111 A 
ATOM      6  C   UNL     1      -7.246   6.172   4.470  1.00  0.00     0.134 A 
ATOM      7  C   UNL     1      -8.371   6.314   5.291  1.00  0.00     0.093 A 
ATOM      8  C   UNL     1      -9.643   6.483   4.746  1.00  0.00     0.123 A 
ATOM      9  C   UNL     1      -9.806   6.506   3.360  1.00  0.00     0.094 A 
ATOM     10  C   UNL     1      -8.707   6.330   2.515  1.00  0.00     0.146 A 
ATOM     11  O   UNL     1      -8.906   6.348   1.204  1.00  0.00    -0.452 OA
ENDROOT
BRANCH   1  12
ATOM     12  C   UNL     1      -8.288   6.238  -1.124  1.00  0.00     0.025 A 
ATOM     13  C   UNL     1      -8.587   5.078  -1.860  1.00  0.00     0.016 A 
ATOM     14  C   UNL     1      -8.891   5.163  -3.222  1.00  0.00     0.051 A 
ATOM     15  C   UNL     1      -8.886   6.406  -3.869  1.00  0.00     0.157 A 
ATOM     16  C   UNL     1      -8.264   7.478  -1.784  1.00  0.00     0.062 A 
ATOM     17  C   UNL     1      -8.570   7.564  -3.150  1.00  0.00     0.158 A 
BRANCH  15  18
ATOM     18  O   UNL     1      -9.191   6.495  -5.227  1.00  0.00    -0.504 OA
ATOM     19  H   UNL     1      -8.475   6.409  -5.938  1.00  0.00     0.293 HD
ENDBRANCH  15  18
BRANCH  17  20
ATOM     20  O   UNL     1      -8.559   8.798  -3.797  1.00  0.00    -0.504 OA
ATOM     21  H   UNL     1      -8.775   9.657  -3.306  1.00  0.00     0.293 HD
ENDBRANCH  17  20
ENDBRANCH   1  12
BRANCH   2  22
ATOM     22  O   UNL     1      -5.623   5.614  -0.175  1.00  0.00    -0.502 OA
ATOM     23  H   UNL     1      -4.652   5.858  -0.014  1.00  0.00     0.293 HD
ENDBRANCH   2  22
BRANCH   6  24
ATOM     24  O   UNL     1      -6.007   6.105   5.115  1.00  0.00    -0.507 OA
ATOM     25  H   UNL     1      -5.878   5.873   6.089  1.00  0.00     0.293 HD
ENDBRANCH   6  24
BRANCH   8  26
ATOM     26  O   UNL     1     -10.739   6.637   5.593  1.00  0.00    -0.508 OA
ATOM     27  H   UNL     1     -11.296   7.484   5.590  1.00  0.00     0.293 HD
ENDBRANCH   8  26
TORSDOF 6
ENDMDL
