MODEL 1
REMARK VINA RESULT:    32.732      0.000      0.000
REMARK INTER + INTRA:          40.737
REMARK INTER:                  40.386
REMARK INTRA:                   0.350
REMARK UNBOUND:                 0.350
REMARK SMILES COc1cc(-c2oc3cc(O)cc(O)c3c(=O)c2O)ccc1O
REMARK SMILES IDX 6 1 18 2 16 3 17 4 15 5 13 6 12 7 10 8 9 9 8 10 7 11 5 12
REMARK SMILES IDX 3 13 22 14 4 15 21 16 20 17 2 18 1 19 23 20 19 22 14 24
REMARK SMILES IDX 11 26
REMARK H PARENT 23 21 19 23 14 25 11 27
REMARK Flexibility Score: inf
ROOT
ATOM      1  C   UNL     1      -7.614  -4.764  21.084  1.00  0.00     0.180 A 
ATOM      2  C   UNL     1      -7.822  -5.492  19.896  1.00  0.00     0.208 A 
ATOM      3  C   UNL     1      -8.246  -6.826  19.984  1.00  0.00     0.238 A 
ATOM      4  O   UNL     1      -8.426  -7.492  18.928  1.00  0.00    -0.285 OA
ATOM      5  C   UNL     1      -8.475  -7.404  21.251  1.00  0.00     0.111 A 
ATOM      6  C   UNL     1      -8.907  -8.741  21.426  1.00  0.00     0.134 A 
ATOM      7  C   UNL     1      -9.121  -9.238  22.719  1.00  0.00     0.093 A 
ATOM      8  C   UNL     1      -8.911  -8.425  23.840  1.00  0.00     0.123 A 
ATOM      9  C   UNL     1      -8.485  -7.107  23.672  1.00  0.00     0.094 A 
ATOM     10  C   UNL     1      -8.265  -6.592  22.390  1.00  0.00     0.146 A 
ATOM     11  O   UNL     1      -7.854  -5.337  22.260  1.00  0.00    -0.452 OA
ENDROOT
BRANCH   1  12
ATOM     12  C   UNL     1      -7.148  -3.358  21.073  1.00  0.00     0.025 A 
ATOM     13  C   UNL     1      -6.953  -1.160  22.127  1.00  0.00     0.161 A 
ATOM     14  C   UNL     1      -6.291  -0.680  20.982  1.00  0.00     0.157 A 
ATOM     15  C   UNL     1      -7.386  -2.501  22.161  1.00  0.00     0.062 A 
ATOM     16  C   UNL     1      -6.076  -1.528  19.892  1.00  0.00     0.051 A 
ATOM     17  C   UNL     1      -6.506  -2.855  19.932  1.00  0.00     0.016 A 
BRANCH  13  18
ATOM     18  O   UNL     1      -7.166  -0.281  23.202  1.00  0.00    -0.493 OA
ATOM     19  C   UNL     1      -8.446   0.169  23.636  1.00  0.00     0.278 C 
ENDBRANCH  13  18
BRANCH  14  20
ATOM     20  O   UNL     1      -5.844   0.639  20.907  1.00  0.00    -0.504 OA
ATOM     21  H   UNL     1      -4.880   0.871  20.701  1.00  0.00     0.293 HD
ENDBRANCH  14  20
ENDBRANCH   1  12
BRANCH   2  22
ATOM     22  O   UNL     1      -7.637  -4.881  18.652  1.00  0.00    -0.502 OA
ATOM     23  H   UNL     1      -8.121  -4.032  18.388  1.00  0.00     0.293 HD
ENDBRANCH   2  22
BRANCH   6  24
ATOM     24  O   UNL     1      -9.125  -9.575  20.328  1.00  0.00    -0.507 OA
ATOM     25  H   UNL     1      -8.851  -9.304  19.391  1.00  0.00     0.293 HD
ENDBRANCH   6  24
BRANCH   8  26
ATOM     26  O   UNL     1      -9.125  -8.918  25.125  1.00  0.00    -0.508 OA
ATOM     27  H   UNL     1     -10.021  -9.300  25.404  1.00  0.00     0.293 HD
ENDBRANCH   8  26
TORSDOF 6
ENDMDL
