MODEL 1
REMARK VINA RESULT:    -4.029      0.000      0.000
REMARK INTER + INTRA:          -8.561
REMARK INTER:                  -6.856
REMARK INTRA:                  -1.705
REMARK UNBOUND:                -1.705
REMARK SMILES CCCCCCCCCCCCCC(=O)[O-]
REMARK SMILES IDX 8 1 9 2 10 3 11 4 12 5 13 6 14 7 15 8 16 9 7 10 6 11 5 12
REMARK SMILES IDX 4 13 3 14 2 15 1 16
REMARK H PARENT
REMARK Flexibility Score: inf
ROOT
ATOM      1  C   UNL     1      14.357 -23.001  20.248  1.00  0.00     0.000 C 
ENDROOT
BRANCH   1   2
ATOM      2  C   UNL     1      14.238 -21.803  19.285  1.00  0.00     0.000 C 
BRANCH   2   3
ATOM      3  C   UNL     1      15.393 -20.784  19.368  1.00  0.00     0.000 C 
BRANCH   3   4
ATOM      4  C   UNL     1      15.022 -19.341  18.981  1.00  0.00     0.000 C 
BRANCH   4   5
ATOM      5  C   UNL     1      14.179 -18.575  20.020  1.00  0.00     0.006 C 
BRANCH   5   6
ATOM      6  C   UNL     1      14.978 -17.541  20.834  1.00  0.00     0.053 C 
BRANCH   6   7
ATOM      7  C   UNL     1      14.509 -16.137  20.601  1.00  0.00     0.041 C 
ATOM      8  O   UNL     1      13.565 -15.908  19.800  1.00  0.00    -0.550 OA
ATOM      9  O   UNL     1      15.088 -15.083  21.298  1.00  0.00    -0.550 OA
ENDBRANCH   6   7
ENDBRANCH   5   6
ENDBRANCH   4   5
ENDBRANCH   3   4
ENDBRANCH   2   3
ENDBRANCH   1   2
BRANCH   1  10
ATOM     10  C   UNL     1      13.621 -22.829  21.591  1.00  0.00     0.000 C 
BRANCH  10  11
ATOM     11  C   UNL     1      12.762 -21.554  21.708  1.00  0.00    -0.000 C 
BRANCH  11  12
ATOM     12  C   UNL     1      12.975 -20.742  22.999  1.00  0.00    -0.000 C 
BRANCH  12  13
ATOM     13  C   UNL     1      14.433 -20.300  23.192  1.00  0.00    -0.000 C 
BRANCH  13  14
ATOM     14  C   UNL     1      15.105 -21.098  24.314  1.00  0.00    -0.000 C 
BRANCH  14  15
ATOM     15  C   UNL     1      16.620 -21.190  24.093  1.00  0.00    -0.003 C 
ATOM     16  C   UNL     1      16.951 -21.396  22.618  1.00  0.00     0.004 C 
ENDBRANCH  14  15
ENDBRANCH  13  14
ENDBRANCH  12  13
ENDBRANCH  11  12
ENDBRANCH  10  11
ENDBRANCH   1  10
TORSDOF 12
ENDMDL
MODEL 2
REMARK VINA RESULT:    -3.999      3.175      5.106
REMARK INTER + INTRA:          -8.511
REMARK INTER:                  -6.940
REMARK INTRA:                  -1.571
REMARK UNBOUND:                -1.705
REMARK SMILES CCCCCCCCCCCCCC(=O)[O-]
REMARK SMILES IDX 8 1 9 2 10 3 11 4 12 5 13 6 14 7 15 8 16 9 7 10 6 11 5 12
REMARK SMILES IDX 4 13 3 14 2 15 1 16
REMARK H PARENT
REMARK Flexibility Score: inf
ROOT
ATOM      1  C   UNL     1      16.641 -21.159  23.987  1.00  0.00     0.000 C 
ENDROOT
BRANCH   1   2
ATOM      2  C   UNL     1      16.821 -21.565  22.511  1.00  0.00     0.000 C 
BRANCH   2   3
ATOM      3  C   UNL     1      16.839 -20.391  21.511  1.00  0.00     0.000 C 
BRANCH   3   4
ATOM      4  C   UNL     1      15.534 -20.185  20.719  1.00  0.00     0.000 C 
BRANCH   4   5
ATOM      5  C   UNL     1      15.150 -21.338  19.771  1.00  0.00     0.006 C 
BRANCH   5   6
ATOM      6  C   UNL     1      13.769 -21.955  20.062  1.00  0.00     0.053 C 
BRANCH   6   7
ATOM      7  C   UNL     1      13.821 -23.006  21.129  1.00  0.00     0.041 C 
ATOM      8  O   UNL     1      13.080 -22.918  22.144  1.00  0.00    -0.550 OA
ATOM      9  O   UNL     1      14.658 -24.105  20.985  1.00  0.00    -0.550 OA
ENDBRANCH   6   7
ENDBRANCH   5   6
ENDBRANCH   4   5
ENDBRANCH   3   4
ENDBRANCH   2   3
ENDBRANCH   1   2
BRANCH   1  10
ATOM     10  C   UNL     1      15.181 -21.129  24.479  1.00  0.00     0.000 C 
BRANCH  10  11
ATOM     11  C   UNL     1      14.416 -19.824  24.179  1.00  0.00    -0.000 C 
BRANCH  11  12
ATOM     12  C   UNL     1      12.945 -20.012  23.768  1.00  0.00    -0.000 C 
BRANCH  12  13
ATOM     13  C   UNL     1      12.604 -19.324  22.438  1.00  0.00    -0.000 C 
BRANCH  13  14
ATOM     14  C   UNL     1      11.286 -19.858  21.866  1.00  0.00    -0.000 C 
BRANCH  14  15
ATOM     15  C   UNL     1      10.671 -18.860  20.877  1.00  0.00    -0.003 C 
ATOM     16  C   UNL     1      11.542 -17.616  20.734  1.00  0.00     0.004 C 
ENDBRANCH  14  15
ENDBRANCH  13  14
ENDBRANCH  12  13
ENDBRANCH  11  12
ENDBRANCH  10  11
ENDBRANCH   1  10
TORSDOF 12
ENDMDL
MODEL 3
REMARK VINA RESULT:    -3.944      2.833      4.619
REMARK INTER + INTRA:          -8.416
REMARK INTER:                  -7.149
REMARK INTRA:                  -1.267
REMARK UNBOUND:                -1.705
REMARK SMILES CCCCCCCCCCCCCC(=O)[O-]
REMARK SMILES IDX 8 1 9 2 10 3 11 4 12 5 13 6 14 7 15 8 16 9 7 10 6 11 5 12
REMARK SMILES IDX 4 13 3 14 2 15 1 16
REMARK H PARENT
REMARK Flexibility Score: inf
ROOT
ATOM      1  C   UNL     1      12.565 -22.272  22.245  1.00  0.00     0.000 C 
ENDROOT
BRANCH   1   2
ATOM      2  C   UNL     1      13.691 -22.947  21.439  1.00  0.00     0.000 C 
BRANCH   2   3
ATOM      3  C   UNL     1      14.478 -22.005  20.506  1.00  0.00     0.000 C 
BRANCH   3   4
ATOM      4  C   UNL     1      15.612 -21.211  21.181  1.00  0.00     0.000 C 
BRANCH   4   5
ATOM      5  C   UNL     1      16.428 -21.992  22.230  1.00  0.00     0.006 C 
BRANCH   5   6
ATOM      6  C   UNL     1      16.888 -21.139  23.427  1.00  0.00     0.053 C 
BRANCH   6   7
ATOM      7  C   UNL     1      15.864 -21.079  24.519  1.00  0.00     0.041 C 
ATOM      8  O   UNL     1      15.980 -21.809  25.539  1.00  0.00    -0.550 OA
ATOM      9  O   UNL     1      14.802 -20.188  24.432  1.00  0.00    -0.550 OA
ENDBRANCH   6   7
ENDBRANCH   5   6
ENDBRANCH   4   5
ENDBRANCH   3   4
ENDBRANCH   2   3
ENDBRANCH   1   2
BRANCH   1  10
ATOM     10  C   UNL     1      11.910 -21.059  21.557  1.00  0.00     0.000 C 
BRANCH  10  11
ATOM     11  C   UNL     1      12.195 -19.697  22.222  1.00  0.00    -0.000 C 
BRANCH  11  12
ATOM     12  C   UNL     1      11.333 -18.529  21.710  1.00  0.00    -0.000 C 
BRANCH  12  13
ATOM     13  C   UNL     1      12.104 -17.581  20.780  1.00  0.00    -0.000 C 
BRANCH  13  14
ATOM     14  C   UNL     1      13.503 -18.128  20.475  1.00  0.00    -0.000 C 
BRANCH  14  15
ATOM     15  C   UNL     1      14.569 -17.039  20.636  1.00  0.00    -0.003 C 
ATOM     16  C   UNL     1      15.950 -17.555  20.243  1.00  0.00     0.004 C 
ENDBRANCH  14  15
ENDBRANCH  13  14
ENDBRANCH  12  13
ENDBRANCH  11  12
ENDBRANCH  10  11
ENDBRANCH   1  10
TORSDOF 12
ENDMDL
MODEL 4
REMARK VINA RESULT:    -3.915      1.498      2.658
REMARK INTER + INTRA:          -8.367
REMARK INTER:                  -6.786
REMARK INTRA:                  -1.581
REMARK UNBOUND:                -1.705
REMARK SMILES CCCCCCCCCCCCCC(=O)[O-]
REMARK SMILES IDX 8 1 9 2 10 3 11 4 12 5 13 6 14 7 15 8 16 9 7 10 6 11 5 12
REMARK SMILES IDX 4 13 3 14 2 15 1 16
REMARK H PARENT
REMARK Flexibility Score: inf
ROOT
ATOM      1  C   UNL     1      12.347 -22.166  22.161  1.00  0.00     0.000 C 
ENDROOT
BRANCH   1   2
ATOM      2  C   UNL     1      11.812 -20.884  21.494  1.00  0.00     0.000 C 
BRANCH   2   3
ATOM      3  C   UNL     1      12.155 -19.574  22.231  1.00  0.00     0.000 C 
BRANCH   3   4
ATOM      4  C   UNL     1      11.370 -18.335  21.764  1.00  0.00     0.000 C 
BRANCH   4   5
ATOM      5  C   UNL     1      12.097 -17.441  20.740  1.00  0.00     0.006 C 
BRANCH   5   6
ATOM      6  C   UNL     1      13.481 -17.969  20.321  1.00  0.00     0.053 C 
BRANCH   6   7
ATOM      7  C   UNL     1      14.566 -16.952  20.505  1.00  0.00     0.041 C 
ATOM      8  O   UNL     1      14.277 -15.760  20.790  1.00  0.00    -0.550 OA
ATOM      9  O   UNL     1      15.900 -17.327  20.400  1.00  0.00    -0.550 OA
ENDBRANCH   6   7
ENDBRANCH   5   6
ENDBRANCH   4   5
ENDBRANCH   3   4
ENDBRANCH   2   3
ENDBRANCH   1   2
BRANCH   1  10
ATOM     10  C   UNL     1      13.717 -22.645  21.644  1.00  0.00     0.000 C 
BRANCH  10  11
ATOM     11  C   UNL     1      14.182 -21.993  20.326  1.00  0.00    -0.000 C 
BRANCH  11  12
ATOM     12  C   UNL     1      15.449 -21.126  20.440  1.00  0.00    -0.000 C 
BRANCH  12  13
ATOM     13  C   UNL     1      15.670 -20.576  21.856  1.00  0.00    -0.000 C 
BRANCH  13  14
ATOM     14  C   UNL     1      16.988 -21.091  22.446  1.00  0.00    -0.000 C 
BRANCH  14  15
ATOM     15  C   UNL     1      16.842 -21.394  23.942  1.00  0.00    -0.003 C 
ATOM     16  C   UNL     1      15.456 -21.007  24.450  1.00  0.00     0.004 C 
ENDBRANCH  14  15
ENDBRANCH  13  14
ENDBRANCH  12  13
ENDBRANCH  11  12
ENDBRANCH  10  11
ENDBRANCH   1  10
TORSDOF 12
ENDMDL
MODEL 5
REMARK VINA RESULT:    -3.888      2.219      4.663
REMARK INTER + INTRA:          -8.320
REMARK INTER:                  -6.607
REMARK INTRA:                  -1.713
REMARK UNBOUND:                -1.705
REMARK SMILES CCCCCCCCCCCCCC(=O)[O-]
REMARK SMILES IDX 8 1 9 2 10 3 11 4 12 5 13 6 14 7 15 8 16 9 7 10 6 11 5 12
REMARK SMILES IDX 4 13 3 14 2 15 1 16
REMARK H PARENT
REMARK Flexibility Score: inf
ROOT
ATOM      1  C   UNL     1      15.441 -21.194  24.516  1.00  0.00     0.000 C 
ENDROOT
BRANCH   1   2
ATOM      2  C   UNL     1      14.689 -19.859  24.350  1.00  0.00     0.000 C 
BRANCH   2   3
ATOM      3  C   UNL     1      13.275 -19.978  23.749  1.00  0.00     0.000 C 
BRANCH   3   4
ATOM      4  C   UNL     1      13.087 -21.125  22.737  1.00  0.00     0.000 C 
BRANCH   4   5
ATOM      5  C   UNL     1      11.870 -20.986  21.803  1.00  0.00     0.006 C 
BRANCH   5   6
ATOM      6  C   UNL     1      11.875 -19.702  20.954  1.00  0.00     0.053 C 
BRANCH   6   7
ATOM      7  C   UNL     1      10.658 -18.857  21.179  1.00  0.00     0.041 C 
ATOM      8  O   UNL     1      10.356 -18.474  22.340  1.00  0.00    -0.550 OA
ATOM      9  O   UNL     1       9.876 -18.459  20.101  1.00  0.00    -0.550 OA
ENDBRANCH   6   7
ENDBRANCH   5   6
ENDBRANCH   4   5
ENDBRANCH   3   4
ENDBRANCH   2   3
ENDBRANCH   1   2
BRANCH   1  10
ATOM     10  C   UNL     1      16.774 -21.288  23.750  1.00  0.00     0.000 C 
BRANCH  10  11
ATOM     11  C   UNL     1      16.645 -21.642  22.254  1.00  0.00    -0.000 C 
BRANCH  11  12
ATOM     12  C   UNL     1      16.553 -20.434  21.305  1.00  0.00    -0.000 C 
BRANCH  12  13
ATOM     13  C   UNL     1      15.557 -20.653  20.156  1.00  0.00    -0.000 C 
BRANCH  13  14
ATOM     14  C   UNL     1      15.281 -19.343  19.411  1.00  0.00    -0.000 C 
BRANCH  14  15
ATOM     15  C   UNL     1      15.815 -18.139  20.196  1.00  0.00    -0.003 C 
ATOM     16  C   UNL     1      14.679 -17.356  20.845  1.00  0.00     0.004 C 
ENDBRANCH  14  15
ENDBRANCH  13  14
ENDBRANCH  12  13
ENDBRANCH  11  12
ENDBRANCH  10  11
ENDBRANCH   1  10
TORSDOF 12
ENDMDL
MODEL 6
REMARK VINA RESULT:    -3.790      2.940      4.684
REMARK INTER + INTRA:          -8.155
REMARK INTER:                  -6.580
REMARK INTRA:                  -1.575
REMARK UNBOUND:                -1.705
REMARK SMILES CCCCCCCCCCCCCC(=O)[O-]
REMARK SMILES IDX 8 1 9 2 10 3 11 4 12 5 13 6 14 7 15 8 16 9 7 10 6 11 5 12
REMARK SMILES IDX 4 13 3 14 2 15 1 16
REMARK H PARENT
REMARK Flexibility Score: inf
ROOT
ATOM      1  C   UNL     1      14.977 -21.285  19.013  1.00  0.00     0.000 C 
ENDROOT
BRANCH   1   2
ATOM      2  C   UNL     1      15.510 -20.426  20.176  1.00  0.00     0.000 C 
BRANCH   2   3
ATOM      3  C   UNL     1      14.636 -19.208  20.539  1.00  0.00     0.000 C 
BRANCH   3   4
ATOM      4  C   UNL     1      14.691 -18.780  22.018  1.00  0.00     0.000 C 
BRANCH   4   5
ATOM      5  C   UNL     1      14.209 -19.840  23.028  1.00  0.00     0.006 C 
BRANCH   5   6
ATOM      6  C   UNL     1      14.993 -19.842  24.354  1.00  0.00     0.053 C 
BRANCH   6   7
ATOM      7  C   UNL     1      15.920 -21.013  24.474  1.00  0.00     0.041 C 
ATOM      8  O   UNL     1      15.915 -21.724  25.513  1.00  0.00    -0.550 OA
ATOM      9  O   UNL     1      16.764 -21.345  23.421  1.00  0.00    -0.550 OA
ENDBRANCH   6   7
ENDBRANCH   5   6
ENDBRANCH   4   5
ENDBRANCH   3   4
ENDBRANCH   2   3
ENDBRANCH   1   2
BRANCH   1  10
ATOM     10  C   UNL     1      14.337 -22.623  19.434  1.00  0.00     0.000 C 
BRANCH  10  11
ATOM     11  C   UNL     1      14.522 -22.998  20.918  1.00  0.00    -0.000 C 
BRANCH  11  12
ATOM     12  C   UNL     1      13.246 -22.918  21.774  1.00  0.00    -0.000 C 
BRANCH  12  13
ATOM     13  C   UNL     1      12.187 -21.979  21.180  1.00  0.00    -0.000 C 
BRANCH  13  14
ATOM     14  C   UNL     1      11.215 -21.492  22.261  1.00  0.00    -0.000 C 
BRANCH  14  15
ATOM     15  C   UNL     1      10.239 -20.452  21.698  1.00  0.00    -0.003 C 
ATOM     16  C   UNL     1      10.751 -19.034  21.928  1.00  0.00     0.004 C 
ENDBRANCH  14  15
ENDBRANCH  13  14
ENDBRANCH  12  13
ENDBRANCH  11  12
ENDBRANCH  10  11
ENDBRANCH   1  10
TORSDOF 12
ENDMDL
MODEL 7
REMARK VINA RESULT:    -3.721      1.976      3.429
REMARK INTER + INTRA:          -8.037
REMARK INTER:                  -6.190
REMARK INTRA:                  -1.847
REMARK UNBOUND:                -1.705
REMARK SMILES CCCCCCCCCCCCCC(=O)[O-]
REMARK SMILES IDX 8 1 9 2 10 3 11 4 12 5 13 6 14 7 15 8 16 9 7 10 6 11 5 12
REMARK SMILES IDX 4 13 3 14 2 15 1 16
REMARK H PARENT
REMARK Flexibility Score: inf
ROOT
ATOM      1  C   UNL     1      15.999 -20.183  20.211  1.00  0.00     0.000 C 
ENDROOT
BRANCH   1   2
ATOM      2  C   UNL     1      16.653 -18.870  19.738  1.00  0.00     0.000 C 
BRANCH   2   3
ATOM      3  C   UNL     1      15.926 -17.584  20.181  1.00  0.00     0.000 C 
BRANCH   3   4
ATOM      4  C   UNL     1      14.669 -17.806  21.043  1.00  0.00     0.000 C 
BRANCH   4   5
ATOM      5  C   UNL     1      13.328 -17.521  20.338  1.00  0.00     0.006 C 
BRANCH   5   6
ATOM      6  C   UNL     1      12.250 -18.594  20.585  1.00  0.00     0.053 C 
BRANCH   6   7
ATOM      7  C   UNL     1      11.149 -18.108  21.478  1.00  0.00     0.041 C 
ATOM      8  O   UNL     1      10.554 -18.909  22.246  1.00  0.00    -0.550 OA
ATOM      9  O   UNL     1      10.804 -16.762  21.492  1.00  0.00    -0.550 OA
ENDBRANCH   6   7
ENDBRANCH   5   6
ENDBRANCH   4   5
ENDBRANCH   3   4
ENDBRANCH   2   3
ENDBRANCH   1   2
BRANCH   1  10
ATOM     10  C   UNL     1      15.215 -20.946  19.127  1.00  0.00     0.000 C 
BRANCH  10  11
ATOM     11  C   UNL     1      13.979 -21.717  19.634  1.00  0.00    -0.000 C 
BRANCH  11  12
ATOM     12  C   UNL     1      14.289 -23.046  20.346  1.00  0.00    -0.000 C 
BRANCH  12  13
ATOM     13  C   UNL     1      13.714 -23.109  21.768  1.00  0.00    -0.000 C 
BRANCH  13  14
ATOM     14  C   UNL     1      13.223 -21.730  22.224  1.00  0.00    -0.000 C 
BRANCH  14  15
ATOM     15  C   UNL     1      14.157 -21.135  23.283  1.00  0.00    -0.003 C 
ATOM     16  C   UNL     1      13.540 -19.899  23.931  1.00  0.00     0.004 C 
ENDBRANCH  14  15
ENDBRANCH  13  14
ENDBRANCH  12  13
ENDBRANCH  11  12
ENDBRANCH  10  11
ENDBRANCH   1  10
TORSDOF 12
ENDMDL
MODEL 8
REMARK VINA RESULT:    -3.635      2.824      4.198
REMARK INTER + INTRA:          -7.890
REMARK INTER:                  -6.587
REMARK INTRA:                  -1.304
REMARK UNBOUND:                -1.705
REMARK SMILES CCCCCCCCCCCCCC(=O)[O-]
REMARK SMILES IDX 8 1 9 2 10 3 11 4 12 5 13 6 14 7 15 8 16 9 7 10 6 11 5 12
REMARK SMILES IDX 4 13 3 14 2 15 1 16
REMARK H PARENT
REMARK Flexibility Score: inf
ROOT
ATOM      1  C   UNL     1      14.949 -19.385  18.949  1.00  0.00     0.000 C 
ENDROOT
BRANCH   1   2
ATOM      2  C   UNL     1      14.607 -18.028  19.592  1.00  0.00     0.000 C 
BRANCH   2   3
ATOM      3  C   UNL     1      13.155 -17.554  19.380  1.00  0.00     0.000 C 
BRANCH   3   4
ATOM      4  C   UNL     1      12.274 -17.558  20.643  1.00  0.00     0.000 C 
BRANCH   4   5
ATOM      5  C   UNL     1      11.479 -18.856  20.888  1.00  0.00     0.006 C 
BRANCH   5   6
ATOM      6  C   UNL     1      12.226 -19.895  21.745  1.00  0.00     0.053 C 
BRANCH   6   7
ATOM      7  C   UNL     1      11.484 -21.192  21.856  1.00  0.00     0.041 C 
ATOM      8  O   UNL     1      12.085 -22.240  22.211  1.00  0.00    -0.550 OA
ATOM      9  O   UNL     1      10.117 -21.237  21.606  1.00  0.00    -0.550 OA
ENDBRANCH   6   7
ENDBRANCH   5   6
ENDBRANCH   4   5
ENDBRANCH   3   4
ENDBRANCH   2   3
ENDBRANCH   1   2
BRANCH   1  10
ATOM     10  C   UNL     1      15.810 -20.319  19.822  1.00  0.00     0.000 C 
BRANCH  10  11
ATOM     11  C   UNL     1      15.092 -21.589  20.325  1.00  0.00    -0.000 C 
BRANCH  11  12
ATOM     12  C   UNL     1      15.502 -22.053  21.734  1.00  0.00    -0.000 C 
BRANCH  12  13
ATOM     13  C   UNL     1      16.750 -21.330  22.261  1.00  0.00    -0.000 C 
BRANCH  13  14
ATOM     14  C   UNL     1      16.687 -21.165  23.783  1.00  0.00    -0.000 C 
BRANCH  14  15
ATOM     15  C   UNL     1      15.243 -21.260  24.289  1.00  0.00    -0.003 C 
ATOM     16  C   UNL     1      14.601 -19.879  24.388  1.00  0.00     0.004 C 
ENDBRANCH  14  15
ENDBRANCH  13  14
ENDBRANCH  12  13
ENDBRANCH  11  12
ENDBRANCH  10  11
ENDBRANCH   1  10
TORSDOF 12
ENDMDL
MODEL 9
REMARK VINA RESULT:    -3.520      2.075      3.040
REMARK INTER + INTRA:          -7.695
REMARK INTER:                  -6.296
REMARK INTRA:                  -1.399
REMARK UNBOUND:                -1.705
REMARK SMILES CCCCCCCCCCCCCC(=O)[O-]
REMARK SMILES IDX 8 1 9 2 10 3 11 4 12 5 13 6 14 7 15 8 16 9 7 10 6 11 5 12
REMARK SMILES IDX 4 13 3 14 2 15 1 16
REMARK H PARENT
REMARK Flexibility Score: inf
ROOT
ATOM      1  C   UNL     1      11.331 -18.964  22.170  1.00  0.00     0.000 C 
ENDROOT
BRANCH   1   2
ATOM      2  C   UNL     1      11.832 -17.942  21.132  1.00  0.00     0.000 C 
BRANCH   2   3
ATOM      3  C   UNL     1      12.263 -18.544  19.780  1.00  0.00     0.000 C 
BRANCH   3   4
ATOM      4  C   UNL     1      13.754 -18.916  19.674  1.00  0.00     0.000 C 
BRANCH   4   5
ATOM      5  C   UNL     1      14.675 -18.242  20.709  1.00  0.00     0.006 C 
BRANCH   5   6
ATOM      6  C   UNL     1      15.481 -17.055  20.151  1.00  0.00     0.053 C 
BRANCH   6   7
ATOM      7  C   UNL     1      16.839 -17.459  19.661  1.00  0.00     0.041 C 
ATOM      8  O   UNL     1      17.633 -16.594  19.206  1.00  0.00    -0.550 OA
ATOM      9  O   UNL     1      17.244 -18.786  19.744  1.00  0.00    -0.550 OA
ENDBRANCH   6   7
ENDBRANCH   5   6
ENDBRANCH   4   5
ENDBRANCH   3   4
ENDBRANCH   2   3
ENDBRANCH   1   2
BRANCH   1  10
ATOM     10  C   UNL     1      11.000 -20.358  21.602  1.00  0.00     0.000 C 
BRANCH  10  11
ATOM     11  C   UNL     1      11.958 -21.485  22.036  1.00  0.00    -0.000 C 
BRANCH  11  12
ATOM     12  C   UNL     1      13.274 -21.011  22.677  1.00  0.00    -0.000 C 
BRANCH  12  13
ATOM     13  C   UNL     1      14.385 -22.069  22.613  1.00  0.00    -0.000 C 
BRANCH  13  14
ATOM     14  C   UNL     1      15.532 -21.607  21.708  1.00  0.00    -0.000 C 
BRANCH  14  15
ATOM     15  C   UNL     1      16.808 -21.354  22.519  1.00  0.00    -0.003 C 
ATOM     16  C   UNL     1      16.502 -21.252  24.011  1.00  0.00     0.004 C 
ENDBRANCH  14  15
ENDBRANCH  13  14
ENDBRANCH  12  13
ENDBRANCH  11  12
ENDBRANCH  10  11
ENDBRANCH   1  10
TORSDOF 12
ENDMDL
