MODEL 1
REMARK VINA RESULT:    -3.170      0.000      0.000
REMARK INTER + INTRA:          -3.610
REMARK INTER:                  -3.541
REMARK INTRA:                  -0.069
REMARK UNBOUND:                -0.069
REMARK SMILES CCCC(=O)[O-]
REMARK SMILES IDX 3 1 4 2 5 3 6 4 2 5 1 6
REMARK H PARENT
REMARK Flexibility Score: inf
ROOT
ATOM      1  C   UNL     1     108.446 105.031 129.742  1.00  0.00     0.052 C 
ENDROOT
BRANCH   1   2
ATOM      2  C   UNL     1     108.602 105.067 131.232  1.00  0.00     0.041 C 
ATOM      3  O   UNL     1     107.640 105.420 131.963  1.00  0.00    -0.550 OA
ATOM      4  O   UNL     1     109.823 104.742 131.810  1.00  0.00    -0.550 OA
ENDBRANCH   1   2
BRANCH   1   5
ATOM      5  C   UNL     1     108.675 103.621 129.181  1.00  0.00     0.003 C 
ATOM      6  C   UNL     1     107.768 102.580 129.836  1.00  0.00     0.004 C 
ENDBRANCH   1   5
TORSDOF 2
ENDMDL
MODEL 2
REMARK VINA RESULT:    -3.153      1.750      2.465
REMARK INTER + INTRA:          -3.591
REMARK INTER:                  -3.537
REMARK INTRA:                  -0.054
REMARK UNBOUND:                -0.069
REMARK SMILES CCCC(=O)[O-]
REMARK SMILES IDX 3 1 4 2 5 3 6 4 2 5 1 6
REMARK H PARENT
REMARK Flexibility Score: inf
ROOT
ATOM      1  C   UNL     1     107.778 102.686 129.748  1.00  0.00     0.052 C 
ENDROOT
BRANCH   1   2
ATOM      2  C   UNL     1     108.291 102.393 131.125  1.00  0.00     0.041 C 
ATOM      3  O   UNL     1     107.519 102.461 132.118  1.00  0.00    -0.550 OA
ATOM      4  O   UNL     1     109.630 102.078 131.314  1.00  0.00    -0.550 OA
ENDBRANCH   1   2
BRANCH   1   5
ATOM      5  C   UNL     1     108.486 103.895 129.124  1.00  0.00     0.003 C 
ATOM      6  C   UNL     1     108.461 105.120 130.037  1.00  0.00     0.004 C 
ENDBRANCH   1   5
TORSDOF 2
ENDMDL
MODEL 3
REMARK VINA RESULT:    -3.136      1.948      2.474
REMARK INTER + INTRA:          -3.572
REMARK INTER:                  -3.531
REMARK INTRA:                  -0.040
REMARK UNBOUND:                -0.069
REMARK SMILES CCCC(=O)[O-]
REMARK SMILES IDX 3 1 4 2 5 3 6 4 2 5 1 6
REMARK H PARENT
REMARK Flexibility Score: inf
ROOT
ATOM      1  C   UNL     1     107.737 102.878 129.467  1.00  0.00     0.052 C 
ENDROOT
BRANCH   1   2
ATOM      2  C   UNL     1     108.745 103.978 129.313  1.00  0.00     0.041 C 
ATOM      3  O   UNL     1     108.445 105.161 129.625  1.00  0.00    -0.550 OA
ATOM      4  O   UNL     1     110.002 103.700 128.793  1.00  0.00    -0.550 OA
ENDBRANCH   1   2
BRANCH   1   5
ATOM      5  C   UNL     1     107.933 102.110 130.780  1.00  0.00     0.003 C 
ATOM      6  C   UNL     1     107.211 102.770 131.954  1.00  0.00     0.004 C 
ENDBRANCH   1   5
TORSDOF 2
ENDMDL
MODEL 4
REMARK VINA RESULT:    -3.103      2.063      2.840
REMARK INTER + INTRA:          -3.535
REMARK INTER:                  -3.503
REMARK INTRA:                  -0.032
REMARK UNBOUND:                -0.069
REMARK SMILES CCCC(=O)[O-]
REMARK SMILES IDX 3 1 4 2 5 3 6 4 2 5 1 6
REMARK H PARENT
REMARK Flexibility Score: inf
ROOT
ATOM      1  C   UNL     1     107.862 102.349 129.906  1.00  0.00     0.052 C 
ENDROOT
BRANCH   1   2
ATOM      2  C   UNL     1     107.244 102.425 131.269  1.00  0.00     0.041 C 
ATOM      3  O   UNL     1     107.276 103.502 131.921  1.00  0.00    -0.550 OA
ATOM      4  O   UNL     1     106.663 101.296 131.832  1.00  0.00    -0.550 OA
ENDBRANCH   1   2
BRANCH   1   5
ATOM      5  C   UNL     1     108.111 103.743 129.317  1.00  0.00     0.003 C 
ATOM      6  C   UNL     1     109.563 103.941 128.882  1.00  0.00     0.004 C 
ENDBRANCH   1   5
TORSDOF 2
ENDMDL
MODEL 5
REMARK VINA RESULT:    -3.092      2.255      2.618
REMARK INTER + INTRA:          -3.523
REMARK INTER:                  -3.458
REMARK INTRA:                  -0.065
REMARK UNBOUND:                -0.069
REMARK SMILES CCCC(=O)[O-]
REMARK SMILES IDX 3 1 4 2 5 3 6 4 2 5 1 6
REMARK H PARENT
REMARK Flexibility Score: inf
ROOT
ATOM      1  C   UNL     1     108.517 104.925 130.585  1.00  0.00     0.052 C 
ENDROOT
BRANCH   1   2
ATOM      2  C   UNL     1     108.721 104.038 129.393  1.00  0.00     0.041 C 
ATOM      3  O   UNL     1     107.730 103.608 128.746  1.00  0.00    -0.550 OA
ATOM      4  O   UNL     1     110.004 103.662 129.020  1.00  0.00    -0.550 OA
ENDBRANCH   1   2
BRANCH   1   5
ATOM      5  C   UNL     1     107.751 104.205 131.703  1.00  0.00     0.003 C 
ATOM      6  C   UNL     1     108.425 102.901 132.125  1.00  0.00     0.004 C 
ENDBRANCH   1   5
TORSDOF 2
ENDMDL
MODEL 6
REMARK VINA RESULT:    -2.985      1.798      2.514
REMARK INTER + INTRA:          -3.404
REMARK INTER:                  -3.333
REMARK INTRA:                  -0.071
REMARK UNBOUND:                -0.069
REMARK SMILES CCCC(=O)[O-]
REMARK SMILES IDX 3 1 4 2 5 3 6 4 2 5 1 6
REMARK H PARENT
REMARK Flexibility Score: inf
ROOT
ATOM      1  C   UNL     1     108.142 104.207 131.646  1.00  0.00     0.052 C 
ENDROOT
BRANCH   1   2
ATOM      2  C   UNL     1     109.085 103.053 131.810  1.00  0.00     0.041 C 
ATOM      3  O   UNL     1     110.319 103.257 131.954  1.00  0.00    -0.550 OA
ATOM      4  O   UNL     1     108.602 101.752 131.771  1.00  0.00    -0.550 OA
ENDBRANCH   1   2
BRANCH   1   5
ATOM      5  C   UNL     1     108.433 104.999 130.364  1.00  0.00     0.003 C 
ATOM      6  C   UNL     1     108.341 104.130 129.110  1.00  0.00     0.004 C 
ENDBRANCH   1   5
TORSDOF 2
ENDMDL
MODEL 7
REMARK VINA RESULT:    -2.843     12.012     12.400
REMARK INTER + INTRA:          -3.245
REMARK INTER:                  -3.205
REMARK INTRA:                  -0.040
REMARK UNBOUND:                -0.069
REMARK SMILES CCCC(=O)[O-]
REMARK SMILES IDX 3 1 4 2 5 3 6 4 2 5 1 6
REMARK H PARENT
REMARK Flexibility Score: inf
ROOT
ATOM      1  C   UNL     1     111.830 111.538 122.455  1.00  0.00     0.052 C 
ENDROOT
BRANCH   1   2
ATOM      2  C   UNL     1     111.899 112.721 121.538  1.00  0.00     0.041 C 
ATOM      3  O   UNL     1     111.708 112.578 120.302  1.00  0.00    -0.550 OA
ATOM      4  O   UNL     1     112.207 113.976 122.046  1.00  0.00    -0.550 OA
ENDBRANCH   1   2
BRANCH   1   5
ATOM      5  C   UNL     1     112.020 110.219 121.695  1.00  0.00     0.003 C 
ATOM      6  C   UNL     1     113.481 109.776 121.653  1.00  0.00     0.004 C 
ENDBRANCH   1   5
TORSDOF 2
ENDMDL
MODEL 8
REMARK VINA RESULT:    -2.752     10.298     11.041
REMARK INTER + INTRA:          -3.143
REMARK INTER:                  -3.105
REMARK INTRA:                  -0.038
REMARK UNBOUND:                -0.069
REMARK SMILES CCCC(=O)[O-]
REMARK SMILES IDX 3 1 4 2 5 3 6 4 2 5 1 6
REMARK H PARENT
REMARK Flexibility Score: inf
ROOT
ATOM      1  C   UNL     1     115.978 111.317 130.615  1.00  0.00     0.052 C 
ENDROOT
BRANCH   1   2
ATOM      2  C   UNL     1     115.200 112.473 131.166  1.00  0.00     0.041 C 
ATOM      3  O   UNL     1     114.083 112.282 131.715  1.00  0.00    -0.550 OA
ATOM      4  O   UNL     1     115.694 113.765 131.042  1.00  0.00    -0.550 OA
ENDBRANCH   1   2
BRANCH   1   5
ATOM      5  C   UNL     1     117.310 111.127 131.353  1.00  0.00     0.003 C 
ATOM      6  C   UNL     1     118.514 111.486 130.483  1.00  0.00     0.004 C 
ENDBRANCH   1   5
TORSDOF 2
ENDMDL
