MODEL 1
REMARK VINA RESULT:    -4.495      0.000      0.000
REMARK INTER + INTRA:         -15.931
REMARK INTER:                 -11.327
REMARK INTRA:                  -4.603
REMARK UNBOUND:                -4.603
REMARK SMILES CCCCCCCCCCCCCCCCCCCCCCCCCCCC(=O)[O-]
REMARK SMILES IDX 15 1 16 2 17 3 18 4 19 5 20 6 21 7 22 8 23 9 24 10 25 11
REMARK SMILES IDX 26 12 27 13 28 14 29 15 30 16 14 17 13 18 12 19 11 20 10 21
REMARK SMILES IDX 9 22 8 23 7 24 6 25 5 26 4 27 3 28 2 29 1 30
REMARK H PARENT
REMARK Flexibility Score: inf
ROOT
ATOM      1  C   UNL     1       9.351   7.716  30.074  1.00  0.00     0.000 C 
ENDROOT
BRANCH   1   2
ATOM      2  C   UNL     1       8.878   6.462  29.319  1.00  0.00     0.000 C 
BRANCH   2   3
ATOM      3  C   UNL     1       9.293   5.127  29.972  1.00  0.00     0.000 C 
BRANCH   3   4
ATOM      4  C   UNL     1       9.908   4.130  28.969  1.00  0.00     0.000 C 
BRANCH   4   5
ATOM      5  C   UNL     1       9.867   4.649  27.523  1.00  0.00     0.000 C 
BRANCH   5   6
ATOM      6  C   UNL     1      11.262   5.014  26.987  1.00  0.00     0.000 C 
BRANCH   6   7
ATOM      7  C   UNL     1      12.267   5.343  28.107  1.00  0.00     0.000 C 
BRANCH   7   8
ATOM      8  C   UNL     1      13.715   5.583  27.636  1.00  0.00     0.000 C 
BRANCH   8   9
ATOM      9  C   UNL     1      13.794   6.181  26.221  1.00  0.00     0.000 C 
BRANCH   9  10
ATOM     10  C   UNL     1      14.536   7.528  26.189  1.00  0.00     0.000 C 
BRANCH  10  11
ATOM     11  C   UNL     1      14.911   7.962  24.763  1.00  0.00     0.000 C 
BRANCH  11  12
ATOM     12  C   UNL     1      15.268   9.459  24.669  1.00  0.00     0.006 C 
BRANCH  12  13
ATOM     13  C   UNL     1      16.652   9.751  24.064  1.00  0.00     0.053 C 
BRANCH  13  14
ATOM     14  C   UNL     1      17.765   9.264  24.939  1.00  0.00     0.041 C 
ATOM     15  O   UNL     1      18.323  10.050  25.748  1.00  0.00    -0.550 OA
ATOM     16  O   UNL     1      18.212   7.953  24.831  1.00  0.00    -0.550 OA
ENDBRANCH  13  14
ENDBRANCH  12  13
ENDBRANCH  11  12
ENDBRANCH  10  11
ENDBRANCH   9  10
ENDBRANCH   8   9
ENDBRANCH   7   8
ENDBRANCH   6   7
ENDBRANCH   5   6
ENDBRANCH   4   5
ENDBRANCH   3   4
ENDBRANCH   2   3
ENDBRANCH   1   2
BRANCH   1  17
ATOM     17  C   UNL     1      10.009   8.764  29.158  1.00  0.00     0.000 C 
BRANCH  17  18
ATOM     18  C   UNL     1       9.916   8.407  27.665  1.00  0.00     0.000 C 
BRANCH  18  19
ATOM     19  C   UNL     1      11.230   8.556  26.869  1.00  0.00     0.000 C 
BRANCH  19  20
ATOM     20  C   UNL     1      11.207   9.693  25.822  1.00  0.00     0.000 C 
BRANCH  20  21
ATOM     21  C   UNL     1      11.460   9.199  24.386  1.00  0.00     0.000 C 
BRANCH  21  22
ATOM     22  C   UNL     1      10.867   7.796  24.113  1.00  0.00    -0.000 C 
BRANCH  22  23
ATOM     23  C   UNL     1      11.704   7.007  23.090  1.00  0.00    -0.000 C 
BRANCH  23  24
ATOM     24  C   UNL     1      12.573   7.911  22.202  1.00  0.00    -0.000 C 
BRANCH  24  25
ATOM     25  C   UNL     1      12.110   7.935  20.739  1.00  0.00    -0.000 C 
BRANCH  25  26
ATOM     26  C   UNL     1      11.579   9.323  20.357  1.00  0.00    -0.000 C 
BRANCH  26  27
ATOM     27  C   UNL     1      10.084   9.266  20.003  1.00  0.00    -0.000 C 
BRANCH  27  28
ATOM     28  C   UNL     1       9.180   9.341  21.244  1.00  0.00    -0.000 C 
BRANCH  28  29
ATOM     29  C   UNL     1       8.001   8.359  21.177  1.00  0.00    -0.003 C 
ATOM     30  C   UNL     1       8.492   6.918  21.061  1.00  0.00     0.004 C 
ENDBRANCH  28  29
ENDBRANCH  27  28
ENDBRANCH  26  27
ENDBRANCH  25  26
ENDBRANCH  24  25
ENDBRANCH  23  24
ENDBRANCH  22  23
ENDBRANCH  21  22
ENDBRANCH  20  21
ENDBRANCH  19  20
ENDBRANCH  18  19
ENDBRANCH  17  18
ENDBRANCH   1  17
TORSDOF 26
ENDMDL
MODEL 2
REMARK VINA RESULT:    -4.388      4.462      9.318
REMARK INTER + INTRA:         -15.661
REMARK INTER:                 -11.025
REMARK INTRA:                  -4.636
REMARK UNBOUND:                -4.603
REMARK SMILES CCCCCCCCCCCCCCCCCCCCCCCCCCCC(=O)[O-]
REMARK SMILES IDX 15 1 16 2 17 3 18 4 19 5 20 6 21 7 22 8 23 9 24 10 25 11
REMARK SMILES IDX 26 12 27 13 28 14 29 15 30 16 14 17 13 18 12 19 11 20 10 21
REMARK SMILES IDX 9 22 8 23 7 24 6 25 5 26 4 27 3 28 2 29 1 30
REMARK H PARENT
REMARK Flexibility Score: inf
ROOT
ATOM      1  C   UNL     1      11.644   7.753  20.248  1.00  0.00     0.000 C 
ENDROOT
BRANCH   1   2
ATOM      2  C   UNL     1      11.487   9.231  19.850  1.00  0.00     0.000 C 
BRANCH   2   3
ATOM      3  C   UNL     1      10.178   9.889  20.332  1.00  0.00     0.000 C 
BRANCH   3   4
ATOM      4  C   UNL     1       8.918   9.105  19.911  1.00  0.00     0.000 C 
BRANCH   4   5
ATOM      5  C   UNL     1       8.121   8.580  21.116  1.00  0.00     0.000 C 
BRANCH   5   6
ATOM      6  C   UNL     1       7.822   7.075  21.014  1.00  0.00     0.000 C 
BRANCH   6   7
ATOM      7  C   UNL     1       6.314   6.763  21.009  1.00  0.00     0.000 C 
BRANCH   7   8
ATOM      8  C   UNL     1       5.444   7.729  21.836  1.00  0.00     0.000 C 
BRANCH   8   9
ATOM      9  C   UNL     1       4.352   8.418  21.000  1.00  0.00     0.000 C 
BRANCH   9  10
ATOM     10  C   UNL     1       4.571   8.249  19.488  1.00  0.00     0.000 C 
BRANCH  10  11
ATOM     11  C   UNL     1       5.267   9.464  18.851  1.00  0.00     0.000 C 
BRANCH  11  12
ATOM     12  C   UNL     1       5.958   9.125  17.516  1.00  0.00     0.006 C 
BRANCH  12  13
ATOM     13  C   UNL     1       6.419   7.663  17.387  1.00  0.00     0.053 C 
BRANCH  13  14
ATOM     14  C   UNL     1       6.526   7.228  15.958  1.00  0.00     0.041 C 
ATOM     15  O   UNL     1       7.417   7.714  15.214  1.00  0.00    -0.550 OA
ATOM     16  O   UNL     1       5.615   6.317  15.439  1.00  0.00    -0.550 OA
ENDBRANCH  13  14
ENDBRANCH  12  13
ENDBRANCH  11  12
ENDBRANCH  10  11
ENDBRANCH   9  10
ENDBRANCH   8   9
ENDBRANCH   7   8
ENDBRANCH   6   7
ENDBRANCH   5   6
ENDBRANCH   4   5
ENDBRANCH   3   4
ENDBRANCH   2   3
ENDBRANCH   1   2
BRANCH   1  17
ATOM     17  C   UNL     1      12.266   7.562  21.643  1.00  0.00     0.000 C 
BRANCH  17  18
ATOM     18  C   UNL     1      11.291   6.944  22.661  1.00  0.00     0.000 C 
BRANCH  18  19
ATOM     19  C   UNL     1      10.779   7.908  23.751  1.00  0.00     0.000 C 
BRANCH  19  20
ATOM     20  C   UNL     1      11.455   9.298  23.732  1.00  0.00     0.000 C 
BRANCH  20  21
ATOM     21  C   UNL     1      12.456   9.499  24.885  1.00  0.00     0.000 C 
BRANCH  21  22
ATOM     22  C   UNL     1      13.932   9.449  24.423  1.00  0.00    -0.000 C 
BRANCH  22  23
ATOM     23  C   UNL     1      14.560   8.063  24.656  1.00  0.00    -0.000 C 
BRANCH  23  24
ATOM     24  C   UNL     1      13.992   7.348  25.892  1.00  0.00    -0.000 C 
BRANCH  24  25
ATOM     25  C   UNL     1      13.421   5.960  25.569  1.00  0.00    -0.000 C 
BRANCH  25  26
ATOM     26  C   UNL     1      12.412   5.523  26.639  1.00  0.00    -0.000 C 
BRANCH  26  27
ATOM     27  C   UNL     1      11.641   6.729  27.199  1.00  0.00    -0.000 C 
BRANCH  27  28
ATOM     28  C   UNL     1      10.167   6.404  27.492  1.00  0.00    -0.000 C 
BRANCH  28  29
ATOM     29  C   UNL     1       9.924   6.026  28.960  1.00  0.00    -0.003 C 
ATOM     30  C   UNL     1       8.980   7.019  29.633  1.00  0.00     0.004 C 
ENDBRANCH  28  29
ENDBRANCH  27  28
ENDBRANCH  26  27
ENDBRANCH  25  26
ENDBRANCH  24  25
ENDBRANCH  23  24
ENDBRANCH  22  23
ENDBRANCH  21  22
ENDBRANCH  20  21
ENDBRANCH  19  20
ENDBRANCH  18  19
ENDBRANCH  17  18
ENDBRANCH   1  17
TORSDOF 26
ENDMDL
MODEL 3
REMARK VINA RESULT:    -4.356      4.432      8.146
REMARK INTER + INTRA:         -15.581
REMARK INTER:                 -12.185
REMARK INTRA:                  -3.396
REMARK UNBOUND:                -4.603
REMARK SMILES CCCCCCCCCCCCCCCCCCCCCCCCCCCC(=O)[O-]
REMARK SMILES IDX 15 1 16 2 17 3 18 4 19 5 20 6 21 7 22 8 23 9 24 10 25 11
REMARK SMILES IDX 26 12 27 13 28 14 29 15 30 16 14 17 13 18 12 19 11 20 10 21
REMARK SMILES IDX 9 22 8 23 7 24 6 25 5 26 4 27 3 28 2 29 1 30
REMARK H PARENT
REMARK Flexibility Score: inf
ROOT
ATOM      1  C   UNL     1       7.808   8.603  20.987  1.00  0.00     0.000 C 
ENDROOT
BRANCH   1   2
ATOM      2  C   UNL     1       8.590   9.294  19.857  1.00  0.00     0.000 C 
BRANCH   2   3
ATOM      3  C   UNL     1       9.972   9.838  20.273  1.00  0.00     0.000 C 
BRANCH   3   4
ATOM      4  C   UNL     1      11.142   9.016  19.697  1.00  0.00     0.000 C 
BRANCH   4   5
ATOM      5  C   UNL     1      11.957   8.305  20.790  1.00  0.00     0.000 C 
BRANCH   5   6
ATOM      6  C   UNL     1      11.323   6.973  21.226  1.00  0.00     0.000 C 
BRANCH   6   7
ATOM      7  C   UNL     1      11.139   6.868  22.751  1.00  0.00     0.000 C 
BRANCH   7   8
ATOM      8  C   UNL     1      10.709   8.173  23.449  1.00  0.00     0.000 C 
BRANCH   8   9
ATOM      9  C   UNL     1      10.890   8.124  24.976  1.00  0.00     0.000 C 
BRANCH   9  10
ATOM     10  C   UNL     1      11.091   6.694  25.502  1.00  0.00     0.000 C 
BRANCH  10  11
ATOM     11  C   UNL     1      11.343   6.652  27.019  1.00  0.00     0.000 C 
BRANCH  11  12
ATOM     12  C   UNL     1      10.054   6.831  27.843  1.00  0.00     0.006 C 
BRANCH  12  13
ATOM     13  C   UNL     1       9.043   5.679  27.711  1.00  0.00     0.053 C 
BRANCH  13  14
ATOM     14  C   UNL     1       9.632   4.362  28.111  1.00  0.00     0.041 C 
ATOM     15  O   UNL     1      10.026   4.178  29.292  1.00  0.00    -0.550 OA
ATOM     16  O   UNL     1       9.782   3.353  27.168  1.00  0.00    -0.550 OA
ENDBRANCH  13  14
ENDBRANCH  12  13
ENDBRANCH  11  12
ENDBRANCH  10  11
ENDBRANCH   9  10
ENDBRANCH   8   9
ENDBRANCH   7   8
ENDBRANCH   6   7
ENDBRANCH   5   6
ENDBRANCH   4   5
ENDBRANCH   3   4
ENDBRANCH   2   3
ENDBRANCH   1   2
BRANCH   1  17
ATOM     17  C   UNL     1       7.495   7.125  20.694  1.00  0.00     0.000 C 
BRANCH  17  18
ATOM     18  C   UNL     1       6.036   6.743  20.996  1.00  0.00     0.000 C 
BRANCH  18  19
ATOM     19  C   UNL     1       5.300   7.679  21.977  1.00  0.00     0.000 C 
BRANCH  19  20
ATOM     20  C   UNL     1       4.014   8.313  21.399  1.00  0.00     0.000 C 
BRANCH  20  21
ATOM     21  C   UNL     1       4.248   9.045  20.064  1.00  0.00     0.000 C 
BRANCH  21  22
ATOM     22  C   UNL     1       3.185   8.708  18.992  1.00  0.00    -0.000 C 
BRANCH  22  23
ATOM     23  C   UNL     1       3.821   8.437  17.617  1.00  0.00    -0.000 C 
BRANCH  23  24
ATOM     24  C   UNL     1       4.703   7.179  17.603  1.00  0.00    -0.000 C 
BRANCH  24  25
ATOM     25  C   UNL     1       6.161   7.475  17.225  1.00  0.00    -0.000 C 
BRANCH  25  26
ATOM     26  C   UNL     1       6.261   8.774  16.414  1.00  0.00    -0.000 C 
BRANCH  26  27
ATOM     27  C   UNL     1       6.673   8.491  14.961  1.00  0.00    -0.000 C 
BRANCH  27  28
ATOM     28  C   UNL     1       7.447   7.170  14.813  1.00  0.00    -0.000 C 
BRANCH  28  29
ATOM     29  C   UNL     1       8.260   7.103  13.512  1.00  0.00    -0.003 C 
ATOM     30  C   UNL     1       7.876   5.877  12.687  1.00  0.00     0.004 C 
ENDBRANCH  28  29
ENDBRANCH  27  28
ENDBRANCH  26  27
ENDBRANCH  25  26
ENDBRANCH  24  25
ENDBRANCH  23  24
ENDBRANCH  22  23
ENDBRANCH  21  22
ENDBRANCH  20  21
ENDBRANCH  19  20
ENDBRANCH  18  19
ENDBRANCH  17  18
ENDBRANCH   1  17
TORSDOF 26
ENDMDL
MODEL 4
REMARK VINA RESULT:    -4.275      3.818      6.683
REMARK INTER + INTRA:         -15.377
REMARK INTER:                 -11.302
REMARK INTRA:                  -4.075
REMARK UNBOUND:                -4.603
REMARK SMILES CCCCCCCCCCCCCCCCCCCCCCCCCCCC(=O)[O-]
REMARK SMILES IDX 15 1 16 2 17 3 18 4 19 5 20 6 21 7 22 8 23 9 24 10 25 11
REMARK SMILES IDX 26 12 27 13 28 14 29 15 30 16 14 17 13 18 12 19 11 20 10 21
REMARK SMILES IDX 9 22 8 23 7 24 6 25 5 26 4 27 3 28 2 29 1 30
REMARK H PARENT
REMARK Flexibility Score: inf
ROOT
ATOM      1  C   UNL     1       9.827   5.683  30.644  1.00  0.00     0.000 C 
ENDROOT
BRANCH   1   2
ATOM      2  C   UNL     1       8.985   6.970  30.610  1.00  0.00     0.000 C 
BRANCH   2   3
ATOM      3  C   UNL     1       9.668   8.164  29.912  1.00  0.00     0.000 C 
BRANCH   3   4
ATOM      4  C   UNL     1       9.594   8.086  28.374  1.00  0.00     0.000 C 
BRANCH   4   5
ATOM      5  C   UNL     1      10.824   8.705  27.692  1.00  0.00     0.000 C 
BRANCH   5   6
ATOM      6  C   UNL     1      10.807   8.524  26.165  1.00  0.00     0.000 C 
BRANCH   6   7
ATOM      7  C   UNL     1      11.567   9.638  25.421  1.00  0.00     0.000 C 
BRANCH   7   8
ATOM      8  C   UNL     1      10.998  10.003  24.036  1.00  0.00     0.000 C 
BRANCH   8   9
ATOM      9  C   UNL     1       9.783   9.147  23.641  1.00  0.00     0.000 C 
BRANCH   9  10
ATOM     10  C   UNL     1       9.502   9.181  22.130  1.00  0.00     0.000 C 
BRANCH  10  11
ATOM     11  C   UNL     1       8.010   8.999  21.801  1.00  0.00     0.000 C 
BRANCH  11  12
ATOM     12  C   UNL     1       7.084   9.588  22.883  1.00  0.00     0.006 C 
BRANCH  12  13
ATOM     13  C   UNL     1       5.919   8.672  23.297  1.00  0.00     0.053 C 
BRANCH  13  14
ATOM     14  C   UNL     1       5.013   8.357  22.148  1.00  0.00     0.041 C 
ATOM     15  O   UNL     1       5.106   7.253  21.552  1.00  0.00    -0.550 OA
ATOM     16  O   UNL     1       4.092   9.301  21.710  1.00  0.00    -0.550 OA
ENDBRANCH  13  14
ENDBRANCH  12  13
ENDBRANCH  11  12
ENDBRANCH  10  11
ENDBRANCH   9  10
ENDBRANCH   8   9
ENDBRANCH   7   8
ENDBRANCH   6   7
ENDBRANCH   5   6
ENDBRANCH   4   5
ENDBRANCH   3   4
ENDBRANCH   2   3
ENDBRANCH   1   2
BRANCH   1  17
ATOM     17  C   UNL     1       9.187   4.518  29.868  1.00  0.00     0.000 C 
BRANCH  17  18
ATOM     18  C   UNL     1      10.133   3.887  28.832  1.00  0.00     0.000 C 
BRANCH  18  19
ATOM     19  C   UNL     1      10.053   4.490  27.414  1.00  0.00     0.000 C 
BRANCH  19  20
ATOM     20  C   UNL     1      11.363   5.160  26.939  1.00  0.00     0.000 C 
BRANCH  20  21
ATOM     21  C   UNL     1      12.384   5.365  28.074  1.00  0.00     0.000 C 
BRANCH  21  22
ATOM     22  C   UNL     1      13.780   5.796  27.564  1.00  0.00    -0.000 C 
BRANCH  22  23
ATOM     23  C   UNL     1      13.708   6.442  26.170  1.00  0.00    -0.000 C 
BRANCH  23  24
ATOM     24  C   UNL     1      14.631   7.662  26.027  1.00  0.00    -0.000 C 
BRANCH  24  25
ATOM     25  C   UNL     1      15.235   7.793  24.621  1.00  0.00    -0.000 C 
BRANCH  25  26
ATOM     26  C   UNL     1      15.235   9.256  24.160  1.00  0.00    -0.000 C 
BRANCH  26  27
ATOM     27  C   UNL     1      14.464   9.421  22.841  1.00  0.00    -0.000 C 
BRANCH  27  28
ATOM     28  C   UNL     1      13.802   8.114  22.376  1.00  0.00    -0.000 C 
BRANCH  28  29
ATOM     29  C   UNL     1      12.887   8.313  21.158  1.00  0.00    -0.003 C 
ATOM     30  C   UNL     1      12.078   7.052  20.867  1.00  0.00     0.004 C 
ENDBRANCH  28  29
ENDBRANCH  27  28
ENDBRANCH  26  27
ENDBRANCH  25  26
ENDBRANCH  24  25
ENDBRANCH  23  24
ENDBRANCH  22  23
ENDBRANCH  21  22
ENDBRANCH  20  21
ENDBRANCH  19  20
ENDBRANCH  18  19
ENDBRANCH  17  18
ENDBRANCH   1  17
TORSDOF 26
ENDMDL
MODEL 5
REMARK VINA RESULT:    -4.236      4.841      9.419
REMARK INTER + INTRA:         -15.278
REMARK INTER:                 -11.456
REMARK INTRA:                  -3.822
REMARK UNBOUND:                -4.603
REMARK SMILES CCCCCCCCCCCCCCCCCCCCCCCCCCCC(=O)[O-]
REMARK SMILES IDX 15 1 16 2 17 3 18 4 19 5 20 6 21 7 22 8 23 9 24 10 25 11
REMARK SMILES IDX 26 12 27 13 28 14 29 15 30 16 14 17 13 18 12 19 11 20 10 21
REMARK SMILES IDX 9 22 8 23 7 24 6 25 5 26 4 27 3 28 2 29 1 30
REMARK H PARENT
REMARK Flexibility Score: inf
ROOT
ATOM      1  C   UNL     1      11.002   7.149  22.618  1.00  0.00     0.000 C 
ENDROOT
BRANCH   1   2
ATOM      2  C   UNL     1      10.334   6.880  21.259  1.00  0.00     0.000 C 
BRANCH   2   3
ATOM      3  C   UNL     1       8.859   7.322  21.170  1.00  0.00     0.000 C 
BRANCH   3   4
ATOM      4  C   UNL     1       8.679   8.689  20.480  1.00  0.00     0.000 C 
BRANCH   4   5
ATOM      5  C   UNL     1       7.907   9.692  21.351  1.00  0.00     0.000 C 
BRANCH   5   6
ATOM      6  C   UNL     1       7.656   9.167  22.775  1.00  0.00     0.000 C 
BRANCH   6   7
ATOM      7  C   UNL     1       6.159   9.069  23.123  1.00  0.00     0.000 C 
BRANCH   7   8
ATOM      8  C   UNL     1       5.322   8.196  22.168  1.00  0.00     0.000 C 
BRANCH   8   9
ATOM      9  C   UNL     1       4.211   8.985  21.453  1.00  0.00     0.000 C 
BRANCH   9  10
ATOM     10  C   UNL     1       4.009   8.534  19.997  1.00  0.00     0.000 C 
BRANCH  10  11
ATOM     11  C   UNL     1       5.218   7.760  19.444  1.00  0.00     0.000 C 
BRANCH  11  12
ATOM     12  C   UNL     1       5.773   8.371  18.143  1.00  0.00     0.006 C 
BRANCH  12  13
ATOM     13  C   UNL     1       4.790   8.357  16.959  1.00  0.00     0.053 C 
BRANCH  13  14
ATOM     14  C   UNL     1       4.622   6.986  16.381  1.00  0.00     0.041 C 
ATOM     15  O   UNL     1       3.570   6.332  16.602  1.00  0.00    -0.550 OA
ATOM     16  O   UNL     1       5.644   6.417  15.632  1.00  0.00    -0.550 OA
ENDBRANCH  13  14
ENDBRANCH  12  13
ENDBRANCH  11  12
ENDBRANCH  10  11
ENDBRANCH   9  10
ENDBRANCH   8   9
ENDBRANCH   7   8
ENDBRANCH   6   7
ENDBRANCH   5   6
ENDBRANCH   4   5
ENDBRANCH   3   4
ENDBRANCH   2   3
ENDBRANCH   1   2
BRANCH   1  17
ATOM     17  C   UNL     1      11.505   8.596  22.771  1.00  0.00     0.000 C 
BRANCH  17  18
ATOM     18  C   UNL     1      12.300   9.094  21.552  1.00  0.00     0.000 C 
BRANCH  18  19
ATOM     19  C   UNL     1      13.771   9.466  21.832  1.00  0.00     0.000 C 
BRANCH  19  20
ATOM     20  C   UNL     1      14.524   8.442  22.712  1.00  0.00     0.000 C 
BRANCH  20  21
ATOM     21  C   UNL     1      15.068   9.050  24.018  1.00  0.00     0.000 C 
BRANCH  21  22
ATOM     22  C   UNL     1      14.463   8.404  25.287  1.00  0.00    -0.000 C 
BRANCH  22  23
ATOM     23  C   UNL     1      14.021   6.951  25.037  1.00  0.00    -0.000 C 
BRANCH  23  24
ATOM     24  C   UNL     1      12.792   6.548  25.865  1.00  0.00    -0.000 C 
BRANCH  24  25
ATOM     25  C   UNL     1      12.006   7.756  26.396  1.00  0.00    -0.000 C 
BRANCH  25  26
ATOM     26  C   UNL     1      10.504   7.448  26.452  1.00  0.00    -0.000 C 
BRANCH  26  27
ATOM     27  C   UNL     1      10.084   6.997  27.860  1.00  0.00    -0.000 C 
BRANCH  27  28
ATOM     28  C   UNL     1       8.887   6.031  27.838  1.00  0.00    -0.000 C 
BRANCH  28  29
ATOM     29  C   UNL     1       9.315   4.557  27.878  1.00  0.00    -0.003 C 
ATOM     30  C   UNL     1       9.664   4.125  29.299  1.00  0.00     0.004 C 
ENDBRANCH  28  29
ENDBRANCH  27  28
ENDBRANCH  26  27
ENDBRANCH  25  26
ENDBRANCH  24  25
ENDBRANCH  23  24
ENDBRANCH  22  23
ENDBRANCH  21  22
ENDBRANCH  20  21
ENDBRANCH  19  20
ENDBRANCH  18  19
ENDBRANCH  17  18
ENDBRANCH   1  17
TORSDOF 26
ENDMDL
MODEL 6
REMARK VINA RESULT:    -4.226      5.562     10.628
REMARK INTER + INTRA:         -15.252
REMARK INTER:                 -11.749
REMARK INTRA:                  -3.503
REMARK UNBOUND:                -4.603
REMARK SMILES CCCCCCCCCCCCCCCCCCCCCCCCCCCC(=O)[O-]
REMARK SMILES IDX 15 1 16 2 17 3 18 4 19 5 20 6 21 7 22 8 23 9 24 10 25 11
REMARK SMILES IDX 26 12 27 13 28 14 29 15 30 16 14 17 13 18 12 19 11 20 10 21
REMARK SMILES IDX 9 22 8 23 7 24 6 25 5 26 4 27 3 28 2 29 1 30
REMARK H PARENT
REMARK Flexibility Score: inf
ROOT
ATOM      1  C   UNL     1       5.178   7.324  22.132  1.00  0.00     0.000 C 
ENDROOT
BRANCH   1   2
ATOM      2  C   UNL     1       6.048   6.767  20.992  1.00  0.00     0.000 C 
BRANCH   2   3
ATOM      3  C   UNL     1       5.614   7.209  19.579  1.00  0.00     0.000 C 
BRANCH   3   4
ATOM      4  C   UNL     1       6.705   8.005  18.834  1.00  0.00     0.000 C 
BRANCH   4   5
ATOM      5  C   UNL     1       6.254   9.429  18.475  1.00  0.00     0.000 C 
BRANCH   5   6
ATOM      6  C   UNL     1       4.789   9.699  18.858  1.00  0.00     0.000 C 
BRANCH   6   7
ATOM      7  C   UNL     1       3.873   9.881  17.634  1.00  0.00     0.000 C 
BRANCH   7   8
ATOM      8  C   UNL     1       3.031   8.646  17.258  1.00  0.00     0.000 C 
BRANCH   8   9
ATOM      9  C   UNL     1       3.211   8.221  15.791  1.00  0.00     0.000 C 
BRANCH   9  10
ATOM     10  C   UNL     1       4.361   7.218  15.603  1.00  0.00     0.000 C 
BRANCH  10  11
ATOM     11  C   UNL     1       5.655   7.887  15.108  1.00  0.00     0.000 C 
BRANCH  11  12
ATOM     12  C   UNL     1       6.885   6.965  15.220  1.00  0.00     0.006 C 
BRANCH  12  13
ATOM     13  C   UNL     1       8.192   7.572  14.681  1.00  0.00     0.053 C 
BRANCH  13  14
ATOM     14  C   UNL     1       8.321   7.411  13.199  1.00  0.00     0.041 C 
ATOM     15  O   UNL     1       8.161   6.281  12.669  1.00  0.00    -0.550 OA
ATOM     16  O   UNL     1       8.658   8.502  12.408  1.00  0.00    -0.550 OA
ENDBRANCH  13  14
ENDBRANCH  12  13
ENDBRANCH  11  12
ENDBRANCH  10  11
ENDBRANCH   9  10
ENDBRANCH   8   9
ENDBRANCH   7   8
ENDBRANCH   6   7
ENDBRANCH   5   6
ENDBRANCH   4   5
ENDBRANCH   3   4
ENDBRANCH   2   3
ENDBRANCH   1   2
BRANCH   1  17
ATOM     17  C   UNL     1       5.324   8.844  22.320  1.00  0.00     0.000 C 
BRANCH  17  18
ATOM     18  C   UNL     1       6.685   9.254  22.908  1.00  0.00     0.000 C 
BRANCH  18  19
ATOM     19  C   UNL     1       7.642   9.960  21.925  1.00  0.00     0.000 C 
BRANCH  19  20
ATOM     20  C   UNL     1       9.124   9.552  22.085  1.00  0.00     0.000 C 
BRANCH  20  21
ATOM     21  C   UNL     1       9.455   8.201  21.422  1.00  0.00     0.000 C 
BRANCH  21  22
ATOM     22  C   UNL     1      10.371   7.307  22.290  1.00  0.00    -0.000 C 
BRANCH  22  23
ATOM     23  C   UNL     1      10.809   8.017  23.583  1.00  0.00    -0.000 C 
BRANCH  23  24
ATOM     24  C   UNL     1      11.489   7.072  24.585  1.00  0.00    -0.000 C 
BRANCH  24  25
ATOM     25  C   UNL     1      10.900   7.176  25.999  1.00  0.00    -0.000 C 
BRANCH  25  26
ATOM     26  C   UNL     1      11.425   6.045  26.893  1.00  0.00    -0.000 C 
BRANCH  26  27
ATOM     27  C   UNL     1      10.326   5.011  27.182  1.00  0.00    -0.000 C 
BRANCH  27  28
ATOM     28  C   UNL     1       9.335   5.486  28.257  1.00  0.00    -0.000 C 
BRANCH  28  29
ATOM     29  C   UNL     1       9.322   4.577  29.495  1.00  0.00    -0.003 C 
ATOM     30  C   UNL     1      10.718   4.454  30.100  1.00  0.00     0.004 C 
ENDBRANCH  28  29
ENDBRANCH  27  28
ENDBRANCH  26  27
ENDBRANCH  25  26
ENDBRANCH  24  25
ENDBRANCH  23  24
ENDBRANCH  22  23
ENDBRANCH  21  22
ENDBRANCH  20  21
ENDBRANCH  19  20
ENDBRANCH  18  19
ENDBRANCH  17  18
ENDBRANCH   1  17
TORSDOF 26
ENDMDL
MODEL 7
REMARK VINA RESULT:    -4.216      5.533     10.163
REMARK INTER + INTRA:         -15.229
REMARK INTER:                 -11.833
REMARK INTRA:                  -3.395
REMARK UNBOUND:                -4.603
REMARK SMILES CCCCCCCCCCCCCCCCCCCCCCCCCCCC(=O)[O-]
REMARK SMILES IDX 15 1 16 2 17 3 18 4 19 5 20 6 21 7 22 8 23 9 24 10 25 11
REMARK SMILES IDX 26 12 27 13 28 14 29 15 30 16 14 17 13 18 12 19 11 20 10 21
REMARK SMILES IDX 9 22 8 23 7 24 6 25 5 26 4 27 3 28 2 29 1 30
REMARK H PARENT
REMARK Flexibility Score: inf
ROOT
ATOM      1  C   UNL     1       7.873   7.561  20.702  1.00  0.00     0.000 C 
ENDROOT
BRANCH   1   2
ATOM      2  C   UNL     1       6.414   7.099  20.548  1.00  0.00     0.000 C 
BRANCH   2   3
ATOM      3  C   UNL     1       5.506   7.428  21.751  1.00  0.00     0.000 C 
BRANCH   3   4
ATOM      4  C   UNL     1       4.265   8.256  21.363  1.00  0.00     0.000 C 
BRANCH   4   5
ATOM      5  C   UNL     1       4.407   8.920  19.984  1.00  0.00     0.000 C 
BRANCH   5   6
ATOM      6  C   UNL     1       3.217   8.618  19.058  1.00  0.00     0.000 C 
BRANCH   6   7
ATOM      7  C   UNL     1       3.643   8.357  17.601  1.00  0.00     0.000 C 
BRANCH   7   8
ATOM      8  C   UNL     1       4.532   7.116  17.393  1.00  0.00     0.000 C 
BRANCH   8   9
ATOM      9  C   UNL     1       5.913   7.458  16.807  1.00  0.00     0.000 C 
BRANCH   9  10
ATOM     10  C   UNL     1       5.917   8.793  16.044  1.00  0.00     0.000 C 
BRANCH  10  11
ATOM     11  C   UNL     1       6.749   8.733  14.752  1.00  0.00     0.000 C 
BRANCH  11  12
ATOM     12  C   UNL     1       7.798   7.604  14.769  1.00  0.00     0.006 C 
BRANCH  12  13
ATOM     13  C   UNL     1       8.088   6.978  13.394  1.00  0.00     0.053 C 
BRANCH  13  14
ATOM     14  C   UNL     1       7.537   5.591  13.277  1.00  0.00     0.041 C 
ATOM     15  O   UNL     1       7.509   4.835  14.283  1.00  0.00    -0.550 OA
ATOM     16  O   UNL     1       7.092   5.121  12.048  1.00  0.00    -0.550 OA
ENDBRANCH  13  14
ENDBRANCH  12  13
ENDBRANCH  11  12
ENDBRANCH  10  11
ENDBRANCH   9  10
ENDBRANCH   8   9
ENDBRANCH   7   8
ENDBRANCH   6   7
ENDBRANCH   5   6
ENDBRANCH   4   5
ENDBRANCH   3   4
ENDBRANCH   2   3
ENDBRANCH   1   2
BRANCH   1  17
ATOM     17  C   UNL     1       8.066   8.600  21.822  1.00  0.00     0.000 C 
BRANCH  17  18
ATOM     18  C   UNL     1       9.136   9.655  21.491  1.00  0.00     0.000 C 
BRANCH  18  19
ATOM     19  C   UNL     1       9.496   9.781  19.996  1.00  0.00     0.000 C 
BRANCH  19  20
ATOM     20  C   UNL     1      10.925   9.304  19.649  1.00  0.00     0.000 C 
BRANCH  20  21
ATOM     21  C   UNL     1      11.977   9.739  20.687  1.00  0.00     0.000 C 
BRANCH  21  22
ATOM     22  C   UNL     1      12.764   8.550  21.288  1.00  0.00    -0.000 C 
BRANCH  22  23
ATOM     23  C   UNL     1      12.035   7.212  21.075  1.00  0.00    -0.000 C 
BRANCH  23  24
ATOM     24  C   UNL     1      11.274   6.739  22.323  1.00  0.00    -0.000 C 
BRANCH  24  25
ATOM     25  C   UNL     1      11.860   7.298  23.628  1.00  0.00    -0.000 C 
BRANCH  25  26
ATOM     26  C   UNL     1      10.747   7.609  24.637  1.00  0.00    -0.000 C 
BRANCH  26  27
ATOM     27  C   UNL     1      11.313   8.286  25.895  1.00  0.00    -0.000 C 
BRANCH  27  28
ATOM     28  C   UNL     1      11.300   7.358  27.121  1.00  0.00    -0.000 C 
BRANCH  28  29
ATOM     29  C   UNL     1      10.122   6.373  27.106  1.00  0.00    -0.003 C 
ATOM     30  C   UNL     1       8.993   6.854  28.014  1.00  0.00     0.004 C 
ENDBRANCH  28  29
ENDBRANCH  27  28
ENDBRANCH  26  27
ENDBRANCH  25  26
ENDBRANCH  24  25
ENDBRANCH  23  24
ENDBRANCH  22  23
ENDBRANCH  21  22
ENDBRANCH  20  21
ENDBRANCH  19  20
ENDBRANCH  18  19
ENDBRANCH  17  18
ENDBRANCH   1  17
TORSDOF 26
ENDMDL
MODEL 8
REMARK VINA RESULT:    -4.200      4.710      9.390
REMARK INTER + INTRA:         -15.188
REMARK INTER:                 -12.069
REMARK INTRA:                  -3.119
REMARK UNBOUND:                -4.603
REMARK SMILES CCCCCCCCCCCCCCCCCCCCCCCCCCCC(=O)[O-]
REMARK SMILES IDX 15 1 16 2 17 3 18 4 19 5 20 6 21 7 22 8 23 9 24 10 25 11
REMARK SMILES IDX 26 12 27 13 28 14 29 15 30 16 14 17 13 18 12 19 11 20 10 21
REMARK SMILES IDX 9 22 8 23 7 24 6 25 5 26 4 27 3 28 2 29 1 30
REMARK H PARENT
REMARK Flexibility Score: inf
ROOT
ATOM      1  C   UNL     1       9.459   7.276  21.305  1.00  0.00     0.000 C 
ENDROOT
BRANCH   1   2
ATOM      2  C   UNL     1       9.339   8.597  20.524  1.00  0.00     0.000 C 
BRANCH   2   3
ATOM      3  C   UNL     1       8.706   9.757  21.319  1.00  0.00     0.000 C 
BRANCH   3   4
ATOM      4  C   UNL     1       8.048   9.298  22.636  1.00  0.00     0.000 C 
BRANCH   4   5
ATOM      5  C   UNL     1       6.530   9.538  22.651  1.00  0.00     0.000 C 
BRANCH   5   6
ATOM      6  C   UNL     1       5.736   8.270  23.008  1.00  0.00     0.000 C 
BRANCH   6   7
ATOM      7  C   UNL     1       5.624   7.281  21.833  1.00  0.00     0.000 C 
BRANCH   7   8
ATOM      8  C   UNL     1       5.425   7.930  20.449  1.00  0.00     0.000 C 
BRANCH   8   9
ATOM      9  C   UNL     1       6.180   7.197  19.328  1.00  0.00     0.000 C 
BRANCH   9  10
ATOM     10  C   UNL     1       6.447   8.095  18.109  1.00  0.00     0.000 C 
BRANCH  10  11
ATOM     11  C   UNL     1       5.717   7.611  16.845  1.00  0.00     0.000 C 
BRANCH  11  12
ATOM     12  C   UNL     1       6.238   8.283  15.560  1.00  0.00     0.006 C 
BRANCH  12  13
ATOM     13  C   UNL     1       6.346   7.345  14.345  1.00  0.00     0.053 C 
BRANCH  13  14
ATOM     14  C   UNL     1       7.755   6.905  14.095  1.00  0.00     0.041 C 
ATOM     15  O   UNL     1       8.716   7.538  14.604  1.00  0.00    -0.550 OA
ATOM     16  O   UNL     1       8.006   5.819  13.265  1.00  0.00    -0.550 OA
ENDBRANCH  13  14
ENDBRANCH  12  13
ENDBRANCH  11  12
ENDBRANCH  10  11
ENDBRANCH   9  10
ENDBRANCH   8   9
ENDBRANCH   7   8
ENDBRANCH   6   7
ENDBRANCH   5   6
ENDBRANCH   4   5
ENDBRANCH   3   4
ENDBRANCH   2   3
ENDBRANCH   1   2
BRANCH   1  17
ATOM     17  C   UNL     1      10.900   6.741  21.377  1.00  0.00     0.000 C 
BRANCH  17  18
ATOM     18  C   UNL     1      11.623   7.121  22.681  1.00  0.00     0.000 C 
BRANCH  18  19
ATOM     19  C   UNL     1      12.298   8.509  22.679  1.00  0.00     0.000 C 
BRANCH  19  20
ATOM     20  C   UNL     1      13.753   8.501  22.157  1.00  0.00     0.000 C 
BRANCH  20  21
ATOM     21  C   UNL     1      14.787   8.867  23.238  1.00  0.00     0.000 C 
BRANCH  21  22
ATOM     22  C   UNL     1      15.287   7.642  24.039  1.00  0.00    -0.000 C 
BRANCH  22  23
ATOM     23  C   UNL     1      14.847   7.700  25.513  1.00  0.00    -0.000 C 
BRANCH  23  24
ATOM     24  C   UNL     1      13.644   6.794  25.815  1.00  0.00    -0.000 C 
BRANCH  24  25
ATOM     25  C   UNL     1      12.402   7.578  26.262  1.00  0.00    -0.000 C 
BRANCH  25  26
ATOM     26  C   UNL     1      11.596   6.781  27.295  1.00  0.00    -0.000 C 
BRANCH  26  27
ATOM     27  C   UNL     1      10.522   5.919  26.614  1.00  0.00    -0.000 C 
BRANCH  27  28
ATOM     28  C   UNL     1       9.621   5.190  27.625  1.00  0.00    -0.000 C 
BRANCH  28  29
ATOM     29  C   UNL     1       9.054   6.130  28.699  1.00  0.00    -0.003 C 
ATOM     30  C   UNL     1       9.375   5.619  30.101  1.00  0.00     0.004 C 
ENDBRANCH  28  29
ENDBRANCH  27  28
ENDBRANCH  26  27
ENDBRANCH  25  26
ENDBRANCH  24  25
ENDBRANCH  23  24
ENDBRANCH  22  23
ENDBRANCH  21  22
ENDBRANCH  20  21
ENDBRANCH  19  20
ENDBRANCH  18  19
ENDBRANCH  17  18
ENDBRANCH   1  17
TORSDOF 26
ENDMDL
MODEL 9
REMARK VINA RESULT:    -4.192      5.572     10.156
REMARK INTER + INTRA:         -15.167
REMARK INTER:                 -11.150
REMARK INTRA:                  -4.017
REMARK UNBOUND:                -4.603
REMARK SMILES CCCCCCCCCCCCCCCCCCCCCCCCCCCC(=O)[O-]
REMARK SMILES IDX 15 1 16 2 17 3 18 4 19 5 20 6 21 7 22 8 23 9 24 10 25 11
REMARK SMILES IDX 26 12 27 13 28 14 29 15 30 16 14 17 13 18 12 19 11 20 10 21
REMARK SMILES IDX 9 22 8 23 7 24 6 25 5 26 4 27 3 28 2 29 1 30
REMARK H PARENT
REMARK Flexibility Score: inf
ROOT
ATOM      1  C   UNL     1       5.227   7.526  22.324  1.00  0.00     0.000 C 
ENDROOT
BRANCH   1   2
ATOM      2  C   UNL     1       6.105   6.890  21.233  1.00  0.00     0.000 C 
BRANCH   2   3
ATOM      3  C   UNL     1       5.626   7.151  19.790  1.00  0.00     0.000 C 
BRANCH   3   4
ATOM      4  C   UNL     1       6.754   7.636  18.857  1.00  0.00     0.000 C 
BRANCH   4   5
ATOM      5  C   UNL     1       6.591   9.109  18.453  1.00  0.00     0.000 C 
BRANCH   5   6
ATOM      6  C   UNL     1       5.157   9.624  18.663  1.00  0.00     0.000 C 
BRANCH   6   7
ATOM      7  C   UNL     1       4.436   9.947  17.341  1.00  0.00     0.000 C 
BRANCH   7   8
ATOM      8  C   UNL     1       3.621   8.784  16.741  1.00  0.00     0.000 C 
BRANCH   8   9
ATOM      9  C   UNL     1       4.313   8.127  15.534  1.00  0.00     0.000 C 
BRANCH   9  10
ATOM     10  C   UNL     1       4.806   6.703  15.839  1.00  0.00     0.000 C 
BRANCH  10  11
ATOM     11  C   UNL     1       6.096   6.349  15.080  1.00  0.00     0.000 C 
BRANCH  11  12
ATOM     12  C   UNL     1       7.168   7.451  15.177  1.00  0.00     0.006 C 
BRANCH  12  13
ATOM     13  C   UNL     1       8.474   7.142  14.424  1.00  0.00     0.053 C 
BRANCH  13  14
ATOM     14  C   UNL     1       8.342   7.363  12.949  1.00  0.00     0.041 C 
ATOM     15  O   UNL     1       8.516   8.510  12.463  1.00  0.00    -0.550 OA
ATOM     16  O   UNL     1       7.986   6.308  12.118  1.00  0.00    -0.550 OA
ENDBRANCH  13  14
ENDBRANCH  12  13
ENDBRANCH  11  12
ENDBRANCH  10  11
ENDBRANCH   9  10
ENDBRANCH   8   9
ENDBRANCH   7   8
ENDBRANCH   6   7
ENDBRANCH   5   6
ENDBRANCH   4   5
ENDBRANCH   3   4
ENDBRANCH   2   3
ENDBRANCH   1   2
BRANCH   1  17
ATOM     17  C   UNL     1       5.914   8.695  23.052  1.00  0.00     0.000 C 
BRANCH  17  18
ATOM     18  C   UNL     1       6.653   9.651  22.100  1.00  0.00     0.000 C 
BRANCH  18  19
ATOM     19  C   UNL     1       8.065  10.074  22.558  1.00  0.00     0.000 C 
BRANCH  19  20
ATOM     20  C   UNL     1       9.047   8.895  22.744  1.00  0.00     0.000 C 
BRANCH  20  21
ATOM     21  C   UNL     1       9.428   8.209  21.418  1.00  0.00     0.000 C 
BRANCH  21  22
ATOM     22  C   UNL     1      10.016   9.188  20.375  1.00  0.00    -0.000 C 
BRANCH  22  23
ATOM     23  C   UNL     1      11.555   9.184  20.387  1.00  0.00    -0.000 C 
BRANCH  23  24
ATOM     24  C   UNL     1      12.145   7.968  21.118  1.00  0.00    -0.000 C 
BRANCH  24  25
ATOM     25  C   UNL     1      13.636   8.132  21.444  1.00  0.00    -0.000 C 
BRANCH  25  26
ATOM     26  C   UNL     1      13.849   9.242  22.482  1.00  0.00    -0.000 C 
BRANCH  26  27
ATOM     27  C   UNL     1      14.563   8.702  23.732  1.00  0.00    -0.000 C 
BRANCH  27  28
ATOM     28  C   UNL     1      13.728   8.878  25.011  1.00  0.00    -0.000 C 
BRANCH  28  29
ATOM     29  C   UNL     1      12.243   9.138  24.718  1.00  0.00    -0.003 C 
ATOM     30  C   UNL     1      11.410   9.059  25.995  1.00  0.00     0.004 C 
ENDBRANCH  28  29
ENDBRANCH  27  28
ENDBRANCH  26  27
ENDBRANCH  25  26
ENDBRANCH  24  25
ENDBRANCH  23  24
ENDBRANCH  22  23
ENDBRANCH  21  22
ENDBRANCH  20  21
ENDBRANCH  19  20
ENDBRANCH  18  19
ENDBRANCH  17  18
ENDBRANCH   1  17
TORSDOF 26
ENDMDL
