MODEL 1
REMARK VINA RESULT:    -4.812      0.000      0.000
REMARK INTER + INTRA:          -7.494
REMARK INTER:                  -7.344
REMARK INTRA:                  -0.151
REMARK UNBOUND:                -0.151
REMARK SMILES CC1=CCC[C@@H](C)C(=O)C[C@@H](C(C)C)C(=O)C1
REMARK SMILES IDX 8 1 9 2 6 3 7 4 5 5 4 6 3 7 2 8 1 9 10 11 11 12 15 13 16 14
REMARK SMILES IDX 17 15 12 17 13 18 14 19
REMARK H PARENT
REMARK Flexibility Score: 70.00
ROOT
ATOM      1  C   UNL     1     -20.385  36.405  13.406  1.00  0.00     0.136 C 
ATOM      2  O   UNL     1     -21.517  36.793  13.151  1.00  0.00    -0.299 OA
ENDROOT
BRANCH   1   3
ATOM      3  C   UNL     1     -19.996  36.177  14.858  1.00  0.00     0.053 C 
ATOM      4  C   UNL     1     -21.207  35.626  15.621  1.00  0.00     0.016 C 
BRANCH   3   5
ATOM      5  C   UNL     1     -19.446  37.455  15.549  1.00  0.00     0.015 C 
BRANCH   5   6
ATOM      6  C   UNL     1     -17.940  37.446  15.882  1.00  0.00     0.028 C 
BRANCH   6   7
ATOM      7  C   UNL     1     -17.140  38.652  15.452  1.00  0.00    -0.028 C 
ATOM      8  C   UNL     1     -16.329  38.728  14.373  1.00  0.00    -0.070 CG0
ATOM      9  C   UNL     1     -15.851  40.099  13.961  1.00  0.00     0.039 C 
ATOM     10  G   UNL     1     -15.891  37.521  13.558  1.00  0.00     0.000 G0
ENDBRANCH   6   7
ENDBRANCH   5   6
ENDBRANCH   3   5
ENDBRANCH   1   3
BRANCH   1  11
ATOM     11  C   UNL     1     -19.373  36.299  12.283  1.00  0.00     0.087 C 
BRANCH  11  12
ATOM     12  C   UNL     1     -17.911  35.979  12.718  1.00  0.00     0.066 C 
BRANCH  12  13
ATOM     13  C   UNL     1     -16.938  37.132  12.511  1.00  0.00     0.140 C 
ATOM     14  O   UNL     1     -17.070  37.820  11.509  1.00  0.00    -0.299 OA
BRANCH  13  15
ATOM     15  C   UNL     1     -15.882  37.516  13.525  1.00  0.00     0.106 CG0
ATOM     16  G   UNL     1     -16.336  38.716  14.343  1.00  0.00     0.000 G0
ENDBRANCH  13  15
ENDBRANCH  12  13
BRANCH  12  17
ATOM     17  C   UNL     1     -17.381  34.668  12.058  1.00  0.00    -0.006 C 
ATOM     18  C   UNL     1     -18.199  34.292  10.809  1.00  0.00     0.008 C 
ATOM     19  C   UNL     1     -17.401  33.481  13.039  1.00  0.00     0.008 C 
ENDBRANCH  12  17
ENDBRANCH  11  12
ENDBRANCH   1  11
TORSDOF 1
ENDMDL
MODEL 2
REMARK VINA RESULT:    -4.774     16.048     18.359
REMARK INTER + INTRA:          -7.436
REMARK INTER:                  -7.680
REMARK INTRA:                   0.244
REMARK UNBOUND:                -0.151
REMARK SMILES CC1=CCC[C@@H](C)C(=O)C[C@@H](C(C)C)C(=O)C1
REMARK SMILES IDX 8 1 9 2 6 3 7 4 5 5 4 6 3 7 2 8 1 9 10 11 11 12 15 13 16 14
REMARK SMILES IDX 17 15 12 17 13 18 14 19
REMARK H PARENT
REMARK Flexibility Score: 70.00
ROOT
ATOM      1  C   UNL     1     -26.995  23.024  14.620  1.00  0.00     0.136 C 
ATOM      2  O   UNL     1     -26.027  23.233  15.337  1.00  0.00    -0.299 OA
ENDROOT
BRANCH   1   3
ATOM      3  C   UNL     1     -28.221  22.350  15.216  1.00  0.00     0.053 C 
ATOM      4  C   UNL     1     -28.070  22.295  16.742  1.00  0.00     0.016 C 
BRANCH   3   5
ATOM      5  C   UNL     1     -28.478  20.932  14.636  1.00  0.00     0.015 C 
BRANCH   5   6
ATOM      6  C   UNL     1     -29.957  20.538  14.449  1.00  0.00     0.028 C 
BRANCH   6   7
ATOM      7  C   UNL     1     -30.825  21.498  13.673  1.00  0.00    -0.028 C 
ATOM      8  C   UNL     1     -30.686  21.822  12.367  1.00  0.00    -0.070 CG0
ATOM      9  C   UNL     1     -31.823  22.571  11.715  1.00  0.00     0.039 C 
ATOM     10  G   UNL     1     -29.466  21.465  11.532  1.00  0.00     0.000 G0
ENDBRANCH   6   7
ENDBRANCH   5   6
ENDBRANCH   3   5
ENDBRANCH   1   3
BRANCH   1  11
ATOM     11  C   UNL     1     -26.890  23.318  13.137  1.00  0.00     0.087 C 
BRANCH  11  12
ATOM     12  C   UNL     1     -28.226  23.678  12.422  1.00  0.00     0.066 C 
BRANCH  12  13
ATOM     13  C   UNL     1     -28.609  22.716  11.305  1.00  0.00     0.140 C 
ATOM     14  O   UNL     1     -28.151  22.920  10.190  1.00  0.00    -0.299 OA
BRANCH  13  15
ATOM     15  C   UNL     1     -29.451  21.478  11.532  1.00  0.00     0.106 CG0
ATOM     16  G   UNL     1     -30.693  21.818  12.342  1.00  0.00     0.000 G0
ENDBRANCH  13  15
ENDBRANCH  12  13
BRANCH  12  17
ATOM     17  C   UNL     1     -28.238  25.157  11.920  1.00  0.00    -0.006 C 
ATOM     18  C   UNL     1     -27.818  26.135  13.032  1.00  0.00     0.008 C 
ATOM     19  C   UNL     1     -29.624  25.573  11.392  1.00  0.00     0.008 C 
ENDBRANCH  12  17
ENDBRANCH  11  12
ENDBRANCH   1  11
TORSDOF 1
ENDMDL
MODEL 3
REMARK VINA RESULT:    -4.678      1.908      3.917
REMARK INTER + INTRA:          -7.290
REMARK INTER:                  -7.508
REMARK INTRA:                   0.219
REMARK UNBOUND:                -0.151
REMARK SMILES CC1=CCC[C@@H](C)C(=O)C[C@@H](C(C)C)C(=O)C1
REMARK SMILES IDX 8 1 9 2 6 3 7 4 5 5 4 6 3 7 2 8 1 9 10 11 11 12 15 13 16 14
REMARK SMILES IDX 17 15 12 17 13 18 14 19
REMARK H PARENT
REMARK Flexibility Score: 70.00
ROOT
ATOM      1  C   UNL     1     -17.748  38.257  16.051  1.00  0.00     0.136 C 
ATOM      2  O   UNL     1     -18.209  38.016  17.158  1.00  0.00    -0.299 OA
ENDROOT
BRANCH   1   3
ATOM      3  C   UNL     1     -16.479  39.088  15.947  1.00  0.00     0.053 C 
ATOM      4  C   UNL     1     -16.460  40.116  17.086  1.00  0.00     0.016 C 
BRANCH   3   5
ATOM      5  C   UNL     1     -16.322  39.790  14.570  1.00  0.00     0.015 C 
BRANCH   5   6
ATOM      6  C   UNL     1     -15.438  39.061  13.539  1.00  0.00     0.028 C 
BRANCH   6   7
ATOM      7  C   UNL     1     -16.127  38.521  12.310  1.00  0.00    -0.028 C 
ATOM      8  C   UNL     1     -16.713  37.308  12.191  1.00  0.00    -0.070 CG0
ATOM      9  C   UNL     1     -17.591  37.078  10.985  1.00  0.00     0.039 C 
ATOM     10  G   UNL     1     -16.546  36.185  13.204  1.00  0.00     0.000 G0
ENDBRANCH   6   7
ENDBRANCH   5   6
ENDBRANCH   3   5
ENDBRANCH   1   3
BRANCH   1  11
ATOM     11  C   UNL     1     -18.529  37.837  14.821  1.00  0.00     0.087 C 
BRANCH  11  12
ATOM     12  C   UNL     1     -18.781  36.307  14.670  1.00  0.00     0.066 C 
BRANCH  12  13
ATOM     13  C   UNL     1     -17.896  35.634  13.629  1.00  0.00     0.140 C 
ATOM     14  O   UNL     1     -18.333  34.644  13.059  1.00  0.00    -0.299 OA
BRANCH  13  15
ATOM     15  C   UNL     1     -16.549  36.182  13.210  1.00  0.00     0.106 CG0
ATOM     16  G   UNL     1     -16.719  37.301  12.194  1.00  0.00     0.000 G0
ENDBRANCH  13  15
ENDBRANCH  12  13
BRANCH  12  17
ATOM     17  C   UNL     1     -20.289  35.989  14.418  1.00  0.00    -0.006 C 
ATOM     18  C   UNL     1     -20.979  37.109  13.619  1.00  0.00     0.008 C 
ATOM     19  C   UNL     1     -21.058  35.773  15.736  1.00  0.00     0.008 C 
ENDBRANCH  12  17
ENDBRANCH  11  12
ENDBRANCH   1  11
TORSDOF 1
ENDMDL
MODEL 4
REMARK VINA RESULT:    -4.533      1.683      3.746
REMARK INTER + INTRA:          -7.068
REMARK INTER:                  -6.736
REMARK INTRA:                  -0.332
REMARK UNBOUND:                -0.151
REMARK SMILES CC1=CCC[C@@H](C)C(=O)C[C@@H](C(C)C)C(=O)C1
REMARK SMILES IDX 8 1 9 2 6 3 7 4 5 5 4 6 3 7 2 8 1 9 10 11 11 12 15 13 16 14
REMARK SMILES IDX 17 15 12 17 13 18 14 19
REMARK H PARENT
REMARK Flexibility Score: 70.00
ROOT
ATOM      1  C   UNL     1     -18.148  35.200  12.330  1.00  0.00     0.136 C 
ATOM      2  O   UNL     1     -17.613  34.145  12.020  1.00  0.00    -0.299 OA
ENDROOT
BRANCH   1   3
ATOM      3  C   UNL     1     -18.201  36.325  11.308  1.00  0.00     0.053 C 
ATOM      4  C   UNL     1     -18.869  35.809  10.028  1.00  0.00     0.016 C 
BRANCH   3   5
ATOM      5  C   UNL     1     -16.804  36.929  10.996  1.00  0.00     0.015 C 
BRANCH   5   6
ATOM      6  C   UNL     1     -15.891  37.183  12.212  1.00  0.00     0.028 C 
BRANCH   6   7
ATOM      7  C   UNL     1     -16.037  38.515  12.907  1.00  0.00    -0.028 C 
ATOM      8  C   UNL     1     -16.321  38.704  14.216  1.00  0.00    -0.070 CG0
ATOM      9  C   UNL     1     -16.138  40.097  14.770  1.00  0.00     0.039 C 
ATOM     10  G   UNL     1     -16.798  37.600  15.147  1.00  0.00     0.000 G0
ENDBRANCH   6   7
ENDBRANCH   5   6
ENDBRANCH   3   5
ENDBRANCH   1   3
BRANCH   1  11
ATOM     11  C   UNL     1     -18.615  35.398  13.758  1.00  0.00     0.087 C 
BRANCH  11  12
ATOM     12  C   UNL     1     -19.121  36.828  14.112  1.00  0.00     0.066 C 
BRANCH  12  13
ATOM     13  C   UNL     1     -18.302  37.525  15.191  1.00  0.00     0.140 C 
ATOM     14  O   UNL     1     -18.898  37.982  16.156  1.00  0.00    -0.299 OA
BRANCH  13  15
ATOM     15  C   UNL     1     -16.791  37.596  15.166  1.00  0.00     0.106 CG0
ATOM     16  G   UNL     1     -16.323  38.697  14.227  1.00  0.00     0.000 G0
ENDBRANCH  13  15
ENDBRANCH  12  13
BRANCH  12  17
ATOM     17  C   UNL     1     -20.642  36.836  14.465  1.00  0.00    -0.006 C 
ATOM     18  C   UNL     1     -21.009  35.680  15.413  1.00  0.00     0.008 C 
ATOM     19  C   UNL     1     -21.524  36.743  13.205  1.00  0.00     0.008 C 
ENDBRANCH  12  17
ENDBRANCH  11  12
ENDBRANCH   1  11
TORSDOF 1
ENDMDL
MODEL 5
REMARK VINA RESULT:    -4.425      2.044      3.975
REMARK INTER + INTRA:          -6.903
REMARK INTER:                  -7.456
REMARK INTRA:                   0.553
REMARK UNBOUND:                -0.151
REMARK SMILES CC1=CCC[C@@H](C)C(=O)C[C@@H](C(C)C)C(=O)C1
REMARK SMILES IDX 8 1 9 2 6 3 7 4 5 5 4 6 3 7 2 8 1 9 10 11 11 12 15 13 16 14
REMARK SMILES IDX 17 15 12 17 13 18 14 19
REMARK H PARENT
REMARK Flexibility Score: 70.00
ROOT
ATOM      1  C   UNL     1     -15.857  37.723  12.727  1.00  0.00     0.136 C 
ATOM      2  O   UNL     1     -14.681  37.407  12.846  1.00  0.00    -0.299 OA
ENDROOT
BRANCH   1   3
ATOM      3  C   UNL     1     -16.458  38.706  13.719  1.00  0.00     0.053 C 
ATOM      4  C   UNL     1     -15.848  40.094  13.481  1.00  0.00     0.016 C 
BRANCH   3   5
ATOM      5  C   UNL     1     -16.272  38.270  15.198  1.00  0.00     0.015 C 
BRANCH   5   6
ATOM      6  C   UNL     1     -17.568  38.046  16.003  1.00  0.00     0.028 C 
BRANCH   6   7
ATOM      7  C   UNL     1     -18.861  38.040  15.225  1.00  0.00    -0.028 C 
ATOM      8  C   UNL     1     -19.479  36.952  14.712  1.00  0.00    -0.070 CG0
ATOM      9  C   UNL     1     -20.897  37.125  14.225  1.00  0.00     0.039 C 
ATOM     10  G   UNL     1     -18.831  35.579  14.616  1.00  0.00     0.000 G0
ENDBRANCH   6   7
ENDBRANCH   5   6
ENDBRANCH   3   5
ENDBRANCH   1   3
BRANCH   1  11
ATOM     11  C   UNL     1     -16.706  37.022  11.685  1.00  0.00     0.087 C 
BRANCH  11  12
ATOM     12  C   UNL     1     -18.069  36.460  12.190  1.00  0.00     0.066 C 
BRANCH  12  13
ATOM     13  C   UNL     1     -17.945  35.511  13.375  1.00  0.00     0.140 C 
ATOM     14  O   UNL     1     -17.029  34.701  13.367  1.00  0.00    -0.299 OA
BRANCH  13  15
ATOM     15  C   UNL     1     -18.843  35.584  14.591  1.00  0.00     0.106 CG0
ATOM     16  G   UNL     1     -19.482  36.960  14.702  1.00  0.00     0.000 G0
ENDBRANCH  13  15
ENDBRANCH  12  13
BRANCH  12  17
ATOM     17  C   UNL     1     -18.896  35.814  11.034  1.00  0.00    -0.006 C 
ATOM     18  C   UNL     1     -18.328  34.441  10.630  1.00  0.00     0.008 C 
ATOM     19  C   UNL     1     -18.944  36.718   9.788  1.00  0.00     0.008 C 
ENDBRANCH  12  17
ENDBRANCH  11  12
ENDBRANCH   1  11
TORSDOF 1
ENDMDL
MODEL 6
REMARK VINA RESULT:    -4.378      1.738      4.068
REMARK INTER + INTRA:          -6.832
REMARK INTER:                  -7.750
REMARK INTRA:                   0.917
REMARK UNBOUND:                -0.151
REMARK SMILES CC1=CCC[C@@H](C)C(=O)C[C@@H](C(C)C)C(=O)C1
REMARK SMILES IDX 8 1 9 2 6 3 7 4 5 5 4 6 3 7 2 8 1 9 10 11 11 12 15 13 16 14
REMARK SMILES IDX 17 15 12 17 13 18 14 19
REMARK H PARENT
REMARK Flexibility Score: 70.00
ROOT
ATOM      1  C   UNL     1     -18.882  35.912  13.678  1.00  0.00     0.136 C 
ATOM      2  O   UNL     1     -20.012  36.316  13.913  1.00  0.00    -0.299 OA
ENDROOT
BRANCH   1   3
ATOM      3  C   UNL     1     -18.696  34.808  12.648  1.00  0.00     0.053 C 
ATOM      4  C   UNL     1     -17.308  34.181  12.833  1.00  0.00     0.016 C 
BRANCH   3   5
ATOM      5  C   UNL     1     -18.887  35.300  11.187  1.00  0.00     0.015 C 
BRANCH   5   6
ATOM      6  C   UNL     1     -18.226  36.648  10.837  1.00  0.00     0.028 C 
BRANCH   6   7
ATOM      7  C   UNL     1     -16.742  36.764  11.085  1.00  0.00    -0.028 C 
ATOM      8  C   UNL     1     -16.137  37.652  11.907  1.00  0.00    -0.070 CG0
ATOM      9  C   UNL     1     -14.682  37.415  12.233  1.00  0.00     0.039 C 
ATOM     10  G   UNL     1     -16.842  38.853  12.520  1.00  0.00     0.000 G0
ENDBRANCH   6   7
ENDBRANCH   5   6
ENDBRANCH   3   5
ENDBRANCH   1   3
BRANCH   1  11
ATOM     11  C   UNL     1     -17.727  36.424  14.515  1.00  0.00     0.087 C 
BRANCH  11  12
ATOM     12  C   UNL     1     -17.765  37.943  14.862  1.00  0.00     0.066 C 
BRANCH  12  13
ATOM     13  C   UNL     1     -16.805  38.790  14.037  1.00  0.00     0.140 C 
ATOM     14  O   UNL     1     -15.914  39.383  14.627  1.00  0.00    -0.299 OA
BRANCH  13  15
ATOM     15  C   UNL     1     -16.851  38.857  12.526  1.00  0.00     0.106 CG0
ATOM     16  G   UNL     1     -16.153  37.652  11.914  1.00  0.00     0.000 G0
ENDBRANCH  13  15
ENDBRANCH  12  13
BRANCH  12  17
ATOM     17  C   UNL     1     -17.570  38.195  16.390  1.00  0.00    -0.006 C 
ATOM     18  C   UNL     1     -18.515  37.320  17.234  1.00  0.00     0.008 C 
ATOM     19  C   UNL     1     -17.799  39.673  16.762  1.00  0.00     0.008 C 
ENDBRANCH  12  17
ENDBRANCH  11  12
ENDBRANCH   1  11
TORSDOF 1
ENDMDL
MODEL 7
REMARK VINA RESULT:    -4.323     16.544     18.969
REMARK INTER + INTRA:          -6.748
REMARK INTER:                  -7.228
REMARK INTRA:                   0.480
REMARK UNBOUND:                -0.151
REMARK SMILES CC1=CCC[C@@H](C)C(=O)C[C@@H](C(C)C)C(=O)C1
REMARK SMILES IDX 8 1 9 2 6 3 7 4 5 5 4 6 3 7 2 8 1 9 10 11 11 12 15 13 16 14
REMARK SMILES IDX 17 15 12 17 13 18 14 19
REMARK H PARENT
REMARK Flexibility Score: 70.00
ROOT
ATOM      1  C   UNL     1     -27.001  23.339  13.613  1.00  0.00     0.136 C 
ATOM      2  O   UNL     1     -25.876  22.876  13.495  1.00  0.00    -0.299 OA
ENDROOT
BRANCH   1   3
ATOM      3  C   UNL     1     -27.469  24.395  12.623  1.00  0.00     0.053 C 
ATOM      4  C   UNL     1     -28.801  24.981  13.108  1.00  0.00     0.016 C 
BRANCH   3   5
ATOM      5  C   UNL     1     -27.602  23.853  11.173  1.00  0.00     0.015 C 
BRANCH   5   6
ATOM      6  C   UNL     1     -28.255  22.463  11.030  1.00  0.00     0.028 C 
BRANCH   6   7
ATOM      7  C   UNL     1     -29.763  22.416  11.016  1.00  0.00    -0.028 C 
ATOM      8  C   UNL     1     -30.549  21.754  11.896  1.00  0.00    -0.070 CG0
ATOM      9  C   UNL     1     -32.025  22.068  11.880  1.00  0.00     0.039 C 
ATOM     10  G   UNL     1     -30.026  20.733  12.894  1.00  0.00     0.000 G0
ENDBRANCH   6   7
ENDBRANCH   5   6
ENDBRANCH   3   5
ENDBRANCH   1   3
BRANCH   1  11
ATOM     11  C   UNL     1     -27.837  22.949  14.816  1.00  0.00     0.087 C 
BRANCH  11  12
ATOM     12  C   UNL     1     -28.369  21.485  14.823  1.00  0.00     0.066 C 
BRANCH  12  13
ATOM     13  C   UNL     1     -29.767  21.332  14.238  1.00  0.00     0.140 C 
ATOM     14  O   UNL     1     -30.705  21.799  14.868  1.00  0.00    -0.299 OA
BRANCH  13  15
ATOM     15  C   UNL     1     -30.034  20.712  12.883  1.00  0.00     0.106 CG0
ATOM     16  G   UNL     1     -30.558  21.758  11.911  1.00  0.00     0.000 G0
ENDBRANCH  13  15
ENDBRANCH  12  13
BRANCH  12  17
ATOM     17  C   UNL     1     -28.277  20.840  16.242  1.00  0.00    -0.006 C 
ATOM     18  C   UNL     1     -29.449  19.875  16.502  1.00  0.00     0.008 C 
ATOM     19  C   UNL     1     -28.255  21.904  17.356  1.00  0.00     0.008 C 
ENDBRANCH  12  17
ENDBRANCH  11  12
ENDBRANCH   1  11
TORSDOF 1
ENDMDL
MODEL 8
REMARK VINA RESULT:    -4.301      1.711      3.931
REMARK INTER + INTRA:          -6.715
REMARK INTER:                  -6.664
REMARK INTRA:                  -0.051
REMARK UNBOUND:                -0.151
REMARK SMILES CC1=CCC[C@@H](C)C(=O)C[C@@H](C(C)C)C(=O)C1
REMARK SMILES IDX 8 1 9 2 6 3 7 4 5 5 4 6 3 7 2 8 1 9 10 11 11 12 15 13 16 14
REMARK SMILES IDX 17 15 12 17 13 18 14 19
REMARK H PARENT
REMARK Flexibility Score: 70.00
ROOT
ATOM      1  C   UNL     1     -17.829  36.968  11.385  1.00  0.00     0.136 C 
ATOM      2  O   UNL     1     -18.493  37.081  10.364  1.00  0.00    -0.299 OA
ENDROOT
BRANCH   1   3
ATOM      3  C   UNL     1     -17.874  35.654  12.150  1.00  0.00     0.053 C 
ATOM      4  C   UNL     1     -17.375  34.526  11.239  1.00  0.00     0.016 C 
BRANCH   3   5
ATOM      5  C   UNL     1     -19.285  35.325  12.711  1.00  0.00     0.015 C 
BRANCH   5   6
ATOM      6  C   UNL     1     -19.895  36.376  13.661  1.00  0.00     0.028 C 
BRANCH   6   7
ATOM      7  C   UNL     1     -19.289  36.482  15.039  1.00  0.00    -0.028 C 
ATOM      8  C   UNL     1     -18.729  37.588  15.581  1.00  0.00    -0.070 CG0
ATOM      9  C   UNL     1     -18.446  37.565  17.064  1.00  0.00     0.039 C 
ATOM     10  G   UNL     1     -18.388  38.839  14.787  1.00  0.00     0.000 G0
ENDBRANCH   6   7
ENDBRANCH   5   6
ENDBRANCH   3   5
ENDBRANCH   1   3
BRANCH   1  11
ATOM     11  C   UNL     1     -17.096  38.180  11.925  1.00  0.00     0.087 C 
BRANCH  11  12
ATOM     12  C   UNL     1     -16.354  37.973  13.279  1.00  0.00     0.066 C 
BRANCH  12  13
ATOM     13  C   UNL     1     -16.903  38.820  14.420  1.00  0.00     0.140 C 
ATOM     14  O   UNL     1     -16.131  39.573  14.997  1.00  0.00    -0.299 OA
BRANCH  13  15
ATOM     15  C   UNL     1     -18.365  38.836  14.809  1.00  0.00     0.106 CG0
ATOM     16  G   UNL     1     -18.729  37.575  15.577  1.00  0.00     0.000 G0
ENDBRANCH  13  15
ENDBRANCH  12  13
BRANCH  12  17
ATOM     17  C   UNL     1     -14.810  38.159  13.131  1.00  0.00    -0.006 C 
ATOM     18  C   UNL     1     -14.455  39.571  12.630  1.00  0.00     0.008 C 
ATOM     19  C   UNL     1     -14.197  37.123  12.169  1.00  0.00     0.008 C 
ENDBRANCH  12  17
ENDBRANCH  11  12
ENDBRANCH   1  11
TORSDOF 1
ENDMDL
MODEL 9
REMARK VINA RESULT:    -4.245     16.218     18.458
REMARK INTER + INTRA:          -6.629
REMARK INTER:                  -6.758
REMARK INTRA:                   0.129
REMARK UNBOUND:                -0.151
REMARK SMILES CC1=CCC[C@@H](C)C(=O)C[C@@H](C(C)C)C(=O)C1
REMARK SMILES IDX 8 1 9 2 6 3 7 4 5 5 4 6 3 7 2 8 1 9 10 11 11 12 15 13 16 14
REMARK SMILES IDX 17 15 12 17 13 18 14 19
REMARK H PARENT
REMARK Flexibility Score: 70.00
ROOT
ATOM      1  C   UNL     1     -29.973  21.964  11.973  1.00  0.00     0.136 C 
ATOM      2  O   UNL     1     -29.288  21.675  11.002  1.00  0.00    -0.299 OA
ENDROOT
BRANCH   1   3
ATOM      3  C   UNL     1     -31.258  21.190  12.223  1.00  0.00     0.053 C 
ATOM      4  C   UNL     1     -32.430  22.177  12.304  1.00  0.00     0.016 C 
BRANCH   3   5
ATOM      5  C   UNL     1     -31.196  20.305  13.498  1.00  0.00     0.015 C 
BRANCH   5   6
ATOM      6  C   UNL     1     -29.784  19.985  14.029  1.00  0.00     0.028 C 
BRANCH   6   7
ATOM      7  C   UNL     1     -29.397  20.604  15.351  1.00  0.00    -0.028 C 
ATOM      8  C   UNL     1     -28.359  21.445  15.564  1.00  0.00    -0.070 CG0
ATOM      9  C   UNL     1     -28.318  22.172  16.886  1.00  0.00     0.039 C 
ATOM     10  G   UNL     1     -27.256  21.701  14.549  1.00  0.00     0.000 G0
ENDBRANCH   6   7
ENDBRANCH   5   6
ENDBRANCH   3   5
ENDBRANCH   1   3
BRANCH   1  11
ATOM     11  C   UNL     1     -29.592  23.169  12.810  1.00  0.00     0.087 C 
BRANCH  11  12
ATOM     12  C   UNL     1     -28.084  23.559  12.787  1.00  0.00     0.066 C 
BRANCH  12  13
ATOM     13  C   UNL     1     -27.321  23.153  14.041  1.00  0.00     0.140 C 
ATOM     14  O   UNL     1     -26.801  24.037  14.706  1.00  0.00    -0.299 OA
BRANCH  13  15
ATOM     15  C   UNL     1     -27.253  21.727  14.543  1.00  0.00     0.106 CG0
ATOM     16  G   UNL     1     -28.369  21.457  15.540  1.00  0.00     0.000 G0
ENDBRANCH  13  15
ENDBRANCH  12  13
BRANCH  12  17
ATOM     17  C   UNL     1     -27.880  25.074  12.468  1.00  0.00    -0.006 C 
ATOM     18  C   UNL     1     -29.124  25.902  12.835  1.00  0.00     0.008 C 
ATOM     19  C   UNL     1     -27.548  25.308  10.982  1.00  0.00     0.008 C 
ENDBRANCH  12  17
ENDBRANCH  11  12
ENDBRANCH   1  11
TORSDOF 1
ENDMDL
