MODEL 1
REMARK VINA RESULT:    -6.292      0.000      0.000
REMARK INTER + INTRA:          -7.885
REMARK INTER:                  -7.579
REMARK INTRA:                  -0.306
REMARK UNBOUND:                -0.306
REMARK SMILES O=c1c(O)c(-c2ccc(O)c(O)c2)oc2cc(O)cc(O)c12
REMARK SMILES IDX 5 1 3 2 2 3 1 4 22 5 20 6 19 7 17 8 16 9 15 10 14 11 6 12
REMARK SMILES IDX 7 13 8 14 9 15 13 16 11 17 10 18 12 20 4 22 21 24 18 26
REMARK H PARENT 10 19 12 21 4 23 21 25 18 27
REMARK Flexibility Score: inf
ROOT
ATOM      1  C   UNL     1      20.924  31.498  12.532  1.00  0.00     0.180 A 
ATOM      2  C   UNL     1      22.238  31.118  12.196  1.00  0.00     0.208 A 
ATOM      3  C   UNL     1      22.555  29.752  12.140  1.00  0.00     0.238 A 
ATOM      4  O   UNL     1      23.731  29.400  11.851  1.00  0.00    -0.285 OA
ATOM      5  C   UNL     1      21.554  28.792  12.397  1.00  0.00     0.111 A 
ATOM      6  C   UNL     1      21.791  27.397  12.357  1.00  0.00     0.134 A 
ATOM      7  C   UNL     1      20.739  26.505  12.617  1.00  0.00     0.093 A 
ATOM      8  C   UNL     1      19.460  26.980  12.916  1.00  0.00     0.123 A 
ATOM      9  C   UNL     1      19.220  28.358  12.958  1.00  0.00     0.094 A 
ATOM     10  C   UNL     1      20.256  29.262  12.703  1.00  0.00     0.146 A 
ATOM     11  O   UNL     1      20.003  30.565  12.754  1.00  0.00    -0.452 OA
ENDROOT
BRANCH   1  12
ATOM     12  C   UNL     1      20.517  32.919  12.631  1.00  0.00     0.025 A 
ATOM     13  C   UNL     1      20.433  33.572  13.873  1.00  0.00     0.016 A 
ATOM     14  C   UNL     1      20.023  34.905  13.942  1.00  0.00     0.051 A 
ATOM     15  C   UNL     1      19.678  35.601  12.777  1.00  0.00     0.157 A 
ATOM     16  C   UNL     1      20.149  33.614  11.467  1.00  0.00     0.062 A 
ATOM     17  C   UNL     1      19.738  34.951  11.534  1.00  0.00     0.158 A 
BRANCH  15  18
ATOM     18  O   UNL     1      19.270  36.933  12.850  1.00  0.00    -0.504 OA
ATOM     19  H   UNL     1      19.906  37.668  13.135  1.00  0.00     0.293 HD
ENDBRANCH  15  18
BRANCH  17  20
ATOM     20  O   UNL     1      19.394  35.612  10.355  1.00  0.00    -0.504 OA
ATOM     21  H   UNL     1      18.635  35.294   9.763  1.00  0.00     0.293 HD
ENDBRANCH  17  20
ENDBRANCH   1  12
BRANCH   2  22
ATOM     22  O   UNL     1      23.199  32.088  11.897  1.00  0.00    -0.502 OA
ATOM     23  H   UNL     1      23.469  32.805  12.558  1.00  0.00     0.293 HD
ENDBRANCH   2  22
BRANCH   6  24
ATOM     24  O   UNL     1      23.058  26.891  12.061  1.00  0.00    -0.507 OA
ATOM     25  H   UNL     1      23.865  27.496  11.969  1.00  0.00     0.293 HD
ENDBRANCH   6  24
BRANCH   8  26
ATOM     26  O   UNL     1      18.433  26.074  13.169  1.00  0.00    -0.508 OA
ATOM     27  H   UNL     1      18.505  25.387  13.911  1.00  0.00     0.293 HD
ENDBRANCH   8  26
TORSDOF 6
ENDMDL
MODEL 2
REMARK VINA RESULT:    -6.274      1.379      1.627
REMARK INTER + INTRA:          -7.863
REMARK INTER:                  -7.553
REMARK INTRA:                  -0.311
REMARK UNBOUND:                -0.306
REMARK SMILES O=c1c(O)c(-c2ccc(O)c(O)c2)oc2cc(O)cc(O)c12
REMARK SMILES IDX 5 1 3 2 2 3 1 4 22 5 20 6 19 7 17 8 16 9 15 10 14 11 6 12
REMARK SMILES IDX 7 13 8 14 9 15 13 16 11 17 10 18 12 20 4 22 21 24 18 26
REMARK H PARENT 10 19 12 21 4 23 21 25 18 27
REMARK Flexibility Score: inf
ROOT
ATOM      1  C   UNL     1      20.008  31.072  12.489  1.00  0.00     0.180 A 
ATOM      2  C   UNL     1      21.186  30.299  12.499  1.00  0.00     0.208 A 
ATOM      3  C   UNL     1      21.082  28.904  12.384  1.00  0.00     0.238 A 
ATOM      4  O   UNL     1      22.129  28.201  12.403  1.00  0.00    -0.285 OA
ATOM      5  C   UNL     1      19.812  28.309  12.240  1.00  0.00     0.111 A 
ATOM      6  C   UNL     1      19.622  26.911  12.114  1.00  0.00     0.134 A 
ATOM      7  C   UNL     1      18.325  26.396  11.967  1.00  0.00     0.093 A 
ATOM      8  C   UNL     1      17.218  27.248  11.941  1.00  0.00     0.123 A 
ATOM      9  C   UNL     1      17.400  28.630  12.066  1.00  0.00     0.094 A 
ATOM     10  C   UNL     1      18.684  29.162  12.216  1.00  0.00     0.146 A 
ATOM     11  O   UNL     1      18.829  30.477  12.337  1.00  0.00    -0.452 OA
ENDROOT
BRANCH   1  12
ATOM     12  C   UNL     1      20.034  32.546  12.624  1.00  0.00     0.025 A 
ATOM     13  C   UNL     1      20.181  33.164  13.879  1.00  0.00     0.016 A 
ATOM     14  C   UNL     1      20.178  34.557  13.984  1.00  0.00     0.051 A 
ATOM     15  C   UNL     1      20.014  35.353  12.843  1.00  0.00     0.157 A 
ATOM     16  C   UNL     1      19.848  33.348  11.486  1.00  0.00     0.062 A 
ATOM     17  C   UNL     1      19.845  34.744  11.589  1.00  0.00     0.158 A 
BRANCH  15  18
ATOM     18  O   UNL     1      20.013  36.743  12.952  1.00  0.00    -0.504 OA
ATOM     19  H   UNL     1      20.787  37.303  12.615  1.00  0.00     0.293 HD
ENDBRANCH  15  18
BRANCH  17  20
ATOM     20  O   UNL     1      19.671  35.507  10.434  1.00  0.00    -0.504 OA
ATOM     21  H   UNL     1      18.811  35.484   9.899  1.00  0.00     0.293 HD
ENDBRANCH  17  20
ENDBRANCH   1  12
BRANCH   2  22
ATOM     22  O   UNL     1      22.435  30.917  12.592  1.00  0.00    -0.502 OA
ATOM     23  H   UNL     1      23.289  30.394  12.744  1.00  0.00     0.293 HD
ENDBRANCH   2  22
BRANCH   6  24
ATOM     24  O   UNL     1      20.707  26.033  12.136  1.00  0.00    -0.507 OA
ATOM     25  H   UNL     1      21.563  26.257  12.628  1.00  0.00     0.293 HD
ENDBRANCH   6  24
BRANCH   8  26
ATOM     26  O   UNL     1      15.942  26.711  11.792  1.00  0.00    -0.508 OA
ATOM     27  H   UNL     1      15.772  25.907  11.200  1.00  0.00     0.293 HD
ENDBRANCH   8  26
TORSDOF 6
ENDMDL
MODEL 3
REMARK VINA RESULT:    -6.129      2.247      6.820
REMARK INTER + INTRA:          -7.688
REMARK INTER:                  -7.473
REMARK INTRA:                  -0.216
REMARK UNBOUND:                -0.306
REMARK SMILES O=c1c(O)c(-c2ccc(O)c(O)c2)oc2cc(O)cc(O)c12
REMARK SMILES IDX 5 1 3 2 2 3 1 4 22 5 20 6 19 7 17 8 16 9 15 10 14 11 6 12
REMARK SMILES IDX 7 13 8 14 9 15 13 16 11 17 10 18 12 20 4 22 21 24 18 26
REMARK H PARENT 10 19 12 21 4 23 21 25 18 27
REMARK Flexibility Score: inf
ROOT
ATOM      1  C   UNL     1      20.332  30.974  12.363  1.00  0.00     0.180 A 
ATOM      2  C   UNL     1      20.400  31.807  13.497  1.00  0.00     0.208 A 
ATOM      3  C   UNL     1      21.073  33.035  13.395  1.00  0.00     0.238 A 
ATOM      4  O   UNL     1      21.151  33.785  14.407  1.00  0.00    -0.285 OA
ATOM      5  C   UNL     1      21.643  33.419  12.163  1.00  0.00     0.111 A 
ATOM      6  C   UNL     1      22.332  34.641  11.976  1.00  0.00     0.134 A 
ATOM      7  C   UNL     1      22.865  34.954  10.716  1.00  0.00     0.093 A 
ATOM      8  C   UNL     1      22.720  34.072   9.643  1.00  0.00     0.123 A 
ATOM      9  C   UNL     1      22.040  32.862   9.822  1.00  0.00     0.094 A 
ATOM     10  C   UNL     1      21.505  32.532  11.070  1.00  0.00     0.146 A 
ATOM     11  O   UNL     1      20.868  31.375  11.215  1.00  0.00    -0.452 OA
ENDROOT
BRANCH   1  12
ATOM     12  C   UNL     1      19.657  29.656  12.396  1.00  0.00     0.025 A 
ATOM     13  C   UNL     1      18.426  29.447  11.749  1.00  0.00     0.016 A 
ATOM     14  C   UNL     1      17.798  28.201  11.814  1.00  0.00     0.051 A 
ATOM     15  C   UNL     1      18.379  27.152  12.537  1.00  0.00     0.157 A 
ATOM     16  C   UNL     1      20.226  28.608  13.137  1.00  0.00     0.062 A 
ATOM     17  C   UNL     1      19.598  27.358  13.204  1.00  0.00     0.158 A 
BRANCH  15  18
ATOM     18  O   UNL     1      17.749  25.910  12.600  1.00  0.00    -0.504 OA
ATOM     19  H   UNL     1      16.890  25.776  13.120  1.00  0.00     0.293 HD
ENDBRANCH  15  18
BRANCH  17  20
ATOM     20  O   UNL     1      20.200  26.337  13.939  1.00  0.00    -0.504 OA
ATOM     21  H   UNL     1      19.877  26.079  14.865  1.00  0.00     0.293 HD
ENDBRANCH  17  20
ENDBRANCH   1  12
BRANCH   2  22
ATOM     22  O   UNL     1      19.785  31.427  14.692  1.00  0.00    -0.502 OA
ATOM     23  H   UNL     1      19.901  31.949  15.551  1.00  0.00     0.293 HD
ENDBRANCH   2  22
BRANCH   6  24
ATOM     24  O   UNL     1      22.493  35.544  13.029  1.00  0.00    -0.507 OA
ATOM     25  H   UNL     1      22.741  35.236  13.961  1.00  0.00     0.293 HD
ENDBRANCH   6  24
BRANCH   8  26
ATOM     26  O   UNL     1      23.257  34.407   8.402  1.00  0.00    -0.508 OA
ATOM     27  H   UNL     1      24.049  35.035   8.320  1.00  0.00     0.293 HD
ENDBRANCH   8  26
TORSDOF 6
ENDMDL
MODEL 4
REMARK VINA RESULT:    -6.002      1.642      6.690
REMARK INTER + INTRA:          -7.536
REMARK INTER:                  -7.284
REMARK INTRA:                  -0.252
REMARK UNBOUND:                -0.306
REMARK SMILES O=c1c(O)c(-c2ccc(O)c(O)c2)oc2cc(O)cc(O)c12
REMARK SMILES IDX 5 1 3 2 2 3 1 4 22 5 20 6 19 7 17 8 16 9 15 10 14 11 6 12
REMARK SMILES IDX 7 13 8 14 9 15 13 16 11 17 10 18 12 20 4 22 21 24 18 26
REMARK H PARENT 10 19 12 21 4 23 21 25 18 27
REMARK Flexibility Score: inf
ROOT
ATOM      1  C   UNL     1      20.401  30.994  11.728  1.00  0.00     0.180 A 
ATOM      2  C   UNL     1      21.532  31.093  10.895  1.00  0.00     0.208 A 
ATOM      3  C   UNL     1      22.088  32.359  10.654  1.00  0.00     0.238 A 
ATOM      4  O   UNL     1      23.094  32.462   9.900  1.00  0.00    -0.285 OA
ATOM      5  C   UNL     1      21.520  33.497  11.264  1.00  0.00     0.111 A 
ATOM      6  C   UNL     1      22.023  34.807  11.077  1.00  0.00     0.134 A 
ATOM      7  C   UNL     1      21.407  35.888  11.726  1.00  0.00     0.093 A 
ATOM      8  C   UNL     1      20.303  35.685  12.557  1.00  0.00     0.123 A 
ATOM      9  C   UNL     1      19.802  34.392  12.745  1.00  0.00     0.094 A 
ATOM     10  C   UNL     1      20.401  33.303  12.105  1.00  0.00     0.146 A 
ATOM     11  O   UNL     1      19.902  32.087  12.297  1.00  0.00    -0.452 OA
ENDROOT
BRANCH   1  12
ATOM     12  C   UNL     1      19.746  29.697  12.014  1.00  0.00     0.025 A 
ATOM     13  C   UNL     1      18.500  29.365  11.452  1.00  0.00     0.016 A 
ATOM     14  C   UNL     1      17.892  28.146  11.756  1.00  0.00     0.051 A 
ATOM     15  C   UNL     1      18.509  27.246  12.635  1.00  0.00     0.157 A 
ATOM     16  C   UNL     1      20.351  28.801  12.911  1.00  0.00     0.062 A 
ATOM     17  C   UNL     1      19.742  27.578  13.217  1.00  0.00     0.158 A 
BRANCH  15  18
ATOM     18  O   UNL     1      17.898  26.029  12.936  1.00  0.00    -0.504 OA
ATOM     19  H   UNL     1      17.298  25.922  13.745  1.00  0.00     0.293 HD
ENDBRANCH  15  18
BRANCH  17  20
ATOM     20  O   UNL     1      20.380  26.709  14.103  1.00  0.00    -0.504 OA
ATOM     21  H   UNL     1      21.370  26.781  14.307  1.00  0.00     0.293 HD
ENDBRANCH  17  20
ENDBRANCH   1  12
BRANCH   2  22
ATOM     22  O   UNL     1      22.105  29.945  10.342  1.00  0.00    -0.502 OA
ATOM     23  H   UNL     1      21.619  29.366   9.668  1.00  0.00     0.293 HD
ENDBRANCH   2  22
BRANCH   6  24
ATOM     24  O   UNL     1      23.125  35.044  10.253  1.00  0.00    -0.507 OA
ATOM     25  H   UNL     1      23.940  35.545  10.585  1.00  0.00     0.293 HD
ENDBRANCH   6  24
BRANCH   8  26
ATOM     26  O   UNL     1      19.711  36.775  13.191  1.00  0.00    -0.508 OA
ATOM     27  H   UNL     1      18.814  37.139  12.890  1.00  0.00     0.293 HD
ENDBRANCH   8  26
TORSDOF 6
ENDMDL
MODEL 5
REMARK VINA RESULT:    -5.933      3.300      4.637
REMARK INTER + INTRA:          -7.452
REMARK INTER:                  -7.154
REMARK INTRA:                  -0.297
REMARK UNBOUND:                -0.306
REMARK SMILES O=c1c(O)c(-c2ccc(O)c(O)c2)oc2cc(O)cc(O)c12
REMARK SMILES IDX 5 1 3 2 2 3 1 4 22 5 20 6 19 7 17 8 16 9 15 10 14 11 6 12
REMARK SMILES IDX 7 13 8 14 9 15 13 16 11 17 10 18 12 20 4 22 21 24 18 26
REMARK H PARENT 10 19 12 21 4 23 21 25 18 27
REMARK Flexibility Score: inf
ROOT
ATOM      1  C   UNL     1      21.851  34.129  10.885  1.00  0.00     0.180 A 
ATOM      2  C   UNL     1      21.969  34.347  12.271  1.00  0.00     0.208 A 
ATOM      3  C   UNL     1      21.360  33.441  13.154  1.00  0.00     0.238 A 
ATOM      4  O   UNL     1      21.450  33.631  14.397  1.00  0.00    -0.285 OA
ATOM      5  C   UNL     1      20.665  32.327  12.640  1.00  0.00     0.111 A 
ATOM      6  C   UNL     1      20.029  31.365  13.461  1.00  0.00     0.134 A 
ATOM      7  C   UNL     1      19.363  30.279  12.872  1.00  0.00     0.093 A 
ATOM      8  C   UNL     1      19.324  30.135  11.483  1.00  0.00     0.123 A 
ATOM      9  C   UNL     1      19.951  31.082  10.667  1.00  0.00     0.094 A 
ATOM     10  C   UNL     1      20.617  32.172  11.235  1.00  0.00     0.146 A 
ATOM     11  O   UNL     1      21.200  33.060  10.437  1.00  0.00    -0.452 OA
ENDROOT
BRANCH   1  12
ATOM     12  C   UNL     1      22.448  35.050   9.891  1.00  0.00     0.025 A 
ATOM     13  C   UNL     1      23.693  34.779   9.296  1.00  0.00     0.016 A 
ATOM     14  C   UNL     1      24.248  35.674   8.379  1.00  0.00     0.051 A 
ATOM     15  C   UNL     1      23.576  36.860   8.053  1.00  0.00     0.157 A 
ATOM     16  C   UNL     1      21.789  36.250   9.576  1.00  0.00     0.062 A 
ATOM     17  C   UNL     1      22.343  37.149   8.658  1.00  0.00     0.158 A 
BRANCH  15  18
ATOM     18  O   UNL     1      24.133  37.751   7.136  1.00  0.00    -0.504 OA
ATOM     19  H   UNL     1      25.104  38.034   7.194  1.00  0.00     0.293 HD
ENDBRANCH  15  18
BRANCH  17  20
ATOM     20  O   UNL     1      21.651  38.324   8.361  1.00  0.00    -0.504 OA
ATOM     21  H   UNL     1      22.083  39.088   7.852  1.00  0.00     0.293 HD
ENDBRANCH  17  20
ENDBRANCH   1  12
BRANCH   2  22
ATOM     22  O   UNL     1      22.705  35.431  12.756  1.00  0.00    -0.502 OA
ATOM     23  H   UNL     1      23.291  35.364  13.580  1.00  0.00     0.293 HD
ENDBRANCH   2  22
BRANCH   6  24
ATOM     24  O   UNL     1      20.050  31.480  14.852  1.00  0.00    -0.507 OA
ATOM     25  H   UNL     1      19.611  32.259  15.328  1.00  0.00     0.293 HD
ENDBRANCH   6  24
BRANCH   8  26
ATOM     26  O   UNL     1      18.658  29.046  10.925  1.00  0.00    -0.508 OA
ATOM     27  H   UNL     1      18.942  28.652  10.036  1.00  0.00     0.293 HD
ENDBRANCH   8  26
TORSDOF 6
ENDMDL
MODEL 6
REMARK VINA RESULT:    -5.879      2.994      3.914
REMARK INTER + INTRA:          -7.388
REMARK INTER:                  -7.059
REMARK INTRA:                  -0.329
REMARK UNBOUND:                -0.306
REMARK SMILES O=c1c(O)c(-c2ccc(O)c(O)c2)oc2cc(O)cc(O)c12
REMARK SMILES IDX 5 1 3 2 2 3 1 4 22 5 20 6 19 7 17 8 16 9 15 10 14 11 6 12
REMARK SMILES IDX 7 13 8 14 9 15 13 16 11 17 10 18 12 20 4 22 21 24 18 26
REMARK H PARENT 10 19 12 21 4 23 21 25 18 27
REMARK Flexibility Score: inf
ROOT
ATOM      1  C   UNL     1      19.662  31.089  11.446  1.00  0.00     0.180 A 
ATOM      2  C   UNL     1      19.560  31.251  10.051  1.00  0.00     0.208 A 
ATOM      3  C   UNL     1      18.730  30.382   9.327  1.00  0.00     0.238 A 
ATOM      4  O   UNL     1      18.639  30.510   8.075  1.00  0.00    -0.285 OA
ATOM      5  C   UNL     1      18.002  29.383  10.007  1.00  0.00     0.111 A 
ATOM      6  C   UNL     1      17.141  28.471   9.352  1.00  0.00     0.134 A 
ATOM      7  C   UNL     1      16.445  27.510  10.101  1.00  0.00     0.093 A 
ATOM      8  C   UNL     1      16.592  27.445  11.489  1.00  0.00     0.123 A 
ATOM      9  C   UNL     1      17.442  28.345  12.142  1.00  0.00     0.094 A 
ATOM     10  C   UNL     1      18.145  29.307  11.412  1.00  0.00     0.146 A 
ATOM     11  O   UNL     1      18.950  30.145  12.056  1.00  0.00    -0.452 OA
ENDROOT
BRANCH   1  12
ATOM     12  C   UNL     1      20.531  31.954  12.277  1.00  0.00     0.025 A 
ATOM     13  C   UNL     1      21.855  31.588  12.579  1.00  0.00     0.016 A 
ATOM     14  C   UNL     1      22.647  32.409  13.384  1.00  0.00     0.051 A 
ATOM     15  C   UNL     1      22.127  33.597  13.912  1.00  0.00     0.157 A 
ATOM     16  C   UNL     1      20.007  33.135  12.826  1.00  0.00     0.062 A 
ATOM     17  C   UNL     1      20.800  33.960  13.634  1.00  0.00     0.158 A 
BRANCH  15  18
ATOM     18  O   UNL     1      22.922  34.414  14.715  1.00  0.00    -0.504 OA
ATOM     19  H   UNL     1      22.595  35.316  15.043  1.00  0.00     0.293 HD
ENDBRANCH  15  18
BRANCH  17  20
ATOM     20  O   UNL     1      20.248  35.133  14.149  1.00  0.00    -0.504 OA
ATOM     21  H   UNL     1      19.479  35.120  14.809  1.00  0.00     0.293 HD
ENDBRANCH  17  20
ENDBRANCH   1  12
BRANCH   2  22
ATOM     22  O   UNL     1      20.252  32.280   9.407  1.00  0.00    -0.502 OA
ATOM     23  H   UNL     1      21.251  32.240   9.241  1.00  0.00     0.293 HD
ENDBRANCH   2  22
BRANCH   6  24
ATOM     24  O   UNL     1      16.972  28.509   7.967  1.00  0.00    -0.507 OA
ATOM     25  H   UNL     1      17.527  29.120   7.379  1.00  0.00     0.293 HD
ENDBRANCH   6  24
BRANCH   8  26
ATOM     26  O   UNL     1      15.888  26.483  12.210  1.00  0.00    -0.508 OA
ATOM     27  H   UNL     1      15.617  25.602  11.790  1.00  0.00     0.293 HD
ENDBRANCH   8  26
TORSDOF 6
ENDMDL
MODEL 7
REMARK VINA RESULT:    -5.873      2.367      3.371
REMARK INTER + INTRA:          -7.380
REMARK INTER:                  -7.048
REMARK INTRA:                  -0.332
REMARK UNBOUND:                -0.306
REMARK SMILES O=c1c(O)c(-c2ccc(O)c(O)c2)oc2cc(O)cc(O)c12
REMARK SMILES IDX 5 1 3 2 2 3 1 4 22 5 20 6 19 7 17 8 16 9 15 10 14 11 6 12
REMARK SMILES IDX 7 13 8 14 9 15 13 16 11 17 10 18 12 20 4 22 21 24 18 26
REMARK H PARENT 10 19 12 21 4 23 21 25 18 27
REMARK Flexibility Score: inf
ROOT
ATOM      1  C   UNL     1      20.158  32.221  11.023  1.00  0.00     0.180 A 
ATOM      2  C   UNL     1      19.348  31.945   9.905  1.00  0.00     0.208 A 
ATOM      3  C   UNL     1      18.743  30.682   9.802  1.00  0.00     0.238 A 
ATOM      4  O   UNL     1      18.025  30.419   8.799  1.00  0.00    -0.285 OA
ATOM      5  C   UNL     1      18.938  29.730  10.823  1.00  0.00     0.111 A 
ATOM      6  C   UNL     1      18.361  28.438  10.798  1.00  0.00     0.134 A 
ATOM      7  C   UNL     1      18.596  27.549  11.858  1.00  0.00     0.093 A 
ATOM      8  C   UNL     1      19.394  27.927  12.940  1.00  0.00     0.123 A 
ATOM      9  C   UNL     1      19.968  29.202  12.971  1.00  0.00     0.094 A 
ATOM     10  C   UNL     1      19.747  30.101  11.923  1.00  0.00     0.146 A 
ATOM     11  O   UNL     1      20.308  31.304  11.974  1.00  0.00    -0.452 OA
ENDROOT
BRANCH   1  12
ATOM     12  C   UNL     1      20.846  33.522  11.194  1.00  0.00     0.025 A 
ATOM     13  C   UNL     1      22.127  33.749  10.661  1.00  0.00     0.016 A 
ATOM     14  C   UNL     1      22.765  34.975  10.856  1.00  0.00     0.051 A 
ATOM     15  C   UNL     1      22.141  35.988  11.596  1.00  0.00     0.157 A 
ATOM     16  C   UNL     1      20.233  34.532  11.953  1.00  0.00     0.062 A 
ATOM     17  C   UNL     1      20.871  35.763  12.150  1.00  0.00     0.158 A 
BRANCH  15  18
ATOM     18  O   UNL     1      22.781  37.212  11.788  1.00  0.00    -0.504 OA
ATOM     19  H   UNL     1      23.790  37.279  11.859  1.00  0.00     0.293 HD
ENDBRANCH  15  18
BRANCH  17  20
ATOM     20  O   UNL     1      20.225  36.747  12.898  1.00  0.00    -0.504 OA
ATOM     21  H   UNL     1      20.068  37.681  12.537  1.00  0.00     0.293 HD
ENDBRANCH  17  20
ENDBRANCH   1  12
BRANCH   2  22
ATOM     22  O   UNL     1      19.131  32.923   8.931  1.00  0.00    -0.502 OA
ATOM     23  H   UNL     1      18.351  33.567   8.975  1.00  0.00     0.293 HD
ENDBRANCH   2  22
BRANCH   6  24
ATOM     24  O   UNL     1      17.558  28.030   9.731  1.00  0.00    -0.507 OA
ATOM     25  H   UNL     1      17.621  28.467   8.819  1.00  0.00     0.293 HD
ENDBRANCH   6  24
BRANCH   8  26
ATOM     26  O   UNL     1      19.611  27.026  13.980  1.00  0.00    -0.508 OA
ATOM     27  H   UNL     1      20.519  26.937  14.422  1.00  0.00     0.293 HD
ENDBRANCH   8  26
TORSDOF 6
ENDMDL
MODEL 8
REMARK VINA RESULT:    -5.785      2.263      6.526
REMARK INTER + INTRA:          -7.274
REMARK INTER:                  -7.009
REMARK INTRA:                  -0.266
REMARK UNBOUND:                -0.306
REMARK SMILES O=c1c(O)c(-c2ccc(O)c(O)c2)oc2cc(O)cc(O)c12
REMARK SMILES IDX 5 1 3 2 2 3 1 4 22 5 20 6 19 7 17 8 16 9 15 10 14 11 6 12
REMARK SMILES IDX 7 13 8 14 9 15 13 16 11 17 10 18 12 20 4 22 21 24 18 26
REMARK H PARENT 10 19 12 21 4 23 21 25 18 27
REMARK Flexibility Score: inf
ROOT
ATOM      1  C   UNL     1      19.822  31.164  11.836  1.00  0.00     0.180 A 
ATOM      2  C   UNL     1      21.033  30.843  12.480  1.00  0.00     0.208 A 
ATOM      3  C   UNL     1      21.770  31.872  13.087  1.00  0.00     0.238 A 
ATOM      4  O   UNL     1      22.862  31.599  13.657  1.00  0.00    -0.285 OA
ATOM      5  C   UNL     1      21.277  33.193  13.061  1.00  0.00     0.111 A 
ATOM      6  C   UNL     1      21.956  34.285  13.654  1.00  0.00     0.134 A 
ATOM      7  C   UNL     1      21.395  35.569  13.592  1.00  0.00     0.093 A 
ATOM      8  C   UNL     1      20.171  35.783  12.953  1.00  0.00     0.123 A 
ATOM      9  C   UNL     1      19.496  34.707  12.365  1.00  0.00     0.094 A 
ATOM     10  C   UNL     1      20.040  33.420  12.415  1.00  0.00     0.146 A 
ATOM     11  O   UNL     1      19.381  32.418  11.844  1.00  0.00    -0.452 OA
ENDROOT
BRANCH   1  12
ATOM     12  C   UNL     1      18.997  30.138  11.156  1.00  0.00     0.025 A 
ATOM     13  C   UNL     1      18.942  30.055   9.754  1.00  0.00     0.016 A 
ATOM     14  C   UNL     1      18.139  29.095   9.136  1.00  0.00     0.051 A 
ATOM     15  C   UNL     1      17.368  28.214   9.905  1.00  0.00     0.157 A 
ATOM     16  C   UNL     1      18.208  29.267  11.924  1.00  0.00     0.062 A 
ATOM     17  C   UNL     1      17.401  28.304  11.306  1.00  0.00     0.158 A 
BRANCH  15  18
ATOM     18  O   UNL     1      16.568  27.256   9.284  1.00  0.00    -0.504 OA
ATOM     19  H   UNL     1      16.752  26.264   9.384  1.00  0.00     0.293 HD
ENDBRANCH  15  18
BRANCH  17  20
ATOM     20  O   UNL     1      16.641  27.447  12.103  1.00  0.00    -0.504 OA
ATOM     21  H   UNL     1      16.399  26.509  11.804  1.00  0.00     0.293 HD
ENDBRANCH  17  20
ENDBRANCH   1  12
BRANCH   2  22
ATOM     22  O   UNL     1      21.475  29.519  12.535  1.00  0.00    -0.502 OA
ATOM     23  H   UNL     1      22.426  29.255  12.306  1.00  0.00     0.293 HD
ENDBRANCH   2  22
BRANCH   6  24
ATOM     24  O   UNL     1      23.180  34.105  14.300  1.00  0.00    -0.507 OA
ATOM     25  H   UNL     1      23.503  33.188  14.584  1.00  0.00     0.293 HD
ENDBRANCH   6  24
BRANCH   8  26
ATOM     26  O   UNL     1      19.635  37.068  12.907  1.00  0.00    -0.508 OA
ATOM     27  H   UNL     1      19.101  37.390  12.109  1.00  0.00     0.293 HD
ENDBRANCH   8  26
TORSDOF 6
ENDMDL
MODEL 9
REMARK VINA RESULT:    -5.686      2.689      3.542
REMARK INTER + INTRA:          -7.155
REMARK INTER:                  -6.830
REMARK INTRA:                  -0.325
REMARK UNBOUND:                -0.306
REMARK SMILES O=c1c(O)c(-c2ccc(O)c(O)c2)oc2cc(O)cc(O)c12
REMARK SMILES IDX 5 1 3 2 2 3 1 4 22 5 20 6 19 7 17 8 16 9 15 10 14 11 6 12
REMARK SMILES IDX 7 13 8 14 9 15 13 16 11 17 10 18 12 20 4 22 21 24 18 26
REMARK H PARENT 10 19 12 21 4 23 21 25 18 27
REMARK Flexibility Score: inf
ROOT
ATOM      1  C   UNL     1      20.057  32.072  11.668  1.00  0.00     0.180 A 
ATOM      2  C   UNL     1      20.049  31.155  12.737  1.00  0.00     0.208 A 
ATOM      3  C   UNL     1      19.391  29.926  12.571  1.00  0.00     0.238 A 
ATOM      4  O   UNL     1      19.367  29.101  13.525  1.00  0.00    -0.285 OA
ATOM      5  C   UNL     1      18.772  29.627  11.339  1.00  0.00     0.111 A 
ATOM      6  C   UNL     1      18.093  28.411  11.089  1.00  0.00     0.134 A 
ATOM      7  C   UNL     1      17.510  28.185   9.832  1.00  0.00     0.093 A 
ATOM      8  C   UNL     1      17.595  29.148   8.824  1.00  0.00     0.123 A 
ATOM      9  C   UNL     1      18.265  30.352   9.066  1.00  0.00     0.094 A 
ATOM     10  C   UNL     1      18.850  30.596  10.312  1.00  0.00     0.146 A 
ATOM     11  O   UNL     1      19.476  31.750  10.517  1.00  0.00    -0.452 OA
ENDROOT
BRANCH   1  12
ATOM     12  C   UNL     1      20.713  33.396  11.773  1.00  0.00     0.025 A 
ATOM     13  C   UNL     1      22.064  33.572  11.426  1.00  0.00     0.016 A 
ATOM     14  C   UNL     1      22.668  34.825  11.555  1.00  0.00     0.051 A 
ATOM     15  C   UNL     1      21.938  35.915  12.047  1.00  0.00     0.157 A 
ATOM     16  C   UNL     1      19.992  34.486  12.285  1.00  0.00     0.062 A 
ATOM     17  C   UNL     1      20.595  35.743  12.416  1.00  0.00     0.158 A 
BRANCH  15  18
ATOM     18  O   UNL     1      22.544  37.164  12.175  1.00  0.00    -0.504 OA
ATOM     19  H   UNL     1      23.424  37.280  12.665  1.00  0.00     0.293 HD
ENDBRANCH  15  18
BRANCH  17  20
ATOM     20  O   UNL     1      19.841  36.805  12.917  1.00  0.00    -0.504 OA
ATOM     21  H   UNL     1      19.704  37.661  12.390  1.00  0.00     0.293 HD
ENDBRANCH  17  20
ENDBRANCH   1  12
BRANCH   2  22
ATOM     22  O   UNL     1      20.711  31.454  13.930  1.00  0.00    -0.502 OA
ATOM     23  H   UNL     1      20.878  30.759  14.647  1.00  0.00     0.293 HD
ENDBRANCH   2  22
BRANCH   6  24
ATOM     24  O   UNL     1      17.991  27.428  12.075  1.00  0.00    -0.507 OA
ATOM     25  H   UNL     1      17.257  26.730  12.058  1.00  0.00     0.293 HD
ENDBRANCH   6  24
BRANCH   8  26
ATOM     26  O   UNL     1      17.009  28.898   7.585  1.00  0.00    -0.508 OA
ATOM     27  H   UNL     1      16.131  28.398   7.506  1.00  0.00     0.293 HD
ENDBRANCH   8  26
TORSDOF 6
ENDMDL
