MODEL 1
REMARK VINA RESULT:    -5.932      0.000      0.000
REMARK INTER + INTRA:          -7.272
REMARK INTER:                  -6.973
REMARK INTRA:                  -0.299
REMARK UNBOUND:                -0.299
REMARK SMILES O=c1cc(-c2ccc(O)c(O)c2)oc2cc(O)cc(O)c12
REMARK SMILES IDX 4 1 3 2 2 3 1 4 21 5 19 6 18 7 16 8 15 9 14 10 13 11 5 12
REMARK SMILES IDX 6 13 7 14 8 15 12 16 10 17 9 18 11 20 20 22 17 24
REMARK H PARENT 9 19 11 21 20 23 17 25
REMARK Flexibility Score: inf
ROOT
ATOM      1  C   UNL     1     174.550 170.598 170.634  1.00  0.00     0.138 A 
ATOM      2  C   UNL     1     173.481 169.791 171.045  1.00  0.00     0.100 A 
ATOM      3  C   UNL     1     172.470 169.469 170.138  1.00  0.00     0.197 A 
ATOM      4  O   UNL     1     171.491 168.796 170.553  1.00  0.00    -0.289 OA
ATOM      5  C   UNL     1     172.549 169.933 168.803  1.00  0.00     0.107 A 
ATOM      6  C   UNL     1     171.599 169.634 167.781  1.00  0.00     0.134 A 
ATOM      7  C   UNL     1     171.720 170.245 166.527  1.00  0.00     0.093 A 
ATOM      8  C   UNL     1     172.791 171.096 166.239  1.00  0.00     0.123 A 
ATOM      9  C   UNL     1     173.753 171.351 167.213  1.00  0.00     0.094 A 
ATOM     10  C   UNL     1     173.642 170.785 168.485  1.00  0.00     0.146 A 
ATOM     11  O   UNL     1     174.573 171.066 169.390  1.00  0.00    -0.456 OA
ENDROOT
BRANCH   1  12
ATOM     12  C   UNL     1     175.652 170.969 171.557  1.00  0.00     0.021 A 
ATOM     13  C   UNL     1     176.188 170.048 172.478  1.00  0.00     0.016 A 
ATOM     14  C   UNL     1     177.232 170.423 173.328  1.00  0.00     0.051 A 
ATOM     15  C   UNL     1     177.764 171.717 173.269  1.00  0.00     0.157 A 
ATOM     16  C   UNL     1     176.202 172.263 171.495  1.00  0.00     0.062 A 
ATOM     17  C   UNL     1     177.247 172.640 172.347  1.00  0.00     0.158 A 
BRANCH  15  18
ATOM     18  O   UNL     1     178.804 172.087 174.120  1.00  0.00    -0.504 OA
ATOM     19  H   UNL     1     178.626 172.519 175.020  1.00  0.00     0.293 HD
ENDBRANCH  15  18
BRANCH  17  20
ATOM     20  O   UNL     1     177.756 173.935 172.260  1.00  0.00    -0.504 OA
ATOM     21  H   UNL     1     178.498 174.263 172.867  1.00  0.00     0.293 HD
ENDBRANCH  17  20
ENDBRANCH   1  12
BRANCH   6  22
ATOM     22  O   UNL     1     170.541 168.733 167.937  1.00  0.00    -0.507 OA
ATOM     23  H   UNL     1     170.634 167.791 168.281  1.00  0.00     0.293 HD
ENDBRANCH   6  22
BRANCH   8  24
ATOM     24  O   UNL     1     172.910 171.687 164.983  1.00  0.00    -0.508 OA
ATOM     25  H   UNL     1     172.102 172.039 164.483  1.00  0.00     0.293 HD
ENDBRANCH   8  24
TORSDOF 5
ENDMDL
MODEL 2
REMARK VINA RESULT:    -5.891      4.036      4.473
REMARK INTER + INTRA:          -7.224
REMARK INTER:                  -6.930
REMARK INTRA:                  -0.294
REMARK UNBOUND:                -0.299
REMARK SMILES O=c1cc(-c2ccc(O)c(O)c2)oc2cc(O)cc(O)c12
REMARK SMILES IDX 4 1 3 2 2 3 1 4 21 5 19 6 18 7 16 8 15 9 14 10 13 11 5 12
REMARK SMILES IDX 6 13 7 14 8 15 12 16 10 17 9 18 11 20 20 22 17 24
REMARK H PARENT 9 19 11 21 20 23 17 25
REMARK Flexibility Score: inf
ROOT
ATOM      1  C   UNL     1     174.353 169.911 172.854  1.00  0.00     0.138 A 
ATOM      2  C   UNL     1     174.326 168.511 172.922  1.00  0.00     0.100 A 
ATOM      3  C   UNL     1     173.102 167.849 173.028  1.00  0.00     0.197 A 
ATOM      4  O   UNL     1     173.112 166.597 173.151  1.00  0.00    -0.289 OA
ATOM      5  C   UNL     1     171.898 168.593 173.032  1.00  0.00     0.107 A 
ATOM      6  C   UNL     1     170.591 168.023 173.095  1.00  0.00     0.134 A 
ATOM      7  C   UNL     1     169.477 168.863 173.211  1.00  0.00     0.093 A 
ATOM      8  C   UNL     1     169.619 170.254 173.205  1.00  0.00     0.123 A 
ATOM      9  C   UNL     1     170.886 170.820 173.091  1.00  0.00     0.094 A 
ATOM     10  C   UNL     1     172.019 170.009 173.008  1.00  0.00     0.146 A 
ATOM     11  O   UNL     1     173.211 170.589 172.915  1.00  0.00    -0.456 OA
ENDROOT
BRANCH   1  12
ATOM     12  C   UNL     1     175.627 170.666 172.740  1.00  0.00     0.021 A 
ATOM     13  C   UNL     1     176.634 170.284 171.832  1.00  0.00     0.016 A 
ATOM     14  C   UNL     1     177.818 171.020 171.738  1.00  0.00     0.051 A 
ATOM     15  C   UNL     1     178.016 172.150 172.541  1.00  0.00     0.157 A 
ATOM     16  C   UNL     1     175.828 171.810 173.532  1.00  0.00     0.062 A 
ATOM     17  C   UNL     1     177.014 172.547 173.441  1.00  0.00     0.158 A 
BRANCH  15  18
ATOM     18  O   UNL     1     179.200 172.879 172.446  1.00  0.00    -0.504 OA
ATOM     19  H   UNL     1     179.579 173.383 173.240  1.00  0.00     0.293 HD
ENDBRANCH  15  18
BRANCH  17  20
ATOM     20  O   UNL     1     177.177 173.669 174.252  1.00  0.00    -0.504 OA
ATOM     21  H   UNL     1     177.347 174.591 173.867  1.00  0.00     0.293 HD
ENDBRANCH  17  20
ENDBRANCH   1  12
BRANCH   6  22
ATOM     22  O   UNL     1     170.333 166.651 173.022  1.00  0.00    -0.507 OA
ATOM     23  H   UNL     1     169.814 166.126 173.708  1.00  0.00     0.293 HD
ENDBRANCH   6  22
BRANCH   8  24
ATOM     24  O   UNL     1     168.503 171.081 173.306  1.00  0.00    -0.508 OA
ATOM     25  H   UNL     1     168.148 171.388 174.204  1.00  0.00     0.293 HD
ENDBRANCH   8  24
TORSDOF 5
ENDMDL
MODEL 3
REMARK VINA RESULT:    -5.854      4.216      4.910
REMARK INTER + INTRA:          -7.180
REMARK INTER:                  -6.889
REMARK INTRA:                  -0.291
REMARK UNBOUND:                -0.299
REMARK SMILES O=c1cc(-c2ccc(O)c(O)c2)oc2cc(O)cc(O)c12
REMARK SMILES IDX 4 1 3 2 2 3 1 4 21 5 19 6 18 7 16 8 15 9 14 10 13 11 5 12
REMARK SMILES IDX 6 13 7 14 8 15 12 16 10 17 9 18 11 20 20 22 17 24
REMARK H PARENT 9 19 11 21 20 23 17 25
REMARK Flexibility Score: inf
ROOT
ATOM      1  C   UNL     1     176.352 168.874 170.437  1.00  0.00     0.138 A 
ATOM      2  C   UNL     1     175.217 168.790 169.618  1.00  0.00     0.100 A 
ATOM      3  C   UNL     1     175.052 167.689 168.778  1.00  0.00     0.197 A 
ATOM      4  O   UNL     1     174.057 167.672 168.009  1.00  0.00    -0.289 OA
ATOM      5  C   UNL     1     176.014 166.651 168.781  1.00  0.00     0.107 A 
ATOM      6  C   UNL     1     175.930 165.462 167.997  1.00  0.00     0.134 A 
ATOM      7  C   UNL     1     177.000 164.560 167.996  1.00  0.00     0.093 A 
ATOM      8  C   UNL     1     178.125 164.772 168.798  1.00  0.00     0.123 A 
ATOM      9  C   UNL     1     178.193 165.903 169.608  1.00  0.00     0.094 A 
ATOM     10  C   UNL     1     177.157 166.840 169.605  1.00  0.00     0.146 A 
ATOM     11  O   UNL     1     177.268 167.913 170.381  1.00  0.00    -0.456 OA
ENDROOT
BRANCH   1  12
ATOM     12  C   UNL     1     176.577 170.023 171.351  1.00  0.00     0.021 A 
ATOM     13  C   UNL     1     175.569 170.486 172.219  1.00  0.00     0.016 A 
ATOM     14  C   UNL     1     175.812 171.562 173.076  1.00  0.00     0.051 A 
ATOM     15  C   UNL     1     177.064 172.190 173.087  1.00  0.00     0.157 A 
ATOM     16  C   UNL     1     177.835 170.651 171.378  1.00  0.00     0.062 A 
ATOM     17  C   UNL     1     178.080 171.731 172.235  1.00  0.00     0.158 A 
BRANCH  15  18
ATOM     18  O   UNL     1     177.301 173.266 173.942  1.00  0.00    -0.504 OA
ATOM     19  H   UNL     1     177.967 173.202 174.703  1.00  0.00     0.293 HD
ENDBRANCH  15  18
BRANCH  17  20
ATOM     20  O   UNL     1     179.338 172.331 172.224  1.00  0.00    -0.504 OA
ATOM     21  H   UNL     1     179.476 173.296 172.500  1.00  0.00     0.293 HD
ENDBRANCH  17  20
ENDBRANCH   1  12
BRANCH   6  22
ATOM     22  O   UNL     1     174.817 165.112 167.227  1.00  0.00    -0.507 OA
ATOM     23  H   UNL     1     173.862 165.146 167.547  1.00  0.00     0.293 HD
ENDBRANCH   6  22
BRANCH   8  24
ATOM     24  O   UNL     1     179.178 163.860 168.801  1.00  0.00    -0.508 OA
ATOM     25  H   UNL     1     179.273 163.161 169.528  1.00  0.00     0.293 HD
ENDBRANCH   8  24
TORSDOF 5
ENDMDL
MODEL 4
REMARK VINA RESULT:    -5.681      3.394      5.198
REMARK INTER + INTRA:          -6.977
REMARK INTER:                  -6.714
REMARK INTRA:                  -0.263
REMARK UNBOUND:                -0.299
REMARK SMILES O=c1cc(-c2ccc(O)c(O)c2)oc2cc(O)cc(O)c12
REMARK SMILES IDX 4 1 3 2 2 3 1 4 21 5 19 6 18 7 16 8 15 9 14 10 13 11 5 12
REMARK SMILES IDX 6 13 7 14 8 15 12 16 10 17 9 18 11 20 20 22 17 24
REMARK H PARENT 9 19 11 21 20 23 17 25
REMARK Flexibility Score: inf
ROOT
ATOM      1  C   UNL     1     174.318 169.874 172.739  1.00  0.00     0.138 A 
ATOM      2  C   UNL     1     173.185 170.242 172.000  1.00  0.00     0.100 A 
ATOM      3  C   UNL     1     172.009 169.501 172.126  1.00  0.00     0.197 A 
ATOM      4  O   UNL     1     171.029 169.816 171.403  1.00  0.00    -0.289 OA
ATOM      5  C   UNL     1     171.960 168.407 173.021  1.00  0.00     0.107 A 
ATOM      6  C   UNL     1     170.804 167.605 173.262  1.00  0.00     0.134 A 
ATOM      7  C   UNL     1     170.906 166.476 174.083  1.00  0.00     0.093 A 
ATOM      8  C   UNL     1     172.108 166.154 174.721  1.00  0.00     0.123 A 
ATOM      9  C   UNL     1     173.227 166.960 174.535  1.00  0.00     0.094 A 
ATOM     10  C   UNL     1     173.167 168.074 173.694  1.00  0.00     0.146 A 
ATOM     11  O   UNL     1     174.262 168.809 173.532  1.00  0.00    -0.456 OA
ENDROOT
BRANCH   1  12
ATOM     12  C   UNL     1     175.594 170.628 172.645  1.00  0.00     0.021 A 
ATOM     13  C   UNL     1     176.611 170.251 171.745  1.00  0.00     0.016 A 
ATOM     14  C   UNL     1     177.797 170.986 171.670  1.00  0.00     0.051 A 
ATOM     15  C   UNL     1     177.988 172.110 172.484  1.00  0.00     0.157 A 
ATOM     16  C   UNL     1     175.788 171.766 173.448  1.00  0.00     0.062 A 
ATOM     17  C   UNL     1     176.977 172.502 173.376  1.00  0.00     0.158 A 
BRANCH  15  18
ATOM     18  O   UNL     1     179.174 172.838 172.407  1.00  0.00    -0.504 OA
ATOM     19  H   UNL     1     180.066 172.427 172.656  1.00  0.00     0.293 HD
ENDBRANCH  15  18
BRANCH  17  20
ATOM     20  O   UNL     1     177.133 173.618 174.197  1.00  0.00    -0.504 OA
ATOM     21  H   UNL     1     177.331 173.533 175.186  1.00  0.00     0.293 HD
ENDBRANCH  17  20
ENDBRANCH   1  12
BRANCH   6  22
ATOM     22  O   UNL     1     169.536 167.886 172.743  1.00  0.00    -0.507 OA
ATOM     23  H   UNL     1     168.860 167.192 172.468  1.00  0.00     0.293 HD
ENDBRANCH   6  22
BRANCH   8  24
ATOM     24  O   UNL     1     172.195 165.036 175.548  1.00  0.00    -0.508 OA
ATOM     25  H   UNL     1     171.413 164.734 176.117  1.00  0.00     0.293 HD
ENDBRANCH   8  24
TORSDOF 5
ENDMDL
MODEL 5
REMARK VINA RESULT:    -5.655      3.349      6.867
REMARK INTER + INTRA:          -6.946
REMARK INTER:                  -6.652
REMARK INTRA:                  -0.294
REMARK UNBOUND:                -0.299
REMARK SMILES O=c1cc(-c2ccc(O)c(O)c2)oc2cc(O)cc(O)c12
REMARK SMILES IDX 4 1 3 2 2 3 1 4 21 5 19 6 18 7 16 8 15 9 14 10 13 11 5 12
REMARK SMILES IDX 6 13 7 14 8 15 12 16 10 17 9 18 11 20 20 22 17 24
REMARK H PARENT 9 19 11 21 20 23 17 25
REMARK Flexibility Score: inf
ROOT
ATOM      1  C   UNL     1     173.613 169.887 172.241  1.00  0.00     0.138 A 
ATOM      2  C   UNL     1     174.242 169.296 171.136  1.00  0.00     0.100 A 
ATOM      3  C   UNL     1     175.568 169.617 170.844  1.00  0.00     0.197 A 
ATOM      4  O   UNL     1     176.086 169.120 169.810  1.00  0.00    -0.289 OA
ATOM      5  C   UNL     1     176.277 170.510 171.682  1.00  0.00     0.107 A 
ATOM      6  C   UNL     1     177.644 170.879 171.505  1.00  0.00     0.134 A 
ATOM      7  C   UNL     1     178.205 171.862 172.329  1.00  0.00     0.093 A 
ATOM      8  C   UNL     1     177.467 172.445 173.363  1.00  0.00     0.123 A 
ATOM      9  C   UNL     1     176.148 172.053 173.577  1.00  0.00     0.094 A 
ATOM     10  C   UNL     1     175.549 171.100 172.751  1.00  0.00     0.146 A 
ATOM     11  O   UNL     1     174.284 170.765 172.980  1.00  0.00    -0.456 OA
ENDROOT
BRANCH   1  12
ATOM     12  C   UNL     1     172.205 169.580 172.597  1.00  0.00     0.021 A 
ATOM     13  C   UNL     1     171.717 168.259 172.617  1.00  0.00     0.016 A 
ATOM     14  C   UNL     1     170.390 167.999 172.967  1.00  0.00     0.051 A 
ATOM     15  C   UNL     1     169.529 169.049 173.310  1.00  0.00     0.157 A 
ATOM     16  C   UNL     1     171.337 170.628 172.957  1.00  0.00     0.062 A 
ATOM     17  C   UNL     1     170.006 170.370 173.306  1.00  0.00     0.158 A 
BRANCH  15  18
ATOM     18  O   UNL     1     168.205 168.786 173.657  1.00  0.00    -0.504 OA
ATOM     19  H   UNL     1     167.447 168.921 172.998  1.00  0.00     0.293 HD
ENDBRANCH  15  18
BRANCH  17  20
ATOM     20  O   UNL     1     169.177 171.437 173.647  1.00  0.00    -0.504 OA
ATOM     21  H   UNL     1     169.128 171.800 174.591  1.00  0.00     0.293 HD
ENDBRANCH  17  20
ENDBRANCH   1  12
BRANCH   6  22
ATOM     22  O   UNL     1     178.494 170.298 170.559  1.00  0.00    -0.507 OA
ATOM     23  H   UNL     1     178.215 170.011 169.634  1.00  0.00     0.293 HD
ENDBRANCH   6  22
BRANCH   8  24
ATOM     24  O   UNL     1     178.040 173.411 174.187  1.00  0.00    -0.508 OA
ATOM     25  H   UNL     1     179.040 173.570 174.204  1.00  0.00     0.293 HD
ENDBRANCH   8  24
TORSDOF 5
ENDMDL
MODEL 6
REMARK VINA RESULT:    -5.635      3.876      6.802
REMARK INTER + INTRA:          -6.922
REMARK INTER:                  -6.620
REMARK INTRA:                  -0.302
REMARK UNBOUND:                -0.299
REMARK SMILES O=c1cc(-c2ccc(O)c(O)c2)oc2cc(O)cc(O)c12
REMARK SMILES IDX 4 1 3 2 2 3 1 4 21 5 19 6 18 7 16 8 15 9 14 10 13 11 5 12
REMARK SMILES IDX 6 13 7 14 8 15 12 16 10 17 9 18 11 20 20 22 17 24
REMARK H PARENT 9 19 11 21 20 23 17 25
REMARK Flexibility Score: inf
ROOT
ATOM      1  C   UNL     1     175.980 168.491 170.839  1.00  0.00     0.138 A 
ATOM      2  C   UNL     1     174.863 168.578 171.683  1.00  0.00     0.100 A 
ATOM      3  C   UNL     1     174.772 169.624 172.602  1.00  0.00     0.197 A 
ATOM      4  O   UNL     1     173.790 169.640 173.388  1.00  0.00    -0.289 OA
ATOM      5  C   UNL     1     175.790 170.605 172.653  1.00  0.00     0.107 A 
ATOM      6  C   UNL     1     175.784 171.738 173.521  1.00  0.00     0.134 A 
ATOM      7  C   UNL     1     176.902 172.578 173.566  1.00  0.00     0.093 A 
ATOM      8  C   UNL     1     178.001 172.363 172.730  1.00  0.00     0.123 A 
ATOM      9  C   UNL     1     177.995 171.291 171.842  1.00  0.00     0.094 A 
ATOM     10  C   UNL     1     176.909 170.414 171.798  1.00  0.00     0.146 A 
ATOM     11  O   UNL     1     176.949 169.395 170.946  1.00  0.00    -0.456 OA
ENDROOT
BRANCH   1  12
ATOM     12  C   UNL     1     176.127 167.400 169.843  1.00  0.00     0.021 A 
ATOM     13  C   UNL     1     175.019 166.883 169.143  1.00  0.00     0.016 A 
ATOM     14  C   UNL     1     175.189 165.863 168.203  1.00  0.00     0.051 A 
ATOM     15  C   UNL     1     176.464 165.347 167.939  1.00  0.00     0.157 A 
ATOM     16  C   UNL     1     177.406 166.885 169.562  1.00  0.00     0.062 A 
ATOM     17  C   UNL     1     177.577 165.863 168.621  1.00  0.00     0.158 A 
BRANCH  15  18
ATOM     18  O   UNL     1     176.628 164.329 167.002  1.00  0.00    -0.504 OA
ATOM     19  H   UNL     1     177.544 163.962 166.771  1.00  0.00     0.293 HD
ENDBRANCH  15  18
BRANCH  17  20
ATOM     20  O   UNL     1     178.860 165.375 168.380  1.00  0.00    -0.504 OA
ATOM     21  H   UNL     1     179.184 164.499 168.771  1.00  0.00     0.293 HD
ENDBRANCH  17  20
ENDBRANCH   1  12
BRANCH   6  22
ATOM     22  O   UNL     1     174.703 172.093 174.335  1.00  0.00    -0.507 OA
ATOM     23  H   UNL     1     173.833 171.586 174.390  1.00  0.00     0.293 HD
ENDBRANCH   6  22
BRANCH   8  24
ATOM     24  O   UNL     1     179.103 173.214 172.772  1.00  0.00    -0.508 OA
ATOM     25  H   UNL     1     179.894 173.091 172.151  1.00  0.00     0.293 HD
ENDBRANCH   8  24
TORSDOF 5
ENDMDL
MODEL 7
REMARK VINA RESULT:    -5.581      4.102      6.222
REMARK INTER + INTRA:          -6.860
REMARK INTER:                  -6.577
REMARK INTRA:                  -0.282
REMARK UNBOUND:                -0.299
REMARK SMILES O=c1cc(-c2ccc(O)c(O)c2)oc2cc(O)cc(O)c12
REMARK SMILES IDX 4 1 3 2 2 3 1 4 21 5 19 6 18 7 16 8 15 9 14 10 13 11 5 12
REMARK SMILES IDX 6 13 7 14 8 15 12 16 10 17 9 18 11 20 20 22 17 24
REMARK H PARENT 9 19 11 21 20 23 17 25
REMARK Flexibility Score: inf
ROOT
ATOM      1  C   UNL     1     175.855 168.608 172.462  1.00  0.00     0.138 A 
ATOM      2  C   UNL     1     175.856 167.774 171.336  1.00  0.00     0.100 A 
ATOM      3  C   UNL     1     175.406 166.459 171.450  1.00  0.00     0.197 A 
ATOM      4  O   UNL     1     175.479 165.715 170.438  1.00  0.00    -0.289 OA
ATOM      5  C   UNL     1     174.921 165.987 172.693  1.00  0.00     0.107 A 
ATOM      6  C   UNL     1     174.399 164.678 172.918  1.00  0.00     0.134 A 
ATOM      7  C   UNL     1     174.057 164.286 174.218  1.00  0.00     0.093 A 
ATOM      8  C   UNL     1     174.160 165.176 175.291  1.00  0.00     0.123 A 
ATOM      9  C   UNL     1     174.618 166.473 175.073  1.00  0.00     0.094 A 
ATOM     10  C   UNL     1     175.000 166.883 173.794  1.00  0.00     0.146 A 
ATOM     11  O   UNL     1     175.446 168.124 173.631  1.00  0.00    -0.456 OA
ENDROOT
BRANCH   1  12
ATOM     12  C   UNL     1     176.322 170.016 172.396  1.00  0.00     0.021 A 
ATOM     13  C   UNL     1     175.744 170.947 171.512  1.00  0.00     0.016 A 
ATOM     14  C   UNL     1     176.197 172.269 171.479  1.00  0.00     0.051 A 
ATOM     15  C   UNL     1     177.227 172.686 172.330  1.00  0.00     0.157 A 
ATOM     16  C   UNL     1     177.347 170.448 173.258  1.00  0.00     0.062 A 
ATOM     17  C   UNL     1     177.804 171.770 173.225  1.00  0.00     0.158 A 
BRANCH  15  18
ATOM     18  O   UNL     1     177.677 174.005 172.292  1.00  0.00    -0.504 OA
ATOM     19  H   UNL     1     177.890 174.518 173.140  1.00  0.00     0.293 HD
ENDBRANCH  15  18
BRANCH  17  20
ATOM     20  O   UNL     1     178.829 172.154 174.088  1.00  0.00    -0.504 OA
ATOM     21  H   UNL     1     178.701 172.189 175.092  1.00  0.00     0.293 HD
ENDBRANCH  17  20
ENDBRANCH   1  12
BRANCH   6  22
ATOM     22  O   UNL     1     174.176 163.741 171.905  1.00  0.00    -0.507 OA
ATOM     23  H   UNL     1     173.781 163.953 171.002  1.00  0.00     0.293 HD
ENDBRANCH   6  22
BRANCH   8  24
ATOM     24  O   UNL     1     173.803 164.781 176.578  1.00  0.00    -0.508 OA
ATOM     25  H   UNL     1     173.370 163.882 176.757  1.00  0.00     0.293 HD
ENDBRANCH   8  24
TORSDOF 5
ENDMDL
MODEL 8
REMARK VINA RESULT:    -5.547      3.011      3.128
REMARK INTER + INTRA:          -6.819
REMARK INTER:                  -6.556
REMARK INTRA:                  -0.263
REMARK UNBOUND:                -0.299
REMARK SMILES O=c1cc(-c2ccc(O)c(O)c2)oc2cc(O)cc(O)c12
REMARK SMILES IDX 4 1 3 2 2 3 1 4 21 5 19 6 18 7 16 8 15 9 14 10 13 11 5 12
REMARK SMILES IDX 6 13 7 14 8 15 12 16 10 17 9 18 11 20 20 22 17 24
REMARK H PARENT 9 19 11 21 20 23 17 25
REMARK Flexibility Score: inf
ROOT
ATOM      1  C   UNL     1     175.999 169.161 170.496  1.00  0.00     0.138 A 
ATOM      2  C   UNL     1     176.239 167.806 170.765  1.00  0.00     0.100 A 
ATOM      3  C   UNL     1     175.817 166.837 169.854  1.00  0.00     0.197 A 
ATOM      4  O   UNL     1     175.990 165.627 170.152  1.00  0.00    -0.289 OA
ATOM      5  C   UNL     1     175.179 167.229 168.654  1.00  0.00     0.107 A 
ATOM      6  C   UNL     1     174.743 166.332 167.634  1.00  0.00     0.134 A 
ATOM      7  C   UNL     1     174.019 166.827 166.543  1.00  0.00     0.093 A 
ATOM      8  C   UNL     1     173.769 168.195 166.404  1.00  0.00     0.123 A 
ATOM      9  C   UNL     1     174.238 169.085 167.366  1.00  0.00     0.094 A 
ATOM     10  C   UNL     1     174.933 168.619 168.484  1.00  0.00     0.146 A 
ATOM     11  O   UNL     1     175.349 169.500 169.387  1.00  0.00    -0.456 OA
ENDROOT
BRANCH   1  12
ATOM     12  C   UNL     1     176.428 170.233 171.429  1.00  0.00     0.021 A 
ATOM     13  C   UNL     1     175.553 170.768 172.394  1.00  0.00     0.016 A 
ATOM     14  C   UNL     1     175.987 171.769 173.267  1.00  0.00     0.051 A 
ATOM     15  C   UNL     1     177.301 172.249 173.197  1.00  0.00     0.157 A 
ATOM     16  C   UNL     1     177.750 170.711 171.375  1.00  0.00     0.062 A 
ATOM     17  C   UNL     1     178.186 171.716 172.247  1.00  0.00     0.158 A 
BRANCH  15  18
ATOM     18  O   UNL     1     177.729 173.250 174.067  1.00  0.00    -0.504 OA
ATOM     19  H   UNL     1     177.091 173.952 174.424  1.00  0.00     0.293 HD
ENDBRANCH  15  18
BRANCH  17  20
ATOM     20  O   UNL     1     179.502 172.168 172.153  1.00  0.00    -0.504 OA
ATOM     21  H   UNL     1     179.725 173.123 171.898  1.00  0.00     0.293 HD
ENDBRANCH  17  20
ENDBRANCH   1  12
BRANCH   6  22
ATOM     22  O   UNL     1     175.013 164.960 167.633  1.00  0.00    -0.507 OA
ATOM     23  H   UNL     1     174.729 164.316 168.355  1.00  0.00     0.293 HD
ENDBRANCH   6  22
BRANCH   8  24
ATOM     24  O   UNL     1     173.061 168.679 165.306  1.00  0.00    -0.508 OA
ATOM     25  H   UNL     1     173.436 169.409 164.711  1.00  0.00     0.293 HD
ENDBRANCH   8  24
TORSDOF 5
ENDMDL
MODEL 9
REMARK VINA RESULT:    -5.423      4.022      5.337
REMARK INTER + INTRA:          -6.674
REMARK INTER:                  -6.411
REMARK INTRA:                  -0.263
REMARK UNBOUND:                -0.299
REMARK SMILES O=c1cc(-c2ccc(O)c(O)c2)oc2cc(O)cc(O)c12
REMARK SMILES IDX 4 1 3 2 2 3 1 4 21 5 19 6 18 7 16 8 15 9 14 10 13 11 5 12
REMARK SMILES IDX 6 13 7 14 8 15 12 16 10 17 9 18 11 20 20 22 17 24
REMARK H PARENT 9 19 11 21 20 23 17 25
REMARK Flexibility Score: inf
ROOT
ATOM      1  C   UNL     1     175.718 168.699 172.373  1.00  0.00     0.138 A 
ATOM      2  C   UNL     1     174.644 168.334 173.196  1.00  0.00     0.100 A 
ATOM      3  C   UNL     1     174.190 167.014 173.194  1.00  0.00     0.197 A 
ATOM      4  O   UNL     1     173.185 166.730 173.896  1.00  0.00    -0.289 OA
ATOM      5  C   UNL     1     174.838 166.049 172.387  1.00  0.00     0.107 A 
ATOM      6  C   UNL     1     174.489 164.666 172.336  1.00  0.00     0.134 A 
ATOM      7  C   UNL     1     175.125 163.828 171.412  1.00  0.00     0.093 A 
ATOM      8  C   UNL     1     176.141 164.310 170.581  1.00  0.00     0.123 A 
ATOM      9  C   UNL     1     176.525 165.645 170.662  1.00  0.00     0.094 A 
ATOM     10  C   UNL     1     175.886 166.515 171.548  1.00  0.00     0.146 A 
ATOM     11  O   UNL     1     176.273 167.785 171.583  1.00  0.00    -0.456 OA
ENDROOT
BRANCH   1  12
ATOM     12  C   UNL     1     176.241 170.088 172.336  1.00  0.00     0.021 A 
ATOM     13  C   UNL     1     175.744 171.042 171.428  1.00  0.00     0.016 A 
ATOM     14  C   UNL     1     176.247 172.346 171.423  1.00  0.00     0.051 A 
ATOM     15  C   UNL     1     177.249 172.721 172.328  1.00  0.00     0.157 A 
ATOM     16  C   UNL     1     177.237 170.478 173.250  1.00  0.00     0.062 A 
ATOM     17  C   UNL     1     177.744 171.782 173.246  1.00  0.00     0.158 A 
BRANCH  15  18
ATOM     18  O   UNL     1     177.750 174.022 172.318  1.00  0.00    -0.504 OA
ATOM     19  H   UNL     1     177.189 174.805 172.003  1.00  0.00     0.293 HD
ENDBRANCH  15  18
BRANCH  17  20
ATOM     20  O   UNL     1     178.738 172.125 174.162  1.00  0.00    -0.504 OA
ATOM     21  H   UNL     1     179.633 172.497 173.869  1.00  0.00     0.293 HD
ENDBRANCH  17  20
ENDBRANCH   1  12
BRANCH   6  22
ATOM     22  O   UNL     1     173.549 164.066 173.180  1.00  0.00    -0.507 OA
ATOM     23  H   UNL     1     173.773 163.550 174.016  1.00  0.00     0.293 HD
ENDBRANCH   6  22
BRANCH   8  24
ATOM     24  O   UNL     1     176.778 163.464 169.676  1.00  0.00    -0.508 OA
ATOM     25  H   UNL     1     177.020 163.771 168.741  1.00  0.00     0.293 HD
ENDBRANCH   8  24
TORSDOF 5
ENDMDL
