MODEL 1
REMARK VINA RESULT:    -3.593      0.000      0.000
REMARK INTER + INTRA:          -4.557
REMARK INTER:                  -4.434
REMARK INTRA:                  -0.123
REMARK UNBOUND:                -0.123
REMARK SMILES CCCCC=CC(C)=O
REMARK SMILES IDX 4 1 3 2 2 3 1 4 5 5 6 6 7 7 9 8 8 9
REMARK H PARENT
REMARK Flexibility Score: inf
ROOT
ATOM      1  C   UNL     1      -7.968 -14.146  -1.726  1.00  0.00     0.027 C 
ENDROOT
BRANCH   1   2
ATOM      2  C   UNL     1      -8.649 -15.520  -1.635  1.00  0.00     0.004 C 
BRANCH   2   3
ATOM      3  C   UNL     1      -8.867 -15.962  -0.181  1.00  0.00    -0.003 C 
ATOM      4  C   UNL     1     -10.350 -16.167   0.116  1.00  0.00     0.004 C 
ENDBRANCH   2   3
ENDBRANCH   1   2
BRANCH   1   5
ATOM      5  C   UNL     1      -8.323 -13.414  -2.990  1.00  0.00    -0.023 C 
ATOM      6  C   UNL     1      -8.954 -12.234  -2.960  1.00  0.00     0.042 C 
BRANCH   6   7
ATOM      7  C   UNL     1      -9.320 -11.478  -4.175  1.00  0.00     0.152 C 
ATOM      8  O   UNL     1      -8.574 -10.535  -4.548  1.00  0.00    -0.295 OA
ATOM      9  C   UNL     1     -10.546 -11.795  -4.979  1.00  0.00     0.093 C 
ENDBRANCH   6   7
ENDBRANCH   1   5
TORSDOF 4
ENDMDL
MODEL 2
REMARK VINA RESULT:    -3.423      2.631      5.133
REMARK INTER + INTRA:          -4.347
REMARK INTER:                  -4.181
REMARK INTRA:                  -0.165
REMARK UNBOUND:                -0.123
REMARK SMILES CCCCC=CC(C)=O
REMARK SMILES IDX 4 1 3 2 2 3 1 4 5 5 6 6 7 7 9 8 8 9
REMARK H PARENT
REMARK Flexibility Score: inf
ROOT
ATOM      1  C   UNL     1      -7.395 -13.639  -2.751  1.00  0.00     0.027 C 
ENDROOT
BRANCH   1   2
ATOM      2  C   UNL     1      -8.597 -13.344  -3.662  1.00  0.00     0.004 C 
BRANCH   2   3
ATOM      3  C   UNL     1      -9.186 -11.948  -3.408  1.00  0.00    -0.003 C 
ATOM      4  C   UNL     1     -10.265 -11.613  -4.433  1.00  0.00     0.004 C 
ENDBRANCH   2   3
ENDBRANCH   1   2
BRANCH   1   5
ATOM      5  C   UNL     1      -7.805 -14.257  -1.444  1.00  0.00    -0.023 C 
ATOM      6  C   UNL     1      -8.624 -15.315  -1.398  1.00  0.00     0.042 C 
BRANCH   6   7
ATOM      7  C   UNL     1      -9.051 -15.955  -0.137  1.00  0.00     0.152 C 
ATOM      8  O   UNL     1      -8.197 -16.131   0.771  1.00  0.00    -0.295 OA
ATOM      9  C   UNL     1     -10.463 -16.403   0.098  1.00  0.00     0.093 C 
ENDBRANCH   6   7
ENDBRANCH   1   5
TORSDOF 4
ENDMDL
MODEL 3
REMARK VINA RESULT:    -3.377      2.391      5.145
REMARK INTER + INTRA:          -4.290
REMARK INTER:                  -4.098
REMARK INTRA:                  -0.193
REMARK UNBOUND:                -0.123
REMARK SMILES CCCCC=CC(C)=O
REMARK SMILES IDX 4 1 3 2 2 3 1 4 5 5 6 6 7 7 9 8 8 9
REMARK H PARENT
REMARK Flexibility Score: inf
ROOT
ATOM      1  C   UNL     1      -8.479 -12.850  -3.588  1.00  0.00     0.027 C 
ENDROOT
BRANCH   1   2
ATOM      2  C   UNL     1      -9.398 -11.619  -3.569  1.00  0.00     0.004 C 
BRANCH   2   3
ATOM      3  C   UNL     1     -10.469 -11.680  -4.668  1.00  0.00    -0.003 C 
ATOM      4  C   UNL     1     -10.119 -12.729  -5.719  1.00  0.00     0.004 C 
ENDBRANCH   2   3
ENDBRANCH   1   2
BRANCH   1   5
ATOM      5  C   UNL     1      -8.367 -13.501  -2.238  1.00  0.00    -0.023 C 
ATOM      6  C   UNL     1      -8.480 -14.826  -2.089  1.00  0.00     0.042 C 
BRANCH   6   7
ATOM      7  C   UNL     1      -8.374 -15.508  -0.783  1.00  0.00     0.152 C 
ATOM      8  O   UNL     1      -7.241 -15.604  -0.241  1.00  0.00    -0.295 OA
ATOM      9  C   UNL     1      -9.565 -16.088  -0.081  1.00  0.00     0.093 C 
ENDBRANCH   6   7
ENDBRANCH   1   5
TORSDOF 4
ENDMDL
MODEL 4
REMARK VINA RESULT:    -3.359     13.306     15.632
REMARK INTER + INTRA:          -4.268
REMARK INTER:                  -4.065
REMARK INTRA:                  -0.203
REMARK UNBOUND:                -0.123
REMARK SMILES CCCCC=CC(C)=O
REMARK SMILES IDX 4 1 3 2 2 3 1 4 5 5 6 6 7 7 9 8 8 9
REMARK H PARENT
REMARK Flexibility Score: inf
ROOT
ATOM      1  C   UNL     1     -22.792  -9.478  -8.933  1.00  0.00     0.027 C 
ENDROOT
BRANCH   1   2
ATOM      2  C   UNL     1     -21.725 -10.542  -9.235  1.00  0.00     0.004 C 
BRANCH   2   3
ATOM      3  C   UNL     1     -21.191 -11.205  -7.957  1.00  0.00    -0.003 C 
ATOM      4  C   UNL     1     -19.947 -12.038  -8.248  1.00  0.00     0.004 C 
ENDBRANCH   2   3
ENDBRANCH   1   2
BRANCH   1   5
ATOM      5  C   UNL     1     -23.198  -9.470  -7.486  1.00  0.00    -0.023 C 
ATOM      6  C   UNL     1     -24.136  -8.634  -7.028  1.00  0.00     0.042 C 
BRANCH   6   7
ATOM      7  C   UNL     1     -24.568  -8.593  -5.616  1.00  0.00     0.152 C 
ATOM      8  O   UNL     1     -24.873  -7.481  -5.110  1.00  0.00    -0.295 OA
ATOM      9  C   UNL     1     -24.655  -9.826  -4.767  1.00  0.00     0.093 C 
ENDBRANCH   6   7
ENDBRANCH   1   5
TORSDOF 4
ENDMDL
MODEL 5
REMARK VINA RESULT:    -3.331     13.832     15.067
REMARK INTER + INTRA:          -4.234
REMARK INTER:                  -3.974
REMARK INTRA:                  -0.259
REMARK UNBOUND:                -0.123
REMARK SMILES CCCCC=CC(C)=O
REMARK SMILES IDX 4 1 3 2 2 3 1 4 5 5 6 6 7 7 9 8 8 9
REMARK H PARENT
REMARK Flexibility Score: inf
ROOT
ATOM      1  C   UNL     1     -23.850  -8.985  -6.961  1.00  0.00     0.027 C 
ENDROOT
BRANCH   1   2
ATOM      2  C   UNL     1     -24.721 -10.064  -6.299  1.00  0.00     0.004 C 
BRANCH   2   3
ATOM      3  C   UNL     1     -24.533 -10.104  -4.775  1.00  0.00    -0.003 C 
ATOM      4  C   UNL     1     -24.114 -11.495  -4.310  1.00  0.00     0.004 C 
ENDBRANCH   2   3
ENDBRANCH   1   2
BRANCH   1   5
ATOM      5  C   UNL     1     -22.893  -9.561  -7.966  1.00  0.00    -0.023 C 
ATOM      6  C   UNL     1     -22.047 -10.547  -7.642  1.00  0.00     0.042 C 
BRANCH   6   7
ATOM      7  C   UNL     1     -21.092 -11.144  -8.597  1.00  0.00     0.152 C 
ATOM      8  O   UNL     1     -20.127 -11.817  -8.146  1.00  0.00    -0.295 OA
ATOM      9  C   UNL     1     -21.230 -10.979 -10.081  1.00  0.00     0.093 C 
ENDBRANCH   6   7
ENDBRANCH   1   5
TORSDOF 4
ENDMDL
MODEL 6
REMARK VINA RESULT:    -3.279     13.641     15.455
REMARK INTER + INTRA:          -4.169
REMARK INTER:                  -3.931
REMARK INTRA:                  -0.238
REMARK UNBOUND:                -0.123
REMARK SMILES CCCCC=CC(C)=O
REMARK SMILES IDX 4 1 3 2 2 3 1 4 5 5 6 6 7 7 9 8 8 9
REMARK H PARENT
REMARK Flexibility Score: inf
ROOT
ATOM      1  C   UNL     1     -23.829  -8.760  -7.738  1.00  0.00     0.027 C 
ENDROOT
BRANCH   1   2
ATOM      2  C   UNL     1     -24.324  -9.395  -6.429  1.00  0.00     0.004 C 
BRANCH   2   3
ATOM      3  C   UNL     1     -24.614  -8.342  -5.350  1.00  0.00    -0.003 C 
ATOM      4  C   UNL     1     -24.215  -6.947  -5.821  1.00  0.00     0.004 C 
ENDBRANCH   2   3
ENDBRANCH   1   2
BRANCH   1   5
ATOM      5  C   UNL     1     -22.828  -9.626  -8.450  1.00  0.00    -0.023 C 
ATOM      6  C   UNL     1     -21.961 -10.391  -7.777  1.00  0.00     0.042 C 
BRANCH   6   7
ATOM      7  C   UNL     1     -20.962 -11.258  -8.435  1.00  0.00     0.152 C 
ATOM      8  O   UNL     1     -20.168 -11.919  -7.714  1.00  0.00    -0.295 OA
ATOM      9  C   UNL     1     -20.860 -11.378  -9.926  1.00  0.00     0.093 C 
ENDBRANCH   6   7
ENDBRANCH   1   5
TORSDOF 4
ENDMDL
MODEL 7
REMARK VINA RESULT:    -3.190     13.372     15.523
REMARK INTER + INTRA:          -4.059
REMARK INTER:                  -3.902
REMARK INTRA:                  -0.157
REMARK UNBOUND:                -0.123
REMARK SMILES CCCCC=CC(C)=O
REMARK SMILES IDX 4 1 3 2 2 3 1 4 5 5 6 6 7 7 9 8 8 9
REMARK H PARENT
REMARK Flexibility Score: inf
ROOT
ATOM      1  C   UNL     1     -23.037 -11.565  -6.920  1.00  0.00     0.027 C 
ENDROOT
BRANCH   1   2
ATOM      2  C   UNL     1     -22.463 -10.505  -7.873  1.00  0.00     0.004 C 
BRANCH   2   3
ATOM      3  C   UNL     1     -21.190 -10.993  -8.580  1.00  0.00    -0.003 C 
ATOM      4  C   UNL     1     -20.327 -11.832  -7.642  1.00  0.00     0.004 C 
ENDBRANCH   2   3
ENDBRANCH   1   2
BRANCH   1   5
ATOM      5  C   UNL     1     -23.905 -10.962  -5.851  1.00  0.00    -0.023 C 
ATOM      6  C   UNL     1     -23.986 -11.503  -4.629  1.00  0.00     0.042 C 
BRANCH   6   7
ATOM      7  C   UNL     1     -24.823 -10.944  -3.548  1.00  0.00     0.152 C 
ATOM      8  O   UNL     1     -24.754  -9.709  -3.308  1.00  0.00    -0.295 OA
ATOM      9  C   UNL     1     -25.749 -11.792  -2.729  1.00  0.00     0.093 C 
ENDBRANCH   6   7
ENDBRANCH   1   5
TORSDOF 4
ENDMDL
MODEL 8
REMARK VINA RESULT:    -3.186      2.769      3.662
REMARK INTER + INTRA:          -4.055
REMARK INTER:                  -3.829
REMARK INTRA:                  -0.225
REMARK UNBOUND:                -0.123
REMARK SMILES CCCCC=CC(C)=O
REMARK SMILES IDX 4 1 3 2 2 3 1 4 5 5 6 6 7 7 9 8 8 9
REMARK H PARENT
REMARK Flexibility Score: inf
ROOT
ATOM      1  C   UNL     1      -9.610 -16.936  -0.944  1.00  0.00     0.027 C 
ENDROOT
BRANCH   1   2
ATOM      2  C   UNL     1     -10.369 -16.469   0.307  1.00  0.00     0.004 C 
BRANCH   2   3
ATOM      3  C   UNL     1      -9.504 -16.554   1.574  1.00  0.00    -0.003 C 
ATOM      4  C   UNL     1      -9.143 -18.000   1.897  1.00  0.00     0.004 C 
ENDBRANCH   2   3
ENDBRANCH   1   2
BRANCH   1   5
ATOM      5  C   UNL     1      -8.375 -16.119  -1.201  1.00  0.00    -0.023 C 
ATOM      6  C   UNL     1      -8.446 -14.813  -1.483  1.00  0.00     0.042 C 
BRANCH   6   7
ATOM      7  C   UNL     1      -7.260 -13.972  -1.740  1.00  0.00     0.152 C 
ATOM      8  O   UNL     1      -7.068 -13.538  -2.907  1.00  0.00    -0.295 OA
ATOM      9  C   UNL     1      -6.278 -13.617  -0.664  1.00  0.00     0.093 C 
ENDBRANCH   6   7
ENDBRANCH   1   5
TORSDOF 4
ENDMDL
MODEL 9
REMARK VINA RESULT:    -3.096      2.111      5.214
REMARK INTER + INTRA:          -3.943
REMARK INTER:                  -3.660
REMARK INTRA:                  -0.283
REMARK UNBOUND:                -0.123
REMARK SMILES CCCCC=CC(C)=O
REMARK SMILES IDX 4 1 3 2 2 3 1 4 5 5 6 6 7 7 9 8 8 9
REMARK H PARENT
REMARK Flexibility Score: inf
ROOT
ATOM      1  C   UNL     1      -9.325 -11.341  -3.827  1.00  0.00     0.027 C 
ENDROOT
BRANCH   1   2
ATOM      2  C   UNL     1     -10.544 -11.725  -4.680  1.00  0.00     0.004 C 
BRANCH   2   3
ATOM      3  C   UNL     1     -10.251 -11.629  -6.185  1.00  0.00    -0.003 C 
ATOM      4  C   UNL     1      -8.863 -11.048  -6.438  1.00  0.00     0.004 C 
ENDBRANCH   2   3
ENDBRANCH   1   2
BRANCH   1   5
ATOM      5  C   UNL     1      -8.829 -12.487  -2.990  1.00  0.00    -0.023 C 
ATOM      6  C   UNL     1      -8.399 -13.625  -3.548  1.00  0.00     0.042 C 
BRANCH   6   7
ATOM      7  C   UNL     1      -7.901 -14.774  -2.765  1.00  0.00     0.152 C 
ATOM      8  O   UNL     1      -6.947 -15.453  -3.229  1.00  0.00    -0.295 OA
ATOM      9  C   UNL     1      -8.490 -15.161  -1.442  1.00  0.00     0.093 C 
ENDBRANCH   6   7
ENDBRANCH   1   5
TORSDOF 4
ENDMDL
