MODEL 1
REMARK VINA RESULT:    -5.993      0.000      0.000
REMARK INTER + INTRA:          -9.939
REMARK INTER:                  -9.146
REMARK INTRA:                  -0.793
REMARK UNBOUND:                -0.793
REMARK SMILES CC(=O)CCC=C(C)CCC=C(C)CCC=C(C)C
REMARK SMILES IDX 10 1 11 2 12 3 13 4 14 5 15 6 16 7 18 8 17 9 19 10 9 11 7 12
REMARK SMILES IDX 6 13 8 14 5 15 4 16 2 17 3 18 1 19
REMARK H PARENT
REMARK Flexibility Score: inf
ROOT
ATOM      1  C   UNL     1      23.116  51.722  -0.961  1.00  0.00     0.032 C 
ENDROOT
BRANCH   1   2
ATOM      2  C   UNL     1      22.690  51.382  -2.370  1.00  0.00    -0.028 C 
ATOM      3  C   UNL     1      22.112  50.219  -2.745  1.00  0.00    -0.077 C 
ATOM      4  C   UNL     1      21.832  49.110  -1.760  1.00  0.00     0.039 C 
BRANCH   3   5
ATOM      5  C   UNL     1      21.739  50.015  -4.200  1.00  0.00     0.034 C 
BRANCH   5   6
ATOM      6  C   UNL     1      22.329  51.107  -5.105  1.00  0.00     0.032 C 
BRANCH   6   7
ATOM      7  C   UNL     1      21.621  51.184  -6.437  1.00  0.00    -0.028 C 
ATOM      8  C   UNL     1      20.502  52.266  -8.354  1.00  0.00     0.039 C 
ATOM      9  C   UNL     1      21.176  52.327  -7.007  1.00  0.00    -0.080 C 
ATOM     10  C   UNL     1      21.258  53.662  -6.306  1.00  0.00     0.039 C 
ENDBRANCH   6   7
ENDBRANCH   5   6
ENDBRANCH   3   5
ENDBRANCH   1   2
BRANCH   1  11
ATOM     11  C   UNL     1      23.979  52.991  -0.919  1.00  0.00     0.034 C 
BRANCH  11  12
ATOM     12  C   UNL     1      24.974  52.969   0.230  1.00  0.00    -0.077 C 
ATOM     13  C   UNL     1      25.955  53.889   0.385  1.00  0.00    -0.028 C 
ATOM     14  C   UNL     1      24.856  51.878   1.263  1.00  0.00     0.039 C 
BRANCH  13  15
ATOM     15  C   UNL     1      26.246  55.015  -0.574  1.00  0.00     0.035 C 
BRANCH  15  16
ATOM     16  C   UNL     1      27.513  55.768  -0.157  1.00  0.00     0.079 C 
BRANCH  16  17
ATOM     17  C   UNL     1      28.460  55.887  -1.319  1.00  0.00     0.130 C 
ATOM     18  O   UNL     1      29.103  56.917  -1.469  1.00  0.00    -0.300 OA
ATOM     19  C   UNL     1      28.636  54.762  -2.298  1.00  0.00     0.087 C 
ENDBRANCH  16  17
ENDBRANCH  15  16
ENDBRANCH  13  15
ENDBRANCH  11  12
ENDBRANCH   1  11
TORSDOF 9
ENDMDL
MODEL 2
REMARK VINA RESULT:    -5.925      1.144      1.315
REMARK INTER + INTRA:          -9.835
REMARK INTER:                  -8.990
REMARK INTRA:                  -0.846
REMARK UNBOUND:                -0.793
REMARK SMILES CC(=O)CCC=C(C)CCC=C(C)CCC=C(C)C
REMARK SMILES IDX 10 1 11 2 12 3 13 4 14 5 15 6 16 7 18 8 17 9 19 10 9 11 7 12
REMARK SMILES IDX 6 13 8 14 5 15 4 16 2 17 3 18 1 19
REMARK H PARENT
REMARK Flexibility Score: inf
ROOT
ATOM      1  C   UNL     1      22.981  51.242  -1.537  1.00  0.00     0.032 C 
ENDROOT
BRANCH   1   2
ATOM      2  C   UNL     1      22.689  51.217  -3.020  1.00  0.00    -0.028 C 
ATOM      3  C   UNL     1      23.206  50.325  -3.895  1.00  0.00    -0.077 C 
ATOM      4  C   UNL     1      24.159  49.237  -3.463  1.00  0.00     0.039 C 
BRANCH   3   5
ATOM      5  C   UNL     1      22.826  50.423  -5.359  1.00  0.00     0.034 C 
BRANCH   5   6
ATOM      6  C   UNL     1      21.879  51.602  -5.632  1.00  0.00     0.032 C 
BRANCH   6   7
ATOM      7  C   UNL     1      22.251  52.350  -6.891  1.00  0.00    -0.028 C 
ATOM      8  C   UNL     1      22.332  54.255  -8.459  1.00  0.00     0.039 C 
ATOM      9  C   UNL     1      21.873  53.617  -7.174  1.00  0.00    -0.080 C 
ATOM     10  C   UNL     1      20.934  54.395  -6.283  1.00  0.00     0.039 C 
ENDBRANCH   6   7
ENDBRANCH   5   6
ENDBRANCH   3   5
ENDBRANCH   1   2
BRANCH   1  11
ATOM     11  C   UNL     1      23.489  52.617  -1.083  1.00  0.00     0.034 C 
BRANCH  11  12
ATOM     12  C   UNL     1      24.412  52.516   0.121  1.00  0.00    -0.077 C 
ATOM     13  C   UNL     1      25.455  53.353   0.333  1.00  0.00    -0.028 C 
ATOM     14  C   UNL     1      24.147  51.441   1.144  1.00  0.00     0.039 C 
BRANCH  13  15
ATOM     15  C   UNL     1      25.891  54.449  -0.605  1.00  0.00     0.035 C 
BRANCH  15  16
ATOM     16  C   UNL     1      26.782  55.461   0.120  1.00  0.00     0.079 C 
BRANCH  16  17
ATOM     17  C   UNL     1      27.966  55.825  -0.732  1.00  0.00     0.130 C 
ATOM     18  O   UNL     1      28.610  56.833  -0.472  1.00  0.00    -0.300 OA
ATOM     19  C   UNL     1      28.380  54.971  -1.896  1.00  0.00     0.087 C 
ENDBRANCH  16  17
ENDBRANCH  15  16
ENDBRANCH  13  15
ENDBRANCH  11  12
ENDBRANCH   1  11
TORSDOF 9
ENDMDL
MODEL 3
REMARK VINA RESULT:    -5.813      1.651      2.451
REMARK INTER + INTRA:          -9.664
REMARK INTER:                  -8.954
REMARK INTRA:                  -0.711
REMARK UNBOUND:                -0.793
REMARK SMILES CC(=O)CCC=C(C)CCC=C(C)CCC=C(C)C
REMARK SMILES IDX 10 1 11 2 12 3 13 4 14 5 15 6 16 7 18 8 17 9 19 10 9 11 7 12
REMARK SMILES IDX 6 13 8 14 5 15 4 16 2 17 3 18 1 19
REMARK H PARENT
REMARK Flexibility Score: inf
ROOT
ATOM      1  C   UNL     1      22.784  51.343  -1.233  1.00  0.00     0.032 C 
ENDROOT
BRANCH   1   2
ATOM      2  C   UNL     1      22.497  51.101  -2.697  1.00  0.00    -0.028 C 
ATOM      3  C   UNL     1      21.891  50.000  -3.195  1.00  0.00    -0.077 C 
ATOM      4  C   UNL     1      21.434  48.866  -2.308  1.00  0.00     0.039 C 
BRANCH   3   5
ATOM      5  C   UNL     1      21.671  49.891  -4.691  1.00  0.00     0.034 C 
BRANCH   5   6
ATOM      6  C   UNL     1      22.694  50.717  -5.486  1.00  0.00     0.032 C 
BRANCH   6   7
ATOM      7  C   UNL     1      24.051  50.055  -5.524  1.00  0.00    -0.028 C 
ATOM      8  C   UNL     1      25.804  48.515  -6.332  1.00  0.00     0.039 C 
ATOM      9  C   UNL     1      24.407  49.077  -6.387  1.00  0.00    -0.080 C 
ATOM     10  C   UNL     1      23.426  48.464  -7.358  1.00  0.00     0.039 C 
ENDBRANCH   6   7
ENDBRANCH   5   6
ENDBRANCH   3   5
ENDBRANCH   1   2
BRANCH   1  11
ATOM     11  C   UNL     1      23.537  52.662  -1.014  1.00  0.00     0.034 C 
BRANCH  11  12
ATOM     12  C   UNL     1      24.533  52.568   0.131  1.00  0.00    -0.077 C 
ATOM     13  C   UNL     1      25.588  53.405   0.272  1.00  0.00    -0.028 C 
ATOM     14  C   UNL     1      24.329  51.502   1.176  1.00  0.00     0.039 C 
BRANCH  13  15
ATOM     15  C   UNL     1      25.968  54.493  -0.700  1.00  0.00     0.035 C 
BRANCH  15  16
ATOM     16  C   UNL     1      26.880  55.524  -0.030  1.00  0.00     0.079 C 
BRANCH  16  17
ATOM     17  C   UNL     1      28.095  55.781  -0.877  1.00  0.00     0.130 C 
ATOM     18  O   UNL     1      28.794  56.759  -0.649  1.00  0.00    -0.300 OA
ATOM     19  C   UNL     1      28.472  54.855  -1.997  1.00  0.00     0.087 C 
ENDBRANCH  16  17
ENDBRANCH  15  16
ENDBRANCH  13  15
ENDBRANCH  11  12
ENDBRANCH   1  11
TORSDOF 9
ENDMDL
MODEL 4
REMARK VINA RESULT:    -5.777      2.389      4.763
REMARK INTER + INTRA:          -9.610
REMARK INTER:                  -8.439
REMARK INTRA:                  -1.170
REMARK UNBOUND:                -0.793
REMARK SMILES CC(=O)CCC=C(C)CCC=C(C)CCC=C(C)C
REMARK SMILES IDX 10 1 11 2 12 3 13 4 14 5 15 6 16 7 18 8 17 9 19 10 9 11 7 12
REMARK SMILES IDX 6 13 8 14 5 15 4 16 2 17 3 18 1 19
REMARK H PARENT
REMARK Flexibility Score: inf
ROOT
ATOM      1  C   UNL     1      23.105  51.962  -0.663  1.00  0.00     0.032 C 
ENDROOT
BRANCH   1   2
ATOM      2  C   UNL     1      22.436  50.616  -0.516  1.00  0.00    -0.028 C 
ATOM      3  C   UNL     1      22.016  49.844  -1.543  1.00  0.00    -0.077 C 
ATOM      4  C   UNL     1      22.175  50.269  -2.983  1.00  0.00     0.039 C 
BRANCH   3   5
ATOM      5  C   UNL     1      21.355  48.513  -1.244  1.00  0.00     0.034 C 
BRANCH   5   6
ATOM      6  C   UNL     1      21.263  48.240   0.265  1.00  0.00     0.032 C 
BRANCH   6   7
ATOM      7  C   UNL     1      19.836  48.264   0.761  1.00  0.00    -0.028 C 
ATOM      8  C   UNL     1      17.902  49.060   2.073  1.00  0.00     0.039 C 
ATOM      9  C   UNL     1      19.356  49.130   1.681  1.00  0.00    -0.080 C 
ATOM     10  C   UNL     1      20.245  50.119   2.397  1.00  0.00     0.039 C 
ENDBRANCH   6   7
ENDBRANCH   5   6
ENDBRANCH   3   5
ENDBRANCH   1   2
BRANCH   1  11
ATOM     11  C   UNL     1      24.635  51.844  -0.603  1.00  0.00     0.034 C 
BRANCH  11  12
ATOM     12  C   UNL     1      25.209  52.480   0.653  1.00  0.00    -0.077 C 
ATOM     13  C   UNL     1      25.739  53.725   0.682  1.00  0.00    -0.028 C 
ATOM     14  C   UNL     1      25.170  51.695   1.939  1.00  0.00     0.039 C 
BRANCH  13  15
ATOM     15  C   UNL     1      25.899  54.628  -0.514  1.00  0.00     0.035 C 
BRANCH  15  16
ATOM     16  C   UNL     1      26.717  55.871  -0.150  1.00  0.00     0.079 C 
BRANCH  16  17
ATOM     17  C   UNL     1      28.002  55.901  -0.930  1.00  0.00     0.130 C 
ATOM     18  O   UNL     1      28.814  56.792  -0.719  1.00  0.00    -0.300 OA
ATOM     19  C   UNL     1      28.313  54.853  -1.959  1.00  0.00     0.087 C 
ENDBRANCH  16  17
ENDBRANCH  15  16
ENDBRANCH  13  15
ENDBRANCH  11  12
ENDBRANCH   1  11
TORSDOF 9
ENDMDL
MODEL 5
REMARK VINA RESULT:    -5.713      2.377      7.554
REMARK INTER + INTRA:          -9.511
REMARK INTER:                  -8.787
REMARK INTRA:                  -0.725
REMARK UNBOUND:                -0.793
REMARK SMILES CC(=O)CCC=C(C)CCC=C(C)CCC=C(C)C
REMARK SMILES IDX 10 1 11 2 12 3 13 4 14 5 15 6 16 7 18 8 17 9 19 10 9 11 7 12
REMARK SMILES IDX 6 13 8 14 5 15 4 16 2 17 3 18 1 19
REMARK H PARENT
REMARK Flexibility Score: inf
ROOT
ATOM      1  C   UNL     1      22.938  51.232  -1.462  1.00  0.00     0.032 C 
ENDROOT
BRANCH   1   2
ATOM      2  C   UNL     1      23.892  52.287  -0.953  1.00  0.00    -0.028 C 
ATOM      3  C   UNL     1      24.462  52.289   0.273  1.00  0.00    -0.077 C 
ATOM      4  C   UNL     1      24.186  51.204   1.286  1.00  0.00     0.039 C 
BRANCH   3   5
ATOM      5  C   UNL     1      25.401  53.418   0.649  1.00  0.00     0.034 C 
BRANCH   5   6
ATOM      6  C   UNL     1      25.706  54.337  -0.544  1.00  0.00     0.032 C 
BRANCH   6   7
ATOM      7  C   UNL     1      26.678  55.435  -0.180  1.00  0.00    -0.028 C 
ATOM      8  C   UNL     1      28.678  56.863  -0.409  1.00  0.00     0.039 C 
ATOM      9  C   UNL     1      27.805  55.724  -0.868  1.00  0.00    -0.080 C 
ATOM     10  C   UNL     1      28.268  54.893  -2.041  1.00  0.00     0.039 C 
ENDBRANCH   6   7
ENDBRANCH   5   6
ENDBRANCH   3   5
ENDBRANCH   1   2
BRANCH   1  11
ATOM     11  C   UNL     1      23.226  50.865  -2.925  1.00  0.00     0.034 C 
BRANCH  11  12
ATOM     12  C   UNL     1      22.081  50.089  -3.556  1.00  0.00    -0.077 C 
ATOM     13  C   UNL     1      21.649  50.294  -4.822  1.00  0.00    -0.028 C 
ATOM     14  C   UNL     1      21.401  49.020  -2.739  1.00  0.00     0.039 C 
BRANCH  13  15
ATOM     15  C   UNL     1      22.181  51.348  -5.759  1.00  0.00     0.035 C 
BRANCH  15  16
ATOM     16  C   UNL     1      21.037  52.034  -6.510  1.00  0.00     0.079 C 
BRANCH  16  17
ATOM     17  C   UNL     1      21.489  53.356  -7.064  1.00  0.00     0.130 C 
ATOM     18  O   UNL     1      22.566  53.432  -7.640  1.00  0.00    -0.300 OA
ATOM     19  C   UNL     1      20.641  54.587  -6.930  1.00  0.00     0.087 C 
ENDBRANCH  16  17
ENDBRANCH  15  16
ENDBRANCH  13  15
ENDBRANCH  11  12
ENDBRANCH   1  11
TORSDOF 9
ENDMDL
MODEL 6
REMARK VINA RESULT:    -5.580      5.167      8.005
REMARK INTER + INTRA:          -9.309
REMARK INTER:                  -8.405
REMARK INTRA:                  -0.904
REMARK UNBOUND:                -0.793
REMARK SMILES CC(=O)CCC=C(C)CCC=C(C)CCC=C(C)C
REMARK SMILES IDX 10 1 11 2 12 3 13 4 14 5 15 6 16 7 18 8 17 9 19 10 9 11 7 12
REMARK SMILES IDX 6 13 8 14 5 15 4 16 2 17 3 18 1 19
REMARK H PARENT
REMARK Flexibility Score: inf
ROOT
ATOM      1  C   UNL     1      21.687  51.178   1.498  1.00  0.00     0.032 C 
ENDROOT
BRANCH   1   2
ATOM      2  C   UNL     1      20.391  50.446   1.759  1.00  0.00    -0.028 C 
ATOM      3  C   UNL     1      20.154  49.647   2.824  1.00  0.00    -0.077 C 
ATOM      4  C   UNL     1      21.198  49.398   3.886  1.00  0.00     0.039 C 
BRANCH   3   5
ATOM      5  C   UNL     1      18.803  48.972   2.955  1.00  0.00     0.034 C 
BRANCH   5   6
ATOM      6  C   UNL     1      18.675  48.187   4.269  1.00  0.00     0.032 C 
BRANCH   6   7
ATOM      7  C   UNL     1      17.814  48.909   5.280  1.00  0.00    -0.028 C 
ATOM      8  C   UNL     1      17.242  49.944   7.447  1.00  0.00     0.039 C 
ATOM      9  C   UNL     1      18.192  49.199   6.545  1.00  0.00    -0.080 C 
ATOM     10  C   UNL     1      19.507  48.730   7.120  1.00  0.00     0.039 C 
ENDBRANCH   6   7
ENDBRANCH   5   6
ENDBRANCH   3   5
ENDBRANCH   1   2
BRANCH   1  11
ATOM     11  C   UNL     1      22.702  50.290   0.767  1.00  0.00     0.034 C 
BRANCH  11  12
ATOM     12  C   UNL     1      22.958  50.765  -0.655  1.00  0.00    -0.077 C 
ATOM     13  C   UNL     1      23.851  51.732  -0.968  1.00  0.00    -0.028 C 
ATOM     14  C   UNL     1      22.193  50.115  -1.779  1.00  0.00     0.039 C 
BRANCH  13  15
ATOM     15  C   UNL     1      24.665  52.517   0.028  1.00  0.00     0.035 C 
BRANCH  15  16
ATOM     16  C   UNL     1      25.057  53.881  -0.546  1.00  0.00     0.079 C 
BRANCH  16  17
ATOM     17  C   UNL     1      26.032  54.575   0.365  1.00  0.00     0.130 C 
ATOM     18  O   UNL     1      26.135  54.209   1.529  1.00  0.00    -0.300 OA
ATOM     19  C   UNL     1      26.889  55.705  -0.127  1.00  0.00     0.087 C 
ENDBRANCH  16  17
ENDBRANCH  15  16
ENDBRANCH  13  15
ENDBRANCH  11  12
ENDBRANCH   1  11
TORSDOF 9
ENDMDL
MODEL 7
REMARK VINA RESULT:    -5.570      2.412      7.236
REMARK INTER + INTRA:          -9.293
REMARK INTER:                  -8.419
REMARK INTRA:                  -0.875
REMARK UNBOUND:                -0.793
REMARK SMILES CC(=O)CCC=C(C)CCC=C(C)CCC=C(C)C
REMARK SMILES IDX 10 1 11 2 12 3 13 4 14 5 15 6 16 7 18 8 17 9 19 10 9 11 7 12
REMARK SMILES IDX 6 13 8 14 5 15 4 16 2 17 3 18 1 19
REMARK H PARENT
REMARK Flexibility Score: inf
ROOT
ATOM      1  C   UNL     1      22.633  50.454  -3.110  1.00  0.00     0.032 C 
ENDROOT
BRANCH   1   2
ATOM      2  C   UNL     1      23.056  51.275  -1.914  1.00  0.00    -0.028 C 
ATOM      3  C   UNL     1      22.750  50.986  -0.629  1.00  0.00    -0.077 C 
ATOM      4  C   UNL     1      21.925  49.778  -0.254  1.00  0.00     0.039 C 
BRANCH   3   5
ATOM      5  C   UNL     1      23.242  51.905   0.471  1.00  0.00     0.034 C 
BRANCH   5   6
ATOM      6  C   UNL     1      24.773  52.026   0.482  1.00  0.00     0.032 C 
BRANCH   6   7
ATOM      7  C   UNL     1      25.245  53.322  -0.133  1.00  0.00    -0.028 C 
ATOM      8  C   UNL     1      26.419  55.492  -0.234  1.00  0.00     0.039 C 
ATOM      9  C   UNL     1      25.997  54.248   0.504  1.00  0.00    -0.080 C 
ATOM     10  C   UNL     1      26.367  54.119   1.963  1.00  0.00     0.039 C 
ENDBRANCH   6   7
ENDBRANCH   5   6
ENDBRANCH   3   5
ENDBRANCH   1   2
BRANCH   1  11
ATOM     11  C   UNL     1      22.250  51.343  -4.301  1.00  0.00     0.034 C 
BRANCH  11  12
ATOM     12  C   UNL     1      23.003  50.959  -5.566  1.00  0.00    -0.077 C 
ATOM     13  C   UNL     1      22.713  51.465  -6.788  1.00  0.00    -0.028 C 
ATOM     14  C   UNL     1      24.143  49.980  -5.455  1.00  0.00     0.039 C 
BRANCH  13  15
ATOM     15  C   UNL     1      21.582  52.415  -7.088  1.00  0.00     0.035 C 
BRANCH  15  16
ATOM     16  C   UNL     1      22.100  53.665  -7.804  1.00  0.00     0.079 C 
BRANCH  16  17
ATOM     17  C   UNL     1      21.845  54.891  -6.971  1.00  0.00     0.130 C 
ATOM     18  O   UNL     1      22.513  55.898  -7.162  1.00  0.00    -0.300 OA
ATOM     19  C   UNL     1      20.780  54.906  -5.914  1.00  0.00     0.087 C 
ENDBRANCH  16  17
ENDBRANCH  15  16
ENDBRANCH  13  15
ENDBRANCH  11  12
ENDBRANCH   1  11
TORSDOF 9
ENDMDL
MODEL 8
REMARK VINA RESULT:    -5.549      1.385      2.148
REMARK INTER + INTRA:          -9.261
REMARK INTER:                  -8.217
REMARK INTRA:                  -1.044
REMARK UNBOUND:                -0.793
REMARK SMILES CC(=O)CCC=C(C)CCC=C(C)CCC=C(C)C
REMARK SMILES IDX 10 1 11 2 12 3 13 4 14 5 15 6 16 7 18 8 17 9 19 10 9 11 7 12
REMARK SMILES IDX 6 13 8 14 5 15 4 16 2 17 3 18 1 19
REMARK H PARENT
REMARK Flexibility Score: inf
ROOT
ATOM      1  C   UNL     1      23.053  52.363  -0.520  1.00  0.00     0.032 C 
ENDROOT
BRANCH   1   2
ATOM      2  C   UNL     1      22.702  51.176  -1.386  1.00  0.00    -0.028 C 
ATOM      3  C   UNL     1      22.205  50.004  -0.929  1.00  0.00    -0.077 C 
ATOM      4  C   UNL     1      21.953  49.759   0.540  1.00  0.00     0.039 C 
BRANCH   3   5
ATOM      5  C   UNL     1      21.901  48.896  -1.917  1.00  0.00     0.034 C 
BRANCH   5   6
ATOM      6  C   UNL     1      21.542  49.444  -3.307  1.00  0.00     0.032 C 
BRANCH   6   7
ATOM      7  C   UNL     1      22.715  49.393  -4.258  1.00  0.00    -0.028 C 
ATOM      8  C   UNL     1      24.261  50.210  -6.001  1.00  0.00     0.039 C 
ATOM      9  C   UNL     1      23.050  50.380  -5.119  1.00  0.00    -0.080 C 
ATOM     10  C   UNL     1      22.206  51.620  -5.291  1.00  0.00     0.039 C 
ENDBRANCH   6   7
ENDBRANCH   5   6
ENDBRANCH   3   5
ENDBRANCH   1   2
BRANCH   1  11
ATOM     11  C   UNL     1      24.437  52.929  -0.868  1.00  0.00     0.034 C 
BRANCH  11  12
ATOM     12  C   UNL     1      25.297  53.140   0.368  1.00  0.00    -0.077 C 
ATOM     13  C   UNL     1      26.080  54.228   0.555  1.00  0.00    -0.028 C 
ATOM     14  C   UNL     1      25.265  52.094   1.453  1.00  0.00     0.039 C 
BRANCH  13  15
ATOM     15  C   UNL     1      26.267  55.343  -0.442  1.00  0.00     0.035 C 
BRANCH  15  16
ATOM     16  C   UNL     1      27.251  54.929  -1.540  1.00  0.00     0.079 C 
BRANCH  16  17
ATOM     17  C   UNL     1      28.480  55.795  -1.497  1.00  0.00     0.130 C 
ATOM     18  O   UNL     1      29.336  55.670  -2.362  1.00  0.00    -0.300 OA
ATOM     19  C   UNL     1      28.675  56.817  -0.415  1.00  0.00     0.087 C 
ENDBRANCH  16  17
ENDBRANCH  15  16
ENDBRANCH  13  15
ENDBRANCH  11  12
ENDBRANCH   1  11
TORSDOF 9
ENDMDL
MODEL 9
REMARK VINA RESULT:    -5.545      2.457      7.276
REMARK INTER + INTRA:          -9.255
REMARK INTER:                  -8.228
REMARK INTRA:                  -1.027
REMARK UNBOUND:                -0.793
REMARK SMILES CC(=O)CCC=C(C)CCC=C(C)CCC=C(C)C
REMARK SMILES IDX 10 1 11 2 12 3 13 4 14 5 15 6 16 7 18 8 17 9 19 10 9 11 7 12
REMARK SMILES IDX 6 13 8 14 5 15 4 16 2 17 3 18 1 19
REMARK H PARENT
REMARK Flexibility Score: inf
ROOT
ATOM      1  C   UNL     1      22.470  50.856   1.202  1.00  0.00     0.032 C 
ENDROOT
BRANCH   1   2
ATOM      2  C   UNL     1      23.706  51.720   1.289  1.00  0.00    -0.028 C 
ATOM      3  C   UNL     1      24.239  52.415   0.260  1.00  0.00    -0.077 C 
ATOM      4  C   UNL     1      23.634  52.389  -1.124  1.00  0.00     0.039 C 
BRANCH   3   5
ATOM      5  C   UNL     1      25.488  53.240   0.494  1.00  0.00     0.034 C 
BRANCH   5   6
ATOM      6  C   UNL     1      25.672  54.327  -0.576  1.00  0.00     0.032 C 
BRANCH   6   7
ATOM      7  C   UNL     1      26.648  55.395  -0.139  1.00  0.00    -0.028 C 
ATOM      8  C   UNL     1      28.669  56.808  -0.256  1.00  0.00     0.039 C 
ATOM      9  C   UNL     1      27.793  55.703  -0.788  1.00  0.00    -0.080 C 
ATOM     10  C   UNL     1      28.273  54.923  -1.989  1.00  0.00     0.039 C 
ENDBRANCH   6   7
ENDBRANCH   5   6
ENDBRANCH   3   5
ENDBRANCH   1   2
BRANCH   1  11
ATOM     11  C   UNL     1      22.760  49.520   0.503  1.00  0.00     0.034 C 
BRANCH  11  12
ATOM     12  C   UNL     1      21.519  48.939  -0.157  1.00  0.00    -0.077 C 
ATOM     13  C   UNL     1      21.398  48.766  -1.494  1.00  0.00    -0.028 C 
ATOM     14  C   UNL     1      20.370  48.514   0.721  1.00  0.00     0.039 C 
BRANCH  13  15
ATOM     15  C   UNL     1      22.424  49.176  -2.518  1.00  0.00     0.035 C 
BRANCH  15  16
ATOM     16  C   UNL     1      21.812  50.130  -3.547  1.00  0.00     0.079 C 
BRANCH  16  17
ATOM     17  C   UNL     1      22.849  50.556  -4.550  1.00  0.00     0.130 C 
ATOM     18  O   UNL     1      24.011  50.203  -4.403  1.00  0.00    -0.300 OA
ATOM     19  C   UNL     1      22.484  51.402  -5.735  1.00  0.00     0.087 C 
ENDBRANCH  16  17
ENDBRANCH  15  16
ENDBRANCH  13  15
ENDBRANCH  11  12
ENDBRANCH   1  11
TORSDOF 9
ENDMDL
