MODEL 1
REMARK VINA RESULT:    -4.406      0.000      0.000
REMARK INTER + INTRA:          -4.406
REMARK INTER:                  -4.406
REMARK INTRA:                   0.000
REMARK UNBOUND:                 0.000
REMARK SMILES C=C1CCCC(C)(C)[C@]12CC=C(C)CC2
REMARK SMILES IDX 13 1 12 2 11 3 10 4 9 5 15 6 14 7 2 8 1 9 3 10 4 11 5 12
REMARK SMILES IDX 6 13 7 14 8 15
REMARK H PARENT
REMARK Flexibility Score: inf
ROOT
ATOM      1  C   UNL     1     143.480 141.992 130.128  1.00  0.00     0.039 C 
ATOM      2  C   UNL     1     143.930 143.288 130.744  1.00  0.00    -0.077 C 
ATOM      3  C   UNL     1     143.953 143.403 132.083  1.00  0.00    -0.027 C 
ATOM      4  C   UNL     1     144.335 144.693 132.750  1.00  0.00     0.039 C 
ATOM      5  C   UNL     1     145.498 145.408 131.997  1.00  0.00    -0.000 C 
ATOM      6  C   UNL     1     144.931 145.672 130.556  1.00  0.00     0.017 C 
ATOM      7  C   UNL     1     144.386 144.411 129.833  1.00  0.00     0.031 C 
ATOM      8  C   UNL     1     146.748 144.492 132.005  1.00  0.00    -0.070 C 
ATOM      9  C   UNL     1     147.467 144.180 130.905  1.00  0.00     0.008 C 
ATOM     10  C   UNL     1     147.346 144.160 133.354  1.00  0.00     0.031 C 
ATOM     11  C   UNL     1     147.748 145.459 134.052  1.00  0.00     0.005 C 
ATOM     12  C   UNL     1     146.578 146.454 134.124  1.00  0.00     0.008 C 
ATOM     13  C   UNL     1     145.918 146.764 132.738  1.00  0.00    -0.026 C 
ATOM     14  C   UNL     1     146.929 147.578 131.882  1.00  0.00     0.012 C 
ATOM     15  C   UNL     1     144.714 147.705 133.020  1.00  0.00     0.012 C 
ENDROOT
TORSDOF 0
ENDMDL
MODEL 2
REMARK VINA RESULT:    -4.337      1.421      4.266
REMARK INTER + INTRA:          -4.337
REMARK INTER:                  -4.337
REMARK INTRA:                   0.000
REMARK UNBOUND:                 0.000
REMARK SMILES C=C1CCCC(C)(C)[C@]12CC=C(C)CC2
REMARK SMILES IDX 13 1 12 2 11 3 10 4 9 5 15 6 14 7 2 8 1 9 3 10 4 11 5 12
REMARK SMILES IDX 6 13 7 14 8 15
REMARK H PARENT
REMARK Flexibility Score: inf
ROOT
ATOM      1  C   UNL     1     147.251 148.767 130.115  1.00  0.00     0.039 C 
ATOM      2  C   UNL     1     146.824 147.463 130.731  1.00  0.00    -0.077 C 
ATOM      3  C   UNL     1     146.814 147.344 132.069  1.00  0.00    -0.027 C 
ATOM      4  C   UNL     1     146.456 146.048 132.736  1.00  0.00     0.039 C 
ATOM      5  C   UNL     1     145.295 145.318 131.991  1.00  0.00    -0.000 C 
ATOM      6  C   UNL     1     145.853 145.066 130.544  1.00  0.00     0.017 C 
ATOM      7  C   UNL     1     146.375 146.337 129.821  1.00  0.00     0.031 C 
ATOM      8  C   UNL     1     144.033 146.218 132.013  1.00  0.00    -0.070 C 
ATOM      9  C   UNL     1     143.301 146.524 130.921  1.00  0.00     0.008 C 
ATOM     10  C   UNL     1     143.443 146.537 133.368  1.00  0.00     0.031 C 
ATOM     11  C   UNL     1     143.065 145.232 134.066  1.00  0.00     0.005 C 
ATOM     12  C   UNL     1     144.249 144.252 134.125  1.00  0.00     0.008 C 
ATOM     13  C   UNL     1     144.901 143.955 132.732  1.00  0.00    -0.026 C 
ATOM     14  C   UNL     1     143.893 143.130 131.883  1.00  0.00     0.012 C 
ATOM     15  C   UNL     1     146.119 143.029 133.000  1.00  0.00     0.012 C 
ENDROOT
TORSDOF 0
ENDMDL
MODEL 3
REMARK VINA RESULT:    -4.102      1.208      4.111
REMARK INTER + INTRA:          -4.102
REMARK INTER:                  -4.102
REMARK INTRA:                   0.000
REMARK UNBOUND:                 0.000
REMARK SMILES C=C1CCCC(C)(C)[C@]12CC=C(C)CC2
REMARK SMILES IDX 13 1 12 2 11 3 10 4 9 5 15 6 14 7 2 8 1 9 3 10 4 11 5 12
REMARK SMILES IDX 6 13 7 14 8 15
REMARK H PARENT
REMARK Flexibility Score: inf
ROOT
ATOM      1  C   UNL     1     147.624 148.758 130.376  1.00  0.00     0.039 C 
ATOM      2  C   UNL     1     146.759 147.859 131.216  1.00  0.00    -0.077 C 
ATOM      3  C   UNL     1     145.539 147.517 130.767  1.00  0.00    -0.027 C 
ATOM      4  C   UNL     1     144.611 146.672 131.590  1.00  0.00     0.039 C 
ATOM      5  C   UNL     1     145.379 145.552 132.357  1.00  0.00    -0.000 C 
ATOM      6  C   UNL     1     146.391 146.327 133.275  1.00  0.00     0.017 C 
ATOM      7  C   UNL     1     147.309 147.330 132.526  1.00  0.00     0.031 C 
ATOM      8  C   UNL     1     146.073 144.618 131.332  1.00  0.00    -0.070 C 
ATOM      9  C   UNL     1     147.374 144.264 131.389  1.00  0.00     0.008 C 
ATOM     10  C   UNL     1     145.176 143.853 130.386  1.00  0.00     0.031 C 
ATOM     11  C   UNL     1     144.222 142.980 131.201  1.00  0.00     0.005 C 
ATOM     12  C   UNL     1     143.454 143.800 132.251  1.00  0.00     0.008 C 
ATOM     13  C   UNL     1     144.373 144.638 133.204  1.00  0.00    -0.026 C 
ATOM     14  C   UNL     1     145.152 143.657 134.125  1.00  0.00     0.012 C 
ATOM     15  C   UNL     1     143.429 145.459 134.124  1.00  0.00     0.012 C 
ENDROOT
TORSDOF 0
ENDMDL
MODEL 4
REMARK VINA RESULT:    -4.067      1.011      2.805
REMARK INTER + INTRA:          -4.067
REMARK INTER:                  -4.067
REMARK INTRA:                   0.000
REMARK UNBOUND:                 0.000
REMARK SMILES C=C1CCCC(C)(C)[C@]12CC=C(C)CC2
REMARK SMILES IDX 13 1 12 2 11 3 10 4 9 5 15 6 14 7 2 8 1 9 3 10 4 11 5 12
REMARK SMILES IDX 6 13 7 14 8 15
REMARK H PARENT
REMARK Flexibility Score: inf
ROOT
ATOM      1  C   UNL     1     143.115 142.006 130.413  1.00  0.00     0.039 C 
ATOM      2  C   UNL     1     143.982 142.911 131.244  1.00  0.00    -0.077 C 
ATOM      3  C   UNL     1     145.199 143.252 130.788  1.00  0.00    -0.027 C 
ATOM      4  C   UNL     1     146.130 144.103 131.602  1.00  0.00     0.039 C 
ATOM      5  C   UNL     1     145.363 145.226 132.366  1.00  0.00    -0.000 C 
ATOM      6  C   UNL     1     144.355 144.455 133.293  1.00  0.00     0.017 C 
ATOM      7  C   UNL     1     143.436 143.447 132.553  1.00  0.00     0.031 C 
ATOM      8  C   UNL     1     144.664 146.153 131.339  1.00  0.00    -0.070 C 
ATOM      9  C   UNL     1     143.362 146.506 131.399  1.00  0.00     0.008 C 
ATOM     10  C   UNL     1     145.556 146.914 130.385  1.00  0.00     0.031 C 
ATOM     11  C   UNL     1     146.512 147.793 131.192  1.00  0.00     0.005 C 
ATOM     12  C   UNL     1     147.285 146.980 132.243  1.00  0.00     0.008 C 
ATOM     13  C   UNL     1     146.371 146.146 133.204  1.00  0.00    -0.026 C 
ATOM     14  C   UNL     1     145.595 147.131 134.123  1.00  0.00     0.012 C 
ATOM     15  C   UNL     1     147.320 145.332 134.125  1.00  0.00     0.012 C 
ENDROOT
TORSDOF 0
ENDMDL
MODEL 5
REMARK VINA RESULT:    -3.776      1.518      3.049
REMARK INTER + INTRA:          -3.776
REMARK INTER:                  -3.776
REMARK INTRA:                   0.000
REMARK UNBOUND:                 0.000
REMARK SMILES C=C1CCCC(C)(C)[C@]12CC=C(C)CC2
REMARK SMILES IDX 13 1 12 2 11 3 10 4 9 5 15 6 14 7 2 8 1 9 3 10 4 11 5 12
REMARK SMILES IDX 6 13 7 14 8 15
REMARK H PARENT
REMARK Flexibility Score: inf
ROOT
ATOM      1  C   UNL     1     148.714 143.439 130.286  1.00  0.00     0.039 C 
ATOM      2  C   UNL     1     147.427 143.916 130.901  1.00  0.00    -0.077 C 
ATOM      3  C   UNL     1     147.354 144.063 132.234  1.00  0.00    -0.027 C 
ATOM      4  C   UNL     1     146.078 144.478 132.907  1.00  0.00     0.039 C 
ATOM      5  C   UNL     1     145.310 145.550 132.073  1.00  0.00    -0.000 C 
ATOM      6  C   UNL     1     145.014 144.844 130.701  1.00  0.00     0.017 C 
ATOM      7  C   UNL     1     146.265 144.260 129.990  1.00  0.00     0.031 C 
ATOM      8  C   UNL     1     146.195 146.815 131.933  1.00  0.00    -0.070 C 
ATOM      9  C   UNL     1     146.454 147.433 130.761  1.00  0.00     0.008 C 
ATOM     10  C   UNL     1     146.554 147.544 133.208  1.00  0.00     0.031 C 
ATOM     11  C   UNL     1     145.270 147.981 133.910  1.00  0.00     0.005 C 
ATOM     12  C   UNL     1     144.307 146.802 134.125  1.00  0.00     0.008 C 
ATOM     13  C   UNL     1     143.968 146.008 132.818  1.00  0.00    -0.026 C 
ATOM     14  C   UNL     1     143.103 146.916 131.899  1.00  0.00     0.012 C 
ATOM     15  C   UNL     1     143.067 144.817 133.242  1.00  0.00     0.012 C 
ENDROOT
TORSDOF 0
ENDMDL
MODEL 6
REMARK VINA RESULT:    -3.698      1.512      3.015
REMARK INTER + INTRA:          -3.698
REMARK INTER:                  -3.698
REMARK INTRA:                   0.000
REMARK UNBOUND:                 0.000
REMARK SMILES C=C1CCCC(C)(C)[C@]12CC=C(C)CC2
REMARK SMILES IDX 13 1 12 2 11 3 10 4 9 5 15 6 14 7 2 8 1 9 3 10 4 11 5 12
REMARK SMILES IDX 6 13 7 14 8 15
REMARK H PARENT
REMARK Flexibility Score: inf
ROOT
ATOM      1  C   UNL     1     142.000 147.311 130.195  1.00  0.00     0.039 C 
ATOM      2  C   UNL     1     143.305 146.865 130.794  1.00  0.00    -0.077 C 
ATOM      3  C   UNL     1     143.437 146.837 132.131  1.00  0.00    -0.027 C 
ATOM      4  C   UNL     1     144.736 146.459 132.781  1.00  0.00     0.039 C 
ATOM      5  C   UNL     1     145.449 145.302 132.014  1.00  0.00    -0.000 C 
ATOM      6  C   UNL     1     145.692 145.876 130.573  1.00  0.00     0.017 C 
ATOM      7  C   UNL     1     144.420 146.419 129.868  1.00  0.00     0.031 C 
ATOM      8  C   UNL     1     144.538 144.048 132.028  1.00  0.00    -0.070 C 
ATOM      9  C   UNL     1     144.216 143.332 130.930  1.00  0.00     0.008 C 
ATOM     10  C   UNL     1     144.226 143.443 133.378  1.00  0.00     0.031 C 
ATOM     11  C   UNL     1     145.534 143.045 134.060  1.00  0.00     0.005 C 
ATOM     12  C   UNL     1     146.524 144.219 134.125  1.00  0.00     0.008 C 
ATOM     13  C   UNL     1     146.815 144.887 132.738  1.00  0.00    -0.026 C 
ATOM     14  C   UNL     1     147.624 143.883 131.868  1.00  0.00     0.012 C 
ATOM     15  C   UNL     1     147.754 146.093 133.013  1.00  0.00     0.012 C 
ENDROOT
TORSDOF 0
ENDMDL
MODEL 7
REMARK VINA RESULT:    -3.226      1.315      3.723
REMARK INTER + INTRA:          -3.226
REMARK INTER:                  -3.226
REMARK INTRA:                   0.000
REMARK UNBOUND:                 0.000
REMARK SMILES C=C1CCCC(C)(C)[C@]12CC=C(C)CC2
REMARK SMILES IDX 13 1 12 2 11 3 10 4 9 5 15 6 14 7 2 8 1 9 3 10 4 11 5 12
REMARK SMILES IDX 6 13 7 14 8 15
REMARK H PARENT
REMARK Flexibility Score: inf
ROOT
ATOM      1  C   UNL     1     148.747 142.832 131.010  1.00  0.00     0.039 C 
ATOM      2  C   UNL     1     147.826 143.800 131.701  1.00  0.00    -0.077 C 
ATOM      3  C   UNL     1     147.574 144.988 131.126  1.00  0.00    -0.027 C 
ATOM      4  C   UNL     1     146.712 146.016 131.800  1.00  0.00     0.039 C 
ATOM      5  C   UNL     1     145.504 145.360 132.537  1.00  0.00    -0.000 C 
ATOM      6  C   UNL     1     146.161 144.402 133.595  1.00  0.00     0.017 C 
ATOM      7  C   UNL     1     147.176 143.386 133.006  1.00  0.00     0.031 C 
ATOM      8  C   UNL     1     144.621 144.617 131.503  1.00  0.00    -0.070 C 
ATOM      9  C   UNL     1     144.205 143.340 131.639  1.00  0.00     0.008 C 
ATOM     10  C   UNL     1     143.970 145.458 130.428  1.00  0.00     0.031 C 
ATOM     11  C   UNL     1     143.082 146.511 131.090  1.00  0.00     0.005 C 
ATOM     12  C   UNL     1     143.853 147.334 132.133  1.00  0.00     0.008 C 
ATOM     13  C   UNL     1     144.575 146.470 133.223  1.00  0.00    -0.026 C 
ATOM     14  C   UNL     1     143.493 145.812 134.125  1.00  0.00     0.012 C 
ATOM     15  C   UNL     1     145.365 147.458 134.123  1.00  0.00     0.012 C 
ENDROOT
TORSDOF 0
ENDMDL
MODEL 8
REMARK VINA RESULT:    -3.112      1.552      3.502
REMARK INTER + INTRA:          -3.112
REMARK INTER:                  -3.112
REMARK INTRA:                   0.000
REMARK UNBOUND:                 0.000
REMARK SMILES C=C1CCCC(C)(C)[C@]12CC=C(C)CC2
REMARK SMILES IDX 13 1 12 2 11 3 10 4 9 5 15 6 14 7 2 8 1 9 3 10 4 11 5 12
REMARK SMILES IDX 6 13 7 14 8 15
REMARK H PARENT
REMARK Flexibility Score: inf
ROOT
ATOM      1  C   UNL     1     142.006 148.086 131.059  1.00  0.00     0.039 C 
ATOM      2  C   UNL     1     142.919 147.100 131.734  1.00  0.00    -0.077 C 
ATOM      3  C   UNL     1     143.121 145.899 131.165  1.00  0.00    -0.027 C 
ATOM      4  C   UNL     1     143.973 144.854 131.825  1.00  0.00     0.039 C 
ATOM      5  C   UNL     1     145.220 145.483 132.520  1.00  0.00    -0.000 C 
ATOM      6  C   UNL     1     144.622 146.470 133.585  1.00  0.00     0.017 C 
ATOM      7  C   UNL     1     143.619 147.509 133.015  1.00  0.00     0.031 C 
ATOM      8  C   UNL     1     146.094 146.191 131.452  1.00  0.00    -0.070 C 
ATOM      9  C   UNL     1     146.549 147.457 131.563  1.00  0.00     0.008 C 
ATOM     10  C   UNL     1     146.689 145.321 130.368  1.00  0.00     0.031 C 
ATOM     11  C   UNL     1     147.566 144.250 131.015  1.00  0.00     0.005 C 
ATOM     12  C   UNL     1     146.803 143.459 132.090  1.00  0.00     0.008 C 
ATOM     13  C   UNL     1     146.138 144.355 133.190  1.00  0.00    -0.026 C 
ATOM     14  C   UNL     1     147.263 144.991 134.053  1.00  0.00     0.012 C 
ATOM     15  C   UNL     1     145.347 143.398 134.124  1.00  0.00     0.012 C 
ENDROOT
TORSDOF 0
ENDMDL
