MODEL 1
REMARK VINA RESULT:    -6.532      0.000      0.000
REMARK INTER + INTRA:         -10.046
REMARK INTER:                  -8.824
REMARK INTRA:                  -1.222
REMARK UNBOUND:                -1.222
REMARK SMILES CC[C@@H](CC[C@H](C)[C@@H]1CC[C@H]2[C@H]3CC(=O)C4=CC(=O)CC[C@@]4(C)[C@H]3CC[C@]21C)C(C)C
REMARK SMILES IDX 4 1 3 2 2 3 1 4 29 5 30 6 31 7 5 8 6 9 7 10 8 11 9 12 27 13
REMARK SMILES IDX 10 14 11 15 26 16 28 17 12 18 25 19 24 20 13 21 22 22 14 23
REMARK SMILES IDX 16 24 21 25 23 26 15 27 17 28 20 29 18 30 19 31
REMARK H PARENT
REMARK Flexibility Score: inf
ROOT
ATOM      1  C   UNL     1      -6.363  72.796  22.402  1.00  0.00     0.004 C 
ENDROOT
BRANCH   1   2
ATOM      2  C   UNL     1      -7.906  72.886  22.206  1.00  0.00    -0.009 C 
BRANCH   2   3
ATOM      3  C   UNL     1      -8.399  74.255  21.666  1.00  0.00     0.000 C 
ATOM      4  C   UNL     1      -8.267  74.373  20.146  1.00  0.00     0.004 C 
ENDBRANCH   2   3
BRANCH   2   5
ATOM      5  C   UNL     1      -8.723  72.367  23.444  1.00  0.00    -0.014 C 
ATOM      6  C   UNL     1      -7.957  72.378  24.780  1.00  0.00     0.007 C 
ATOM      7  C   UNL     1     -10.036  73.153  23.609  1.00  0.00     0.007 C 
ENDBRANCH   2   5
ENDBRANCH   1   2
BRANCH   1   8
ATOM      8  C   UNL     1      -5.637  71.690  21.603  1.00  0.00     0.004 C 
BRANCH   8   9
ATOM      9  C   UNL     1      -4.135  71.522  21.981  1.00  0.00    -0.011 C 
ATOM     10  C   UNL     1      -3.287  71.562  20.680  1.00  0.00     0.008 C 
BRANCH   9  11
ATOM     11  C   UNL     1      -3.800  70.253  22.873  1.00  0.00    -0.002 C 
ATOM     12  C   UNL     1      -4.897  69.175  22.814  1.00  0.00     0.005 C 
ATOM     13  C   UNL     1      -3.648  70.494  24.431  1.00  0.00    -0.026 C 
ATOM     14  C   UNL     1      -5.891  69.571  23.880  1.00  0.00     0.005 C 
ATOM     15  C   UNL     1      -5.041  70.104  25.041  1.00  0.00    -0.001 C 
ATOM     16  C   UNL     1      -2.520  69.567  24.971  1.00  0.00     0.007 C 
ATOM     17  C   UNL     1      -3.272  71.949  24.820  1.00  0.00     0.012 C 
ATOM     18  C   UNL     1      -5.005  69.171  26.306  1.00  0.00     0.004 C 
ATOM     19  C   UNL     1      -2.471  69.443  26.509  1.00  0.00     0.005 C 
ATOM     20  C   UNL     1      -3.842  69.592  27.240  1.00  0.00     0.003 C 
ATOM     21  C   UNL     1      -4.991  67.640  26.034  1.00  0.00     0.085 C 
ATOM     22  C   UNL     1      -3.890  68.850  28.629  1.00  0.00    -0.000 C 
ATOM     23  C   UNL     1      -4.659  66.798  27.239  1.00  0.00     0.159 C 
ATOM     24  C   UNL     1      -3.917  67.343  28.407  1.00  0.00     0.005 C 
ATOM     25  C   UNL     1      -2.656  69.262  29.499  1.00  0.00     0.020 C 
ATOM     26  C   UNL     1      -5.180  69.244  29.400  1.00  0.00     0.017 C 
ATOM     27  O   UNL     1      -4.974  65.577  27.210  1.00  0.00    -0.295 OA
ATOM     28  C   UNL     1      -3.383  66.500  29.313  1.00  0.00     0.055 C 
ATOM     29  C   UNL     1      -2.525  68.445  30.790  1.00  0.00     0.081 C 
ATOM     30  C   UNL     1      -2.676  66.979  30.512  1.00  0.00     0.156 C 
ATOM     31  O   UNL     1      -2.222  66.143  31.338  1.00  0.00    -0.295 OA
ENDBRANCH   9  11
ENDBRANCH   8   9
ENDBRANCH   1   8
TORSDOF 6
ENDMDL
MODEL 2
REMARK VINA RESULT:    -6.260      6.847     11.666
REMARK INTER + INTRA:          -9.678
REMARK INTER:                  -8.694
REMARK INTRA:                  -0.984
REMARK UNBOUND:                -1.222
REMARK SMILES CC[C@@H](CC[C@H](C)[C@@H]1CC[C@H]2[C@H]3CC(=O)C4=CC(=O)CC[C@@]4(C)[C@H]3CC[C@]21C)C(C)C
REMARK SMILES IDX 4 1 3 2 2 3 1 4 29 5 30 6 31 7 5 8 6 9 7 10 8 11 9 12 27 13
REMARK SMILES IDX 10 14 11 15 26 16 28 17 12 18 25 19 24 20 13 21 22 22 14 23
REMARK SMILES IDX 16 24 21 25 23 26 15 27 17 28 20 29 18 30 19 31
REMARK H PARENT
REMARK Flexibility Score: inf
ROOT
ATOM      1  C   UNL     1      -9.721  68.534  37.918  1.00  0.00     0.004 C 
ENDROOT
BRANCH   1   2
ATOM      2  C   UNL     1     -10.100  69.961  37.418  1.00  0.00    -0.009 C 
BRANCH   2   3
ATOM      3  C   UNL     1      -9.064  70.591  36.450  1.00  0.00     0.000 C 
ATOM      4  C   UNL     1      -9.720  71.366  35.305  1.00  0.00     0.004 C 
ENDBRANCH   2   3
BRANCH   2   5
ATOM      5  C   UNL     1     -10.549  70.926  38.573  1.00  0.00    -0.014 C 
ATOM      6  C   UNL     1     -11.809  71.759  38.272  1.00  0.00     0.007 C 
ATOM      7  C   UNL     1     -10.758  70.154  39.889  1.00  0.00     0.007 C 
ENDBRANCH   2   5
ENDBRANCH   1   2
BRANCH   1   8
ATOM      8  C   UNL     1      -8.224  68.291  38.217  1.00  0.00     0.004 C 
BRANCH   8   9
ATOM      9  C   UNL     1      -7.786  66.803  38.076  1.00  0.00    -0.011 C 
ATOM     10  C   UNL     1      -7.510  66.229  39.491  1.00  0.00     0.008 C 
BRANCH   9  11
ATOM     11  C   UNL     1      -6.577  66.546  37.081  1.00  0.00    -0.002 C 
ATOM     12  C   UNL     1      -5.593  67.728  37.017  1.00  0.00     0.005 C 
ATOM     13  C   UNL     1      -6.940  66.328  35.554  1.00  0.00    -0.026 C 
ATOM     14  C   UNL     1      -6.163  68.654  35.970  1.00  0.00     0.005 C 
ATOM     15  C   UNL     1      -6.723  67.730  34.881  1.00  0.00    -0.001 C 
ATOM     16  C   UNL     1      -5.973  65.264  34.958  1.00  0.00     0.007 C 
ATOM     17  C   UNL     1      -8.387  65.824  35.306  1.00  0.00     0.012 C 
ATOM     18  C   UNL     1      -5.905  67.732  33.537  1.00  0.00     0.004 C 
ATOM     19  C   UNL     1      -5.981  65.179  33.417  1.00  0.00     0.005 C 
ATOM     20  C   UNL     1      -6.307  66.511  32.672  1.00  0.00     0.003 C 
ATOM     21  C   UNL     1      -4.360  67.850  33.671  1.00  0.00     0.085 C 
ATOM     22  C   UNL     1      -5.697  66.577  31.221  1.00  0.00    -0.000 C 
ATOM     23  C   UNL     1      -3.602  67.551  32.404  1.00  0.00     0.159 C 
ATOM     24  C   UNL     1      -4.183  66.733  31.306  1.00  0.00     0.005 C 
ATOM     25  C   UNL     1      -6.079  65.289  30.419  1.00  0.00     0.020 C 
ATOM     26  C   UNL     1      -6.263  67.808  30.460  1.00  0.00     0.017 C 
ATOM     27  O   UNL     1      -2.413  67.966  32.316  1.00  0.00    -0.295 OA
ATOM     28  C   UNL     1      -3.382  66.243  30.341  1.00  0.00     0.055 C 
ATOM     29  C   UNL     1      -5.370  65.186  29.063  1.00  0.00     0.081 C 
ATOM     30  C   UNL     1      -3.903  65.464  29.205  1.00  0.00     0.156 C 
ATOM     31  O   UNL     1      -3.108  65.054  28.318  1.00  0.00    -0.295 OA
ENDBRANCH   9  11
ENDBRANCH   8   9
ENDBRANCH   1   8
TORSDOF 6
ENDMDL
MODEL 3
REMARK VINA RESULT:    -5.947      3.815      7.389
REMARK INTER + INTRA:          -9.255
REMARK INTER:                  -7.993
REMARK INTRA:                  -1.262
REMARK UNBOUND:                -1.222
REMARK SMILES CC[C@@H](CC[C@H](C)[C@@H]1CC[C@H]2[C@H]3CC(=O)C4=CC(=O)CC[C@@]4(C)[C@H]3CC[C@]21C)C(C)C
REMARK SMILES IDX 4 1 3 2 2 3 1 4 29 5 30 6 31 7 5 8 6 9 7 10 8 11 9 12 27 13
REMARK SMILES IDX 10 14 11 15 26 16 28 17 12 18 25 19 24 20 13 21 22 22 14 23
REMARK SMILES IDX 16 24 21 25 23 26 15 27 17 28 20 29 18 30 19 31
REMARK H PARENT
REMARK Flexibility Score: inf
ROOT
ATOM      1  C   UNL     1      -4.504  66.567  25.227  1.00  0.00     0.004 C 
ENDROOT
BRANCH   1   2
ATOM      2  C   UNL     1      -4.476  68.073  24.825  1.00  0.00    -0.009 C 
BRANCH   2   3
ATOM      3  C   UNL     1      -3.832  69.002  25.888  1.00  0.00     0.000 C 
ATOM      4  C   UNL     1      -4.872  69.746  26.729  1.00  0.00     0.004 C 
ENDBRANCH   2   3
BRANCH   2   5
ATOM      5  C   UNL     1      -5.852  68.598  24.280  1.00  0.00    -0.014 C 
ATOM      6  C   UNL     1      -5.766  69.431  22.987  1.00  0.00     0.007 C 
ATOM      7  C   UNL     1      -6.841  67.438  24.067  1.00  0.00     0.007 C 
ENDBRANCH   2   5
ENDBRANCH   1   2
BRANCH   1   8
ATOM      8  C   UNL     1      -3.702  66.184  26.492  1.00  0.00     0.004 C 
BRANCH   8   9
ATOM      9  C   UNL     1      -4.592  65.743  27.693  1.00  0.00    -0.011 C 
ATOM     10  C   UNL     1      -5.987  65.328  27.152  1.00  0.00     0.008 C 
BRANCH   9  11
ATOM     11  C   UNL     1      -4.699  66.794  28.877  1.00  0.00    -0.002 C 
ATOM     12  C   UNL     1      -3.348  67.444  29.223  1.00  0.00     0.005 C 
ATOM     13  C   UNL     1      -5.177  66.242  30.283  1.00  0.00    -0.026 C 
ATOM     14  C   UNL     1      -2.704  66.504  30.213  1.00  0.00     0.005 C 
ATOM     15  C   UNL     1      -3.855  66.004  31.096  1.00  0.00    -0.001 C 
ATOM     16  C   UNL     1      -6.069  67.319  30.965  1.00  0.00     0.007 C 
ATOM     17  C   UNL     1      -6.011  64.934  30.207  1.00  0.00     0.012 C 
ATOM     18  C   UNL     1      -3.839  66.561  32.567  1.00  0.00     0.004 C 
ATOM     19  C   UNL     1      -6.342  67.072  32.464  1.00  0.00     0.005 C 
ATOM     20  C   UNL     1      -5.215  66.319  33.238  1.00  0.00     0.003 C 
ATOM     21  C   UNL     1      -3.371  68.033  32.742  1.00  0.00     0.085 C 
ATOM     22  C   UNL     1      -5.196  66.643  34.780  1.00  0.00    -0.000 C 
ATOM     23  C   UNL     1      -3.651  68.616  34.103  1.00  0.00     0.159 C 
ATOM     24  C   UNL     1      -4.704  68.069  34.999  1.00  0.00     0.005 C 
ATOM     25  C   UNL     1      -6.625  66.449  35.387  1.00  0.00     0.020 C 
ATOM     26  C   UNL     1      -4.221  65.682  35.515  1.00  0.00     0.017 C 
ATOM     27  O   UNL     1      -3.001  69.641  34.451  1.00  0.00    -0.295 OA
ATOM     28  C   UNL     1      -5.123  68.790  36.058  1.00  0.00     0.055 C 
ATOM     29  C   UNL     1      -6.736  66.923  36.841  1.00  0.00     0.081 C 
ATOM     30  C   UNL     1      -6.130  68.284  37.006  1.00  0.00     0.156 C 
ATOM     31  O   UNL     1      -6.462  68.993  37.992  1.00  0.00    -0.295 OA
ENDBRANCH   9  11
ENDBRANCH   8   9
ENDBRANCH   1   8
TORSDOF 6
ENDMDL
MODEL 4
REMARK VINA RESULT:    -5.706      2.824      8.653
REMARK INTER + INTRA:          -8.930
REMARK INTER:                  -7.919
REMARK INTRA:                  -1.011
REMARK UNBOUND:                -1.222
REMARK SMILES CC[C@@H](CC[C@H](C)[C@@H]1CC[C@H]2[C@H]3CC(=O)C4=CC(=O)CC[C@@]4(C)[C@H]3CC[C@]21C)C(C)C
REMARK SMILES IDX 4 1 3 2 2 3 1 4 29 5 30 6 31 7 5 8 6 9 7 10 8 11 9 12 27 13
REMARK SMILES IDX 10 14 11 15 26 16 28 17 12 18 25 19 24 20 13 21 22 22 14 23
REMARK SMILES IDX 16 24 21 25 23 26 15 27 17 28 20 29 18 30 19 31
REMARK H PARENT
REMARK Flexibility Score: inf
ROOT
ATOM      1  C   UNL     1      -3.352  66.208  32.487  1.00  0.00     0.004 C 
ENDROOT
BRANCH   1   2
ATOM      2  C   UNL     1      -4.798  66.076  33.055  1.00  0.00    -0.009 C 
BRANCH   2   3
ATOM      3  C   UNL     1      -5.908  66.077  31.971  1.00  0.00     0.000 C 
ATOM      4  C   UNL     1      -6.405  67.486  31.636  1.00  0.00     0.004 C 
ENDBRANCH   2   3
BRANCH   2   5
ATOM      5  C   UNL     1      -5.087  67.049  34.254  1.00  0.00    -0.014 C 
ATOM      6  C   UNL     1      -5.677  66.378  35.509  1.00  0.00     0.007 C 
ATOM      7  C   UNL     1      -3.822  67.832  34.648  1.00  0.00     0.007 C 
ENDBRANCH   2   5
ENDBRANCH   1   2
BRANCH   1   8
ATOM      8  C   UNL     1      -3.178  65.891  30.984  1.00  0.00     0.004 C 
BRANCH   8   9
ATOM      9  C   UNL     1      -2.875  67.143  30.107  1.00  0.00    -0.011 C 
ATOM     10  C   UNL     1      -2.394  68.293  31.032  1.00  0.00     0.008 C 
BRANCH   9  11
ATOM     11  C   UNL     1      -4.057  67.600  29.151  1.00  0.00    -0.002 C 
ATOM     12  C   UNL     1      -4.655  66.436  28.341  1.00  0.00     0.005 C 
ATOM     13  C   UNL     1      -3.696  68.648  28.018  1.00  0.00    -0.026 C 
ATOM     14  C   UNL     1      -3.792  66.336  27.107  1.00  0.00     0.005 C 
ATOM     15  C   UNL     1      -3.467  67.786  26.726  1.00  0.00    -0.001 C 
ATOM     16  C   UNL     1      -4.897  69.621  27.839  1.00  0.00     0.007 C 
ATOM     17  C   UNL     1      -2.444  69.514  28.323  1.00  0.00     0.012 C 
ATOM     18  C   UNL     1      -4.183  68.295  25.421  1.00  0.00     0.004 C 
ATOM     19  C   UNL     1      -4.837  70.487  26.563  1.00  0.00     0.005 C 
ATOM     20  C   UNL     1      -4.105  69.841  25.345  1.00  0.00     0.003 C 
ATOM     21  C   UNL     1      -5.633  67.786  25.186  1.00  0.00     0.085 C 
ATOM     22  C   UNL     1      -4.597  70.398  23.956  1.00  0.00    -0.000 C 
ATOM     23  C   UNL     1      -6.381  68.518  24.102  1.00  0.00     0.159 C 
ATOM     24  C   UNL     1      -6.005  69.890  23.667  1.00  0.00     0.005 C 
ATOM     25  C   UNL     1      -4.562  71.963  23.963  1.00  0.00     0.020 C 
ATOM     26  C   UNL     1      -3.664  69.897  22.818  1.00  0.00     0.017 C 
ATOM     27  O   UNL     1      -7.394  67.957  23.602  1.00  0.00    -0.295 OA
ATOM     28  C   UNL     1      -6.864  70.615  22.926  1.00  0.00     0.055 C 
ATOM     29  C   UNL     1      -5.202  72.589  22.718  1.00  0.00     0.081 C 
ATOM     30  C   UNL     1      -6.532  71.961  22.428  1.00  0.00     0.156 C 
ATOM     31  O   UNL     1      -7.367  72.581  21.716  1.00  0.00    -0.295 OA
ENDBRANCH   9  11
ENDBRANCH   8   9
ENDBRANCH   1   8
TORSDOF 6
ENDMDL
MODEL 5
REMARK VINA RESULT:    -5.634      1.115      1.733
REMARK INTER + INTRA:          -8.832
REMARK INTER:                  -7.062
REMARK INTRA:                  -1.770
REMARK UNBOUND:                -1.222
REMARK SMILES CC[C@@H](CC[C@H](C)[C@@H]1CC[C@H]2[C@H]3CC(=O)C4=CC(=O)CC[C@@]4(C)[C@H]3CC[C@]21C)C(C)C
REMARK SMILES IDX 4 1 3 2 2 3 1 4 29 5 30 6 31 7 5 8 6 9 7 10 8 11 9 12 27 13
REMARK SMILES IDX 10 14 11 15 26 16 28 17 12 18 25 19 24 20 13 21 22 22 14 23
REMARK SMILES IDX 16 24 21 25 23 26 15 27 17 28 20 29 18 30 19 31
REMARK H PARENT
REMARK Flexibility Score: inf
ROOT
ATOM      1  C   UNL     1      -5.117  71.535  19.876  1.00  0.00     0.004 C 
ENDROOT
BRANCH   1   2
ATOM      2  C   UNL     1      -5.680  72.785  20.617  1.00  0.00    -0.009 C 
BRANCH   2   3
ATOM      3  C   UNL     1      -4.633  73.904  20.859  1.00  0.00     0.000 C 
ATOM      4  C   UNL     1      -3.406  73.772  19.954  1.00  0.00     0.004 C 
ENDBRANCH   2   3
BRANCH   2   5
ATOM      5  C   UNL     1      -6.524  72.426  21.893  1.00  0.00    -0.014 C 
ATOM      6  C   UNL     1      -5.827  72.713  23.236  1.00  0.00     0.007 C 
ATOM      7  C   UNL     1      -7.889  73.136  21.870  1.00  0.00     0.007 C 
ENDBRANCH   2   5
ENDBRANCH   1   2
BRANCH   1   8
ATOM      8  C   UNL     1      -4.871  70.280  20.745  1.00  0.00     0.004 C 
BRANCH   8   9
ATOM      9  C   UNL     1      -3.575  70.355  21.607  1.00  0.00    -0.011 C 
ATOM     10  C   UNL     1      -2.348  70.403  20.657  1.00  0.00     0.008 C 
BRANCH   9  11
ATOM     11  C   UNL     1      -3.431  69.223  22.710  1.00  0.00    -0.002 C 
ATOM     12  C   UNL     1      -4.662  68.304  22.788  1.00  0.00     0.005 C 
ATOM     13  C   UNL     1      -3.274  69.704  24.212  1.00  0.00    -0.026 C 
ATOM     14  C   UNL     1      -5.611  69.002  23.732  1.00  0.00     0.005 C 
ATOM     15  C   UNL     1      -4.718  69.609  24.821  1.00  0.00    -0.001 C 
ATOM     16  C   UNL     1      -2.292  68.743  24.943  1.00  0.00     0.007 C 
ATOM     17  C   UNL     1      -2.711  71.143  24.368  1.00  0.00     0.012 C 
ATOM     18  C   UNL     1      -4.830  68.908  26.225  1.00  0.00     0.004 C 
ATOM     19  C   UNL     1      -2.287  68.877  26.480  1.00  0.00     0.005 C 
ATOM     20  C   UNL     1      -3.638  69.326  27.121  1.00  0.00     0.003 C 
ATOM     21  C   UNL     1      -5.019  67.365  26.212  1.00  0.00     0.085 C 
ATOM     22  C   UNL     1      -3.809  68.844  28.612  1.00  0.00    -0.000 C 
ATOM     23  C   UNL     1      -4.825  66.704  27.552  1.00  0.00     0.159 C 
ATOM     24  C   UNL     1      -4.037  67.338  28.642  1.00  0.00     0.005 C 
ATOM     25  C   UNL     1      -2.546  69.233  29.450  1.00  0.00     0.020 C 
ATOM     26  C   UNL     1      -5.048  69.529  29.254  1.00  0.00     0.017 C 
ATOM     27  O   UNL     1      -5.302  65.547  27.714  1.00  0.00    -0.295 OA
ATOM     28  C   UNL     1      -3.638  66.599  29.696  1.00  0.00     0.055 C 
ATOM     29  C   UNL     1      -2.550  68.638  30.863  1.00  0.00     0.081 C 
ATOM     30  C   UNL     1      -2.893  67.179  30.827  1.00  0.00     0.156 C 
ATOM     31  O   UNL     1      -2.570  66.444  31.797  1.00  0.00    -0.295 OA
ENDBRANCH   9  11
ENDBRANCH   8   9
ENDBRANCH   1   8
TORSDOF 6
ENDMDL
MODEL 6
REMARK VINA RESULT:    -5.603      4.484     10.356
REMARK INTER + INTRA:          -8.790
REMARK INTER:                  -6.742
REMARK INTRA:                  -2.048
REMARK UNBOUND:                -1.222
REMARK SMILES CC[C@@H](CC[C@H](C)[C@@H]1CC[C@H]2[C@H]3CC(=O)C4=CC(=O)CC[C@@]4(C)[C@H]3CC[C@]21C)C(C)C
REMARK SMILES IDX 4 1 3 2 2 3 1 4 29 5 30 6 31 7 5 8 6 9 7 10 8 11 9 12 27 13
REMARK SMILES IDX 10 14 11 15 26 16 28 17 12 18 25 19 24 20 13 21 22 22 14 23
REMARK SMILES IDX 16 24 21 25 23 26 15 27 17 28 20 29 18 30 19 31
REMARK H PARENT
REMARK Flexibility Score: inf
ROOT
ATOM      1  C   UNL     1      -5.248  66.348  37.175  1.00  0.00     0.004 C 
ENDROOT
BRANCH   1   2
ATOM      2  C   UNL     1      -5.233  67.850  36.761  1.00  0.00    -0.009 C 
BRANCH   2   3
ATOM      3  C   UNL     1      -3.835  68.518  36.843  1.00  0.00     0.000 C 
ATOM      4  C   UNL     1      -3.646  69.625  35.803  1.00  0.00     0.004 C 
ENDBRANCH   2   3
BRANCH   2   5
ATOM      5  C   UNL     1      -6.374  68.694  37.435  1.00  0.00    -0.014 C 
ATOM      6  C   UNL     1      -7.280  69.464  36.457  1.00  0.00     0.007 C 
ATOM      7  C   UNL     1      -7.249  67.813  38.345  1.00  0.00     0.007 C 
ENDBRANCH   2   5
ENDBRANCH   1   2
BRANCH   1   8
ATOM      8  C   UNL     1      -5.540  65.331  36.048  1.00  0.00     0.004 C 
BRANCH   8   9
ATOM      9  C   UNL     1      -6.494  65.874  34.942  1.00  0.00    -0.011 C 
ATOM     10  C   UNL     1      -7.928  65.346  35.218  1.00  0.00     0.008 C 
BRANCH   9  11
ATOM     11  C   UNL     1      -6.030  65.589  33.451  1.00  0.00    -0.002 C 
ATOM     12  C   UNL     1      -4.669  64.876  33.374  1.00  0.00     0.005 C 
ATOM     13  C   UNL     1      -5.802  66.851  32.519  1.00  0.00    -0.026 C 
ATOM     14  C   UNL     1      -3.645  65.984  33.404  1.00  0.00     0.005 C 
ATOM     15  C   UNL     1      -4.255  67.116  32.567  1.00  0.00    -0.001 C 
ATOM     16  C   UNL     1      -6.267  66.496  31.077  1.00  0.00     0.007 C 
ATOM     17  C   UNL     1      -6.584  68.119  32.956  1.00  0.00     0.012 C 
ATOM     18  C   UNL     1      -3.553  67.354  31.179  1.00  0.00     0.004 C 
ATOM     19  C   UNL     1      -5.812  67.495  29.992  1.00  0.00     0.005 C 
ATOM     20  C   UNL     1      -4.459  68.222  30.270  1.00  0.00     0.003 C 
ATOM     21  C   UNL     1      -3.047  66.086  30.435  1.00  0.00     0.085 C 
ATOM     22  C   UNL     1      -3.722  68.689  28.959  1.00  0.00    -0.000 C 
ATOM     23  C   UNL     1      -2.657  66.323  28.999  1.00  0.00     0.159 C 
ATOM     24  C   UNL     1      -3.176  67.476  28.216  1.00  0.00     0.005 C 
ATOM     25  C   UNL     1      -4.706  69.500  28.051  1.00  0.00     0.020 C 
ATOM     26  C   UNL     1      -2.524  69.610  29.319  1.00  0.00     0.017 C 
ATOM     27  O   UNL     1      -1.913  65.469  28.441  1.00  0.00    -0.295 OA
ATOM     28  C   UNL     1      -3.048  67.485  26.875  1.00  0.00     0.055 C 
ATOM     29  C   UNL     1      -4.124  69.831  26.671  1.00  0.00     0.081 C 
ATOM     30  C   UNL     1      -3.502  68.617  26.049  1.00  0.00     0.156 C 
ATOM     31  O   UNL     1      -3.331  68.580  24.802  1.00  0.00    -0.295 OA
ENDBRANCH   9  11
ENDBRANCH   8   9
ENDBRANCH   1   8
TORSDOF 6
ENDMDL
MODEL 7
REMARK VINA RESULT:    -5.563      4.478      7.925
REMARK INTER + INTRA:          -8.737
REMARK INTER:                  -7.084
REMARK INTRA:                  -1.653
REMARK UNBOUND:                -1.222
REMARK SMILES CC[C@@H](CC[C@H](C)[C@@H]1CC[C@H]2[C@H]3CC(=O)C4=CC(=O)CC[C@@]4(C)[C@H]3CC[C@]21C)C(C)C
REMARK SMILES IDX 4 1 3 2 2 3 1 4 29 5 30 6 31 7 5 8 6 9 7 10 8 11 9 12 27 13
REMARK SMILES IDX 10 14 11 15 26 16 28 17 12 18 25 19 24 20 13 21 22 22 14 23
REMARK SMILES IDX 16 24 21 25 23 26 15 27 17 28 20 29 18 30 19 31
REMARK H PARENT
REMARK Flexibility Score: inf
ROOT
ATOM      1  C   UNL     1      -4.737  67.423  26.941  1.00  0.00     0.004 C 
ENDROOT
BRANCH   1   2
ATOM      2  C   UNL     1      -3.707  68.572  26.723  1.00  0.00    -0.009 C 
BRANCH   2   3
ATOM      3  C   UNL     1      -3.617  69.577  27.902  1.00  0.00     0.000 C 
ATOM      4  C   UNL     1      -4.888  69.601  28.756  1.00  0.00     0.004 C 
ENDBRANCH   2   3
BRANCH   2   5
ATOM      5  C   UNL     1      -3.831  69.262  25.317  1.00  0.00    -0.014 C 
ATOM      6  C   UNL     1      -5.268  69.611  24.888  1.00  0.00     0.007 C 
ATOM      7  C   UNL     1      -2.960  70.529  25.244  1.00  0.00     0.007 C 
ENDBRANCH   2   5
ENDBRANCH   1   2
BRANCH   1   8
ATOM      8  C   UNL     1      -4.164  66.078  27.442  1.00  0.00     0.004 C 
BRANCH   8   9
ATOM      9  C   UNL     1      -3.300  66.202  28.733  1.00  0.00    -0.011 C 
ATOM     10  C   UNL     1      -1.878  65.657  28.434  1.00  0.00     0.008 C 
BRANCH   9  11
ATOM     11  C   UNL     1      -3.930  65.546  30.033  1.00  0.00    -0.002 C 
ATOM     12  C   UNL     1      -5.450  65.333  29.919  1.00  0.00     0.005 C 
ATOM     13  C   UNL     1      -3.806  66.369  31.382  1.00  0.00    -0.026 C 
ATOM     14  C   UNL     1      -6.062  66.638  30.369  1.00  0.00     0.005 C 
ATOM     15  C   UNL     1      -5.180  67.114  31.531  1.00  0.00    -0.001 C 
ATOM     16  C   UNL     1      -3.578  65.372  32.554  1.00  0.00     0.007 C 
ATOM     17  C   UNL     1      -2.632  67.385  31.406  1.00  0.00     0.012 C 
ATOM     18  C   UNL     1      -5.862  67.028  32.946  1.00  0.00     0.004 C 
ATOM     19  C   UNL     1      -3.762  65.981  33.961  1.00  0.00     0.005 C 
ATOM     20  C   UNL     1      -4.789  67.152  34.057  1.00  0.00     0.003 C 
ATOM     21  C   UNL     1      -6.795  65.809  33.190  1.00  0.00     0.085 C 
ATOM     22  C   UNL     1      -5.425  67.305  35.491  1.00  0.00    -0.000 C 
ATOM     23  C   UNL     1      -7.186  65.603  34.630  1.00  0.00     0.159 C 
ATOM     24  C   UNL     1      -6.380  66.147  35.756  1.00  0.00     0.005 C 
ATOM     25  C   UNL     1      -4.298  67.356  36.575  1.00  0.00     0.020 C 
ATOM     26  C   UNL     1      -6.240  68.626  35.575  1.00  0.00     0.017 C 
ATOM     27  O   UNL     1      -8.199  64.891  34.871  1.00  0.00    -0.295 OA
ATOM     28  C   UNL     1      -6.588  65.695  37.008  1.00  0.00     0.055 C 
ATOM     29  C   UNL     1      -4.836  67.315  38.011  1.00  0.00     0.081 C 
ATOM     30  C   UNL     1      -5.854  66.226  38.168  1.00  0.00     0.156 C 
ATOM     31  O   UNL     1      -6.111  65.782  39.319  1.00  0.00    -0.295 OA
ENDBRANCH   9  11
ENDBRANCH   8   9
ENDBRANCH   1   8
TORSDOF 6
ENDMDL
MODEL 8
REMARK VINA RESULT:    -5.483      3.254      9.005
REMARK INTER + INTRA:          -8.628
REMARK INTER:                  -7.756
REMARK INTRA:                  -0.872
REMARK UNBOUND:                -1.222
REMARK SMILES CC[C@@H](CC[C@H](C)[C@@H]1CC[C@H]2[C@H]3CC(=O)C4=CC(=O)CC[C@@]4(C)[C@H]3CC[C@]21C)C(C)C
REMARK SMILES IDX 4 1 3 2 2 3 1 4 29 5 30 6 31 7 5 8 6 9 7 10 8 11 9 12 27 13
REMARK SMILES IDX 10 14 11 15 26 16 28 17 12 18 25 19 24 20 13 21 22 22 14 23
REMARK SMILES IDX 16 24 21 25 23 26 15 27 17 28 20 29 18 30 19 31
REMARK H PARENT
REMARK Flexibility Score: inf
ROOT
ATOM      1  C   UNL     1      -4.326  66.845  33.489  1.00  0.00     0.004 C 
ENDROOT
BRANCH   1   2
ATOM      2  C   UNL     1      -5.293  67.857  34.174  1.00  0.00    -0.009 C 
BRANCH   2   3
ATOM      3  C   UNL     1      -4.855  68.287  35.600  1.00  0.00     0.000 C 
ATOM      4  C   UNL     1      -3.864  69.453  35.586  1.00  0.00     0.004 C 
ENDBRANCH   2   3
BRANCH   2   5
ATOM      5  C   UNL     1      -6.804  67.436  34.081  1.00  0.00    -0.014 C 
ATOM      6  C   UNL     1      -7.060  65.918  34.116  1.00  0.00     0.007 C 
ATOM      7  C   UNL     1      -7.636  68.114  35.184  1.00  0.00     0.007 C 
ENDBRANCH   2   5
ENDBRANCH   1   2
BRANCH   1   8
ATOM      8  C   UNL     1      -3.561  67.365  32.250  1.00  0.00     0.004 C 
BRANCH   8   9
ATOM      9  C   UNL     1      -3.733  66.475  30.983  1.00  0.00    -0.011 C 
ATOM     10  C   UNL     1      -3.226  65.044  31.307  1.00  0.00     0.008 C 
BRANCH   9  11
ATOM     11  C   UNL     1      -3.081  67.053  29.657  1.00  0.00    -0.002 C 
ATOM     12  C   UNL     1      -2.602  68.507  29.811  1.00  0.00     0.005 C 
ATOM     13  C   UNL     1      -4.013  67.140  28.379  1.00  0.00    -0.026 C 
ATOM     14  C   UNL     1      -3.813  69.352  29.497  1.00  0.00     0.005 C 
ATOM     15  C   UNL     1      -4.521  68.625  28.346  1.00  0.00    -0.001 C 
ATOM     16  C   UNL     1      -3.164  66.809  27.118  1.00  0.00     0.007 C 
ATOM     17  C   UNL     1      -5.214  66.155  28.395  1.00  0.00     0.012 C 
ATOM     18  C   UNL     1      -4.428  69.355  26.956  1.00  0.00     0.004 C 
ATOM     19  C   UNL     1      -3.838  67.166  25.777  1.00  0.00     0.005 C 
ATOM     20  C   UNL     1      -4.819  68.378  25.819  1.00  0.00     0.003 C 
ATOM     21  C   UNL     1      -3.089  70.083  26.646  1.00  0.00     0.085 C 
ATOM     22  C   UNL     1      -4.970  69.105  24.429  1.00  0.00    -0.000 C 
ATOM     23  C   UNL     1      -2.931  70.508  25.210  1.00  0.00     0.159 C 
ATOM     24  C   UNL     1      -3.690  69.865  24.104  1.00  0.00     0.005 C 
ATOM     25  C   UNL     1      -5.296  68.061  23.310  1.00  0.00     0.020 C 
ATOM     26  C   UNL     1      -6.135  70.133  24.488  1.00  0.00     0.017 C 
ATOM     27  O   UNL     1      -2.076  71.399  24.949  1.00  0.00    -0.295 OA
ATOM     28  C   UNL     1      -3.306  70.059  22.827  1.00  0.00     0.055 C 
ATOM     29  C   UNL     1      -5.274  68.658  21.898  1.00  0.00     0.081 C 
ATOM     30  C   UNL     1      -4.042  69.486  21.688  1.00  0.00     0.156 C 
ATOM     31  O   UNL     1      -3.650  69.725  20.515  1.00  0.00    -0.295 OA
ENDBRANCH   9  11
ENDBRANCH   8   9
ENDBRANCH   1   8
TORSDOF 6
ENDMDL
MODEL 9
REMARK VINA RESULT:    -5.421      3.802      9.488
REMARK INTER + INTRA:          -8.545
REMARK INTER:                  -7.529
REMARK INTRA:                  -1.016
REMARK UNBOUND:                -1.222
REMARK SMILES CC[C@@H](CC[C@H](C)[C@@H]1CC[C@H]2[C@H]3CC(=O)C4=CC(=O)CC[C@@]4(C)[C@H]3CC[C@]21C)C(C)C
REMARK SMILES IDX 4 1 3 2 2 3 1 4 29 5 30 6 31 7 5 8 6 9 7 10 8 11 9 12 27 13
REMARK SMILES IDX 10 14 11 15 26 16 28 17 12 18 25 19 24 20 13 21 22 22 14 23
REMARK SMILES IDX 16 24 21 25 23 26 15 27 17 28 20 29 18 30 19 31
REMARK H PARENT
REMARK Flexibility Score: inf
ROOT
ATOM      1  C   UNL     1      -3.920  67.749  35.651  1.00  0.00     0.004 C 
ENDROOT
BRANCH   1   2
ATOM      2  C   UNL     1      -5.448  67.761  35.954  1.00  0.00    -0.009 C 
BRANCH   2   3
ATOM      3  C   UNL     1      -6.344  67.529  34.708  1.00  0.00     0.000 C 
ATOM      4  C   UNL     1      -7.544  66.626  35.003  1.00  0.00     0.004 C 
ENDBRANCH   2   3
BRANCH   2   5
ATOM      5  C   UNL     1      -5.900  68.980  36.835  1.00  0.00    -0.014 C 
ATOM      6  C   UNL     1      -6.134  68.658  38.322  1.00  0.00     0.007 C 
ATOM      7  C   UNL     1      -4.898  70.144  36.723  1.00  0.00     0.007 C 
ENDBRANCH   2   5
ENDBRANCH   1   2
BRANCH   1   8
ATOM      8  C   UNL     1      -3.464  66.855  34.475  1.00  0.00     0.004 C 
BRANCH   8   9
ATOM      9  C   UNL     1      -3.073  67.651  33.194  1.00  0.00    -0.011 C 
ATOM     10  C   UNL     1      -2.816  69.131  33.586  1.00  0.00     0.008 C 
BRANCH   9  11
ATOM     11  C   UNL     1      -4.089  67.523  31.981  1.00  0.00    -0.002 C 
ATOM     12  C   UNL     1      -4.648  66.098  31.818  1.00  0.00     0.005 C 
ATOM     13  C   UNL     1      -3.520  67.830  30.535  1.00  0.00    -0.026 C 
ATOM     14  C   UNL     1      -3.639  65.381  30.953  1.00  0.00     0.005 C 
ATOM     15  C   UNL     1      -3.179  66.423  29.926  1.00  0.00    -0.001 C 
ATOM     16  C   UNL     1      -4.625  68.547  29.706  1.00  0.00     0.007 C 
ATOM     17  C   UNL     1      -2.267  68.747  30.521  1.00  0.00     0.012 C 
ATOM     18  C   UNL     1      -3.686  66.164  28.460  1.00  0.00     0.004 C 
ATOM     19  C   UNL     1      -4.346  68.619  28.190  1.00  0.00     0.005 C 
ATOM     20  C   UNL     1      -3.504  67.443  27.604  1.00  0.00     0.003 C 
ATOM     21  C   UNL     1      -5.122  65.585  28.319  1.00  0.00     0.085 C 
ATOM     22  C   UNL     1      -3.776  67.185  26.074  1.00  0.00    -0.000 C 
ATOM     23  C   UNL     1      -5.676  65.631  26.918  1.00  0.00     0.159 C 
ATOM     24  C   UNL     1      -5.162  66.579  25.893  1.00  0.00     0.005 C 
ATOM     25  C   UNL     1      -3.645  68.523  25.273  1.00  0.00     0.020 C 
ATOM     26  C   UNL     1      -2.736  66.178  25.509  1.00  0.00     0.017 C 
ATOM     27  O   UNL     1      -6.648  64.876  26.643  1.00  0.00    -0.295 OA
ATOM     28  C   UNL     1      -5.872  66.797  24.769  1.00  0.00     0.055 C 
ATOM     29  C   UNL     1      -4.078  68.397  23.807  1.00  0.00     0.081 C 
ATOM     30  C   UNL     1      -5.395  67.689  23.698  1.00  0.00     0.156 C 
ATOM     31  O   UNL     1      -6.090  67.832  22.658  1.00  0.00    -0.295 OA
ENDBRANCH   9  11
ENDBRANCH   8   9
ENDBRANCH   1   8
TORSDOF 6
ENDMDL
