MODEL 1
REMARK VINA RESULT:    -3.035      0.000      0.000
REMARK INTER + INTRA:          -3.348
REMARK INTER:                  -3.302
REMARK INTRA:                  -0.046
REMARK UNBOUND:                -0.046
REMARK SMILES COc1ccccc1O
REMARK SMILES IDX 3 1 4 2 5 3 6 4 7 5 8 6 2 7 1 8 9 9
REMARK H PARENT 9 10
REMARK Flexibility Score: inf
ROOT
ATOM      1  C   UNL     1      23.657  17.086   0.517  1.00  0.00     0.160 A 
ATOM      2  C   UNL     1      22.633  18.021   0.262  1.00  0.00     0.050 A 
ATOM      3  C   UNL     1      22.074  18.123  -1.014  1.00  0.00     0.004 A 
ATOM      4  C   UNL     1      22.528  17.299  -2.046  1.00  0.00     0.004 A 
ATOM      5  C   UNL     1      23.543  16.371  -1.804  1.00  0.00     0.050 A 
ATOM      6  C   UNL     1      24.108  16.261  -0.524  1.00  0.00     0.157 A 
ENDROOT
BRANCH   1   7
ATOM      7  O   UNL     1      24.247  16.950   1.784  1.00  0.00    -0.493 OA
ATOM      8  C   UNL     1      25.229  17.834   2.314  1.00  0.00     0.278 C 
ENDBRANCH   1   7
BRANCH   6   9
ATOM      9  O   UNL     1      25.121  15.335  -0.281  1.00  0.00    -0.504 OA
ATOM     10  H   UNL     1      25.647  15.340   0.586  1.00  0.00     0.293 HD
ENDBRANCH   6   9
TORSDOF 2
ENDMDL
MODEL 2
REMARK VINA RESULT:    -2.971     17.185     17.919
REMARK INTER + INTRA:          -3.278
REMARK INTER:                  -3.251
REMARK INTRA:                  -0.027
REMARK UNBOUND:                -0.046
REMARK SMILES COc1ccccc1O
REMARK SMILES IDX 3 1 4 2 5 3 6 4 7 5 8 6 2 7 1 8 9 9
REMARK H PARENT 9 10
REMARK Flexibility Score: inf
ROOT
ATOM      1  C   UNL     1      12.512   3.487  -2.527  1.00  0.00     0.160 A 
ATOM      2  C   UNL     1      13.233   4.540  -1.929  1.00  0.00     0.050 A 
ATOM      3  C   UNL     1      12.558   5.615  -1.345  1.00  0.00     0.004 A 
ATOM      4  C   UNL     1      11.161   5.653  -1.352  1.00  0.00     0.004 A 
ATOM      5  C   UNL     1      10.438   4.615  -1.944  1.00  0.00     0.050 A 
ATOM      6  C   UNL     1      11.109   3.532  -2.531  1.00  0.00     0.157 A 
ENDROOT
BRANCH   1   7
ATOM      7  O   UNL     1      13.149   2.389  -3.125  1.00  0.00    -0.493 OA
ATOM      8  C   UNL     1      14.541   2.110  -3.019  1.00  0.00     0.278 C 
ENDBRANCH   1   7
BRANCH   6   9
ATOM      9  O   UNL     1      10.388   2.495  -3.121  1.00  0.00    -0.504 OA
ATOM     10  H   UNL     1       9.984   1.748  -2.568  1.00  0.00     0.293 HD
ENDBRANCH   6   9
TORSDOF 2
ENDMDL
MODEL 3
REMARK VINA RESULT:    -2.884     17.120     17.758
REMARK INTER + INTRA:          -3.183
REMARK INTER:                  -3.143
REMARK INTRA:                  -0.041
REMARK UNBOUND:                -0.046
REMARK SMILES COc1ccccc1O
REMARK SMILES IDX 3 1 4 2 5 3 6 4 7 5 8 6 2 7 1 8 9 9
REMARK H PARENT 9 10
REMARK Flexibility Score: inf
ROOT
ATOM      1  C   UNL     1      11.495   4.698  -1.390  1.00  0.00     0.160 A 
ATOM      2  C   UNL     1      12.864   4.675  -1.053  1.00  0.00     0.050 A 
ATOM      3  C   UNL     1      13.747   3.847  -1.749  1.00  0.00     0.004 A 
ATOM      4  C   UNL     1      13.279   3.034  -2.785  1.00  0.00     0.004 A 
ATOM      5  C   UNL     1      11.925   3.049  -3.125  1.00  0.00     0.050 A 
ATOM      6  C   UNL     1      11.031   3.879  -2.431  1.00  0.00     0.157 A 
ENDROOT
BRANCH   1   7
ATOM      7  O   UNL     1      10.573   5.514  -0.718  1.00  0.00    -0.493 OA
ATOM      8  C   UNL     1      10.338   6.884  -1.024  1.00  0.00     0.278 C 
ENDBRANCH   1   7
BRANCH   6   9
ATOM      9  O   UNL     1       9.679   3.895  -2.770  1.00  0.00    -0.504 OA
ATOM     10  H   UNL     1       9.251   3.128  -3.277  1.00  0.00     0.293 HD
ENDBRANCH   6   9
TORSDOF 2
ENDMDL
MODEL 4
REMARK VINA RESULT:    -2.844     15.201     15.819
REMARK INTER + INTRA:          -3.140
REMARK INTER:                  -3.104
REMARK INTRA:                  -0.036
REMARK UNBOUND:                -0.046
REMARK SMILES COc1ccccc1O
REMARK SMILES IDX 3 1 4 2 5 3 6 4 7 5 8 6 2 7 1 8 9 9
REMARK H PARENT 9 10
REMARK Flexibility Score: inf
ROOT
ATOM      1  C   UNL     1      11.593   7.298  -1.808  1.00  0.00     0.160 A 
ATOM      2  C   UNL     1      10.711   6.665  -0.909  1.00  0.00     0.050 A 
ATOM      3  C   UNL     1      10.979   5.374  -0.449  1.00  0.00     0.004 A 
ATOM      4  C   UNL     1      12.125   4.701  -0.879  1.00  0.00     0.004 A 
ATOM      5  C   UNL     1      13.005   5.319  -1.770  1.00  0.00     0.050 A 
ATOM      6  C   UNL     1      12.742   6.616  -2.235  1.00  0.00     0.157 A 
ENDROOT
BRANCH   1   7
ATOM      7  O   UNL     1      11.362   8.594  -2.295  1.00  0.00    -0.493 OA
ATOM      8  C   UNL     1      11.756   9.787  -1.625  1.00  0.00     0.278 C 
ENDBRANCH   1   7
BRANCH   6   9
ATOM      9  O   UNL     1      13.620   7.235  -3.125  1.00  0.00    -0.504 OA
ATOM     10  H   UNL     1      14.299   6.702  -3.656  1.00  0.00     0.293 HD
ENDBRANCH   6   9
TORSDOF 2
ENDMDL
MODEL 5
REMARK VINA RESULT:    -2.806     15.978     16.992
REMARK INTER + INTRA:          -3.099
REMARK INTER:                  -3.092
REMARK INTRA:                  -0.007
REMARK UNBOUND:                -0.046
REMARK SMILES COc1ccccc1O
REMARK SMILES IDX 3 1 4 2 5 3 6 4 7 5 8 6 2 7 1 8 9 9
REMARK H PARENT 9 10
REMARK Flexibility Score: inf
ROOT
ATOM      1  C   UNL     1      18.747   1.612  -2.859  1.00  0.00     0.160 A 
ATOM      2  C   UNL     1      19.860   2.469  -2.738  1.00  0.00     0.050 A 
ATOM      3  C   UNL     1      21.156   1.950  -2.764  1.00  0.00     0.004 A 
ATOM      4  C   UNL     1      21.358   0.575  -2.909  1.00  0.00     0.004 A 
ATOM      5  C   UNL     1      20.263  -0.282  -3.028  1.00  0.00     0.050 A 
ATOM      6  C   UNL     1      18.958   0.232  -3.005  1.00  0.00     0.157 A 
ENDROOT
BRANCH   1   7
ATOM      7  O   UNL     1      17.428   2.091  -2.839  1.00  0.00    -0.493 OA
ATOM      8  C   UNL     1      16.626   2.189  -1.667  1.00  0.00     0.278 C 
ENDBRANCH   1   7
BRANCH   6   9
ATOM      9  O   UNL     1      17.863  -0.623  -3.124  1.00  0.00    -0.504 OA
ATOM     10  H   UNL     1      17.436  -1.055  -2.312  1.00  0.00     0.293 HD
ENDBRANCH   6   9
TORSDOF 2
ENDMDL
MODEL 6
REMARK VINA RESULT:    -2.724     15.655     16.352
REMARK INTER + INTRA:          -3.010
REMARK INTER:                  -2.964
REMARK INTRA:                  -0.045
REMARK UNBOUND:                -0.046
REMARK SMILES COc1ccccc1O
REMARK SMILES IDX 3 1 4 2 5 3 6 4 7 5 8 6 2 7 1 8 9 9
REMARK H PARENT 9 10
REMARK Flexibility Score: inf
ROOT
ATOM      1  C   UNL     1      12.592   5.288  -1.561  1.00  0.00     0.160 A 
ATOM      2  C   UNL     1      11.520   5.042  -0.680  1.00  0.00     0.050 A 
ATOM      3  C   UNL     1      10.524   6.003  -0.496  1.00  0.00     0.004 A 
ATOM      4  C   UNL     1      10.584   7.217  -1.186  1.00  0.00     0.004 A 
ATOM      5  C   UNL     1      11.643   7.470  -2.060  1.00  0.00     0.050 A 
ATOM      6  C   UNL     1      12.647   6.509  -2.251  1.00  0.00     0.157 A 
ENDROOT
BRANCH   1   7
ATOM      7  O   UNL     1      13.615   4.351  -1.776  1.00  0.00    -0.493 OA
ATOM      8  C   UNL     1      13.508   3.228  -2.646  1.00  0.00     0.278 C 
ENDBRANCH   1   7
BRANCH   6   9
ATOM      9  O   UNL     1      13.704   6.761  -3.124  1.00  0.00    -0.504 OA
ATOM     10  H   UNL     1      13.543   7.073  -4.075  1.00  0.00     0.293 HD
ENDBRANCH   6   9
TORSDOF 2
ENDMDL
MODEL 7
REMARK VINA RESULT:    -2.704     15.870     16.521
REMARK INTER + INTRA:          -2.988
REMARK INTER:                  -2.954
REMARK INTRA:                  -0.034
REMARK UNBOUND:                -0.046
REMARK SMILES COc1ccccc1O
REMARK SMILES IDX 3 1 4 2 5 3 6 4 7 5 8 6 2 7 1 8 9 9
REMARK H PARENT 9 10
REMARK Flexibility Score: inf
ROOT
ATOM      1  C   UNL     1      10.772   7.108  -1.343  1.00  0.00     0.160 A 
ATOM      2  C   UNL     1      10.711   6.016  -0.454  1.00  0.00     0.050 A 
ATOM      3  C   UNL     1      11.710   5.039  -0.468  1.00  0.00     0.004 A 
ATOM      4  C   UNL     1      12.776   5.140  -1.365  1.00  0.00     0.004 A 
ATOM      5  C   UNL     1      12.845   6.218  -2.249  1.00  0.00     0.050 A 
ATOM      6  C   UNL     1      11.846   7.203  -2.241  1.00  0.00     0.157 A 
ENDROOT
BRANCH   1   7
ATOM      7  O   UNL     1       9.791   8.112  -1.364  1.00  0.00    -0.493 OA
ATOM      8  C   UNL     1       8.390   7.868  -1.313  1.00  0.00     0.278 C 
ENDBRANCH   1   7
BRANCH   6   9
ATOM      9  O   UNL     1      11.914   8.280  -3.123  1.00  0.00    -0.504 OA
ATOM     10  H   UNL     1      12.081   9.225  -2.795  1.00  0.00     0.293 HD
ENDBRANCH   6   9
TORSDOF 2
ENDMDL
MODEL 8
REMARK VINA RESULT:    -2.686     15.231     15.943
REMARK INTER + INTRA:          -2.968
REMARK INTER:                  -2.922
REMARK INTRA:                  -0.046
REMARK UNBOUND:                -0.046
REMARK SMILES COc1ccccc1O
REMARK SMILES IDX 3 1 4 2 5 3 6 4 7 5 8 6 2 7 1 8 9 9
REMARK H PARENT 9 10
REMARK Flexibility Score: inf
ROOT
ATOM      1  C   UNL     1      12.280   7.047  -2.235  1.00  0.00     0.160 A 
ATOM      2  C   UNL     1      12.886   5.802  -1.969  1.00  0.00     0.050 A 
ATOM      3  C   UNL     1      12.293   4.906  -1.077  1.00  0.00     0.004 A 
ATOM      4  C   UNL     1      11.094   5.240  -0.441  1.00  0.00     0.004 A 
ATOM      5  C   UNL     1      10.487   6.471  -0.697  1.00  0.00     0.050 A 
ATOM      6  C   UNL     1      11.077   7.376  -1.593  1.00  0.00     0.157 A 
ENDROOT
BRANCH   1   7
ATOM      7  O   UNL     1      12.841   7.977  -3.124  1.00  0.00    -0.493 OA
ATOM      8  C   UNL     1      13.924   8.844  -2.805  1.00  0.00     0.278 C 
ENDBRANCH   1   7
BRANCH   6   9
ATOM      9  O   UNL     1      10.471   8.605  -1.850  1.00  0.00    -0.504 OA
ATOM     10  H   UNL     1       9.743   8.702  -2.549  1.00  0.00     0.293 HD
ENDBRANCH   6   9
TORSDOF 2
ENDMDL
MODEL 9
REMARK VINA RESULT:    -2.679     17.205     17.969
REMARK INTER + INTRA:          -2.961
REMARK INTER:                  -2.915
REMARK INTRA:                  -0.046
REMARK UNBOUND:                -0.046
REMARK SMILES COc1ccccc1O
REMARK SMILES IDX 3 1 4 2 5 3 6 4 7 5 8 6 2 7 1 8 9 9
REMARK H PARENT 9 10
REMARK Flexibility Score: inf
ROOT
ATOM      1  C   UNL     1      10.607   4.614  -2.061  1.00  0.00     0.160 A 
ATOM      2  C   UNL     1      11.107   3.651  -2.961  1.00  0.00     0.050 A 
ATOM      3  C   UNL     1      12.446   3.256  -2.899  1.00  0.00     0.004 A 
ATOM      4  C   UNL     1      13.298   3.815  -1.944  1.00  0.00     0.004 A 
ATOM      5  C   UNL     1      12.813   4.770  -1.049  1.00  0.00     0.050 A 
ATOM      6  C   UNL     1      11.470   5.171  -1.104  1.00  0.00     0.157 A 
ENDROOT
BRANCH   1   7
ATOM      7  O   UNL     1       9.270   5.039  -2.087  1.00  0.00    -0.493 OA
ATOM      8  C   UNL     1       8.746   5.990  -3.007  1.00  0.00     0.278 C 
ENDBRANCH   1   7
BRANCH   6   9
ATOM      9  O   UNL     1      10.984   6.125  -0.211  1.00  0.00    -0.504 OA
ATOM     10  H   UNL     1      11.445   7.019  -0.088  1.00  0.00     0.293 HD
ENDBRANCH   6   9
TORSDOF 2
ENDMDL
