MODEL 1
REMARK VINA RESULT:    -7.924      0.000      0.000
REMARK INTER + INTRA:         -10.133
REMARK INTER:                  -9.777
REMARK INTRA:                  -0.356
REMARK UNBOUND:                -0.356
REMARK SMILES O=c1c(O)c(-c2cc(O)c(O)c(O)c2)oc2cc(O)cc(O)c12
REMARK SMILES IDX 5 1 3 2 2 3 1 4 23 5 21 6 20 7 18 8 17 9 16 10 15 11 6 12
REMARK SMILES IDX 7 13 8 14 14 15 10 16 12 17 9 18 11 20 13 22 4 24 22 26
REMARK SMILES IDX 19 28
REMARK H PARENT 9 19 11 21 13 23 4 25 22 27 19 29
REMARK Flexibility Score: inf
ROOT
ATOM      1  C   UNL     1      49.023  61.888   2.997  1.00  0.00     0.180 A 
ATOM      2  C   UNL     1      48.972  63.180   2.445  1.00  0.00     0.208 A 
ATOM      3  C   UNL     1      47.742  63.858   2.413  1.00  0.00     0.238 A 
ATOM      4  O   UNL     1      47.717  65.041   1.986  1.00  0.00    -0.285 OA
ATOM      5  C   UNL     1      46.570  63.215   2.881  1.00  0.00     0.111 A 
ATOM      6  C   UNL     1      45.263  63.789   2.854  1.00  0.00     0.134 A 
ATOM      7  C   UNL     1      44.194  63.102   3.442  1.00  0.00     0.093 A 
ATOM      8  C   UNL     1      44.372  61.832   3.998  1.00  0.00     0.123 A 
ATOM      9  C   UNL     1      45.632  61.240   3.978  1.00  0.00     0.094 A 
ATOM     10  C   UNL     1      46.726  61.918   3.434  1.00  0.00     0.146 A 
ATOM     11  O   UNL     1      47.913  61.323   3.457  1.00  0.00    -0.452 OA
ENDROOT
BRANCH   1  12
ATOM     12  C   UNL     1      50.284  61.116   3.079  1.00  0.00     0.029 A 
ATOM     13  C   UNL     1      50.551  60.129   2.120  1.00  0.00     0.062 A 
ATOM     14  C   UNL     1      51.724  59.369   2.185  1.00  0.00     0.162 A 
ATOM     15  C   UNL     1      51.194  61.312   4.131  1.00  0.00     0.062 A 
ATOM     16  C   UNL     1      52.642  59.583   3.227  1.00  0.00     0.200 A 
ATOM     17  C   UNL     1      52.372  60.555   4.205  1.00  0.00     0.162 A 
BRANCH  14  18
ATOM     18  O   UNL     1      51.960  58.406   1.203  1.00  0.00    -0.504 OA
ATOM     19  H   UNL     1      52.496  58.609   0.367  1.00  0.00     0.293 HD
ENDBRANCH  14  18
BRANCH  16  20
ATOM     20  O   UNL     1      53.811  58.823   3.282  1.00  0.00    -0.502 OA
ATOM     21  H   UNL     1      54.215  58.517   4.160  1.00  0.00     0.293 HD
ENDBRANCH  16  20
BRANCH  17  22
ATOM     22  O   UNL     1      53.271  60.762   5.250  1.00  0.00    -0.504 OA
ATOM     23  H   UNL     1      53.541  60.011   5.876  1.00  0.00     0.293 HD
ENDBRANCH  17  22
ENDBRANCH   1  12
BRANCH   2  24
ATOM     24  O   UNL     1      50.125  63.767   1.919  1.00  0.00    -0.502 OA
ATOM     25  H   UNL     1      50.123  64.285   1.049  1.00  0.00     0.293 HD
ENDBRANCH   2  24
BRANCH   6  26
ATOM     26  O   UNL     1      44.956  65.011   2.246  1.00  0.00    -0.507 OA
ATOM     27  H   UNL     1      44.413  65.747   2.669  1.00  0.00     0.293 HD
ENDBRANCH   6  26
BRANCH   8  28
ATOM     28  O   UNL     1      43.300  61.148   4.565  1.00  0.00    -0.508 OA
ATOM     29  H   UNL     1      42.755  60.480   4.032  1.00  0.00     0.293 HD
ENDBRANCH   8  28
TORSDOF 7
ENDMDL
MODEL 2
REMARK VINA RESULT:    -7.794      2.945      4.564
REMARK INTER + INTRA:          -9.973
REMARK INTER:                  -9.638
REMARK INTRA:                  -0.335
REMARK UNBOUND:                -0.356
REMARK SMILES O=c1c(O)c(-c2cc(O)c(O)c(O)c2)oc2cc(O)cc(O)c12
REMARK SMILES IDX 5 1 3 2 2 3 1 4 23 5 21 6 20 7 18 8 17 9 16 10 15 11 6 12
REMARK SMILES IDX 7 13 8 14 14 15 10 16 12 17 9 18 11 20 13 22 4 24 22 26
REMARK SMILES IDX 19 28
REMARK H PARENT 9 19 11 21 13 23 4 25 22 27 19 29
REMARK Flexibility Score: inf
ROOT
ATOM      1  C   UNL     1      50.000  61.595   6.246  1.00  0.00     0.180 A 
ATOM      2  C   UNL     1      48.845  60.828   6.475  1.00  0.00     0.208 A 
ATOM      3  C   UNL     1      47.650  61.188   5.832  1.00  0.00     0.238 A 
ATOM      4  O   UNL     1      46.640  60.454   5.982  1.00  0.00    -0.285 OA
ATOM      5  C   UNL     1      47.611  62.342   5.011  1.00  0.00     0.111 A 
ATOM      6  C   UNL     1      46.444  62.827   4.346  1.00  0.00     0.134 A 
ATOM      7  C   UNL     1      46.549  63.918   3.475  1.00  0.00     0.093 A 
ATOM      8  C   UNL     1      47.764  64.582   3.295  1.00  0.00     0.123 A 
ATOM      9  C   UNL     1      48.896  64.152   3.983  1.00  0.00     0.094 A 
ATOM     10  C   UNL     1      48.832  63.042   4.828  1.00  0.00     0.146 A 
ATOM     11  O   UNL     1      49.941  62.653   5.447  1.00  0.00    -0.452 OA
ENDROOT
BRANCH   1  12
ATOM     12  C   UNL     1      51.300  61.269   6.878  1.00  0.00     0.029 A 
ATOM     13  C   UNL     1      52.250  60.531   6.157  1.00  0.00     0.062 A 
ATOM     14  C   UNL     1      53.477  60.190   6.735  1.00  0.00     0.162 A 
ATOM     15  C   UNL     1      51.580  61.635   8.204  1.00  0.00     0.062 A 
ATOM     16  C   UNL     1      53.763  60.577   8.056  1.00  0.00     0.200 A 
ATOM     17  C   UNL     1      52.808  61.297   8.793  1.00  0.00     0.162 A 
BRANCH  14  18
ATOM     18  O   UNL     1      54.401  59.468   5.980  1.00  0.00    -0.504 OA
ATOM     19  H   UNL     1      54.134  58.954   5.148  1.00  0.00     0.293 HD
ENDBRANCH  14  18
BRANCH  16  20
ATOM     20  O   UNL     1      54.991  60.236   8.623  1.00  0.00    -0.502 OA
ATOM     21  H   UNL     1      55.590  59.522   8.223  1.00  0.00     0.293 HD
ENDBRANCH  16  20
BRANCH  17  22
ATOM     22  O   UNL     1      53.078  61.671  10.108  1.00  0.00    -0.504 OA
ATOM     23  H   UNL     1      53.747  61.165  10.678  1.00  0.00     0.293 HD
ENDBRANCH  17  22
ENDBRANCH   1  12
BRANCH   2  24
ATOM     24  O   UNL     1      48.885  59.737   7.348  1.00  0.00    -0.502 OA
ATOM     25  H   UNL     1      49.083  59.838   8.336  1.00  0.00     0.293 HD
ENDBRANCH   2  24
BRANCH   6  26
ATOM     26  O   UNL     1      45.164  62.293   4.523  1.00  0.00    -0.507 OA
ATOM     27  H   UNL     1      44.965  61.336   4.767  1.00  0.00     0.293 HD
ENDBRANCH   6  26
BRANCH   8  28
ATOM     28  O   UNL     1      47.856  65.678   2.440  1.00  0.00    -0.508 OA
ATOM     29  H   UNL     1      47.043  66.042   1.955  1.00  0.00     0.293 HD
ENDBRANCH   8  28
TORSDOF 7
ENDMDL
MODEL 3
REMARK VINA RESULT:    -7.737      1.663      3.660
REMARK INTER + INTRA:          -9.902
REMARK INTER:                  -9.559
REMARK INTRA:                  -0.343
REMARK UNBOUND:                -0.356
REMARK SMILES O=c1c(O)c(-c2cc(O)c(O)c(O)c2)oc2cc(O)cc(O)c12
REMARK SMILES IDX 5 1 3 2 2 3 1 4 23 5 21 6 20 7 18 8 17 9 16 10 15 11 6 12
REMARK SMILES IDX 7 13 8 14 14 15 10 16 12 17 9 18 11 20 13 22 4 24 22 26
REMARK SMILES IDX 19 28
REMARK H PARENT 9 19 11 21 13 23 4 25 22 27 19 29
REMARK Flexibility Score: inf
ROOT
ATOM      1  C   UNL     1      49.207  62.241   3.893  1.00  0.00     0.180 A 
ATOM      2  C   UNL     1      47.967  61.802   4.387  1.00  0.00     0.208 A 
ATOM      3  C   UNL     1      46.889  62.702   4.419  1.00  0.00     0.238 A 
ATOM      4  O   UNL     1      45.764  62.282   4.792  1.00  0.00    -0.285 OA
ATOM      5  C   UNL     1      47.079  64.045   4.009  1.00  0.00     0.111 A 
ATOM      6  C   UNL     1      46.070  65.055   4.042  1.00  0.00     0.134 A 
ATOM      7  C   UNL     1      46.344  66.321   3.512  1.00  0.00     0.093 A 
ATOM      8  C   UNL     1      47.609  66.635   3.010  1.00  0.00     0.123 A 
ATOM      9  C   UNL     1      48.616  65.673   3.024  1.00  0.00     0.094 A 
ATOM     10  C   UNL     1      48.363  64.389   3.511  1.00  0.00     0.146 A 
ATOM     11  O   UNL     1      49.347  63.497   3.485  1.00  0.00    -0.452 OA
ENDROOT
BRANCH   1  12
ATOM     12  C   UNL     1      50.385  61.347   3.814  1.00  0.00     0.029 A 
ATOM     13  C   UNL     1      51.402  61.462   4.773  1.00  0.00     0.062 A 
ATOM     14  C   UNL     1      52.537  60.646   4.712  1.00  0.00     0.162 A 
ATOM     15  C   UNL     1      50.534  60.425   2.766  1.00  0.00     0.062 A 
ATOM     16  C   UNL     1      52.672  59.709   3.673  1.00  0.00     0.200 A 
ATOM     17  C   UNL     1      51.668  59.603   2.695  1.00  0.00     0.162 A 
BRANCH  14  18
ATOM     18  O   UNL     1      53.519  60.781   5.693  1.00  0.00    -0.504 OA
ATOM     19  H   UNL     1      54.500  60.614   5.501  1.00  0.00     0.293 HD
ENDBRANCH  14  18
BRANCH  16  20
ATOM     20  O   UNL     1      53.805  58.897   3.621  1.00  0.00    -0.502 OA
ATOM     21  H   UNL     1      54.699  59.194   3.996  1.00  0.00     0.293 HD
ENDBRANCH  16  20
BRANCH  17  22
ATOM     22  O   UNL     1      51.803  58.687   1.654  1.00  0.00    -0.504 OA
ATOM     23  H   UNL     1      52.448  57.906   1.712  1.00  0.00     0.293 HD
ENDBRANCH  17  22
ENDBRANCH   1  12
BRANCH   2  24
ATOM     24  O   UNL     1      47.819  60.495   4.858  1.00  0.00    -0.502 OA
ATOM     25  H   UNL     1      48.217  59.696   4.380  1.00  0.00     0.293 HD
ENDBRANCH   2  24
BRANCH   6  26
ATOM     26  O   UNL     1      44.802  64.876   4.602  1.00  0.00    -0.507 OA
ATOM     27  H   UNL     1      44.571  64.190   5.303  1.00  0.00     0.293 HD
ENDBRANCH   6  26
BRANCH   8  28
ATOM     28  O   UNL     1      47.878  67.903   2.500  1.00  0.00    -0.508 OA
ATOM     29  H   UNL     1      48.425  68.579   3.021  1.00  0.00     0.293 HD
ENDBRANCH   8  28
TORSDOF 7
ENDMDL
MODEL 4
REMARK VINA RESULT:    -7.734      3.012      7.644
REMARK INTER + INTRA:          -9.899
REMARK INTER:                  -9.588
REMARK INTRA:                  -0.310
REMARK UNBOUND:                -0.356
REMARK SMILES O=c1c(O)c(-c2cc(O)c(O)c(O)c2)oc2cc(O)cc(O)c12
REMARK SMILES IDX 5 1 3 2 2 3 1 4 23 5 21 6 20 7 18 8 17 9 16 10 15 11 6 12
REMARK SMILES IDX 7 13 8 14 14 15 10 16 12 17 9 18 11 20 13 22 4 24 22 26
REMARK SMILES IDX 19 28
REMARK H PARENT 9 19 11 21 13 23 4 25 22 27 19 29
REMARK Flexibility Score: inf
ROOT
ATOM      1  C   UNL     1      50.075  61.386   5.786  1.00  0.00     0.180 A 
ATOM      2  C   UNL     1      50.895  60.603   4.955  1.00  0.00     0.208 A 
ATOM      3  C   UNL     1      52.118  60.129   5.457  1.00  0.00     0.238 A 
ATOM      4  O   UNL     1      52.811  59.368   4.735  1.00  0.00    -0.285 OA
ATOM      5  C   UNL     1      52.531  60.489   6.763  1.00  0.00     0.111 A 
ATOM      6  C   UNL     1      53.771  60.104   7.358  1.00  0.00     0.134 A 
ATOM      7  C   UNL     1      54.026  60.430   8.696  1.00  0.00     0.093 A 
ATOM      8  C   UNL     1      53.115  61.183   9.440  1.00  0.00     0.123 A 
ATOM      9  C   UNL     1      51.928  61.612   8.851  1.00  0.00     0.094 A 
ATOM     10  C   UNL     1      51.628  61.269   7.531  1.00  0.00     0.146 A 
ATOM     11  O   UNL     1      50.474  61.681   7.017  1.00  0.00    -0.452 OA
ENDROOT
BRANCH   1  12
ATOM     12  C   UNL     1      48.766  61.910   5.333  1.00  0.00     0.029 A 
ATOM     13  C   UNL     1      47.662  61.048   5.276  1.00  0.00     0.062 A 
ATOM     14  C   UNL     1      46.418  61.509   4.831  1.00  0.00     0.162 A 
ATOM     15  C   UNL     1      48.619  63.240   4.905  1.00  0.00     0.062 A 
ATOM     16  C   UNL     1      46.270  62.846   4.424  1.00  0.00     0.200 A 
ATOM     17  C   UNL     1      47.377  63.711   4.457  1.00  0.00     0.162 A 
BRANCH  14  18
ATOM     18  O   UNL     1      45.341  60.623   4.803  1.00  0.00    -0.504 OA
ATOM     19  H   UNL     1      44.791  60.470   3.966  1.00  0.00     0.293 HD
ENDBRANCH  14  18
BRANCH  16  20
ATOM     20  O   UNL     1      45.025  63.299   3.986  1.00  0.00    -0.502 OA
ATOM     21  H   UNL     1      44.310  62.666   3.645  1.00  0.00     0.293 HD
ENDBRANCH  16  20
BRANCH  17  22
ATOM     22  O   UNL     1      47.241  65.034   4.040  1.00  0.00    -0.504 OA
ATOM     23  H   UNL     1      48.034  65.664   4.002  1.00  0.00     0.293 HD
ENDBRANCH  17  22
ENDBRANCH   1  12
BRANCH   2  24
ATOM     24  O   UNL     1      50.505  60.323   3.643  1.00  0.00    -0.502 OA
ATOM     25  H   UNL     1      49.989  60.983   3.076  1.00  0.00     0.293 HD
ENDBRANCH   2  24
BRANCH   6  26
ATOM     26  O   UNL     1      54.788  59.426   6.679  1.00  0.00    -0.507 OA
ATOM     27  H   UNL     1      55.116  59.654   5.753  1.00  0.00     0.293 HD
ENDBRANCH   6  26
BRANCH   8  28
ATOM     28  O   UNL     1      53.385  61.518  10.765  1.00  0.00    -0.508 OA
ATOM     29  H   UNL     1      53.199  62.447  11.126  1.00  0.00     0.293 HD
ENDBRANCH   8  28
TORSDOF 7
ENDMDL
MODEL 5
REMARK VINA RESULT:    -7.713      4.916      7.336
REMARK INTER + INTRA:          -9.872
REMARK INTER:                  -9.863
REMARK INTRA:                  -0.009
REMARK UNBOUND:                -0.356
REMARK SMILES O=c1c(O)c(-c2cc(O)c(O)c(O)c2)oc2cc(O)cc(O)c12
REMARK SMILES IDX 5 1 3 2 2 3 1 4 23 5 21 6 20 7 18 8 17 9 16 10 15 11 6 12
REMARK SMILES IDX 7 13 8 14 14 15 10 16 12 17 9 18 11 20 13 22 4 24 22 26
REMARK SMILES IDX 19 28
REMARK H PARENT 9 19 11 21 13 23 4 25 22 27 19 29
REMARK Flexibility Score: inf
ROOT
ATOM      1  C   UNL     1      52.839  59.675   3.653  1.00  0.00     0.180 A 
ATOM      2  C   UNL     1      52.303  60.854   4.196  1.00  0.00     0.208 A 
ATOM      3  C   UNL     1      52.581  61.174   5.536  1.00  0.00     0.238 A 
ATOM      4  O   UNL     1      52.160  62.267   5.994  1.00  0.00    -0.285 OA
ATOM      5  C   UNL     1      53.345  60.283   6.329  1.00  0.00     0.111 A 
ATOM      6  C   UNL     1      53.650  60.483   7.710  1.00  0.00     0.134 A 
ATOM      7  C   UNL     1      54.503  59.587   8.365  1.00  0.00     0.093 A 
ATOM      8  C   UNL     1      55.010  58.463   7.709  1.00  0.00     0.123 A 
ATOM      9  C   UNL     1      54.674  58.230   6.378  1.00  0.00     0.094 A 
ATOM     10  C   UNL     1      53.856  59.126   5.686  1.00  0.00     0.146 A 
ATOM     11  O   UNL     1      53.578  58.875   4.412  1.00  0.00    -0.452 OA
ENDROOT
BRANCH   1  12
ATOM     12  C   UNL     1      52.602  59.278   2.245  1.00  0.00     0.029 A 
ATOM     13  C   UNL     1      51.290  59.232   1.754  1.00  0.00     0.062 A 
ATOM     14  C   UNL     1      51.034  58.840   0.436  1.00  0.00     0.162 A 
ATOM     15  C   UNL     1      53.660  58.889   1.407  1.00  0.00     0.062 A 
ATOM     16  C   UNL     1      52.097  58.473  -0.406  1.00  0.00     0.200 A 
ATOM     17  C   UNL     1      53.414  58.494   0.084  1.00  0.00     0.162 A 
BRANCH  14  18
ATOM     18  O   UNL     1      49.715  58.823  -0.019  1.00  0.00    -0.504 OA
ATOM     19  H   UNL     1      49.287  59.627  -0.462  1.00  0.00     0.293 HD
ENDBRANCH  14  18
BRANCH  16  20
ATOM     20  O   UNL     1      51.833  58.087  -1.721  1.00  0.00    -0.502 OA
ATOM     21  H   UNL     1      51.281  57.266  -1.942  1.00  0.00     0.293 HD
ENDBRANCH  16  20
BRANCH  17  22
ATOM     22  O   UNL     1      54.472  58.117  -0.740  1.00  0.00    -0.504 OA
ATOM     23  H   UNL     1      54.335  57.923  -1.726  1.00  0.00     0.293 HD
ENDBRANCH  17  22
ENDBRANCH   1  12
BRANCH   2  24
ATOM     24  O   UNL     1      51.488  61.682   3.420  1.00  0.00    -0.502 OA
ATOM     25  H   UNL     1      51.535  62.692   3.468  1.00  0.00     0.293 HD
ENDBRANCH   2  24
BRANCH   6  26
ATOM     26  O   UNL     1      53.126  61.522   8.485  1.00  0.00    -0.507 OA
ATOM     27  H   UNL     1      52.811  61.430   9.438  1.00  0.00     0.293 HD
ENDBRANCH   6  26
BRANCH   8  28
ATOM     28  O   UNL     1      55.845  57.568   8.373  1.00  0.00    -0.508 OA
ATOM     29  H   UNL     1      55.518  57.025   9.165  1.00  0.00     0.293 HD
ENDBRANCH   8  28
TORSDOF 7
ENDMDL
MODEL 6
REMARK VINA RESULT:    -7.676      4.626      7.445
REMARK INTER + INTRA:          -9.827
REMARK INTER:                  -9.484
REMARK INTRA:                  -0.344
REMARK UNBOUND:                -0.356
REMARK SMILES O=c1c(O)c(-c2cc(O)c(O)c(O)c2)oc2cc(O)cc(O)c12
REMARK SMILES IDX 5 1 3 2 2 3 1 4 23 5 21 6 20 7 18 8 17 9 16 10 15 11 6 12
REMARK SMILES IDX 7 13 8 14 14 15 10 16 12 17 9 18 11 20 13 22 4 24 22 26
REMARK SMILES IDX 19 28
REMARK H PARENT 9 19 11 21 13 23 4 25 22 27 19 29
REMARK Flexibility Score: inf
ROOT
ATOM      1  C   UNL     1      52.367  59.583   3.245  1.00  0.00     0.180 A 
ATOM      2  C   UNL     1      51.215  59.666   2.444  1.00  0.00     0.208 A 
ATOM      3  C   UNL     1      51.301  59.305   1.089  1.00  0.00     0.238 A 
ATOM      4  O   UNL     1      50.251  59.311   0.397  1.00  0.00    -0.285 OA
ATOM      5  C   UNL     1      52.548  58.919   0.540  1.00  0.00     0.111 A 
ATOM      6  C   UNL     1      52.761  58.576  -0.830  1.00  0.00     0.134 A 
ATOM      7  C   UNL     1      54.015  58.106  -1.237  1.00  0.00     0.093 A 
ATOM      8  C   UNL     1      55.083  58.028  -0.338  1.00  0.00     0.123 A 
ATOM      9  C   UNL     1      54.900  58.414   0.987  1.00  0.00     0.094 A 
ATOM     10  C   UNL     1      53.650  58.850   1.432  1.00  0.00     0.146 A 
ATOM     11  O   UNL     1      53.515  59.187   2.710  1.00  0.00    -0.452 OA
ENDROOT
BRANCH   1  12
ATOM     12  C   UNL     1      52.352  59.933   4.684  1.00  0.00     0.029 A 
ATOM     13  C   UNL     1      52.486  61.275   5.068  1.00  0.00     0.062 A 
ATOM     14  C   UNL     1      52.498  61.633   6.420  1.00  0.00     0.162 A 
ATOM     15  C   UNL     1      52.264  58.943   5.677  1.00  0.00     0.062 A 
ATOM     16  C   UNL     1      52.388  60.641   7.410  1.00  0.00     0.200 A 
ATOM     17  C   UNL     1      52.276  59.292   7.035  1.00  0.00     0.162 A 
BRANCH  14  18
ATOM     18  O   UNL     1      52.618  62.981   6.760  1.00  0.00    -0.504 OA
ATOM     19  H   UNL     1      51.821  63.539   7.043  1.00  0.00     0.293 HD
ENDBRANCH  14  18
BRANCH  16  20
ATOM     20  O   UNL     1      52.397  61.008   8.756  1.00  0.00    -0.502 OA
ATOM     21  H   UNL     1      53.046  60.605   9.421  1.00  0.00     0.293 HD
ENDBRANCH  16  20
BRANCH  17  22
ATOM     22  O   UNL     1      52.182  58.302   8.011  1.00  0.00    -0.504 OA
ATOM     23  H   UNL     1      51.615  58.427   8.842  1.00  0.00     0.293 HD
ENDBRANCH  17  22
ENDBRANCH   1  12
BRANCH   2  24
ATOM     24  O   UNL     1      50.011  60.123   2.986  1.00  0.00    -0.502 OA
ATOM     25  H   UNL     1      49.110  59.805   2.654  1.00  0.00     0.293 HD
ENDBRANCH   2  24
BRANCH   6  26
ATOM     26  O   UNL     1      51.790  58.700  -1.828  1.00  0.00    -0.507 OA
ATOM     27  H   UNL     1      50.928  59.213  -1.735  1.00  0.00     0.293 HD
ENDBRANCH   6  26
BRANCH   8  28
ATOM     28  O   UNL     1      56.332  57.576  -0.756  1.00  0.00    -0.508 OA
ATOM     29  H   UNL     1      56.803  57.983  -1.557  1.00  0.00     0.293 HD
ENDBRANCH   8  28
TORSDOF 7
ENDMDL
MODEL 7
REMARK VINA RESULT:    -7.655      4.905      7.235
REMARK INTER + INTRA:          -9.801
REMARK INTER:                  -9.841
REMARK INTRA:                   0.040
REMARK UNBOUND:                -0.356
REMARK SMILES O=c1c(O)c(-c2cc(O)c(O)c(O)c2)oc2cc(O)cc(O)c12
REMARK SMILES IDX 5 1 3 2 2 3 1 4 23 5 21 6 20 7 18 8 17 9 16 10 15 11 6 12
REMARK SMILES IDX 7 13 8 14 14 15 10 16 12 17 9 18 11 20 13 22 4 24 22 26
REMARK SMILES IDX 19 28
REMARK H PARENT 9 19 11 21 13 23 4 25 22 27 19 29
REMARK Flexibility Score: inf
ROOT
ATOM      1  C   UNL     1      52.803  59.685   3.604  1.00  0.00     0.180 A 
ATOM      2  C   UNL     1      52.198  60.860   4.081  1.00  0.00     0.208 A 
ATOM      3  C   UNL     1      52.407  61.239   5.418  1.00  0.00     0.238 A 
ATOM      4  O   UNL     1      51.924  62.329   5.817  1.00  0.00    -0.285 OA
ATOM      5  C   UNL     1      53.174  60.411   6.274  1.00  0.00     0.111 A 
ATOM      6  C   UNL     1      53.414  60.674   7.657  1.00  0.00     0.134 A 
ATOM      7  C   UNL     1      54.276  59.840   8.379  1.00  0.00     0.093 A 
ATOM      8  C   UNL     1      54.855  58.715   7.786  1.00  0.00     0.123 A 
ATOM      9  C   UNL     1      54.582  58.419   6.453  1.00  0.00     0.094 A 
ATOM     10  C   UNL     1      53.758  59.254   5.695  1.00  0.00     0.146 A 
ATOM     11  O   UNL     1      53.543  58.945   4.422  1.00  0.00    -0.452 OA
ENDROOT
BRANCH   1  12
ATOM     12  C   UNL     1      52.640  59.227   2.205  1.00  0.00     0.029 A 
ATOM     13  C   UNL     1      53.772  58.850   1.467  1.00  0.00     0.062 A 
ATOM     14  C   UNL     1      53.652  58.434   0.137  1.00  0.00     0.162 A 
ATOM     15  C   UNL     1      51.382  59.217   1.580  1.00  0.00     0.062 A 
ATOM     16  C   UNL     1      52.388  58.405  -0.477  1.00  0.00     0.200 A 
ATOM     17  C   UNL     1      51.252  58.802   0.247  1.00  0.00     0.162 A 
BRANCH  14  18
ATOM     18  O   UNL     1      54.800  58.053  -0.557  1.00  0.00    -0.504 OA
ATOM     19  H   UNL     1      55.200  58.625  -1.293  1.00  0.00     0.293 HD
ENDBRANCH  14  18
BRANCH  16  20
ATOM     20  O   UNL     1      52.277  57.985  -1.803  1.00  0.00    -0.502 OA
ATOM     21  H   UNL     1      53.018  58.132  -2.480  1.00  0.00     0.293 HD
ENDBRANCH  16  20
BRANCH  17  22
ATOM     22  O   UNL     1      49.998  58.790  -0.360  1.00  0.00    -0.504 OA
ATOM     23  H   UNL     1      49.285  59.472  -0.125  1.00  0.00     0.293 HD
ENDBRANCH  17  22
ENDBRANCH   1  12
BRANCH   2  24
ATOM     24  O   UNL     1      51.382  61.623   3.242  1.00  0.00    -0.502 OA
ATOM     25  H   UNL     1      51.757  62.240   2.533  1.00  0.00     0.293 HD
ENDBRANCH   2  24
BRANCH   6  26
ATOM     26  O   UNL     1      52.817  61.718   8.370  1.00  0.00    -0.507 OA
ATOM     27  H   UNL     1      53.301  62.339   8.999  1.00  0.00     0.293 HD
ENDBRANCH   6  26
BRANCH   8  28
ATOM     28  O   UNL     1      55.698  57.881   8.516  1.00  0.00    -0.508 OA
ATOM     29  H   UNL     1      56.706  57.981   8.479  1.00  0.00     0.293 HD
ENDBRANCH   8  28
TORSDOF 7
ENDMDL
MODEL 8
REMARK VINA RESULT:    -7.647      4.622      7.374
REMARK INTER + INTRA:          -9.791
REMARK INTER:                  -9.443
REMARK INTRA:                  -0.347
REMARK UNBOUND:                -0.356
REMARK SMILES O=c1c(O)c(-c2cc(O)c(O)c(O)c2)oc2cc(O)cc(O)c12
REMARK SMILES IDX 5 1 3 2 2 3 1 4 23 5 21 6 20 7 18 8 17 9 16 10 15 11 6 12
REMARK SMILES IDX 7 13 8 14 14 15 10 16 12 17 9 18 11 20 13 22 4 24 22 26
REMARK SMILES IDX 19 28
REMARK H PARENT 9 19 11 21 13 23 4 25 22 27 19 29
REMARK Flexibility Score: inf
ROOT
ATOM      1  C   UNL     1      52.367  59.598   3.263  1.00  0.00     0.180 A 
ATOM      2  C   UNL     1      51.199  59.654   2.483  1.00  0.00     0.208 A 
ATOM      3  C   UNL     1      51.262  59.263   1.135  1.00  0.00     0.238 A 
ATOM      4  O   UNL     1      50.199  59.245   0.464  1.00  0.00    -0.285 OA
ATOM      5  C   UNL     1      52.501  58.875   0.571  1.00  0.00     0.111 A 
ATOM      6  C   UNL     1      52.691  58.503  -0.795  1.00  0.00     0.134 A 
ATOM      7  C   UNL     1      53.941  58.035  -1.216  1.00  0.00     0.093 A 
ATOM      8  C   UNL     1      55.026  57.986  -0.337  1.00  0.00     0.123 A 
ATOM      9  C   UNL     1      54.865  58.400   0.982  1.00  0.00     0.094 A 
ATOM     10  C   UNL     1      53.621  58.835   1.442  1.00  0.00     0.146 A 
ATOM     11  O   UNL     1      53.508  59.199   2.715  1.00  0.00    -0.452 OA
ENDROOT
BRANCH   1  12
ATOM     12  C   UNL     1      52.377  59.980   4.694  1.00  0.00     0.029 A 
ATOM     13  C   UNL     1      52.199  58.991   5.672  1.00  0.00     0.062 A 
ATOM     14  C   UNL     1      52.182  59.324   7.031  1.00  0.00     0.162 A 
ATOM     15  C   UNL     1      52.504  61.321   5.093  1.00  0.00     0.062 A 
ATOM     16  C   UNL     1      52.331  60.665   7.426  1.00  0.00     0.200 A 
ATOM     17  C   UNL     1      52.488  61.665   6.452  1.00  0.00     0.162 A 
BRANCH  14  18
ATOM     18  O   UNL     1      52.018  58.309   7.973  1.00  0.00    -0.504 OA
ATOM     19  H   UNL     1      52.717  57.590   8.119  1.00  0.00     0.293 HD
ENDBRANCH  14  18
BRANCH  16  20
ATOM     20  O   UNL     1      52.318  60.988   8.783  1.00  0.00    -0.502 OA
ATOM     21  H   UNL     1      53.109  61.424   9.242  1.00  0.00     0.293 HD
ENDBRANCH  16  20
BRANCH  17  22
ATOM     22  O   UNL     1      52.621  62.998   6.836  1.00  0.00    -0.504 OA
ATOM     23  H   UNL     1      52.493  63.757   6.177  1.00  0.00     0.293 HD
ENDBRANCH  17  22
ENDBRANCH   1  12
BRANCH   2  24
ATOM     24  O   UNL     1      50.002  60.113   3.039  1.00  0.00    -0.502 OA
ATOM     25  H   UNL     1      49.390  60.758   2.555  1.00  0.00     0.293 HD
ENDBRANCH   2  24
BRANCH   6  26
ATOM     26  O   UNL     1      51.699  58.597  -1.777  1.00  0.00    -0.507 OA
ATOM     27  H   UNL     1      51.321  59.460  -2.136  1.00  0.00     0.293 HD
ENDBRANCH   6  26
BRANCH   8  28
ATOM     28  O   UNL     1      56.271  57.535  -0.769  1.00  0.00    -0.508 OA
ATOM     29  H   UNL     1      56.908  58.140  -1.275  1.00  0.00     0.293 HD
ENDBRANCH   8  28
TORSDOF 7
ENDMDL
MODEL 9
REMARK VINA RESULT:    -7.637      2.276      3.592
REMARK INTER + INTRA:          -9.779
REMARK INTER:                  -9.449
REMARK INTRA:                  -0.330
REMARK UNBOUND:                -0.356
REMARK SMILES O=c1c(O)c(-c2cc(O)c(O)c(O)c2)oc2cc(O)cc(O)c12
REMARK SMILES IDX 5 1 3 2 2 3 1 4 23 5 21 6 20 7 18 8 17 9 16 10 15 11 6 12
REMARK SMILES IDX 7 13 8 14 14 15 10 16 12 17 9 18 11 20 13 22 4 24 22 26
REMARK SMILES IDX 19 28
REMARK H PARENT 9 19 11 21 13 23 4 25 22 27 19 29
REMARK Flexibility Score: inf
ROOT
ATOM      1  C   UNL     1      50.094  61.430   0.754  1.00  0.00     0.180 A 
ATOM      2  C   UNL     1      50.382  62.778   0.479  1.00  0.00     0.208 A 
ATOM      3  C   UNL     1      49.618  63.778   1.104  1.00  0.00     0.238 A 
ATOM      4  O   UNL     1      49.929  64.981   0.912  1.00  0.00    -0.285 OA
ATOM      5  C   UNL     1      48.542  63.417   1.952  1.00  0.00     0.111 A 
ATOM      6  C   UNL     1      47.674  64.345   2.602  1.00  0.00     0.134 A 
ATOM      7  C   UNL     1      46.710  63.876   3.502  1.00  0.00     0.093 A 
ATOM      8  C   UNL     1      46.539  62.507   3.726  1.00  0.00     0.123 A 
ATOM      9  C   UNL     1      47.344  61.591   3.054  1.00  0.00     0.094 A 
ATOM     10  C   UNL     1      48.341  62.031   2.180  1.00  0.00     0.146 A 
ATOM     11  O   UNL     1      49.100  61.122   1.578  1.00  0.00    -0.452 OA
ENDROOT
BRANCH   1  12
ATOM     12  C   UNL     1      50.863  60.320   0.145  1.00  0.00     0.029 A 
ATOM     13  C   UNL     1      51.899  59.718   0.875  1.00  0.00     0.062 A 
ATOM     14  C   UNL     1      52.656  58.683   0.317  1.00  0.00     0.162 A 
ATOM     15  C   UNL     1      50.617  59.895  -1.171  1.00  0.00     0.062 A 
ATOM     16  C   UNL     1      52.393  58.246  -0.992  1.00  0.00     0.200 A 
ATOM     17  C   UNL     1      51.372  58.859  -1.739  1.00  0.00     0.162 A 
BRANCH  14  18
ATOM     18  O   UNL     1      53.668  58.100   1.082  1.00  0.00    -0.504 OA
ATOM     19  H   UNL     1      53.533  57.226   1.577  1.00  0.00     0.293 HD
ENDBRANCH  14  18
BRANCH  16  20
ATOM     20  O   UNL     1      53.151  57.210  -1.539  1.00  0.00    -0.502 OA
ATOM     21  H   UNL     1      53.263  57.093  -2.539  1.00  0.00     0.293 HD
ENDBRANCH  16  20
BRANCH  17  22
ATOM     22  O   UNL     1      51.115  58.441  -3.043  1.00  0.00    -0.504 OA
ATOM     23  H   UNL     1      50.395  57.758  -3.251  1.00  0.00     0.293 HD
ENDBRANCH  17  22
ENDBRANCH   1  12
BRANCH   2  24
ATOM     24  O   UNL     1      51.398  63.112  -0.420  1.00  0.00    -0.502 OA
ATOM     25  H   UNL     1      51.232  63.679  -1.242  1.00  0.00     0.293 HD
ENDBRANCH   2  24
BRANCH   6  26
ATOM     26  O   UNL     1      47.699  65.726   2.382  1.00  0.00    -0.507 OA
ATOM     27  H   UNL     1      47.656  66.427   3.106  1.00  0.00     0.293 HD
ENDBRANCH   6  26
BRANCH   8  28
ATOM     28  O   UNL     1      45.565  62.048   4.610  1.00  0.00    -0.508 OA
ATOM     29  H   UNL     1      44.593  62.318   4.516  1.00  0.00     0.293 HD
ENDBRANCH   8  28
TORSDOF 7
ENDMDL
