MODEL 1
REMARK VINA RESULT:    -5.299      0.000      0.000
REMARK INTER + INTRA:         -12.005
REMARK INTER:                  -9.637
REMARK INTRA:                  -2.368
REMARK UNBOUND:                -2.368
REMARK SMILES CCCCCCCCCCCCCCCC(=O)[O-]
REMARK SMILES IDX 9 1 10 2 11 3 12 4 13 5 14 6 15 7 16 8 17 9 18 10 8 11 7 12
REMARK SMILES IDX 6 13 5 14 4 15 3 16 2 17 1 18
REMARK H PARENT
REMARK Flexibility Score: inf
ROOT
ATOM      1  C   UNL     1       7.565   5.017  19.371  1.00  0.00     0.000 C 
ENDROOT
BRANCH   1   2
ATOM      2  C   UNL     1       7.898   5.671  18.020  1.00  0.00     0.000 C 
BRANCH   2   3
ATOM      3  C   UNL     1       8.853   6.870  18.161  1.00  0.00     0.000 C 
BRANCH   3   4
ATOM      4  C   UNL     1      10.093   6.743  17.262  1.00  0.00     0.000 C 
BRANCH   4   5
ATOM      5  C   UNL     1      11.388   7.161  17.981  1.00  0.00     0.000 C 
BRANCH   5   6
ATOM      6  C   UNL     1      11.183   7.371  19.490  1.00  0.00     0.006 C 
BRANCH   6   7
ATOM      7  C   UNL     1      12.509   7.504  20.251  1.00  0.00     0.053 C 
BRANCH   7   8
ATOM      8  C   UNL     1      12.319   8.329  21.486  1.00  0.00     0.041 C 
ATOM      9  O   UNL     1      11.202   8.852  21.733  1.00  0.00    -0.550 OA
ATOM     10  O   UNL     1      13.391   8.559  22.339  1.00  0.00    -0.550 OA
ENDBRANCH   7   8
ENDBRANCH   6   7
ENDBRANCH   5   6
ENDBRANCH   4   5
ENDBRANCH   3   4
ENDBRANCH   2   3
ENDBRANCH   1   2
BRANCH   1  11
ATOM     11  C   UNL     1       8.346   5.644  20.538  1.00  0.00     0.000 C 
BRANCH  11  12
ATOM     12  C   UNL     1       9.103   4.602  21.383  1.00  0.00    -0.000 C 
BRANCH  12  13
ATOM     13  C   UNL     1      10.530   4.278  20.904  1.00  0.00    -0.000 C 
BRANCH  13  14
ATOM     14  C   UNL     1      10.596   3.024  20.016  1.00  0.00    -0.000 C 
BRANCH  14  15
ATOM     15  C   UNL     1      10.810   3.364  18.532  1.00  0.00    -0.000 C 
BRANCH  15  16
ATOM     16  C   UNL     1       9.922   2.526  17.597  1.00  0.00    -0.000 C 
BRANCH  16  17
ATOM     17  C   UNL     1       8.899   1.675  18.364  1.00  0.00    -0.003 C 
ATOM     18  C   UNL     1       8.422   0.461  17.567  1.00  0.00     0.004 C 
ENDBRANCH  16  17
ENDBRANCH  15  16
ENDBRANCH  14  15
ENDBRANCH  13  14
ENDBRANCH  12  13
ENDBRANCH  11  12
ENDBRANCH   1  11
TORSDOF 14
ENDMDL
MODEL 2
REMARK VINA RESULT:    -5.235     18.989     20.848
REMARK INTER + INTRA:         -11.887
REMARK INTER:                  -9.576
REMARK INTRA:                  -2.311
REMARK UNBOUND:                -2.368
REMARK SMILES CCCCCCCCCCCCCCCC(=O)[O-]
REMARK SMILES IDX 9 1 10 2 11 3 12 4 13 5 14 6 15 7 16 8 17 9 18 10 8 11 7 12
REMARK SMILES IDX 6 13 5 14 4 15 3 16 2 17 1 18
REMARK H PARENT
REMARK Flexibility Score: inf
ROOT
ATOM      1  C   UNL     1      18.812  -6.299  36.448  1.00  0.00     0.000 C 
ENDROOT
BRANCH   1   2
ATOM      2  C   UNL     1      17.416  -6.171  37.080  1.00  0.00     0.000 C 
BRANCH   2   3
ATOM      3  C   UNL     1      16.665  -4.912  36.610  1.00  0.00     0.000 C 
BRANCH   3   4
ATOM      4  C   UNL     1      15.301  -5.242  35.983  1.00  0.00     0.000 C 
BRANCH   4   5
ATOM      5  C   UNL     1      15.379  -5.402  34.454  1.00  0.00     0.000 C 
BRANCH   5   6
ATOM      6  C   UNL     1      15.230  -6.864  34.005  1.00  0.00     0.006 C 
BRANCH   6   7
ATOM      7  C   UNL     1      15.630  -7.074  32.539  1.00  0.00     0.053 C 
BRANCH   7   8
ATOM      8  C   UNL     1      15.797  -8.533  32.249  1.00  0.00     0.041 C 
ATOM      9  O   UNL     1      16.915  -8.983  31.886  1.00  0.00    -0.550 OA
ATOM     10  O   UNL     1      14.706  -9.388  32.333  1.00  0.00    -0.550 OA
ENDBRANCH   7   8
ENDBRANCH   6   7
ENDBRANCH   5   6
ENDBRANCH   4   5
ENDBRANCH   3   4
ENDBRANCH   2   3
ENDBRANCH   1   2
BRANCH   1  11
ATOM     11  C   UNL     1      18.826  -7.250  35.238  1.00  0.00     0.000 C 
BRANCH  11  12
ATOM     12  C   UNL     1      18.883  -6.507  33.891  1.00  0.00    -0.000 C 
BRANCH  12  13
ATOM     13  C   UNL     1      19.280  -5.022  33.974  1.00  0.00    -0.000 C 
BRANCH  13  14
ATOM     14  C   UNL     1      18.228  -4.083  33.359  1.00  0.00    -0.000 C 
BRANCH  14  15
ATOM     15  C   UNL     1      18.116  -2.749  34.115  1.00  0.00    -0.000 C 
BRANCH  15  16
ATOM     16  C   UNL     1      19.133  -2.629  35.263  1.00  0.00    -0.000 C 
BRANCH  16  17
ATOM     17  C   UNL     1      18.868  -1.410  36.159  1.00  0.00    -0.003 C 
ATOM     18  C   UNL     1      18.040  -0.331  35.459  1.00  0.00     0.004 C 
ENDBRANCH  16  17
ENDBRANCH  15  16
ENDBRANCH  14  15
ENDBRANCH  13  14
ENDBRANCH  12  13
ENDBRANCH  11  12
ENDBRANCH   1  11
TORSDOF 14
ENDMDL
MODEL 3
REMARK VINA RESULT:    -5.223     18.858     19.885
REMARK INTER + INTRA:         -11.865
REMARK INTER:                  -9.867
REMARK INTRA:                  -1.998
REMARK UNBOUND:                -2.368
REMARK SMILES CCCCCCCCCCCCCCCC(=O)[O-]
REMARK SMILES IDX 9 1 10 2 11 3 12 4 13 5 14 6 15 7 16 8 17 9 18 10 8 11 7 12
REMARK SMILES IDX 6 13 5 14 4 15 3 16 2 17 1 18
REMARK H PARENT
REMARK Flexibility Score: inf
ROOT
ATOM      1  C   UNL     1      17.763  -6.736  35.982  1.00  0.00     0.000 C 
ENDROOT
BRANCH   1   2
ATOM      2  C   UNL     1      19.088  -6.230  35.388  1.00  0.00     0.000 C 
BRANCH   2   3
ATOM      3  C   UNL     1      19.076  -6.201  33.849  1.00  0.00     0.000 C 
BRANCH   3   4
ATOM      4  C   UNL     1      19.151  -4.772  33.288  1.00  0.00     0.000 C 
BRANCH   4   5
ATOM      5  C   UNL     1      19.284  -3.710  34.394  1.00  0.00     0.000 C 
BRANCH   5   6
ATOM      6  C   UNL     1      18.054  -2.793  34.483  1.00  0.00     0.006 C 
BRANCH   6   7
ATOM      7  C   UNL     1      17.834  -2.237  35.896  1.00  0.00     0.053 C 
BRANCH   7   8
ATOM      8  C   UNL     1      18.386  -0.849  36.001  1.00  0.00     0.041 C 
ATOM      9  O   UNL     1      17.928   0.071  35.275  1.00  0.00    -0.550 OA
ATOM     10  O   UNL     1      19.438  -0.584  36.868  1.00  0.00    -0.550 OA
ENDBRANCH   7   8
ENDBRANCH   6   7
ENDBRANCH   5   6
ENDBRANCH   4   5
ENDBRANCH   3   4
ENDBRANCH   2   3
ENDBRANCH   1   2
BRANCH   1  11
ATOM     11  C   UNL     1      16.958  -5.617  36.665  1.00  0.00     0.000 C 
BRANCH  11  12
ATOM     12  C   UNL     1      15.674  -5.249  35.900  1.00  0.00    -0.000 C 
BRANCH  12  13
ATOM     13  C   UNL     1      15.627  -5.711  34.431  1.00  0.00    -0.000 C 
BRANCH  13  14
ATOM     14  C   UNL     1      14.601  -6.832  34.187  1.00  0.00    -0.000 C 
BRANCH  14  15
ATOM     15  C   UNL     1      15.263  -8.154  33.764  1.00  0.00    -0.000 C 
BRANCH  15  16
ATOM     16  C   UNL     1      16.234  -7.981  32.583  1.00  0.00    -0.000 C 
BRANCH  16  17
ATOM     17  C   UNL     1      16.168  -9.152  31.592  1.00  0.00    -0.003 C 
ATOM     18  C   UNL     1      14.759  -9.730  31.452  1.00  0.00     0.004 C 
ENDBRANCH  16  17
ENDBRANCH  15  16
ENDBRANCH  14  15
ENDBRANCH  13  14
ENDBRANCH  12  13
ENDBRANCH  11  12
ENDBRANCH   1  11
TORSDOF 14
ENDMDL
MODEL 4
REMARK VINA RESULT:    -5.209     18.637     20.866
REMARK INTER + INTRA:         -11.841
REMARK INTER:                  -9.500
REMARK INTRA:                  -2.341
REMARK UNBOUND:                -2.368
REMARK SMILES CCCCCCCCCCCCCCCC(=O)[O-]
REMARK SMILES IDX 9 1 10 2 11 3 12 4 13 5 14 6 15 7 16 8 17 9 18 10 8 11 7 12
REMARK SMILES IDX 6 13 5 14 4 15 3 16 2 17 1 18
REMARK H PARENT
REMARK Flexibility Score: inf
ROOT
ATOM      1  C   UNL     1      17.058  -5.120  36.969  1.00  0.00     0.000 C 
ENDROOT
BRANCH   1   2
ATOM      2  C   UNL     1      17.390  -6.610  36.785  1.00  0.00     0.000 C 
BRANCH   2   3
ATOM      3  C   UNL     1      18.878  -6.852  36.471  1.00  0.00     0.000 C 
BRANCH   3   4
ATOM      4  C   UNL     1      19.150  -6.969  34.963  1.00  0.00     0.000 C 
BRANCH   4   5
ATOM      5  C   UNL     1      18.292  -8.057  34.293  1.00  0.00     0.000 C 
BRANCH   5   6
ATOM      6  C   UNL     1      18.000  -7.751  32.816  1.00  0.00     0.006 C 
BRANCH   6   7
ATOM      7  C   UNL     1      17.398  -8.951  32.073  1.00  0.00     0.053 C 
BRANCH   7   8
ATOM      8  C   UNL     1      15.921  -8.771  31.904  1.00  0.00     0.041 C 
ATOM      9  O   UNL     1      15.196  -8.512  32.900  1.00  0.00    -0.550 OA
ATOM     10  O   UNL     1      15.340  -8.937  30.654  1.00  0.00    -0.550 OA
ENDBRANCH   7   8
ENDBRANCH   6   7
ENDBRANCH   5   6
ENDBRANCH   4   5
ENDBRANCH   3   4
ENDBRANCH   2   3
ENDBRANCH   1   2
BRANCH   1  11
ATOM     11  C   UNL     1      15.831  -4.684  36.149  1.00  0.00     0.000 C 
BRANCH  11  12
ATOM     12  C   UNL     1      15.569  -5.592  34.933  1.00  0.00    -0.000 C 
BRANCH  12  13
ATOM     13  C   UNL     1      15.953  -4.991  33.568  1.00  0.00    -0.000 C 
BRANCH  13  14
ATOM     14  C   UNL     1      16.724  -3.665  33.691  1.00  0.00    -0.000 C 
BRANCH  14  15
ATOM     15  C   UNL     1      18.246  -3.857  33.591  1.00  0.00    -0.000 C 
BRANCH  15  16
ATOM     16  C   UNL     1      19.013  -3.108  34.695  1.00  0.00    -0.000 C 
BRANCH  16  17
ATOM     17  C   UNL     1      18.200  -1.949  35.291  1.00  0.00    -0.003 C 
ATOM     18  C   UNL     1      19.062  -0.976  36.096  1.00  0.00     0.004 C 
ENDBRANCH  16  17
ENDBRANCH  15  16
ENDBRANCH  14  15
ENDBRANCH  13  14
ENDBRANCH  12  13
ENDBRANCH  11  12
ENDBRANCH   1  11
TORSDOF 14
ENDMDL
MODEL 5
REMARK VINA RESULT:    -5.053      3.276      5.918
REMARK INTER + INTRA:         -11.556
REMARK INTER:                  -9.273
REMARK INTRA:                  -2.282
REMARK UNBOUND:                -2.368
REMARK SMILES CCCCCCCCCCCCCCCC(=O)[O-]
REMARK SMILES IDX 9 1 10 2 11 3 12 4 13 5 14 6 15 7 16 8 17 9 18 10 8 11 7 12
REMARK SMILES IDX 6 13 5 14 4 15 3 16 2 17 1 18
REMARK H PARENT
REMARK Flexibility Score: inf
ROOT
ATOM      1  C   UNL     1       9.923   7.483  18.035  1.00  0.00     0.000 C 
ENDROOT
BRANCH   1   2
ATOM      2  C   UNL     1      10.749   6.345  17.413  1.00  0.00     0.000 C 
BRANCH   2   3
ATOM      3  C   UNL     1      11.875   5.854  18.340  1.00  0.00     0.000 C 
BRANCH   3   4
ATOM      4  C   UNL     1      11.551   4.502  18.995  1.00  0.00     0.000 C 
BRANCH   4   5
ATOM      5  C   UNL     1      11.430   3.363  17.965  1.00  0.00     0.000 C 
BRANCH   5   6
ATOM      6  C   UNL     1       9.985   2.866  17.804  1.00  0.00     0.006 C 
BRANCH   6   7
ATOM      7  C   UNL     1       9.450   2.190  19.073  1.00  0.00     0.053 C 
BRANCH   7   8
ATOM      8  C   UNL     1       8.261   1.340  18.748  1.00  0.00     0.041 C 
ATOM      9  O   UNL     1       7.114   1.855  18.678  1.00  0.00    -0.550 OA
ATOM     10  O   UNL     1       8.413  -0.029  18.570  1.00  0.00    -0.550 OA
ENDBRANCH   7   8
ENDBRANCH   6   7
ENDBRANCH   5   6
ENDBRANCH   4   5
ENDBRANCH   3   4
ENDBRANCH   2   3
ENDBRANCH   1   2
BRANCH   1  11
ATOM     11  C   UNL     1       8.415   7.177  18.049  1.00  0.00     0.000 C 
BRANCH  11  12
ATOM     12  C   UNL     1       8.102   5.714  18.411  1.00  0.00    -0.000 C 
BRANCH  12  13
ATOM     13  C   UNL     1       7.676   5.474  19.871  1.00  0.00    -0.000 C 
BRANCH  13  14
ATOM     14  C   UNL     1       8.870   5.374  20.837  1.00  0.00    -0.000 C 
BRANCH  14  15
ATOM     15  C   UNL     1       9.259   6.737  21.433  1.00  0.00    -0.000 C 
BRANCH  15  16
ATOM     16  C   UNL     1      10.770   6.860  21.697  1.00  0.00    -0.000 C 
BRANCH  16  17
ATOM     17  C   UNL     1      11.307   8.267  21.393  1.00  0.00    -0.003 C 
ATOM     18  C   UNL     1      12.806   8.274  21.090  1.00  0.00     0.004 C 
ENDBRANCH  16  17
ENDBRANCH  15  16
ENDBRANCH  14  15
ENDBRANCH  13  14
ENDBRANCH  12  13
ENDBRANCH  11  12
ENDBRANCH   1  11
TORSDOF 14
ENDMDL
MODEL 6
REMARK VINA RESULT:    -5.016      3.508      6.688
REMARK INTER + INTRA:         -11.489
REMARK INTER:                  -9.649
REMARK INTRA:                  -1.841
REMARK UNBOUND:                -2.368
REMARK SMILES CCCCCCCCCCCCCCCC(=O)[O-]
REMARK SMILES IDX 9 1 10 2 11 3 12 4 13 5 14 6 15 7 16 8 17 9 18 10 8 11 7 12
REMARK SMILES IDX 6 13 5 14 4 15 3 16 2 17 1 18
REMARK H PARENT
REMARK Flexibility Score: inf
ROOT
ATOM      1  C   UNL     1      11.406   4.488  20.861  1.00  0.00     0.000 C 
ENDROOT
BRANCH   1   2
ATOM      2  C   UNL     1       9.953   4.405  21.356  1.00  0.00     0.000 C 
BRANCH   2   3
ATOM      3  C   UNL     1       9.113   5.625  20.937  1.00  0.00     0.000 C 
BRANCH   3   4
ATOM      4  C   UNL     1       7.783   5.225  20.278  1.00  0.00     0.000 C 
BRANCH   4   5
ATOM      5  C   UNL     1       7.976   4.653  18.862  1.00  0.00     0.000 C 
BRANCH   5   6
ATOM      6  C   UNL     1       7.590   3.169  18.769  1.00  0.00     0.006 C 
BRANCH   6   7
ATOM      7  C   UNL     1       8.812   2.250  18.630  1.00  0.00     0.053 C 
BRANCH   7   8
ATOM      8  C   UNL     1       8.377   0.840  18.378  1.00  0.00     0.041 C 
ATOM      9  O   UNL     1       8.527  -0.037  19.268  1.00  0.00    -0.550 OA
ATOM     10  O   UNL     1       7.850   0.485  17.143  1.00  0.00    -0.550 OA
ENDBRANCH   7   8
ENDBRANCH   6   7
ENDBRANCH   5   6
ENDBRANCH   4   5
ENDBRANCH   3   4
ENDBRANCH   2   3
ENDBRANCH   1   2
BRANCH   1  11
ATOM     11  C   UNL     1      11.550   4.078  19.385  1.00  0.00     0.000 C 
BRANCH  11  12
ATOM     12  C   UNL     1      12.250   5.149  18.529  1.00  0.00    -0.000 C 
BRANCH  12  13
ATOM     13  C   UNL     1      11.319   6.210  17.912  1.00  0.00    -0.000 C 
BRANCH  13  14
ATOM     14  C   UNL     1      11.284   7.520  18.717  1.00  0.00    -0.000 C 
BRANCH  14  15
ATOM     15  C   UNL     1      12.481   7.656  19.672  1.00  0.00    -0.000 C 
BRANCH  15  16
ATOM     16  C   UNL     1      12.075   8.172  21.064  1.00  0.00    -0.000 C 
BRANCH  16  17
ATOM     17  C   UNL     1      13.279   8.663  21.883  1.00  0.00    -0.003 C 
ATOM     18  C   UNL     1      12.921   9.805  22.834  1.00  0.00     0.004 C 
ENDBRANCH  16  17
ENDBRANCH  15  16
ENDBRANCH  14  15
ENDBRANCH  13  14
ENDBRANCH  12  13
ENDBRANCH  11  12
ENDBRANCH   1  11
TORSDOF 14
ENDMDL
MODEL 7
REMARK VINA RESULT:    -4.966     18.358     20.388
REMARK INTER + INTRA:         -11.399
REMARK INTER:                  -9.536
REMARK INTRA:                  -1.863
REMARK UNBOUND:                -2.368
REMARK SMILES CCCCCCCCCCCCCCCC(=O)[O-]
REMARK SMILES IDX 9 1 10 2 11 3 12 4 13 5 14 6 15 7 16 8 17 9 18 10 8 11 7 12
REMARK SMILES IDX 6 13 5 14 4 15 3 16 2 17 1 18
REMARK H PARENT
REMARK Flexibility Score: inf
ROOT
ATOM      1  C   UNL     1      17.531  -2.956  34.103  1.00  0.00     0.000 C 
ENDROOT
BRANCH   1   2
ATOM      2  C   UNL     1      16.302  -3.774  33.672  1.00  0.00     0.000 C 
BRANCH   2   3
ATOM      3  C   UNL     1      16.491  -4.452  32.303  1.00  0.00     0.000 C 
BRANCH   3   4
ATOM      4  C   UNL     1      15.731  -5.784  32.196  1.00  0.00     0.000 C 
BRANCH   4   5
ATOM      5  C   UNL     1      15.310  -6.333  33.570  1.00  0.00     0.000 C 
BRANCH   5   6
ATOM      6  C   UNL     1      14.997  -7.837  33.533  1.00  0.00     0.006 C 
BRANCH   6   7
ATOM      7  C   UNL     1      15.919  -8.608  32.580  1.00  0.00     0.053 C 
BRANCH   7   8
ATOM      8  C   UNL     1      15.123  -9.234  31.477  1.00  0.00     0.041 C 
ATOM      9  O   UNL     1      14.232 -10.082  31.742  1.00  0.00    -0.550 OA
ATOM     10  O   UNL     1      15.399  -8.916  30.154  1.00  0.00    -0.550 OA
ENDBRANCH   7   8
ENDBRANCH   6   7
ENDBRANCH   5   6
ENDBRANCH   4   5
ENDBRANCH   3   4
ENDBRANCH   2   3
ENDBRANCH   1   2
BRANCH   1  11
ATOM     11  C   UNL     1      18.112  -3.431  35.446  1.00  0.00     0.000 C 
BRANCH  11  12
ATOM     12  C   UNL     1      17.029  -3.868  36.449  1.00  0.00    -0.000 C 
BRANCH  12  13
ATOM     13  C   UNL     1      16.881  -5.389  36.637  1.00  0.00    -0.000 C 
BRANCH  13  14
ATOM     14  C   UNL     1      18.187  -6.069  37.085  1.00  0.00    -0.000 C 
BRANCH  14  15
ATOM     15  C   UNL     1      19.103  -6.423  35.902  1.00  0.00    -0.000 C 
BRANCH  15  16
ATOM     16  C   UNL     1      18.519  -7.532  35.011  1.00  0.00    -0.000 C 
BRANCH  16  17
ATOM     17  C   UNL     1      18.796  -7.293  33.518  1.00  0.00    -0.003 C 
ATOM     18  C   UNL     1      19.523  -5.974  33.256  1.00  0.00     0.004 C 
ENDBRANCH  16  17
ENDBRANCH  15  16
ENDBRANCH  14  15
ENDBRANCH  13  14
ENDBRANCH  12  13
ENDBRANCH  11  12
ENDBRANCH   1  11
TORSDOF 14
ENDMDL
MODEL 8
REMARK VINA RESULT:    -4.893      1.211      3.858
REMARK INTER + INTRA:         -11.265
REMARK INTER:                  -9.159
REMARK INTRA:                  -2.106
REMARK UNBOUND:                -2.368
REMARK SMILES CCCCCCCCCCCCCCCC(=O)[O-]
REMARK SMILES IDX 9 1 10 2 11 3 12 4 13 5 14 6 15 7 16 8 17 9 18 10 8 11 7 12
REMARK SMILES IDX 6 13 5 14 4 15 3 16 2 17 1 18
REMARK H PARENT
REMARK Flexibility Score: inf
ROOT
ATOM      1  C   UNL     1      10.658   3.212  19.066  1.00  0.00     0.000 C 
ENDROOT
BRANCH   1   2
ATOM      2  C   UNL     1      10.388   2.784  20.518  1.00  0.00     0.000 C 
BRANCH   2   3
ATOM      3  C   UNL     1      10.771   3.873  21.538  1.00  0.00     0.000 C 
BRANCH   3   4
ATOM      4  C   UNL     1      11.771   4.889  20.965  1.00  0.00     0.000 C 
BRANCH   4   5
ATOM      5  C   UNL     1      11.818   6.194  21.781  1.00  0.00     0.000 C 
BRANCH   5   6
ATOM      6  C   UNL     1      11.904   7.443  20.891  1.00  0.00     0.006 C 
BRANCH   6   7
ATOM      7  C   UNL     1      13.069   8.363  21.278  1.00  0.00     0.053 C 
BRANCH   7   8
ATOM      8  C   UNL     1      12.637   9.339  22.327  1.00  0.00     0.041 C 
ATOM      9  O   UNL     1      11.455   9.771  22.342  1.00  0.00    -0.550 OA
ATOM     10  O   UNL     1      13.553   9.807  23.260  1.00  0.00    -0.550 OA
ENDBRANCH   7   8
ENDBRANCH   6   7
ENDBRANCH   5   6
ENDBRANCH   4   5
ENDBRANCH   3   4
ENDBRANCH   2   3
ENDBRANCH   1   2
BRANCH   1  11
ATOM     11  C   UNL     1       9.452   2.961  18.144  1.00  0.00     0.000 C 
BRANCH  11  12
ATOM     12  C   UNL     1       8.116   2.898  18.906  1.00  0.00    -0.000 C 
BRANCH  12  13
ATOM     13  C   UNL     1       7.280   4.191  18.876  1.00  0.00    -0.000 C 
BRANCH  13  14
ATOM     14  C   UNL     1       7.722   5.216  19.936  1.00  0.00    -0.000 C 
BRANCH  14  15
ATOM     15  C   UNL     1       8.672   6.282  19.364  1.00  0.00    -0.000 C 
BRANCH  15  16
ATOM     16  C   UNL     1       8.357   6.633  17.899  1.00  0.00    -0.000 C 
BRANCH  16  17
ATOM     17  C   UNL     1       9.598   6.554  16.997  1.00  0.00    -0.003 C 
ATOM     18  C   UNL     1      10.776   7.363  17.539  1.00  0.00     0.004 C 
ENDBRANCH  16  17
ENDBRANCH  15  16
ENDBRANCH  14  15
ENDBRANCH  13  14
ENDBRANCH  12  13
ENDBRANCH  11  12
ENDBRANCH   1  11
TORSDOF 14
ENDMDL
MODEL 9
REMARK VINA RESULT:    -4.791      3.115      6.178
REMARK INTER + INTRA:         -11.080
REMARK INTER:                  -9.450
REMARK INTRA:                  -1.629
REMARK UNBOUND:                -2.368
REMARK SMILES CCCCCCCCCCCCCCCC(=O)[O-]
REMARK SMILES IDX 9 1 10 2 11 3 12 4 13 5 14 6 15 7 16 8 17 9 18 10 8 11 7 12
REMARK SMILES IDX 6 13 5 14 4 15 3 16 2 17 1 18
REMARK H PARENT
REMARK Flexibility Score: inf
ROOT
ATOM      1  C   UNL     1       7.833   5.358  19.723  1.00  0.00     0.000 C 
ENDROOT
BRANCH   1   2
ATOM      2  C   UNL     1       8.540   5.281  21.087  1.00  0.00     0.000 C 
BRANCH   2   3
ATOM      3  C   UNL     1      10.045   4.984  20.959  1.00  0.00     0.000 C 
BRANCH   3   4
ATOM      4  C   UNL     1      10.396   3.541  21.354  1.00  0.00     0.000 C 
BRANCH   4   5
ATOM      5  C   UNL     1       9.986   2.520  20.278  1.00  0.00     0.000 C 
BRANCH   5   6
ATOM      6  C   UNL     1      10.428   2.940  18.867  1.00  0.00     0.006 C 
BRANCH   6   7
ATOM      7  C   UNL     1       9.587   2.281  17.766  1.00  0.00     0.053 C 
BRANCH   7   8
ATOM      8  C   UNL     1       8.499   1.448  18.368  1.00  0.00     0.041 C 
ATOM      9  O   UNL     1       8.666   0.211  18.535  1.00  0.00    -0.550 OA
ATOM     10  O   UNL     1       7.283   2.030  18.703  1.00  0.00    -0.550 OA
ENDBRANCH   7   8
ENDBRANCH   6   7
ENDBRANCH   5   6
ENDBRANCH   4   5
ENDBRANCH   3   4
ENDBRANCH   2   3
ENDBRANCH   1   2
BRANCH   1  11
ATOM     11  C   UNL     1       8.380   6.492  18.839  1.00  0.00     0.000 C 
BRANCH  11  12
ATOM     12  C   UNL     1       8.902   5.994  17.479  1.00  0.00    -0.000 C 
BRANCH  12  13
ATOM     13  C   UNL     1      10.363   6.363  17.160  1.00  0.00    -0.000 C 
BRANCH  13  14
ATOM     14  C   UNL     1      10.943   7.411  18.126  1.00  0.00    -0.000 C 
BRANCH  14  15
ATOM     15  C   UNL     1      12.099   6.855  18.974  1.00  0.00    -0.000 C 
BRANCH  15  16
ATOM     16  C   UNL     1      12.766   7.931  19.847  1.00  0.00    -0.000 C 
BRANCH  16  17
ATOM     17  C   UNL     1      12.470   7.741  21.342  1.00  0.00    -0.003 C 
ATOM     18  C   UNL     1      13.384   8.578  22.237  1.00  0.00     0.004 C 
ENDBRANCH  16  17
ENDBRANCH  15  16
ENDBRANCH  14  15
ENDBRANCH  13  14
ENDBRANCH  12  13
ENDBRANCH  11  12
ENDBRANCH   1  11
TORSDOF 14
ENDMDL
