MODEL 1
REMARK VINA RESULT:    -3.329      0.000      0.000
REMARK INTER + INTRA:          -4.242
REMARK INTER:                  -4.107
REMARK INTRA:                  -0.135
REMARK UNBOUND:                -0.135
REMARK SMILES CCCCCC(=O)[O-]
REMARK SMILES IDX 4 1 5 2 6 3 7 4 8 5 3 6 2 7 1 8
REMARK H PARENT
REMARK Flexibility Score: inf
ROOT
ATOM      1  C   UNL     1     133.472 123.726 133.907  1.00  0.00     0.006 C 
ENDROOT
BRANCH   1   2
ATOM      2  C   UNL     1     132.065 123.168 133.658  1.00  0.00     0.053 C 
BRANCH   2   3
ATOM      3  C   UNL     1     131.796 122.008 134.563  1.00  0.00     0.041 C 
ATOM      4  O   UNL     1     132.464 120.946 134.446  1.00  0.00    -0.550 OA
ATOM      5  O   UNL     1     130.776 122.078 135.502  1.00  0.00    -0.550 OA
ENDBRANCH   2   3
ENDBRANCH   1   2
BRANCH   1   6
ATOM      6  C   UNL     1     133.504 124.799 135.010  1.00  0.00     0.000 C 
BRANCH   6   7
ATOM      7  C   UNL     1     132.151 125.472 135.297  1.00  0.00    -0.003 C 
ATOM      8  C   UNL     1     132.176 126.984 135.073  1.00  0.00     0.004 C 
ENDBRANCH   6   7
ENDBRANCH   1   6
TORSDOF 4
ENDMDL
MODEL 2
REMARK VINA RESULT:    -3.132     14.799     15.967
REMARK INTER + INTRA:          -3.999
REMARK INTER:                  -3.917
REMARK INTRA:                  -0.082
REMARK UNBOUND:                -0.135
REMARK SMILES CCCCCC(=O)[O-]
REMARK SMILES IDX 4 1 5 2 6 3 7 4 8 5 3 6 2 7 1 8
REMARK H PARENT
REMARK Flexibility Score: inf
ROOT
ATOM      1  C   UNL     1     130.680 120.985 118.741  1.00  0.00     0.006 C 
ENDROOT
BRANCH   1   2
ATOM      2  C   UNL     1     130.466 121.865 119.980  1.00  0.00     0.053 C 
BRANCH   2   3
ATOM      3  C   UNL     1     131.778 122.196 120.617  1.00  0.00     0.041 C 
ATOM      4  O   UNL     1     132.140 123.397 120.737  1.00  0.00    -0.550 OA
ATOM      5  O   UNL     1     132.626 121.178 121.034  1.00  0.00    -0.550 OA
ENDBRANCH   2   3
ENDBRANCH   1   2
BRANCH   1   6
ATOM      6  C   UNL     1     129.392 120.779 117.923  1.00  0.00     0.000 C 
BRANCH   6   7
ATOM      7  C   UNL     1     128.091 120.822 118.744  1.00  0.00    -0.003 C 
ATOM      8  C   UNL     1     126.835 120.707 117.879  1.00  0.00     0.004 C 
ENDBRANCH   6   7
ENDBRANCH   1   6
TORSDOF 4
ENDMDL
MODEL 3
REMARK VINA RESULT:    -3.060      1.675      2.557
REMARK INTER + INTRA:          -3.911
REMARK INTER:                  -3.708
REMARK INTRA:                  -0.203
REMARK UNBOUND:                -0.135
REMARK SMILES CCCCCC(=O)[O-]
REMARK SMILES IDX 4 1 5 2 6 3 7 4 8 5 3 6 2 7 1 8
REMARK H PARENT
REMARK Flexibility Score: inf
ROOT
ATOM      1  C   UNL     1     132.471 125.752 135.640  1.00  0.00     0.006 C 
ENDROOT
BRANCH   1   2
ATOM      2  C   UNL     1     133.371 124.781 134.864  1.00  0.00     0.053 C 
BRANCH   2   3
ATOM      3  C   UNL     1     132.625 123.526 134.539  1.00  0.00     0.041 C 
ATOM      4  O   UNL     1     132.258 122.750 135.461  1.00  0.00    -0.550 OA
ATOM      5  O   UNL     1     132.377 123.186 133.215  1.00  0.00    -0.550 OA
ENDBRANCH   2   3
ENDBRANCH   1   2
BRANCH   1   6
ATOM      6  C   UNL     1     131.771 126.777 134.729  1.00  0.00     0.000 C 
BRANCH   6   7
ATOM      7  C   UNL     1     130.237 126.805 134.847  1.00  0.00    -0.003 C 
ATOM      8  C   UNL     1     129.574 125.530 134.324  1.00  0.00     0.004 C 
ENDBRANCH   6   7
ENDBRANCH   1   6
TORSDOF 4
ENDMDL
MODEL 4
REMARK VINA RESULT:    -3.046      2.586      4.057
REMARK INTER + INTRA:          -3.893
REMARK INTER:                  -3.665
REMARK INTRA:                  -0.228
REMARK UNBOUND:                -0.135
REMARK SMILES CCCCCC(=O)[O-]
REMARK SMILES IDX 4 1 5 2 6 3 7 4 8 5 3 6 2 7 1 8
REMARK H PARENT
REMARK Flexibility Score: inf
ROOT
ATOM      1  C   UNL     1     132.874 124.655 135.409  1.00  0.00     0.006 C 
ENDROOT
BRANCH   1   2
ATOM      2  C   UNL     1     132.854 126.176 135.209  1.00  0.00     0.053 C 
BRANCH   2   3
ATOM      3  C   UNL     1     131.447 126.666 135.078  1.00  0.00     0.041 C 
ATOM      4  O   UNL     1     130.670 126.144 134.233  1.00  0.00    -0.550 OA
ATOM      5  O   UNL     1     131.005 127.731 135.851  1.00  0.00    -0.550 OA
ENDBRANCH   2   3
ENDBRANCH   1   2
BRANCH   1   6
ATOM      6  C   UNL     1     133.410 123.896 134.181  1.00  0.00     0.000 C 
BRANCH   6   7
ATOM      7  C   UNL     1     132.383 122.986 133.485  1.00  0.00    -0.003 C 
ATOM      8  C   UNL     1     131.213 122.603 134.393  1.00  0.00     0.004 C 
ENDBRANCH   6   7
ENDBRANCH   1   6
TORSDOF 4
ENDMDL
MODEL 5
REMARK VINA RESULT:    -3.040     14.831     15.758
REMARK INTER + INTRA:          -3.887
REMARK INTER:                  -3.668
REMARK INTRA:                  -0.219
REMARK UNBOUND:                -0.135
REMARK SMILES CCCCCC(=O)[O-]
REMARK SMILES IDX 4 1 5 2 6 3 7 4 8 5 3 6 2 7 1 8
REMARK H PARENT
REMARK Flexibility Score: inf
ROOT
ATOM      1  C   UNL     1     131.633 120.530 120.309  1.00  0.00     0.006 C 
ENDROOT
BRANCH   1   2
ATOM      2  C   UNL     1     132.136 120.019 118.953  1.00  0.00     0.053 C 
BRANCH   2   3
ATOM      3  C   UNL     1     131.185 120.407 117.865  1.00  0.00     0.041 C 
ATOM      4  O   UNL     1     130.111 121.002 118.145  1.00  0.00    -0.550 OA
ATOM      5  O   UNL     1     131.461 120.069 116.546  1.00  0.00    -0.550 OA
ENDBRANCH   2   3
ENDBRANCH   1   2
BRANCH   1   6
ATOM      6  C   UNL     1     132.495 121.674 120.876  1.00  0.00     0.000 C 
BRANCH   6   7
ATOM      7  C   UNL     1     131.927 123.086 120.645  1.00  0.00    -0.003 C 
ATOM      8  C   UNL     1     130.456 123.210 121.041  1.00  0.00     0.004 C 
ENDBRANCH   6   7
ENDBRANCH   1   6
TORSDOF 4
ENDMDL
MODEL 6
REMARK VINA RESULT:    -2.985     13.985     14.760
REMARK INTER + INTRA:          -3.818
REMARK INTER:                  -3.571
REMARK INTRA:                  -0.247
REMARK UNBOUND:                -0.135
REMARK SMILES CCCCCC(=O)[O-]
REMARK SMILES IDX 4 1 5 2 6 3 7 4 8 5 3 6 2 7 1 8
REMARK H PARENT
REMARK Flexibility Score: inf
ROOT
ATOM      1  C   UNL     1     130.621 121.293 119.158  1.00  0.00     0.006 C 
ENDROOT
BRANCH   1   2
ATOM      2  C   UNL     1     130.439 119.770 119.159  1.00  0.00     0.053 C 
BRANCH   2   3
ATOM      3  C   UNL     1     130.828 119.199 120.485  1.00  0.00     0.041 C 
ATOM      4  O   UNL     1     129.990 118.551 121.167  1.00  0.00    -0.550 OA
ATOM      5  O   UNL     1     132.101 119.424 120.994  1.00  0.00    -0.550 OA
ENDBRANCH   2   3
ENDBRANCH   1   2
BRANCH   1   6
ATOM      6  C   UNL     1     129.796 121.996 120.251  1.00  0.00     0.000 C 
BRANCH   6   7
ATOM      7  C   UNL     1     130.529 123.134 120.983  1.00  0.00    -0.003 C 
ATOM      8  C   UNL     1     132.041 123.110 120.761  1.00  0.00     0.004 C 
ENDBRANCH   6   7
ENDBRANCH   1   6
TORSDOF 4
ENDMDL
MODEL 7
REMARK VINA RESULT:    -2.972      1.615      2.189
REMARK INTER + INTRA:          -3.802
REMARK INTER:                  -3.614
REMARK INTRA:                  -0.188
REMARK UNBOUND:                -0.135
REMARK SMILES CCCCCC(=O)[O-]
REMARK SMILES IDX 4 1 5 2 6 3 7 4 8 5 3 6 2 7 1 8
REMARK H PARENT
REMARK Flexibility Score: inf
ROOT
ATOM      1  C   UNL     1     130.831 123.787 135.547  1.00  0.00     0.006 C 
ENDROOT
BRANCH   1   2
ATOM      2  C   UNL     1     131.166 123.272 134.141  1.00  0.00     0.053 C 
BRANCH   2   3
ATOM      3  C   UNL     1     132.513 122.623 134.131  1.00  0.00     0.041 C 
ATOM      4  O   UNL     1     132.616 121.375 134.271  1.00  0.00    -0.550 OA
ATOM      5  O   UNL     1     133.659 123.399 134.017  1.00  0.00    -0.550 OA
ENDBRANCH   2   3
ENDBRANCH   1   2
BRANCH   1   6
ATOM      6  C   UNL     1     130.214 125.198 135.538  1.00  0.00     0.000 C 
BRANCH   6   7
ATOM      7  C   UNL     1     130.862 126.179 134.545  1.00  0.00    -0.003 C 
ATOM      8  C   UNL     1     132.164 126.785 135.067  1.00  0.00     0.004 C 
ENDBRANCH   6   7
ENDBRANCH   1   6
TORSDOF 4
ENDMDL
MODEL 8
REMARK VINA RESULT:    -2.960     14.059     14.934
REMARK INTER + INTRA:          -3.787
REMARK INTER:                  -3.521
REMARK INTRA:                  -0.266
REMARK UNBOUND:                -0.135
REMARK SMILES CCCCCC(=O)[O-]
REMARK SMILES IDX 4 1 5 2 6 3 7 4 8 5 3 6 2 7 1 8
REMARK H PARENT
REMARK Flexibility Score: inf
ROOT
ATOM      1  C   UNL     1     130.637 121.263 118.970  1.00  0.00     0.006 C 
ENDROOT
BRANCH   1   2
ATOM      2  C   UNL     1     129.170 120.825 119.071  1.00  0.00     0.053 C 
BRANCH   2   3
ATOM      3  C   UNL     1     128.662 121.022 120.464  1.00  0.00     0.041 C 
ATOM      4  O   UNL     1     128.605 122.179 120.960  1.00  0.00    -0.550 OA
ATOM      5  O   UNL     1     128.298 119.925 121.235  1.00  0.00    -0.550 OA
ENDBRANCH   2   3
ENDBRANCH   1   2
BRANCH   1   6
ATOM      6  C   UNL     1     131.560 120.490 119.930  1.00  0.00     0.000 C 
BRANCH   6   7
ATOM      7  C   UNL     1     132.495 121.372 120.777  1.00  0.00    -0.003 C 
ATOM      8  C   UNL     1     132.063 122.838 120.813  1.00  0.00     0.004 C 
ENDBRANCH   6   7
ENDBRANCH   1   6
TORSDOF 4
ENDMDL
MODEL 9
REMARK VINA RESULT:    -2.919      2.330      4.046
REMARK INTER + INTRA:          -3.737
REMARK INTER:                  -3.552
REMARK INTRA:                  -0.185
REMARK UNBOUND:                -0.135
REMARK SMILES CCCCCC(=O)[O-]
REMARK SMILES IDX 4 1 5 2 6 3 7 4 8 5 3 6 2 7 1 8
REMARK H PARENT
REMARK Flexibility Score: inf
ROOT
ATOM      1  C   UNL     1     132.030 122.575 133.765  1.00  0.00     0.006 C 
ENDROOT
BRANCH   1   2
ATOM      2  C   UNL     1     131.621 123.585 134.845  1.00  0.00     0.053 C 
BRANCH   2   3
ATOM      3  C   UNL     1     132.821 124.324 135.348  1.00  0.00     0.041 C 
ATOM      4  O   UNL     1     133.634 123.756 136.125  1.00  0.00    -0.550 OA
ATOM      5  O   UNL     1     133.015 125.655 135.001  1.00  0.00    -0.550 OA
ENDBRANCH   2   3
ENDBRANCH   1   2
BRANCH   1   6
ATOM      6  C   UNL     1     131.927 121.114 134.241  1.00  0.00     0.000 C 
BRANCH   6   7
ATOM      7  C   UNL     1     131.359 120.936 135.660  1.00  0.00    -0.003 C 
ATOM      8  C   UNL     1     129.998 120.238 135.676  1.00  0.00     0.004 C 
ENDBRANCH   6   7
ENDBRANCH   1   6
TORSDOF 4
ENDMDL
