MODEL 1
REMARK VINA RESULT:    -3.755      0.000      0.000
REMARK INTER + INTRA:          -3.886
REMARK INTER:                  -4.633
REMARK INTRA:                   0.747
REMARK UNBOUND:                 0.747
REMARK SMILES CC1=CC=CC(C)(C)CC1=O
REMARK SMILES IDX 1 1 2 2 3 3 10 4 11 5 9 6 4 8 5 9 6 10 7 11 8 12
REMARK H PARENT
REMARK Flexibility Score: 80.00
ROOT
ATOM      1  C   UNL     1      17.688   8.198 -24.429  1.00  0.00     0.048 C 
ATOM      2  C   UNL     1      18.862   8.926 -25.041  1.00  0.00    -0.008 C 
ATOM      3  C   UNL     1      20.054   8.826 -24.416  1.00  0.00     0.007 C 
ENDROOT
BRANCH   2   4
ATOM      4  C   UNL     1      18.590   9.756 -26.241  1.00  0.00     0.159 C 
ATOM      5  O   UNL     1      17.393   9.995 -26.557  1.00  0.00    -0.295 OA
BRANCH   4   6
ATOM      6  C   UNL     1      19.668  10.320 -27.115  1.00  0.00     0.091 CG0
ATOM      7  G   UNL     1      20.627  11.269 -26.363  1.00  0.00     0.000 G0
ENDBRANCH   4   6
ENDBRANCH   2   4
BRANCH   3   8
ATOM      8  C   UNL     1      21.360   9.437 -24.756  1.00  0.00    -0.003 C 
ATOM      9  C   UNL     1      21.623  10.472 -25.564  1.00  0.00    -0.020 C 
BRANCH   9  10
ATOM     10  C   UNL     1      20.616  11.264 -26.364  1.00  0.00    -0.010 CG0
ATOM     11  C   UNL     1      19.872  12.257 -25.443  1.00  0.00     0.016 C 
ATOM     12  C   UNL     1      21.380  12.083 -27.430  1.00  0.00     0.016 C 
ATOM     13  G   UNL     1      19.659  10.298 -27.097  1.00  0.00     0.000 G0
ENDBRANCH   9  10
ENDBRANCH   3   8
TORSDOF 0
ENDMDL
MODEL 2
REMARK VINA RESULT:    -3.640     18.021     19.268
REMARK INTER + INTRA:          -3.744
REMARK INTER:                  -4.492
REMARK INTRA:                   0.747
REMARK UNBOUND:                 0.747
REMARK SMILES CC1=CC=CC(C)(C)CC1=O
REMARK SMILES IDX 1 1 2 2 3 3 10 4 11 5 9 6 4 8 5 9 6 10 7 11 8 12
REMARK H PARENT
REMARK Flexibility Score: 80.00
ROOT
ATOM      1  C   UNL     1       8.346  21.679 -25.458  1.00  0.00     0.048 C 
ATOM      2  C   UNL     1       7.794  22.780 -24.583  1.00  0.00    -0.008 C 
ATOM      3  C   UNL     1       8.492  23.110 -23.476  1.00  0.00     0.007 C 
ENDROOT
BRANCH   2   4
ATOM      4  C   UNL     1       6.484  23.359 -24.973  1.00  0.00     0.159 C 
ATOM      5  O   UNL     1       5.821  22.801 -25.890  1.00  0.00    -0.295 OA
BRANCH   4   6
ATOM      6  C   UNL     1       5.904  24.587 -24.343  1.00  0.00     0.091 CG0
ATOM      7  G   UNL     1       5.722  24.460 -22.814  1.00  0.00     0.000 G0
ENDBRANCH   4   6
ENDBRANCH   2   4
BRANCH   3   8
ATOM      8  C   UNL     1       8.196  24.114 -22.427  1.00  0.00    -0.003 C 
ATOM      9  C   UNL     1       7.029  24.696 -22.122  1.00  0.00    -0.020 C 
BRANCH   9  10
ATOM     10  C   UNL     1       5.707  24.475 -22.819  1.00  0.00    -0.010 CG0
ATOM     11  C   UNL     1       5.092  23.128 -22.371  1.00  0.00     0.016 C 
ATOM     12  C   UNL     1       4.740  25.604 -22.393  1.00  0.00     0.016 C 
ATOM     13  G   UNL     1       5.904  24.561 -24.348  1.00  0.00     0.000 G0
ENDBRANCH   9  10
ENDBRANCH   3   8
TORSDOF 0
ENDMDL
MODEL 3
REMARK VINA RESULT:    -3.618     17.776     19.104
REMARK INTER + INTRA:          -3.717
REMARK INTER:                  -4.463
REMARK INTRA:                   0.747
REMARK UNBOUND:                 0.747
REMARK SMILES CC1=CC=CC(C)(C)CC1=O
REMARK SMILES IDX 1 1 2 2 3 3 10 4 11 5 9 6 4 8 5 9 6 10 7 11 8 12
REMARK H PARENT
REMARK Flexibility Score: 80.00
ROOT
ATOM      1  C   UNL     1       4.684  26.125 -23.400  1.00  0.00     0.048 C 
ATOM      2  C   UNL     1       5.766  25.099 -23.642  1.00  0.00    -0.008 C 
ATOM      3  C   UNL     1       5.812  24.514 -24.858  1.00  0.00     0.007 C 
ENDROOT
BRANCH   2   4
ATOM      4  C   UNL     1       6.646  24.762 -22.496  1.00  0.00     0.159 C 
ATOM      5  O   UNL     1       6.327  25.168 -21.344  1.00  0.00    -0.295 OA
BRANCH   4   6
ATOM      6  C   UNL     1       7.911  23.972 -22.630  1.00  0.00     0.091 CG0
ATOM      7  G   UNL     1       7.686  22.556 -23.205  1.00  0.00     0.000 G0
ENDBRANCH   4   6
ENDBRANCH   2   4
BRANCH   3   8
ATOM      8  C   UNL     1       6.727  23.471 -25.377  1.00  0.00    -0.003 C 
ATOM      9  C   UNL     1       7.517  22.627 -24.700  1.00  0.00    -0.020 C 
BRANCH   9  10
ATOM     10  C   UNL     1       7.683  22.563 -23.200  1.00  0.00    -0.010 CG0
ATOM     11  C   UNL     1       6.471  21.841 -22.565  1.00  0.00     0.016 C 
ATOM     12  C   UNL     1       8.949  21.732 -22.888  1.00  0.00     0.016 C 
ATOM     13  G   UNL     1       7.891  23.986 -22.638  1.00  0.00     0.000 G0
ENDBRANCH   9  10
ENDBRANCH   3   8
TORSDOF 0
ENDMDL
MODEL 4
REMARK VINA RESULT:    -3.607      2.117      3.494
REMARK INTER + INTRA:          -3.704
REMARK INTER:                  -4.475
REMARK INTRA:                   0.771
REMARK UNBOUND:                 0.747
REMARK SMILES CC1=CC=CC(C)(C)CC1=O
REMARK SMILES IDX 1 1 2 2 3 3 10 4 11 5 9 6 4 8 5 9 6 10 7 11 8 12
REMARK H PARENT
REMARK Flexibility Score: 80.00
ROOT
ATOM      1  C   UNL     1      19.956  12.915 -25.212  1.00  0.00     0.048 C 
ATOM      2  C   UNL     1      20.941  11.989 -25.886  1.00  0.00    -0.008 C 
ATOM      3  C   UNL     1      21.927  12.550 -26.617  1.00  0.00     0.007 C 
ENDROOT
BRANCH   2   4
ATOM      4  C   UNL     1      20.698  10.531 -25.752  1.00  0.00     0.159 C 
ATOM      5  O   UNL     1      19.607  10.139 -25.253  1.00  0.00    -0.295 OA
BRANCH   4   6
ATOM      6  C   UNL     1      21.689   9.487 -26.166  1.00  0.00     0.091 CG0
ATOM      7  G   UNL     1      22.059   9.559 -27.663  1.00  0.00     0.000 G0
ENDBRANCH   4   6
ENDBRANCH   2   4
BRANCH   3   8
ATOM      8  C   UNL     1      23.009  11.913 -27.404  1.00  0.00    -0.003 C 
ATOM      9  C   UNL     1      23.090  10.659 -27.867  1.00  0.00    -0.020 C 
BRANCH   9  10
ATOM     10  C   UNL     1      22.073   9.560 -27.664  1.00  0.00    -0.010 CG0
ATOM     11  C   UNL     1      20.851   9.794 -28.582  1.00  0.00     0.016 C 
ATOM     12  C   UNL     1      22.723   8.217 -28.069  1.00  0.00     0.016 C 
ATOM     13  G   UNL     1      21.689   9.477 -26.170  1.00  0.00     0.000 G0
ENDBRANCH   9  10
ENDBRANCH   3   8
TORSDOF 0
ENDMDL
MODEL 5
REMARK VINA RESULT:    -3.537      2.026      3.877
REMARK INTER + INTRA:          -3.617
REMARK INTER:                  -4.362
REMARK INTRA:                   0.744
REMARK UNBOUND:                 0.747
REMARK SMILES CC1=CC=CC(C)(C)CC1=O
REMARK SMILES IDX 1 1 2 2 3 3 10 4 11 5 9 6 4 8 5 9 6 10 7 11 8 12
REMARK H PARENT
REMARK Flexibility Score: 80.00
ROOT
ATOM      1  C   UNL     1      22.778  11.313 -28.681  1.00  0.00     0.048 C 
ATOM      2  C   UNL     1      21.678  10.914 -27.724  1.00  0.00    -0.008 C 
ATOM      3  C   UNL     1      20.955  11.902 -27.155  1.00  0.00     0.007 C 
ENDROOT
BRANCH   2   4
ATOM      4  C   UNL     1      21.533   9.467 -27.430  1.00  0.00     0.159 C 
ATOM      5  O   UNL     1      22.441   8.675 -27.805  1.00  0.00    -0.295 OA
BRANCH   4   6
ATOM      6  C   UNL     1      20.352   8.884 -26.716  1.00  0.00     0.091 CG0
ATOM      7  G   UNL     1      20.158   9.454 -25.294  1.00  0.00     0.000 G0
ENDBRANCH   4   6
ENDBRANCH   2   4
BRANCH   3   8
ATOM      8  C   UNL     1      19.847  11.825 -26.174  1.00  0.00    -0.003 C 
ATOM      9  C   UNL     1      19.501  10.813 -25.368  1.00  0.00    -0.020 C 
BRANCH   9  10
ATOM     10  C   UNL     1      20.168   9.459 -25.292  1.00  0.00    -0.010 CG0
ATOM     11  C   UNL     1      21.492   9.565 -24.502  1.00  0.00     0.016 C 
ATOM     12  C   UNL     1      19.230   8.500 -24.523  1.00  0.00     0.016 C 
ATOM     13  G   UNL     1      20.367   8.897 -26.717  1.00  0.00     0.000 G0
ENDBRANCH   9  10
ENDBRANCH   3   8
TORSDOF 0
ENDMDL
MODEL 6
REMARK VINA RESULT:    -3.475     16.588     17.933
REMARK INTER + INTRA:          -3.541
REMARK INTER:                  -4.292
REMARK INTRA:                   0.751
REMARK UNBOUND:                 0.747
REMARK SMILES CC1=CC=CC(C)(C)CC1=O
REMARK SMILES IDX 1 1 2 2 3 3 10 4 11 5 9 6 4 8 5 9 6 10 7 11 8 12
REMARK H PARENT
REMARK Flexibility Score: 80.00
ROOT
ATOM      1  C   UNL     1       7.397  25.004 -21.682  1.00  0.00     0.048 C 
ATOM      2  C   UNL     1       7.395  24.166 -22.939  1.00  0.00    -0.008 C 
ATOM      3  C   UNL     1       6.527  24.506 -23.916  1.00  0.00     0.007 C 
ENDROOT
BRANCH   2   4
ATOM      4  C   UNL     1       8.296  22.987 -22.966  1.00  0.00     0.159 C 
ATOM      5  O   UNL     1       8.850  22.619 -21.894  1.00  0.00    -0.295 OA
BRANCH   4   6
ATOM      6  C   UNL     1       8.601  22.210 -24.210  1.00  0.00     0.091 CG0
ATOM      7  G   UNL     1       7.346  21.592 -24.864  1.00  0.00     0.000 G0
ENDBRANCH   4   6
ENDBRANCH   2   4
BRANCH   3   8
ATOM      8  C   UNL     1       6.278  23.870 -25.231  1.00  0.00    -0.003 C 
ATOM      9  C   UNL     1       6.604  22.640 -25.649  1.00  0.00    -0.020 C 
BRANCH   9  10
ATOM     10  C   UNL     1       7.349  21.591 -24.857  1.00  0.00    -0.010 CG0
ATOM     11  C   UNL     1       6.401  20.933 -23.828  1.00  0.00     0.016 C 
ATOM     12  C   UNL     1       7.826  20.494 -25.836  1.00  0.00     0.016 C 
ATOM     13  G   UNL     1       8.595  22.224 -24.200  1.00  0.00     0.000 G0
ENDBRANCH   9  10
ENDBRANCH   3   8
TORSDOF 0
ENDMDL
MODEL 7
REMARK VINA RESULT:    -3.452     19.301     20.399
REMARK INTER + INTRA:          -3.512
REMARK INTER:                  -4.286
REMARK INTRA:                   0.774
REMARK UNBOUND:                 0.747
REMARK SMILES CC1=CC=CC(C)(C)CC1=O
REMARK SMILES IDX 1 1 2 2 3 3 10 4 11 5 9 6 4 8 5 9 6 10 7 11 8 12
REMARK H PARENT
REMARK Flexibility Score: 80.00
ROOT
ATOM      1  C   UNL     1       4.750  25.629 -19.712  1.00  0.00     0.048 C 
ATOM      2  C   UNL     1       5.387  24.945 -20.899  1.00  0.00    -0.008 C 
ATOM      3  C   UNL     1       6.732  24.998 -21.005  1.00  0.00     0.007 C 
ENDROOT
BRANCH   2   4
ATOM      4  C   UNL     1       4.473  24.334 -21.897  1.00  0.00     0.159 C 
ATOM      5  O   UNL     1       3.238  24.581 -21.822  1.00  0.00    -0.295 OA
BRANCH   4   6
ATOM      6  C   UNL     1       4.936  23.420 -22.989  1.00  0.00     0.091 CG0
ATOM      7  G   UNL     1       5.962  24.077 -23.939  1.00  0.00     0.000 G0
ENDBRANCH   4   6
ENDBRANCH   2   4
BRANCH   3   8
ATOM      8  C   UNL     1       7.626  24.453 -22.053  1.00  0.00    -0.003 C 
ATOM      9  C   UNL     1       7.328  24.070 -23.301  1.00  0.00    -0.020 C 
BRANCH   9  10
ATOM     10  C   UNL     1       5.960  24.080 -23.940  1.00  0.00    -0.010 CG0
ATOM     11  C   UNL     1       5.566  25.525 -24.323  1.00  0.00     0.016 C 
ATOM     12  C   UNL     1       6.025  23.244 -25.239  1.00  0.00     0.016 C 
ATOM     13  G   UNL     1       4.938  23.415 -22.991  1.00  0.00     0.000 G0
ENDBRANCH   9  10
ENDBRANCH   3   8
TORSDOF 0
ENDMDL
MODEL 8
REMARK VINA RESULT:    -3.368     13.162     14.300
REMARK INTER + INTRA:          -3.409
REMARK INTER:                  -4.152
REMARK INTRA:                   0.743
REMARK UNBOUND:                 0.747
REMARK SMILES CC1=CC=CC(C)(C)CC1=O
REMARK SMILES IDX 1 1 2 2 3 3 10 4 11 5 9 6 4 8 5 9 6 10 7 11 8 12
REMARK H PARENT
REMARK Flexibility Score: 80.00
ROOT
ATOM      1  C   UNL     1      12.980  18.143 -20.840  1.00  0.00     0.048 C 
ATOM      2  C   UNL     1      11.532  18.191 -20.409  1.00  0.00    -0.008 C 
ATOM      3  C   UNL     1      11.203  17.578 -19.253  1.00  0.00     0.007 C 
ENDROOT
BRANCH   2   4
ATOM      4  C   UNL     1      10.574  18.846 -21.335  1.00  0.00     0.159 C 
ATOM      5  O   UNL     1      10.958  19.138 -22.501  1.00  0.00    -0.295 OA
BRANCH   4   6
ATOM      6  C   UNL     1       9.168  19.194 -20.956  1.00  0.00     0.091 CG0
ATOM      7  G   UNL     1       8.328  17.968 -20.535  1.00  0.00     0.000 G0
ENDBRANCH   4   6
ENDBRANCH   2   4
BRANCH   3   8
ATOM      8  C   UNL     1       9.883  17.435 -18.594  1.00  0.00    -0.003 C 
ATOM      9  C   UNL     1       8.659  17.583 -19.116  1.00  0.00    -0.020 C 
BRANCH   9  10
ATOM     10  C   UNL     1       8.331  17.968 -20.539  1.00  0.00    -0.010 CG0
ATOM     11  C   UNL     1       8.519  16.750 -21.473  1.00  0.00     0.016 C 
ATOM     12  C   UNL     1       6.844  18.387 -20.597  1.00  0.00     0.016 C 
ATOM     13  G   UNL     1       9.189  19.181 -20.960  1.00  0.00     0.000 G0
ENDBRANCH   9  10
ENDBRANCH   3   8
TORSDOF 0
ENDMDL
MODEL 9
REMARK VINA RESULT:    -3.328     16.773     18.050
REMARK INTER + INTRA:          -3.360
REMARK INTER:                  -4.124
REMARK INTRA:                   0.764
REMARK UNBOUND:                 0.747
REMARK SMILES CC1=CC=CC(C)(C)CC1=O
REMARK SMILES IDX 1 1 2 2 3 3 10 4 11 5 9 6 4 8 5 9 6 10 7 11 8 12
REMARK H PARENT
REMARK Flexibility Score: 80.00
ROOT
ATOM      1  C   UNL     1       5.794  25.586 -23.845  1.00  0.00     0.048 C 
ATOM      2  C   UNL     1       6.521  24.342 -23.389  1.00  0.00    -0.008 C 
ATOM      3  C   UNL     1       7.588  24.503 -22.579  1.00  0.00     0.007 C 
ENDROOT
BRANCH   2   4
ATOM      4  C   UNL     1       6.046  23.046 -23.934  1.00  0.00     0.159 C 
ATOM      5  O   UNL     1       5.205  23.052 -24.874  1.00  0.00    -0.295 OA
BRANCH   4   6
ATOM      6  C   UNL     1       6.503  21.716 -23.417  1.00  0.00     0.091 CG0
ATOM      7  G   UNL     1       8.032  21.517 -23.516  1.00  0.00     0.000 G0
ENDBRANCH   4   6
ENDBRANCH   2   4
BRANCH   3   8
ATOM      8  C   UNL     1       8.502  23.492 -21.998  1.00  0.00    -0.003 C 
ATOM      9  C   UNL     1       8.718  22.228 -22.384  1.00  0.00    -0.020 C 
BRANCH   9  10
ATOM     10  C   UNL     1       8.035  21.509 -23.524  1.00  0.00    -0.010 CG0
ATOM     11  C   UNL     1       8.616  21.988 -24.875  1.00  0.00     0.016 C 
ATOM     12  C   UNL     1       8.329  19.997 -23.389  1.00  0.00     0.016 C 
ATOM     13  G   UNL     1       6.507  21.713 -23.426  1.00  0.00     0.000 G0
ENDBRANCH   9  10
ENDBRANCH   3   8
TORSDOF 0
ENDMDL
