MODEL 1
REMARK VINA RESULT:    14.799      0.000      0.000
REMARK INTER + INTRA:          17.762
REMARK INTER:                  18.260
REMARK INTRA:                  -0.498
REMARK UNBOUND:                -0.498
REMARK SMILES CC(C)=CCC[C@@H](C)c1ccc(C)cc1
REMARK SMILES IDX 6 1 7 2 8 3 9 4 13 5 12 6 11 7 14 8 10 9 15 10 5 11 4 12
REMARK SMILES IDX 2 13 1 14 3 15
REMARK H PARENT
REMARK Flexibility Score: inf
ROOT
ATOM      1  C   UNL     1      18.931 -35.227 -28.134  1.00  0.00     0.012 C 
ENDROOT
BRANCH   1   2
ATOM      2  C   UNL     1      18.305 -33.848 -28.439  1.00  0.00     0.016 C 
ATOM      3  C   UNL     1      18.645 -33.354 -29.855  1.00  0.00     0.013 C 
BRANCH   2   4
ATOM      4  C   UNL     1      16.800 -33.895 -28.247  1.00  0.00    -0.045 A 
ATOM      5  C   UNL     1      12.522 -33.999 -27.658  1.00  0.00     0.044 C 
ATOM      6  C   UNL     1      14.003 -33.963 -27.892  1.00  0.00    -0.051 A 
ATOM      7  C   UNL     1      14.735 -35.156 -27.971  1.00  0.00     0.004 A 
ATOM      8  C   UNL     1      14.677 -32.737 -27.966  1.00  0.00     0.004 A 
ATOM      9  C   UNL     1      16.119 -35.125 -28.153  1.00  0.00     0.004 A 
ATOM     10  C   UNL     1      16.063 -32.702 -28.148  1.00  0.00     0.004 A 
ENDBRANCH   2   4
ENDBRANCH   1   2
BRANCH   1  11
ATOM     11  C   UNL     1      20.389 -35.124 -27.662  1.00  0.00     0.028 C 
BRANCH  11  12
ATOM     12  C   UNL     1      20.614 -35.977 -26.438  1.00  0.00    -0.028 C 
ATOM     13  C   UNL     1      21.425 -37.057 -26.397  1.00  0.00    -0.080 C 
ATOM     14  C   UNL     1      22.246 -37.488 -27.590  1.00  0.00     0.039 C 
ATOM     15  C   UNL     1      21.519 -37.837 -25.111  1.00  0.00     0.039 C 
ENDBRANCH  11  12
ENDBRANCH   1  11
TORSDOF 4
ENDMDL
MODEL 2
REMARK VINA RESULT:    16.242     14.000     15.951
REMARK INTER + INTRA:          19.542
REMARK INTER:                  20.179
REMARK INTRA:                  -0.638
REMARK UNBOUND:                -0.498
REMARK SMILES CC(C)=CCC[C@@H](C)c1ccc(C)cc1
REMARK SMILES IDX 6 1 7 2 8 3 9 4 13 5 12 6 11 7 14 8 10 9 15 10 5 11 4 12
REMARK SMILES IDX 2 13 1 14 3 15
REMARK H PARENT
REMARK Flexibility Score: inf
ROOT
ATOM      1  C   UNL     1      20.638 -23.655 -16.595  1.00  0.00     0.012 C 
ENDROOT
BRANCH   1   2
ATOM      2  C   UNL     1      20.800 -24.534 -17.856  1.00  0.00     0.016 C 
ATOM      3  C   UNL     1      20.798 -23.703 -19.149  1.00  0.00     0.013 C 
BRANCH   2   4
ATOM      4  C   UNL     1      22.070 -25.360 -17.765  1.00  0.00    -0.045 A 
ATOM      5  C   UNL     1      25.712 -27.672 -17.526  1.00  0.00     0.044 C 
ATOM      6  C   UNL     1      24.438 -26.881 -17.583  1.00  0.00    -0.051 A 
ATOM      7  C   UNL     1      23.319 -27.394 -18.253  1.00  0.00     0.004 A 
ATOM      8  C   UNL     1      24.378 -25.596 -17.026  1.00  0.00     0.004 A 
ATOM      9  C   UNL     1      22.143 -26.644 -18.339  1.00  0.00     0.004 A 
ATOM     10  C   UNL     1      23.202 -24.844 -17.111  1.00  0.00     0.004 A 
ENDBRANCH   2   4
ENDBRANCH   1   2
BRANCH   1  11
ATOM     11  C   UNL     1      19.188 -23.196 -16.376  1.00  0.00     0.028 C 
BRANCH  11  12
ATOM     12  C   UNL     1      18.234 -24.353 -16.535  1.00  0.00    -0.028 C 
ATOM     13  C   UNL     1      16.902 -24.226 -16.727  1.00  0.00    -0.080 C 
ATOM     14  C   UNL     1      16.238 -22.875 -16.858  1.00  0.00     0.039 C 
ATOM     15  C   UNL     1      16.068 -25.476 -16.830  1.00  0.00     0.039 C 
ENDBRANCH  11  12
ENDBRANCH   1  11
TORSDOF 4
ENDMDL
MODEL 3
REMARK VINA RESULT:    16.418     14.214     16.234
REMARK INTER + INTRA:          19.760
REMARK INTER:                  20.284
REMARK INTRA:                  -0.525
REMARK UNBOUND:                -0.498
REMARK SMILES CC(C)=CCC[C@@H](C)c1ccc(C)cc1
REMARK SMILES IDX 6 1 7 2 8 3 9 4 13 5 12 6 11 7 14 8 10 9 15 10 5 11 4 12
REMARK SMILES IDX 2 13 1 14 3 15
REMARK H PARENT
REMARK Flexibility Score: inf
ROOT
ATOM      1  C   UNL     1      20.565 -24.345 -17.707  1.00  0.00     0.012 C 
ENDROOT
BRANCH   1   2
ATOM      2  C   UNL     1      21.968 -23.932 -17.207  1.00  0.00     0.016 C 
ATOM      3  C   UNL     1      21.936 -23.385 -15.770  1.00  0.00     0.013 C 
BRANCH   2   4
ATOM      4  C   UNL     1      22.930 -25.102 -17.302  1.00  0.00    -0.045 A 
ATOM      5  C   UNL     1      25.627 -28.466 -17.562  1.00  0.00     0.044 C 
ATOM      6  C   UNL     1      24.704 -27.286 -17.495  1.00  0.00    -0.051 A 
ATOM      7  C   UNL     1      25.022 -26.186 -16.686  1.00  0.00     0.004 A 
ATOM      8  C   UNL     1      23.485 -27.301 -18.187  1.00  0.00     0.004 A 
ATOM      9  C   UNL     1      24.147 -25.100 -16.594  1.00  0.00     0.004 A 
ATOM     10  C   UNL     1      22.607 -26.217 -18.097  1.00  0.00     0.004 A 
ENDBRANCH   2   4
ENDBRANCH   1   2
BRANCH   1  11
ATOM     11  C   UNL     1      19.438 -23.834 -16.797  1.00  0.00     0.028 C 
BRANCH  11  12
ATOM     12  C   UNL     1      18.234 -24.740 -16.881  1.00  0.00    -0.028 C 
ATOM     13  C   UNL     1      16.955 -24.328 -16.734  1.00  0.00    -0.080 C 
ATOM     14  C   UNL     1      16.601 -22.875 -16.520  1.00  0.00     0.039 C 
ATOM     15  C   UNL     1      15.857 -25.357 -16.804  1.00  0.00     0.039 C 
ENDBRANCH  11  12
ENDBRANCH   1  11
TORSDOF 4
ENDMDL
MODEL 4
REMARK VINA RESULT:    16.972     14.348     16.292
REMARK INTER + INTRA:          20.443
REMARK INTER:                  20.333
REMARK INTRA:                   0.110
REMARK UNBOUND:                -0.498
REMARK SMILES CC(C)=CCC[C@@H](C)c1ccc(C)cc1
REMARK SMILES IDX 6 1 7 2 8 3 9 4 13 5 12 6 11 7 14 8 10 9 15 10 5 11 4 12
REMARK SMILES IDX 2 13 1 14 3 15
REMARK H PARENT
REMARK Flexibility Score: inf
ROOT
ATOM      1  C   UNL     1      19.596 -24.929 -17.612  1.00  0.00     0.012 C 
ENDROOT
BRANCH   1   2
ATOM      2  C   UNL     1      20.770 -24.922 -18.615  1.00  0.00     0.016 C 
ATOM      3  C   UNL     1      20.886 -23.586 -19.367  1.00  0.00     0.013 C 
BRANCH   2   4
ATOM      4  C   UNL     1      22.074 -25.241 -17.906  1.00  0.00    -0.045 A 
ATOM      5  C   UNL     1      25.762 -26.191 -15.867  1.00  0.00     0.044 C 
ATOM      6  C   UNL     1      24.497 -25.851 -16.598  1.00  0.00    -0.051 A 
ATOM      7  C   UNL     1      23.898 -24.595 -16.427  1.00  0.00     0.004 A 
ATOM      8  C   UNL     1      23.867 -26.809 -17.405  1.00  0.00     0.004 A 
ATOM      9  C   UNL     1      22.701 -24.289 -17.079  1.00  0.00     0.004 A 
ATOM     10  C   UNL     1      22.669 -26.505 -18.058  1.00  0.00     0.004 A 
ENDBRANCH   2   4
ENDBRANCH   1   2
BRANCH   1  11
ATOM     11  C   UNL     1      19.558 -23.668 -16.735  1.00  0.00     0.028 C 
BRANCH  11  12
ATOM     12  C   UNL     1      18.199 -23.015 -16.799  1.00  0.00    -0.028 C 
ATOM     13  C   UNL     1      17.034 -23.648 -16.537  1.00  0.00    -0.080 C 
ATOM     14  C   UNL     1      16.989 -25.091 -16.092  1.00  0.00     0.039 C 
ATOM     15  C   UNL     1      15.749 -22.876 -16.680  1.00  0.00     0.039 C 
ENDBRANCH  11  12
ENDBRANCH   1  11
TORSDOF 4
ENDMDL
MODEL 5
REMARK VINA RESULT:    17.227      0.868      6.423
REMARK INTER + INTRA:          20.757
REMARK INTER:                  20.510
REMARK INTRA:                   0.247
REMARK UNBOUND:                -0.498
REMARK SMILES CC(C)=CCC[C@@H](C)c1ccc(C)cc1
REMARK SMILES IDX 6 1 7 2 8 3 9 4 13 5 12 6 11 7 14 8 10 9 15 10 5 11 4 12
REMARK SMILES IDX 2 13 1 14 3 15
REMARK H PARENT
REMARK Flexibility Score: inf
ROOT
ATOM      1  C   UNL     1      17.117 -34.484 -27.841  1.00  0.00     0.012 C 
ENDROOT
BRANCH   1   2
ATOM      2  C   UNL     1      18.476 -34.812 -28.499  1.00  0.00     0.016 C 
ATOM      3  C   UNL     1      19.179 -33.557 -29.040  1.00  0.00     0.013 C 
BRANCH   2   4
ATOM      4  C   UNL     1      19.378 -35.537 -27.516  1.00  0.00    -0.045 A 
ATOM      5  C   UNL     1      21.946 -37.641 -24.752  1.00  0.00     0.044 C 
ATOM      6  C   UNL     1      21.069 -36.885 -25.705  1.00  0.00    -0.051 A 
ATOM      7  C   UNL     1      19.861 -36.327 -25.263  1.00  0.00     0.004 A 
ATOM      8  C   UNL     1      21.416 -36.788 -27.060  1.00  0.00     0.004 A 
ATOM      9  C   UNL     1      19.025 -35.654 -26.157  1.00  0.00     0.004 A 
ATOM     10  C   UNL     1      20.582 -36.115 -27.957  1.00  0.00     0.004 A 
ENDBRANCH   2   4
ENDBRANCH   1   2
BRANCH   1  11
ATOM     11  C   UNL     1      16.506 -33.175 -28.365  1.00  0.00     0.028 C 
BRANCH  11  12
ATOM     12  C   UNL     1      15.077 -33.033 -27.903  1.00  0.00    -0.028 C 
ATOM     13  C   UNL     1      14.181 -34.045 -27.865  1.00  0.00    -0.080 C 
ATOM     14  C   UNL     1      14.555 -35.460 -28.240  1.00  0.00     0.039 C 
ATOM     15  C   UNL     1      12.775 -33.743 -27.417  1.00  0.00     0.039 C 
ENDBRANCH  11  12
ENDBRANCH   1  11
TORSDOF 4
ENDMDL
MODEL 6
REMARK VINA RESULT:    17.636     14.067     14.749
REMARK INTER + INTRA:          21.262
REMARK INTER:                  21.743
REMARK INTRA:                  -0.481
REMARK UNBOUND:                -0.498
REMARK SMILES CC(C)=CCC[C@@H](C)c1ccc(C)cc1
REMARK SMILES IDX 6 1 7 2 8 3 9 4 13 5 12 6 11 7 14 8 10 9 15 10 5 11 4 12
REMARK SMILES IDX 2 13 1 14 3 15
REMARK H PARENT
REMARK Flexibility Score: inf
ROOT
ATOM      1  C   UNL     1      21.212 -25.015 -18.448  1.00  0.00     0.012 C 
ENDROOT
BRANCH   1   2
ATOM      2  C   UNL     1      20.540 -23.640 -18.664  1.00  0.00     0.016 C 
ATOM      3  C   UNL     1      20.489 -23.243 -20.148  1.00  0.00     0.013 C 
BRANCH   2   4
ATOM      4  C   UNL     1      19.142 -23.636 -18.071  1.00  0.00    -0.045 A 
ATOM      5  C   UNL     1      15.164 -23.677 -16.387  1.00  0.00     0.044 C 
ATOM      6  C   UNL     1      16.552 -23.640 -16.954  1.00  0.00    -0.051 A 
ATOM      7  C   UNL     1      16.826 -22.884 -18.103  1.00  0.00     0.004 A 
ATOM      8  C   UNL     1      17.571 -24.413 -16.381  1.00  0.00     0.004 A 
ATOM      9  C   UNL     1      18.109 -22.876 -18.655  1.00  0.00     0.004 A 
ATOM     10  C   UNL     1      18.857 -24.407 -16.931  1.00  0.00     0.004 A 
ENDBRANCH   2   4
ENDBRANCH   1   2
BRANCH   1  11
ATOM     11  C   UNL     1      22.495 -24.921 -17.609  1.00  0.00     0.028 C 
BRANCH  11  12
ATOM     12  C   UNL     1      23.394 -26.103 -17.879  1.00  0.00    -0.028 C 
ATOM     13  C   UNL     1      24.495 -26.407 -17.155  1.00  0.00    -0.080 C 
ATOM     14  C   UNL     1      24.905 -25.602 -15.944  1.00  0.00     0.039 C 
ATOM     15  C   UNL     1      25.319 -27.599 -17.568  1.00  0.00     0.039 C 
ENDBRANCH  11  12
ENDBRANCH   1  11
TORSDOF 4
ENDMDL
MODEL 7
REMARK VINA RESULT:    17.675     13.314     15.133
REMARK INTER + INTRA:          21.310
REMARK INTER:                  21.705
REMARK INTRA:                  -0.395
REMARK UNBOUND:                -0.498
REMARK SMILES CC(C)=CCC[C@@H](C)c1ccc(C)cc1
REMARK SMILES IDX 6 1 7 2 8 3 9 4 13 5 12 6 11 7 14 8 10 9 15 10 5 11 4 12
REMARK SMILES IDX 2 13 1 14 3 15
REMARK H PARENT
REMARK Flexibility Score: inf
ROOT
ATOM      1  C   UNL     1      20.719 -24.289 -20.111  1.00  0.00     0.012 C 
ENDROOT
BRANCH   1   2
ATOM      2  C   UNL     1      20.780 -23.975 -18.599  1.00  0.00     0.016 C 
ATOM      3  C   UNL     1      19.481 -24.357 -17.872  1.00  0.00     0.013 C 
BRANCH   2   4
ATOM      4  C   UNL     1      21.965 -24.678 -17.960  1.00  0.00    -0.045 A 
ATOM      5  C   UNL     1      25.368 -26.635 -16.158  1.00  0.00     0.044 C 
ATOM      6  C   UNL     1      24.169 -25.965 -16.761  1.00  0.00    -0.051 A 
ATOM      7  C   UNL     1      23.372 -26.647 -17.691  1.00  0.00     0.004 A 
ATOM      8  C   UNL     1      23.876 -24.630 -16.452  1.00  0.00     0.004 A 
ATOM      9  C   UNL     1      22.276 -26.013 -18.282  1.00  0.00     0.004 A 
ATOM     10  C   UNL     1      22.780 -23.992 -17.042  1.00  0.00     0.004 A 
ENDBRANCH   2   4
ENDBRANCH   1   2
BRANCH   1  11
ATOM     11  C   UNL     1      20.185 -23.111 -20.939  1.00  0.00     0.028 C 
BRANCH  11  12
ATOM     12  C   UNL     1      21.047 -22.881 -22.155  1.00  0.00    -0.028 C 
ATOM     13  C   UNL     1      21.023 -23.649 -23.267  1.00  0.00    -0.080 C 
ATOM     14  C   UNL     1      20.065 -24.808 -23.418  1.00  0.00     0.039 C 
ATOM     15  C   UNL     1      21.973 -23.320 -24.389  1.00  0.00     0.039 C 
ENDBRANCH  11  12
ENDBRANCH   1  11
TORSDOF 4
ENDMDL
