MODEL 1
REMARK VINA RESULT:     5.421      0.000      0.000
REMARK INTER + INTRA:           6.347
REMARK INTER:                   6.372
REMARK INTRA:                  -0.025
REMARK UNBOUND:                -0.025
REMARK SMILES C=C(C)[C@H]1CC[C@@]2(CO)CC[C@@]3(C)[C@@H](CC[C@H]4[C@@]5(C)CC[C@H](O)C(C)(C)[C@@H]5CC[C@]43C)[C@H]12
REMARK SMILES IDX 4 1 5 2 6 3 7 4 32 5 14 6 15 7 16 8 17 9 18 10 20 11 21 12
REMARK SMILES IDX 22 13 24 14 27 15 28 16 29 17 30 18 12 19 11 20 10 21 13 22
REMARK SMILES IDX 31 23 25 24 26 25 19 26 2 27 3 28 1 29 8 30 9 31 23 33
REMARK H PARENT 9 32 23 34
REMARK Flexibility Score: inf
ROOT
ATOM      1  C   UNL     1     -26.619  19.680 -33.562  1.00  0.00     0.018 C 
ATOM      2  C   UNL     1     -25.561  20.735 -33.971  1.00  0.00     0.009 C 
ATOM      3  C   UNL     1     -24.301  20.438 -33.140  1.00  0.00     0.010 C 
ATOM      4  C   UNL     1     -24.460  18.975 -32.705  1.00  0.00    -0.003 C 
ATOM      5  C   UNL     1     -25.963  18.931 -32.383  1.00  0.00     0.008 C 
ATOM      6  C   UNL     1     -26.420  17.495 -31.996  1.00  0.00    -0.000 C 
ATOM      7  C   UNL     1     -27.923  17.398 -31.777  1.00  0.00     0.005 C 
ATOM      8  C   UNL     1     -28.341  15.945 -31.608  1.00  0.00     0.005 C 
ATOM      9  C   UNL     1     -27.610  15.147 -30.478  1.00  0.00     0.002 C 
ATOM     10  C   UNL     1     -28.075  13.601 -30.453  1.00  0.00    -0.026 C 
ATOM     11  C   UNL     1     -29.620  13.468 -30.699  1.00  0.00     0.010 C 
ATOM     12  C   UNL     1     -30.115  12.022 -30.857  1.00  0.00     0.033 C 
ATOM     13  C   UNL     1     -29.393  11.310 -32.010  1.00  0.00     0.120 C 
ATOM     14  C   UNL     1     -27.837  11.323 -31.857  1.00  0.00    -0.006 C 
ATOM     15  C   UNL     1     -27.349  12.814 -31.611  1.00  0.00     0.003 C 
ATOM     16  C   UNL     1     -25.815  12.983 -31.542  1.00  0.00     0.005 C 
ATOM     17  C   UNL     1     -25.387  14.459 -31.592  1.00  0.00     0.008 C 
ATOM     18  C   UNL     1     -26.017  15.376 -30.489  1.00  0.00    -0.024 C 
ATOM     19  C   UNL     1     -25.646  16.945 -30.726  1.00  0.00    -0.024 C 
ATOM     20  C   UNL     1     -24.090  17.184 -30.929  1.00  0.00     0.008 C 
ATOM     21  C   UNL     1     -23.700  18.604 -31.414  1.00  0.00     0.010 C 
ATOM     22  C   UNL     1     -26.036  17.762 -29.439  1.00  0.00     0.012 C 
ATOM     23  C   UNL     1     -25.396  14.942 -29.118  1.00  0.00     0.012 C 
ATOM     24  C   UNL     1     -27.248  10.795 -33.196  1.00  0.00     0.014 C 
ATOM     25  C   UNL     1     -27.391  10.332 -30.748  1.00  0.00     0.014 C 
ATOM     26  C   UNL     1     -27.792  13.009 -29.029  1.00  0.00     0.012 C 
ENDROOT
BRANCH   1  27
ATOM     27  C   UNL     1     -27.957  20.337 -33.228  1.00  0.00    -0.077 C 
ATOM     28  C   UNL     1     -28.040  21.771 -32.764  1.00  0.00     0.039 C 
ATOM     29  C   UNL     1     -29.101  19.656 -33.402  1.00  0.00     0.008 C 
ENDBRANCH   1  27
BRANCH   4  30
ATOM     30  C   UNL     1     -24.015  18.052 -33.898  1.00  0.00     0.163 C 
BRANCH  30  31
ATOM     31  O   UNL     1     -23.012  18.673 -34.660  1.00  0.00    -0.396 OA
ATOM     32  H   UNL     1     -23.429  18.976 -35.508  1.00  0.00     0.210 HD
ENDBRANCH  30  31
ENDBRANCH   4  30
BRANCH  13  33
ATOM     33  O   UNL     1     -29.868   9.990 -32.111  1.00  0.00    -0.393 OA
ATOM     34  H   UNL     1     -30.775  10.036 -32.512  1.00  0.00     0.210 HD
ENDBRANCH  13  33
TORSDOF 4
ENDMDL
MODEL 2
REMARK VINA RESULT:     5.675     11.168     13.710
REMARK INTER + INTRA:           6.645
REMARK INTER:                   6.053
REMARK INTRA:                   0.592
REMARK UNBOUND:                -0.025
REMARK SMILES C=C(C)[C@H]1CC[C@@]2(CO)CC[C@@]3(C)[C@@H](CC[C@H]4[C@@]5(C)CC[C@H](O)C(C)(C)[C@@H]5CC[C@]43C)[C@H]12
REMARK SMILES IDX 4 1 5 2 6 3 7 4 32 5 14 6 15 7 16 8 17 9 18 10 20 11 21 12
REMARK SMILES IDX 22 13 24 14 27 15 28 16 29 17 30 18 12 19 11 20 10 21 13 22
REMARK SMILES IDX 31 23 25 24 26 25 19 26 2 27 3 28 1 29 8 30 9 31 23 33
REMARK H PARENT 9 32 23 34
REMARK Flexibility Score: inf
ROOT
ATOM      1  C   UNL     1     -12.497  11.836 -25.184  1.00  0.00     0.018 C 
ATOM      2  C   UNL     1     -11.093  12.459 -24.985  1.00  0.00     0.009 C 
ATOM      3  C   UNL     1     -10.541  12.757 -26.389  1.00  0.00     0.010 C 
ATOM      4  C   UNL     1     -11.783  12.810 -27.289  1.00  0.00    -0.003 C 
ATOM      5  C   UNL     1     -12.609  11.649 -26.711  1.00  0.00     0.008 C 
ATOM      6  C   UNL     1     -13.999  11.540 -27.402  1.00  0.00    -0.000 C 
ATOM      7  C   UNL     1     -14.881  10.468 -26.777  1.00  0.00     0.005 C 
ATOM      8  C   UNL     1     -16.290  10.544 -27.347  1.00  0.00     0.005 C 
ATOM      9  C   UNL     1     -16.407  10.454 -28.905  1.00  0.00     0.002 C 
ATOM     10  C   UNL     1     -17.936  10.631 -29.391  1.00  0.00    -0.026 C 
ATOM     11  C   UNL     1     -18.927   9.875 -28.437  1.00  0.00     0.010 C 
ATOM     12  C   UNL     1     -20.413  10.132 -28.735  1.00  0.00     0.033 C 
ATOM     13  C   UNL     1     -20.743  11.630 -28.663  1.00  0.00     0.120 C 
ATOM     14  C   UNL     1     -19.856  12.497 -29.615  1.00  0.00    -0.006 C 
ATOM     15  C   UNL     1     -18.326  12.159 -29.354  1.00  0.00     0.003 C 
ATOM     16  C   UNL     1     -17.332  13.022 -30.162  1.00  0.00     0.005 C 
ATOM     17  C   UNL     1     -15.885  12.861 -29.670  1.00  0.00     0.008 C 
ATOM     18  C   UNL     1     -15.340  11.393 -29.660  1.00  0.00    -0.024 C 
ATOM     19  C   UNL     1     -13.870  11.299 -28.965  1.00  0.00    -0.024 C 
ATOM     20  C   UNL     1     -12.840  12.347 -29.563  1.00  0.00     0.008 C 
ATOM     21  C   UNL     1     -11.513  12.489 -28.775  1.00  0.00     0.010 C 
ATOM     22  C   UNL     1     -13.254   9.882 -29.261  1.00  0.00     0.012 C 
ATOM     23  C   UNL     1     -15.189  10.948 -31.155  1.00  0.00     0.012 C 
ATOM     24  C   UNL     1     -20.130  13.984 -29.256  1.00  0.00     0.014 C 
ATOM     25  C   UNL     1     -20.292  12.304 -31.093  1.00  0.00     0.014 C 
ATOM     26  C   UNL     1     -18.095   9.985 -30.811  1.00  0.00     0.012 C 
ENDROOT
BRANCH   1  27
ATOM     27  C   UNL     1     -12.652  10.549 -24.376  1.00  0.00    -0.077 C 
ATOM     28  C   UNL     1     -14.006   9.929 -24.125  1.00  0.00     0.039 C 
ATOM     29  C   UNL     1     -11.563   9.907 -23.922  1.00  0.00     0.008 C 
ENDBRANCH   1  27
BRANCH   4  30
ATOM     30  C   UNL     1     -12.445  14.228 -27.138  1.00  0.00     0.163 C 
BRANCH  30  31
ATOM     31  O   UNL     1     -12.401  14.930 -28.354  1.00  0.00    -0.396 OA
ATOM     32  H   UNL     1     -12.827  14.357 -29.043  1.00  0.00     0.210 HD
ENDBRANCH  30  31
ENDBRANCH   4  30
BRANCH  13  33
ATOM     33  O   UNL     1     -22.107  11.819 -28.952  1.00  0.00    -0.393 OA
ATOM     34  H   UNL     1     -22.380  12.674 -28.527  1.00  0.00     0.210 HD
ENDBRANCH  13  33
TORSDOF 4
ENDMDL
MODEL 3
REMARK VINA RESULT:     7.839     10.363     13.395
REMARK INTER + INTRA:           9.190
REMARK INTER:                   7.691
REMARK INTRA:                   1.498
REMARK UNBOUND:                -0.025
REMARK SMILES C=C(C)[C@H]1CC[C@@]2(CO)CC[C@@]3(C)[C@@H](CC[C@H]4[C@@]5(C)CC[C@H](O)C(C)(C)[C@@H]5CC[C@]43C)[C@H]12
REMARK SMILES IDX 4 1 5 2 6 3 7 4 32 5 14 6 15 7 16 8 17 9 18 10 20 11 21 12
REMARK SMILES IDX 22 13 24 14 27 15 28 16 29 17 30 18 12 19 11 20 10 21 13 22
REMARK SMILES IDX 31 23 25 24 26 25 19 26 2 27 3 28 1 29 8 30 9 31 23 33
REMARK H PARENT 9 32 23 34
REMARK Flexibility Score: inf
ROOT
ATOM      1  C   UNL     1     -20.196   9.998 -28.116  1.00  0.00     0.018 C 
ATOM      2  C   UNL     1     -21.571   9.947 -28.828  1.00  0.00     0.009 C 
ATOM      3  C   UNL     1     -21.579  11.096 -29.852  1.00  0.00     0.010 C 
ATOM      4  C   UNL     1     -20.096  11.418 -30.082  1.00  0.00    -0.003 C 
ATOM      5  C   UNL     1     -19.546  11.291 -28.652  1.00  0.00     0.008 C 
ATOM      6  C   UNL     1     -18.003  11.482 -28.617  1.00  0.00    -0.000 C 
ATOM      7  C   UNL     1     -17.416  11.255 -27.231  1.00  0.00     0.005 C 
ATOM      8  C   UNL     1     -15.896  11.249 -27.294  1.00  0.00     0.005 C 
ATOM      9  C   UNL     1     -15.229  12.515 -27.927  1.00  0.00     0.002 C 
ATOM     10  C   UNL     1     -13.626  12.353 -28.016  1.00  0.00    -0.026 C 
ATOM     11  C   UNL     1     -13.051  11.668 -26.726  1.00  0.00     0.010 C 
ATOM     12  C   UNL     1     -11.554  11.327 -26.802  1.00  0.00     0.033 C 
ATOM     13  C   UNL     1     -11.254  10.408 -27.996  1.00  0.00     0.120 C 
ATOM     14  C   UNL     1     -11.731  11.003 -29.360  1.00  0.00    -0.006 C 
ATOM     15  C   UNL     1     -13.256  11.429 -29.240  1.00  0.00     0.003 C 
ATOM     16  C   UNL     1     -13.884  11.944 -30.554  1.00  0.00     0.005 C 
ATOM     17  C   UNL     1     -15.413  12.068 -30.461  1.00  0.00     0.008 C 
ATOM     18  C   UNL     1     -15.943  12.971 -29.296  1.00  0.00    -0.024 C 
ATOM     19  C   UNL     1     -17.565  12.903 -29.170  1.00  0.00    -0.024 C 
ATOM     20  C   UNL     1     -18.300  13.166 -30.552  1.00  0.00     0.008 C 
ATOM     21  C   UNL     1     -19.820  12.861 -30.557  1.00  0.00     0.010 C 
ATOM     22  C   UNL     1     -18.051  14.049 -28.207  1.00  0.00     0.012 C 
ATOM     23  C   UNL     1     -15.553  14.448 -29.645  1.00  0.00     0.012 C 
ATOM     24  C   UNL     1     -11.586   9.875 -30.420  1.00  0.00     0.014 C 
ATOM     25  C   UNL     1     -10.796  12.161 -29.805  1.00  0.00     0.014 C 
ATOM     26  C   UNL     1     -12.976  13.778 -28.097  1.00  0.00     0.012 C 
ENDROOT
BRANCH   1  27
ATOM     27  C   UNL     1     -20.357   9.954 -26.598  1.00  0.00    -0.077 C 
ATOM     28  C   UNL     1     -21.718   9.880 -25.948  1.00  0.00     0.039 C 
ATOM     29  C   UNL     1     -19.271   9.918 -25.809  1.00  0.00     0.008 C 
ENDBRANCH   1  27
BRANCH   4  30
ATOM     30  C   UNL     1     -19.516  10.375 -31.106  1.00  0.00     0.163 C 
BRANCH  30  31
ATOM     31  O   UNL     1     -18.247   9.930 -30.697  1.00  0.00    -0.396 OA
ATOM     32  H   UNL     1     -17.578  10.566 -31.063  1.00  0.00     0.210 HD
ENDBRANCH  30  31
ENDBRANCH   4  30
BRANCH  13  33
ATOM     33  O   UNL     1      -9.875  10.131 -28.033  1.00  0.00    -0.393 OA
ATOM     34  H   UNL     1      -9.586   9.962 -27.098  1.00  0.00     0.210 HD
ENDBRANCH  13  33
TORSDOF 4
ENDMDL
