MODEL 1
REMARK VINA RESULT:    -8.104      0.000      0.000
REMARK INTER + INTRA:         -12.567
REMARK INTER:                 -11.184
REMARK INTRA:                  -1.383
REMARK UNBOUND:                -1.383
REMARK SMILES CC[C@@H](CC[C@@H](C)[C@H]1CC[C@H]2[C@H]3CC=C4C[C@@H](O)CC[C@]4(C)[C@@H]3CC[C@@]12C)C(C)C
REMARK SMILES IDX 5 1 4 2 3 3 2 4 1 5 28 6 29 7 30 8 6 9 7 10 8 11 9 12 26 13
REMARK SMILES IDX 10 14 11 15 25 16 27 17 12 18 24 19 23 20 13 21 21 22 14 23
REMARK SMILES IDX 15 24 20 25 22 26 16 27 19 28 17 29 18 30
REMARK H PARENT 18 31
REMARK Flexibility Score: inf
ROOT
ATOM      1  C   UNL     1      48.738 -27.075   8.337  1.00  0.00     0.004 C 
ENDROOT
BRANCH   1   2
ATOM      2  C   UNL     1      47.236 -27.011   7.993  1.00  0.00     0.004 C 
BRANCH   2   3
ATOM      3  C   UNL     1      46.589 -28.412   7.779  1.00  0.00    -0.009 C 
BRANCH   3   4
ATOM      4  C   UNL     1      46.301 -28.670   6.275  1.00  0.00     0.000 C 
ATOM      5  C   UNL     1      46.683 -27.521   5.341  1.00  0.00     0.004 C 
ENDBRANCH   3   4
BRANCH   3   6
ATOM      6  C   UNL     1      45.348 -28.748   8.684  1.00  0.00    -0.014 C 
ATOM      7  C   UNL     1      43.994 -28.260   8.136  1.00  0.00     0.007 C 
ATOM      8  C   UNL     1      45.540 -28.251  10.125  1.00  0.00     0.007 C 
ENDBRANCH   3   6
ENDBRANCH   2   3
ENDBRANCH   1   2
BRANCH   1   9
ATOM      9  C   UNL     1      49.638 -26.481   7.202  1.00  0.00    -0.011 C 
ATOM     10  C   UNL     1      50.075 -25.058   7.598  1.00  0.00     0.008 C 
BRANCH   9  11
ATOM     11  C   UNL     1      50.861 -27.423   6.905  1.00  0.00    -0.002 C 
ATOM     12  C   UNL     1      50.509 -28.905   7.138  1.00  0.00     0.005 C 
ATOM     13  C   UNL     1      51.505 -27.397   5.478  1.00  0.00    -0.026 C 
ATOM     14  C   UNL     1      51.367 -29.736   6.192  1.00  0.00     0.005 C 
ATOM     15  C   UNL     1      52.263 -28.747   5.438  1.00  0.00    -0.001 C 
ATOM     16  C   UNL     1      50.418 -27.359   4.362  1.00  0.00     0.007 C 
ATOM     17  C   UNL     1      52.517 -26.229   5.320  1.00  0.00     0.012 C 
ATOM     18  C   UNL     1      52.718 -29.215   4.017  1.00  0.00     0.000 C 
ATOM     19  C   UNL     1      50.976 -27.698   2.978  1.00  0.00     0.005 C 
ATOM     20  C   UNL     1      51.606 -29.112   2.949  1.00  0.00     0.003 C 
ATOM     21  C   UNL     1      53.248 -30.656   4.055  1.00  0.00     0.031 C 
ATOM     22  C   UNL     1      52.104 -29.557   1.503  1.00  0.00    -0.008 C 
ATOM     23  C   UNL     1      53.740 -31.084   2.713  1.00  0.00    -0.027 C 
ATOM     24  C   UNL     1      53.191 -30.651   1.560  1.00  0.00    -0.065 C 
ATOM     25  C   UNL     1      52.709 -28.356   0.705  1.00  0.00     0.014 C 
ATOM     26  C   UNL     1      50.875 -30.118   0.742  1.00  0.00     0.016 C 
ATOM     27  C   UNL     1      53.834 -31.081   0.257  1.00  0.00     0.063 C 
ATOM     28  C   UNL     1      53.370 -28.753  -0.632  1.00  0.00     0.033 C 
ATOM     29  C   UNL     1      54.432 -29.850  -0.437  1.00  0.00     0.118 C 
BRANCH  29  30
ATOM     30  O   UNL     1      55.010 -30.204  -1.668  1.00  0.00    -0.393 OA
ATOM     31  H   UNL     1      54.273 -30.366  -2.313  1.00  0.00     0.210 HD
ENDBRANCH  29  30
ENDBRANCH   9  11
ENDBRANCH   1   9
TORSDOF 7
ENDMDL
MODEL 2
REMARK VINA RESULT:    -7.961      7.820     12.779
REMARK INTER + INTRA:         -12.370
REMARK INTER:                 -10.211
REMARK INTRA:                  -2.159
REMARK UNBOUND:                -1.383
REMARK SMILES CC[C@@H](CC[C@@H](C)[C@H]1CC[C@H]2[C@H]3CC=C4C[C@@H](O)CC[C@]4(C)[C@@H]3CC[C@@]12C)C(C)C
REMARK SMILES IDX 5 1 4 2 3 3 2 4 1 5 28 6 29 7 30 8 6 9 7 10 8 11 9 12 26 13
REMARK SMILES IDX 10 14 11 15 25 16 27 17 12 18 24 19 23 20 13 21 21 22 14 23
REMARK SMILES IDX 15 24 20 25 22 26 16 27 19 28 17 29 18 30
REMARK H PARENT 18 31
REMARK Flexibility Score: inf
ROOT
ATOM      1  C   UNL     1      53.420 -34.675  -8.448  1.00  0.00     0.004 C 
ENDROOT
BRANCH   1   2
ATOM      2  C   UNL     1      51.895 -34.717  -8.677  1.00  0.00     0.004 C 
BRANCH   2   3
ATOM      3  C   UNL     1      51.082 -33.984  -7.568  1.00  0.00    -0.009 C 
BRANCH   3   4
ATOM      4  C   UNL     1      49.961 -34.897  -7.001  1.00  0.00     0.000 C 
ATOM      5  C   UNL     1      50.288 -35.556  -5.659  1.00  0.00     0.004 C 
ENDBRANCH   3   4
BRANCH   3   6
ATOM      6  C   UNL     1      50.547 -32.551  -7.934  1.00  0.00    -0.014 C 
ATOM      7  C   UNL     1      49.023 -32.374  -7.799  1.00  0.00     0.007 C 
ATOM      8  C   UNL     1      51.004 -32.110  -9.332  1.00  0.00     0.007 C 
ENDBRANCH   3   6
ENDBRANCH   2   3
ENDBRANCH   1   2
BRANCH   1   9
ATOM      9  C   UNL     1      53.793 -34.441  -6.946  1.00  0.00    -0.011 C 
ATOM     10  C   UNL     1      54.492 -35.700  -6.398  1.00  0.00     0.008 C 
BRANCH   9  11
ATOM     11  C   UNL     1      54.672 -33.148  -6.780  1.00  0.00    -0.002 C 
ATOM     12  C   UNL     1      54.467 -32.166  -7.951  1.00  0.00     0.005 C 
ATOM     13  C   UNL     1      54.486 -32.268  -5.499  1.00  0.00    -0.026 C 
ATOM     14  C   UNL     1      54.700 -30.759  -7.417  1.00  0.00     0.005 C 
ATOM     15  C   UNL     1      55.093 -30.913  -5.943  1.00  0.00    -0.001 C 
ATOM     16  C   UNL     1      52.980 -32.089  -5.142  1.00  0.00     0.007 C 
ATOM     17  C   UNL     1      55.290 -32.825  -4.292  1.00  0.00     0.012 C 
ATOM     18  C   UNL     1      54.741 -29.694  -5.031  1.00  0.00     0.000 C 
ATOM     19  C   UNL     1      52.738 -30.960  -4.139  1.00  0.00     0.005 C 
ATOM     20  C   UNL     1      53.239 -29.599  -4.680  1.00  0.00     0.003 C 
ATOM     21  C   UNL     1      55.192 -28.375  -5.676  1.00  0.00     0.031 C 
ATOM     22  C   UNL     1      52.912 -28.371  -3.720  1.00  0.00    -0.008 C 
ATOM     23  C   UNL     1      54.914 -27.214  -4.781  1.00  0.00    -0.027 C 
ATOM     24  C   UNL     1      53.854 -27.171  -3.947  1.00  0.00    -0.065 C 
ATOM     25  C   UNL     1      53.036 -28.768  -2.212  1.00  0.00     0.014 C 
ATOM     26  C   UNL     1      51.457 -27.924  -4.018  1.00  0.00     0.016 C 
ATOM     27  C   UNL     1      53.725 -25.981  -3.018  1.00  0.00     0.063 C 
ATOM     28  C   UNL     1      52.905 -27.582  -1.233  1.00  0.00     0.033 C 
ATOM     29  C   UNL     1      53.898 -26.456  -1.570  1.00  0.00     0.118 C 
BRANCH  29  30
ATOM     30  O   UNL     1      53.752 -25.383  -0.673  1.00  0.00    -0.393 OA
ATOM     31  H   UNL     1      53.118 -24.734  -1.079  1.00  0.00     0.210 HD
ENDBRANCH  29  30
ENDBRANCH   9  11
ENDBRANCH   1   9
TORSDOF 7
ENDMDL
MODEL 3
REMARK VINA RESULT:    -7.951      3.154      8.215
REMARK INTER + INTRA:         -12.356
REMARK INTER:                  -9.835
REMARK INTRA:                  -2.521
REMARK UNBOUND:                -1.383
REMARK SMILES CC[C@@H](CC[C@@H](C)[C@H]1CC[C@H]2[C@H]3CC=C4C[C@@H](O)CC[C@]4(C)[C@@H]3CC[C@@]12C)C(C)C
REMARK SMILES IDX 5 1 4 2 3 3 2 4 1 5 28 6 29 7 30 8 6 9 7 10 8 11 9 12 26 13
REMARK SMILES IDX 10 14 11 15 25 16 27 17 12 18 24 19 23 20 13 21 21 22 14 23
REMARK SMILES IDX 15 24 20 25 22 26 16 27 19 28 17 29 18 30
REMARK H PARENT 18 31
REMARK Flexibility Score: inf
ROOT
ATOM      1  C   UNL     1      52.708 -28.049  -1.418  1.00  0.00     0.004 C 
ENDROOT
BRANCH   1   2
ATOM      2  C   UNL     1      53.442 -29.383  -1.173  1.00  0.00     0.004 C 
BRANCH   2   3
ATOM      3  C   UNL     1      53.387 -29.858   0.310  1.00  0.00    -0.009 C 
BRANCH   3   4
ATOM      4  C   UNL     1      54.807 -30.189   0.844  1.00  0.00     0.000 C 
ATOM      5  C   UNL     1      55.543 -29.011   1.485  1.00  0.00     0.004 C 
ENDBRANCH   3   4
BRANCH   3   6
ATOM      6  C   UNL     1      52.354 -30.998   0.635  1.00  0.00    -0.014 C 
ATOM      7  C   UNL     1      51.288 -31.236  -0.451  1.00  0.00     0.007 C 
ATOM      8  C   UNL     1      51.676 -30.783   1.997  1.00  0.00     0.007 C 
ENDBRANCH   3   6
ENDBRANCH   2   3
ENDBRANCH   1   2
BRANCH   1   9
ATOM      9  C   UNL     1      52.991 -26.996  -0.295  1.00  0.00    -0.011 C 
ATOM     10  C   UNL     1      53.793 -25.824  -0.893  1.00  0.00     0.008 C 
BRANCH   9  11
ATOM     11  C   UNL     1      51.653 -26.523   0.382  1.00  0.00    -0.002 C 
ATOM     12  C   UNL     1      50.511 -27.534   0.154  1.00  0.00     0.005 C 
ATOM     13  C   UNL     1      51.638 -26.263   1.926  1.00  0.00    -0.026 C 
ATOM     14  C   UNL     1      49.569 -27.439   1.347  1.00  0.00     0.005 C 
ATOM     15  C   UNL     1      50.126 -26.336   2.254  1.00  0.00    -0.001 C 
ATOM     16  C   UNL     1      52.410 -27.374   2.699  1.00  0.00     0.007 C 
ATOM     17  C   UNL     1      52.178 -24.850   2.279  1.00  0.00     0.012 C 
ATOM     18  C   UNL     1      49.780 -26.486   3.771  1.00  0.00     0.000 C 
ATOM     19  C   UNL     1      52.116 -27.364   4.201  1.00  0.00     0.005 C 
ATOM     20  C   UNL     1      50.609 -27.574   4.488  1.00  0.00     0.003 C 
ATOM     21  C   UNL     1      48.285 -26.779   3.968  1.00  0.00     0.031 C 
ATOM     22  C   UNL     1      50.265 -27.682   6.039  1.00  0.00    -0.008 C 
ATOM     23  C   UNL     1      47.939 -26.862   5.417  1.00  0.00    -0.027 C 
ATOM     24  C   UNL     1      48.795 -27.329   6.348  1.00  0.00    -0.065 C 
ATOM     25  C   UNL     1      51.153 -26.720   6.896  1.00  0.00     0.014 C 
ATOM     26  C   UNL     1      50.526 -29.148   6.471  1.00  0.00     0.016 C 
ATOM     27  C   UNL     1      48.367 -27.279   7.801  1.00  0.00     0.063 C 
ATOM     28  C   UNL     1      50.752 -26.646   8.385  1.00  0.00     0.033 C 
ATOM     29  C   UNL     1      49.265 -26.288   8.553  1.00  0.00     0.118 C 
BRANCH  29  30
ATOM     30  O   UNL     1      48.919 -26.238   9.915  1.00  0.00    -0.393 OA
ATOM     31  H   UNL     1      48.745 -27.168  10.217  1.00  0.00     0.210 HD
ENDBRANCH  29  30
ENDBRANCH   9  11
ENDBRANCH   1   9
TORSDOF 7
ENDMDL
MODEL 4
REMARK VINA RESULT:    -7.876      5.933     12.113
REMARK INTER + INTRA:         -12.252
REMARK INTER:                 -10.499
REMARK INTRA:                  -1.753
REMARK UNBOUND:                -1.383
REMARK SMILES CC[C@@H](CC[C@@H](C)[C@H]1CC[C@H]2[C@H]3CC=C4C[C@@H](O)CC[C@]4(C)[C@@H]3CC[C@@]12C)C(C)C
REMARK SMILES IDX 5 1 4 2 3 3 2 4 1 5 28 6 29 7 30 8 6 9 7 10 8 11 9 12 26 13
REMARK SMILES IDX 10 14 11 15 25 16 27 17 12 18 24 19 23 20 13 21 21 22 14 23
REMARK SMILES IDX 15 24 20 25 22 26 16 27 19 28 17 29 18 30
REMARK H PARENT 18 31
REMARK Flexibility Score: inf
ROOT
ATOM      1  C   UNL     1      53.967 -35.616  -5.829  1.00  0.00     0.004 C 
ENDROOT
BRANCH   1   2
ATOM      2  C   UNL     1      53.714 -36.011  -7.298  1.00  0.00     0.004 C 
BRANCH   2   3
ATOM      3  C   UNL     1      52.207 -36.230  -7.630  1.00  0.00    -0.009 C 
BRANCH   3   4
ATOM      4  C   UNL     1      51.580 -34.951  -8.248  1.00  0.00     0.000 C 
ATOM      5  C   UNL     1      52.401 -34.310  -9.369  1.00  0.00     0.004 C 
ENDBRANCH   3   4
BRANCH   3   6
ATOM      6  C   UNL     1      51.321 -36.822  -6.474  1.00  0.00    -0.014 C 
ATOM      7  C   UNL     1      50.925 -38.300  -6.652  1.00  0.00     0.007 C 
ATOM      8  C   UNL     1      50.068 -35.971  -6.221  1.00  0.00     0.007 C 
ENDBRANCH   3   6
ENDBRANCH   2   3
ENDBRANCH   1   2
BRANCH   1   9
ATOM      9  C   UNL     1      54.799 -34.297  -5.698  1.00  0.00    -0.011 C 
ATOM     10  C   UNL     1      55.284 -33.866  -7.096  1.00  0.00     0.008 C 
BRANCH   9  11
ATOM     11  C   UNL     1      53.963 -33.175  -4.981  1.00  0.00    -0.002 C 
ATOM     12  C   UNL     1      52.465 -33.530  -4.922  1.00  0.00     0.005 C 
ATOM     13  C   UNL     1      54.329 -32.785  -3.509  1.00  0.00    -0.026 C 
ATOM     14  C   UNL     1      51.886 -32.875  -3.674  1.00  0.00     0.005 C 
ATOM     15  C   UNL     1      53.032 -32.090  -3.025  1.00  0.00    -0.001 C 
ATOM     16  C   UNL     1      54.618 -34.046  -2.640  1.00  0.00     0.007 C 
ATOM     17  C   UNL     1      55.510 -31.778  -3.453  1.00  0.00     0.012 C 
ATOM     18  C   UNL     1      52.914 -31.901  -1.477  1.00  0.00     0.000 C 
ATOM     19  C   UNL     1      54.617 -33.745  -1.140  1.00  0.00     0.005 C 
ATOM     20  C   UNL     1      53.255 -33.176  -0.674  1.00  0.00     0.003 C 
ATOM     21  C   UNL     1      51.509 -31.420  -1.087  1.00  0.00     0.031 C 
ATOM     22  C   UNL     1      53.165 -32.949   0.900  1.00  0.00    -0.008 C 
ATOM     23  C   UNL     1      51.411 -31.180   0.383  1.00  0.00    -0.027 C 
ATOM     24  C   UNL     1      52.097 -31.905   1.290  1.00  0.00    -0.065 C 
ATOM     25  C   UNL     1      54.525 -32.452   1.491  1.00  0.00     0.014 C 
ATOM     26  C   UNL     1      52.788 -34.309   1.544  1.00  0.00     0.016 C 
ATOM     27  C   UNL     1      51.990 -31.510   2.749  1.00  0.00     0.063 C 
ATOM     28  C   UNL     1      54.458 -32.044   2.978  1.00  0.00     0.033 C 
ATOM     29  C   UNL     1      53.355 -31.001   3.231  1.00  0.00     0.118 C 
BRANCH  29  30
ATOM     30  O   UNL     1      53.304 -30.654   4.593  1.00  0.00    -0.393 OA
ATOM     31  H   UNL     1      53.057 -29.694   4.651  1.00  0.00     0.210 HD
ENDBRANCH  29  30
ENDBRANCH   9  11
ENDBRANCH   1   9
TORSDOF 7
ENDMDL
MODEL 5
REMARK VINA RESULT:    -7.795      5.681     12.327
REMARK INTER + INTRA:         -12.141
REMARK INTER:                 -10.390
REMARK INTRA:                  -1.752
REMARK UNBOUND:                -1.383
REMARK SMILES CC[C@@H](CC[C@@H](C)[C@H]1CC[C@H]2[C@H]3CC=C4C[C@@H](O)CC[C@]4(C)[C@@H]3CC[C@@]12C)C(C)C
REMARK SMILES IDX 5 1 4 2 3 3 2 4 1 5 28 6 29 7 30 8 6 9 7 10 8 11 9 12 26 13
REMARK SMILES IDX 10 14 11 15 25 16 27 17 12 18 24 19 23 20 13 21 21 22 14 23
REMARK SMILES IDX 15 24 20 25 22 26 16 27 19 28 17 29 18 30
REMARK H PARENT 18 31
REMARK Flexibility Score: inf
ROOT
ATOM      1  C   UNL     1      54.108 -34.487  -6.476  1.00  0.00     0.004 C 
ENDROOT
BRANCH   1   2
ATOM      2  C   UNL     1      54.691 -34.524  -7.903  1.00  0.00     0.004 C 
BRANCH   2   3
ATOM      3  C   UNL     1      53.818 -33.768  -8.949  1.00  0.00    -0.009 C 
BRANCH   3   4
ATOM      4  C   UNL     1      54.704 -33.016  -9.979  1.00  0.00     0.000 C 
ATOM      5  C   UNL     1      56.125 -33.563 -10.123  1.00  0.00     0.004 C 
ENDBRANCH   3   4
BRANCH   3   6
ATOM      6  C   UNL     1      52.679 -32.852  -8.369  1.00  0.00    -0.014 C 
ATOM      7  C   UNL     1      51.339 -32.926  -9.124  1.00  0.00     0.007 C 
ATOM      8  C   UNL     1      53.131 -31.389  -8.245  1.00  0.00     0.007 C 
ENDBRANCH   3   6
ENDBRANCH   2   3
ENDBRANCH   1   2
BRANCH   1   9
ATOM      9  C   UNL     1      54.964 -33.608  -5.503  1.00  0.00    -0.011 C 
ATOM     10  C   UNL     1      56.099 -32.934  -6.298  1.00  0.00     0.008 C 
BRANCH   9  11
ATOM     11  C   UNL     1      54.061 -32.568  -4.745  1.00  0.00    -0.002 C 
ATOM     12  C   UNL     1      52.583 -33.003  -4.726  1.00  0.00     0.005 C 
ATOM     13  C   UNL     1      54.387 -32.232  -3.251  1.00  0.00    -0.026 C 
ATOM     14  C   UNL     1      51.955 -32.441  -3.457  1.00  0.00     0.005 C 
ATOM     15  C   UNL     1      53.049 -31.630  -2.754  1.00  0.00    -0.001 C 
ATOM     16  C   UNL     1      54.731 -33.518  -2.440  1.00  0.00     0.007 C 
ATOM     17  C   UNL     1      55.512 -31.169  -3.128  1.00  0.00     0.012 C 
ATOM     18  C   UNL     1      52.902 -31.524  -1.201  1.00  0.00     0.000 C 
ATOM     19  C   UNL     1      54.695 -33.291  -0.927  1.00  0.00     0.005 C 
ATOM     20  C   UNL     1      53.299 -32.817  -0.455  1.00  0.00     0.003 C 
ATOM     21  C   UNL     1      51.469 -31.136  -0.809  1.00  0.00     0.031 C 
ATOM     22  C   UNL     1      53.177 -32.673   1.127  1.00  0.00    -0.008 C 
ATOM     23  C   UNL     1      51.340 -30.974   0.669  1.00  0.00    -0.027 C 
ATOM     24  C   UNL     1      52.051 -31.705   1.550  1.00  0.00    -0.065 C 
ATOM     25  C   UNL     1      54.502 -32.134   1.762  1.00  0.00     0.014 C 
ATOM     26  C   UNL     1      52.865 -34.079   1.699  1.00  0.00     0.016 C 
ATOM     27  C   UNL     1      51.905 -31.388   3.024  1.00  0.00     0.063 C 
ATOM     28  C   UNL     1      54.394 -31.804   3.266  1.00  0.00     0.033 C 
ATOM     29  C   UNL     1      53.235 -30.833   3.552  1.00  0.00     0.118 C 
BRANCH  29  30
ATOM     30  O   UNL     1      53.148 -30.556   4.927  1.00  0.00    -0.393 OA
ATOM     31  H   UNL     1      54.073 -30.437   5.270  1.00  0.00     0.210 HD
ENDBRANCH  29  30
ENDBRANCH   9  11
ENDBRANCH   1   9
TORSDOF 7
ENDMDL
MODEL 6
REMARK VINA RESULT:    -7.654      7.183     11.734
REMARK INTER + INTRA:         -11.946
REMARK INTER:                  -9.683
REMARK INTRA:                  -2.263
REMARK UNBOUND:                -1.383
REMARK SMILES CC[C@@H](CC[C@@H](C)[C@H]1CC[C@H]2[C@H]3CC=C4C[C@@H](O)CC[C@]4(C)[C@@H]3CC[C@@]12C)C(C)C
REMARK SMILES IDX 5 1 4 2 3 3 2 4 1 5 28 6 29 7 30 8 6 9 7 10 8 11 9 12 26 13
REMARK SMILES IDX 10 14 11 15 25 16 27 17 12 18 24 19 23 20 13 21 21 22 14 23
REMARK SMILES IDX 15 24 20 25 22 26 16 27 19 28 17 29 18 30
REMARK H PARENT 18 31
REMARK Flexibility Score: inf
ROOT
ATOM      1  C   UNL     1      53.689 -35.644  -6.150  1.00  0.00     0.004 C 
ENDROOT
BRANCH   1   2
ATOM      2  C   UNL     1      52.305 -35.567  -6.825  1.00  0.00     0.004 C 
BRANCH   2   3
ATOM      3  C   UNL     1      51.418 -34.403  -6.291  1.00  0.00    -0.009 C 
BRANCH   3   4
ATOM      4  C   UNL     1      50.144 -34.946  -5.590  1.00  0.00     0.000 C 
ATOM      5  C   UNL     1      50.157 -36.450  -5.309  1.00  0.00     0.004 C 
ENDBRANCH   3   4
BRANCH   3   6
ATOM      6  C   UNL     1      51.085 -33.258  -7.317  1.00  0.00    -0.014 C 
ATOM      7  C   UNL     1      51.847 -31.939  -7.088  1.00  0.00     0.007 C 
ATOM      8  C   UNL     1      49.576 -32.984  -7.397  1.00  0.00     0.007 C 
ENDBRANCH   3   6
ENDBRANCH   2   3
ENDBRANCH   1   2
BRANCH   1   9
ATOM      9  C   UNL     1      53.639 -35.249  -4.636  1.00  0.00    -0.011 C 
ATOM     10  C   UNL     1      53.920 -36.498  -3.779  1.00  0.00     0.008 C 
BRANCH   9  11
ATOM     11  C   UNL     1      54.638 -34.074  -4.329  1.00  0.00    -0.002 C 
ATOM     12  C   UNL     1      55.045 -33.322  -5.611  1.00  0.00     0.005 C 
ATOM     13  C   UNL     1      54.194 -32.944  -3.340  1.00  0.00    -0.026 C 
ATOM     14  C   UNL     1      55.345 -31.880  -5.223  1.00  0.00     0.005 C 
ATOM     15  C   UNL     1      55.166 -31.794  -3.703  1.00  0.00    -0.001 C 
ATOM     16  C   UNL     1      52.722 -32.505  -3.601  1.00  0.00     0.007 C 
ATOM     17  C   UNL     1      54.406 -33.355  -1.858  1.00  0.00     0.012 C 
ATOM     18  C   UNL     1      54.763 -30.384  -3.161  1.00  0.00     0.000 C 
ATOM     19  C   UNL     1      52.370 -31.179  -2.922  1.00  0.00     0.005 C 
ATOM     20  C   UNL     1      53.281 -30.028  -3.414  1.00  0.00     0.003 C 
ATOM     21  C   UNL     1      55.654 -29.288  -3.762  1.00  0.00     0.031 C 
ATOM     22  C   UNL     1      52.884 -28.604  -2.820  1.00  0.00    -0.008 C 
ATOM     23  C   UNL     1      55.313 -27.948  -3.200  1.00  0.00    -0.027 C 
ATOM     24  C   UNL     1      54.060 -27.604  -2.837  1.00  0.00    -0.065 C 
ATOM     25  C   UNL     1      52.400 -28.711  -1.337  1.00  0.00     0.014 C 
ATOM     26  C   UNL     1      51.738 -28.038  -3.698  1.00  0.00     0.016 C 
ATOM     27  C   UNL     1      53.849 -26.249  -2.193  1.00  0.00     0.063 C 
ATOM     28  C   UNL     1      52.169 -27.350  -0.646  1.00  0.00     0.033 C 
ATOM     29  C   UNL     1      53.414 -26.451  -0.735  1.00  0.00     0.118 C 
BRANCH  29  30
ATOM     30  O   UNL     1      53.177 -25.213  -0.111  1.00  0.00    -0.393 OA
ATOM     31  H   UNL     1      52.813 -25.397   0.794  1.00  0.00     0.210 HD
ENDBRANCH  29  30
ENDBRANCH   9  11
ENDBRANCH   1   9
TORSDOF 7
ENDMDL
MODEL 7
REMARK VINA RESULT:    -7.629      3.504      8.988
REMARK INTER + INTRA:         -11.911
REMARK INTER:                 -10.301
REMARK INTRA:                  -1.610
REMARK UNBOUND:                -1.383
REMARK SMILES CC[C@@H](CC[C@@H](C)[C@H]1CC[C@H]2[C@H]3CC=C4C[C@@H](O)CC[C@]4(C)[C@@H]3CC[C@@]12C)C(C)C
REMARK SMILES IDX 5 1 4 2 3 3 2 4 1 5 28 6 29 7 30 8 6 9 7 10 8 11 9 12 26 13
REMARK SMILES IDX 10 14 11 15 25 16 27 17 12 18 24 19 23 20 13 21 21 22 14 23
REMARK SMILES IDX 15 24 20 25 22 26 16 27 19 28 17 29 18 30
REMARK H PARENT 18 31
REMARK Flexibility Score: inf
ROOT
ATOM      1  C   UNL     1      53.370 -33.823   1.360  1.00  0.00     0.004 C 
ENDROOT
BRANCH   1   2
ATOM      2  C   UNL     1      54.579 -34.196   0.478  1.00  0.00     0.004 C 
BRANCH   2   3
ATOM      3  C   UNL     1      54.239 -34.271  -1.041  1.00  0.00    -0.009 C 
BRANCH   3   4
ATOM      4  C   UNL     1      54.833 -35.554  -1.684  1.00  0.00     0.000 C 
ATOM      5  C   UNL     1      54.317 -35.865  -3.090  1.00  0.00     0.004 C 
ENDBRANCH   3   4
BRANCH   3   6
ATOM      6  C   UNL     1      54.558 -32.984  -1.887  1.00  0.00    -0.014 C 
ATOM      7  C   UNL     1      55.529 -31.993  -1.219  1.00  0.00     0.007 C 
ATOM      8  C   UNL     1      53.278 -32.254  -2.320  1.00  0.00     0.007 C 
ENDBRANCH   3   6
ENDBRANCH   2   3
ENDBRANCH   1   2
BRANCH   1   9
ATOM      9  C   UNL     1      53.584 -32.477   2.130  1.00  0.00    -0.011 C 
ATOM     10  C   UNL     1      55.080 -32.317   2.460  1.00  0.00     0.008 C 
BRANCH   9  11
ATOM     11  C   UNL     1      53.017 -31.263   1.308  1.00  0.00    -0.002 C 
ATOM     12  C   UNL     1      51.590 -31.538   0.795  1.00  0.00     0.005 C 
ATOM     13  C   UNL     1      52.918 -29.862   2.000  1.00  0.00    -0.026 C 
ATOM     14  C   UNL     1      50.871 -30.199   0.698  1.00  0.00     0.005 C 
ATOM     15  C   UNL     1      51.890 -29.128   1.104  1.00  0.00    -0.001 C 
ATOM     16  C   UNL     1      52.373 -29.982   3.455  1.00  0.00     0.007 C 
ATOM     17  C   UNL     1      54.272 -29.102   1.966  1.00  0.00     0.012 C 
ATOM     18  C   UNL     1      51.277 -27.828   1.719  1.00  0.00     0.000 C 
ATOM     19  C   UNL     1      51.918 -28.639   4.030  1.00  0.00     0.005 C 
ATOM     20  C   UNL     1      50.795 -28.004   3.176  1.00  0.00     0.003 C 
ATOM     21  C   UNL     1      50.113 -27.309   0.862  1.00  0.00     0.031 C 
ATOM     22  C   UNL     1      50.210 -26.657   3.793  1.00  0.00    -0.008 C 
ATOM     23  C   UNL     1      49.566 -26.034   1.412  1.00  0.00    -0.027 C 
ATOM     24  C   UNL     1      49.541 -25.758   2.732  1.00  0.00    -0.065 C 
ATOM     25  C   UNL     1      51.328 -25.800   4.475  1.00  0.00     0.014 C 
ATOM     26  C   UNL     1      49.147 -27.054   4.849  1.00  0.00     0.016 C 
ATOM     27  C   UNL     1      49.047 -24.393   3.166  1.00  0.00     0.063 C 
ATOM     28  C   UNL     1      50.862 -24.403   4.937  1.00  0.00     0.033 C 
ATOM     29  C   UNL     1      50.214 -23.613   3.786  1.00  0.00     0.118 C 
BRANCH  29  30
ATOM     30  O   UNL     1      49.786 -22.350   4.233  1.00  0.00    -0.393 OA
ATOM     31  H   UNL     1      49.376 -21.879   3.460  1.00  0.00     0.210 HD
ENDBRANCH  29  30
ENDBRANCH   9  11
ENDBRANCH   1   9
TORSDOF 7
ENDMDL
MODEL 8
REMARK VINA RESULT:    -7.591      5.174      9.298
REMARK INTER + INTRA:         -11.859
REMARK INTER:                 -10.017
REMARK INTRA:                  -1.842
REMARK UNBOUND:                -1.383
REMARK SMILES CC[C@@H](CC[C@@H](C)[C@H]1CC[C@H]2[C@H]3CC=C4C[C@@H](O)CC[C@]4(C)[C@@H]3CC[C@@]12C)C(C)C
REMARK SMILES IDX 5 1 4 2 3 3 2 4 1 5 28 6 29 7 30 8 6 9 7 10 8 11 9 12 26 13
REMARK SMILES IDX 10 14 11 15 25 16 27 17 12 18 24 19 23 20 13 21 21 22 14 23
REMARK SMILES IDX 15 24 20 25 22 26 16 27 19 28 17 29 18 30
REMARK H PARENT 18 31
REMARK Flexibility Score: inf
ROOT
ATOM      1  C   UNL     1      53.277 -32.686   1.340  1.00  0.00     0.004 C 
ENDROOT
BRANCH   1   2
ATOM      2  C   UNL     1      51.985 -31.885   1.602  1.00  0.00     0.004 C 
BRANCH   2   3
ATOM      3  C   UNL     1      52.195 -30.342   1.561  1.00  0.00    -0.009 C 
BRANCH   3   4
ATOM      4  C   UNL     1      51.930 -29.705   2.952  1.00  0.00     0.000 C 
ATOM      5  C   UNL     1      52.835 -30.215   4.075  1.00  0.00     0.004 C 
ENDBRANCH   3   4
BRANCH   3   6
ATOM      6  C   UNL     1      51.453 -29.571   0.408  1.00  0.00    -0.014 C 
ATOM      7  C   UNL     1      52.378 -28.878  -0.610  1.00  0.00     0.007 C 
ATOM      8  C   UNL     1      50.432 -28.564   0.959  1.00  0.00     0.007 C 
ENDBRANCH   3   6
ENDBRANCH   2   3
ENDBRANCH   1   2
BRANCH   1   9
ATOM      9  C   UNL     1      54.347 -31.857   0.555  1.00  0.00    -0.011 C 
ATOM     10  C   UNL     1      55.479 -31.453   1.519  1.00  0.00     0.008 C 
BRANCH   9  11
ATOM     11  C   UNL     1      54.876 -32.658  -0.690  1.00  0.00    -0.002 C 
ATOM     12  C   UNL     1      54.617 -34.171  -0.547  1.00  0.00     0.005 C 
ATOM     13  C   UNL     1      54.320 -32.302  -2.110  1.00  0.00    -0.026 C 
ATOM     14  C   UNL     1      54.447 -34.743  -1.948  1.00  0.00     0.005 C 
ATOM     15  C   UNL     1      54.658 -33.577  -2.921  1.00  0.00    -0.001 C 
ATOM     16  C   UNL     1      52.778 -32.078  -2.079  1.00  0.00     0.007 C 
ATOM     17  C   UNL     1      55.055 -31.082  -2.730  1.00  0.00     0.012 C 
ATOM     18  C   UNL     1      53.915 -33.712  -4.290  1.00  0.00     0.000 C 
ATOM     19  C   UNL     1      52.150 -32.091  -3.474  1.00  0.00     0.005 C 
ATOM     20  C   UNL     1      52.398 -33.436  -4.198  1.00  0.00     0.003 C 
ATOM     21  C   UNL     1      54.138 -35.103  -4.902  1.00  0.00     0.031 C 
ATOM     22  C   UNL     1      51.670 -33.543  -5.610  1.00  0.00    -0.008 C 
ATOM     23  C   UNL     1      53.482 -35.215  -6.238  1.00  0.00    -0.027 C 
ATOM     24  C   UNL     1      52.336 -34.574  -6.546  1.00  0.00    -0.065 C 
ATOM     25  C   UNL     1      51.673 -32.174  -6.367  1.00  0.00     0.014 C 
ATOM     26  C   UNL     1      50.207 -33.985  -5.346  1.00  0.00     0.016 C 
ATOM     27  C   UNL     1      51.812 -34.689  -7.963  1.00  0.00     0.063 C 
ATOM     28  C   UNL     1      51.141 -32.249  -7.814  1.00  0.00     0.033 C 
ATOM     29  C   UNL     1      51.887 -33.313  -8.638  1.00  0.00     0.118 C 
BRANCH  29  30
ATOM     30  O   UNL     1      51.378 -33.372  -9.947  1.00  0.00    -0.393 OA
ATOM     31  H   UNL     1      50.682 -34.079  -9.968  1.00  0.00     0.210 HD
ENDBRANCH  29  30
ENDBRANCH   9  11
ENDBRANCH   1   9
TORSDOF 7
ENDMDL
MODEL 9
REMARK VINA RESULT:    -7.578      7.480     12.664
REMARK INTER + INTRA:         -11.842
REMARK INTER:                  -9.904
REMARK INTRA:                  -1.937
REMARK UNBOUND:                -1.383
REMARK SMILES CC[C@@H](CC[C@@H](C)[C@H]1CC[C@H]2[C@H]3CC=C4C[C@@H](O)CC[C@]4(C)[C@@H]3CC[C@@]12C)C(C)C
REMARK SMILES IDX 5 1 4 2 3 3 2 4 1 5 28 6 29 7 30 8 6 9 7 10 8 11 9 12 26 13
REMARK SMILES IDX 10 14 11 15 25 16 27 17 12 18 24 19 23 20 13 21 21 22 14 23
REMARK SMILES IDX 15 24 20 25 22 26 16 27 19 28 17 29 18 30
REMARK H PARENT 18 31
REMARK Flexibility Score: inf
ROOT
ATOM      1  C   UNL     1      52.642 -31.645  -9.042  1.00  0.00     0.004 C 
ENDROOT
BRANCH   1   2
ATOM      2  C   UNL     1      51.445 -32.582  -9.303  1.00  0.00     0.004 C 
BRANCH   2   3
ATOM      3  C   UNL     1      51.252 -33.663  -8.197  1.00  0.00    -0.009 C 
BRANCH   3   4
ATOM      4  C   UNL     1      51.644 -35.072  -8.717  1.00  0.00     0.000 C 
ATOM      5  C   UNL     1      52.697 -35.797  -7.876  1.00  0.00     0.004 C 
ENDBRANCH   3   4
BRANCH   3   6
ATOM      6  C   UNL     1      49.857 -33.669  -7.470  1.00  0.00    -0.014 C 
ATOM      7  C   UNL     1      49.012 -32.398  -7.677  1.00  0.00     0.007 C 
ATOM      8  C   UNL     1      49.995 -33.968  -5.970  1.00  0.00     0.007 C 
ENDBRANCH   3   6
ENDBRANCH   2   3
ENDBRANCH   1   2
BRANCH   1   9
ATOM      9  C   UNL     1      53.942 -32.428  -8.658  1.00  0.00    -0.011 C 
ATOM     10  C   UNL     1      54.771 -32.685  -9.931  1.00  0.00     0.008 C 
BRANCH   9  11
ATOM     11  C   UNL     1      54.758 -31.657  -7.557  1.00  0.00    -0.002 C 
ATOM     12  C   UNL     1      54.244 -30.215  -7.373  1.00  0.00     0.005 C 
ATOM     13  C   UNL     1      54.806 -32.240  -6.105  1.00  0.00    -0.026 C 
ATOM     14  C   UNL     1      54.505 -29.816  -5.926  1.00  0.00     0.005 C 
ATOM     15  C   UNL     1      55.219 -31.003  -5.270  1.00  0.00    -0.001 C 
ATOM     16  C   UNL     1      53.406 -32.751  -5.649  1.00  0.00     0.007 C 
ATOM     17  C   UNL     1      55.885 -33.348  -5.961  1.00  0.00     0.012 C 
ATOM     18  C   UNL     1      55.005 -31.137  -3.728  1.00  0.00     0.000 C 
ATOM     19  C   UNL     1      53.323 -32.985  -4.139  1.00  0.00     0.005 C 
ATOM     20  C   UNL     1      53.613 -31.688  -3.345  1.00  0.00     0.003 C 
ATOM     21  C   UNL     1      55.225 -29.790  -3.022  1.00  0.00     0.031 C 
ATOM     22  C   UNL     1      53.432 -31.851  -1.771  1.00  0.00    -0.008 C 
ATOM     23  C   UNL     1      55.081 -29.927  -1.543  1.00  0.00    -0.027 C 
ATOM     24  C   UNL     1      54.229 -30.801  -0.969  1.00  0.00    -0.065 C 
ATOM     25  C   UNL     1      53.907 -33.257  -1.277  1.00  0.00     0.014 C 
ATOM     26  C   UNL     1      51.924 -31.675  -1.457  1.00  0.00     0.016 C 
ATOM     27  C   UNL     1      54.237 -30.918   0.542  1.00  0.00     0.063 C 
ATOM     28  C   UNL     1      53.923 -33.417   0.258  1.00  0.00     0.033 C 
ATOM     29  C   UNL     1      54.750 -32.309   0.935  1.00  0.00     0.118 C 
BRANCH  29  30
ATOM     30  O   UNL     1      54.740 -32.468   2.332  1.00  0.00    -0.393 OA
ATOM     31  H   UNL     1      54.735 -31.561   2.738  1.00  0.00     0.210 HD
ENDBRANCH  29  30
ENDBRANCH   9  11
ENDBRANCH   1   9
TORSDOF 7
ENDMDL
