MODEL 1
REMARK VINA RESULT:     0.444      0.000      0.000
REMARK INTER + INTRA:           0.452
REMARK INTER:                   0.509
REMARK INTRA:                  -0.056
REMARK UNBOUND:                -0.056
REMARK SMILES CC(C)[C@H]([NH3+])C(=O)[O-]
REMARK SMILES IDX 4 1 5 2 6 6 7 7 8 8 2 9 1 10 3 11
REMARK H PARENT 5 3 5 4 5 5
REMARK Flexibility Score: inf
ROOT
ATOM      1  C   UNL     1      34.867  29.416  20.757  1.00  0.00     0.230 C 
ENDROOT
BRANCH   1   2
ATOM      2  N   UNL     1      33.707  28.765  20.129  1.00  0.00    -0.350 N 
ATOM      3  H   UNL     1      33.620  29.030  19.121  1.00  0.00     0.345 HD
ATOM      4  H   UNL     1      32.834  29.055  20.626  1.00  0.00     0.345 HD
ATOM      5  H   UNL     1      33.795  27.726  20.205  1.00  0.00     0.345 HD
ENDBRANCH   1   2
BRANCH   1   6
ATOM      6  C   UNL     1      34.463  30.096  22.043  1.00  0.00     0.099 C 
ATOM      7  O   UNL     1      35.078  31.125  22.432  1.00  0.00    -0.544 OA
ATOM      8  O   UNL     1      33.396  29.617  22.794  1.00  0.00    -0.544 OA
ENDBRANCH   1   6
BRANCH   1   9
ATOM      9  C   UNL     1      35.594  30.377  19.770  1.00  0.00     0.047 C 
ATOM     10  C   UNL     1      36.655  29.682  18.900  1.00  0.00     0.014 C 
ATOM     11  C   UNL     1      34.590  31.124  18.877  1.00  0.00     0.014 C 
ENDBRANCH   1   9
TORSDOF 3
ENDMDL
MODEL 2
REMARK VINA RESULT:     3.397     20.011     20.896
REMARK INTER + INTRA:           3.837
REMARK INTER:                   3.903
REMARK INTRA:                  -0.066
REMARK UNBOUND:                -0.056
REMARK SMILES CC(C)[C@H]([NH3+])C(=O)[O-]
REMARK SMILES IDX 4 1 5 2 6 6 7 7 8 8 2 9 1 10 3 11
REMARK H PARENT 5 3 5 4 5 5
REMARK Flexibility Score: inf
ROOT
ATOM      1  C   UNL     1      26.567  15.063  33.085  1.00  0.00     0.230 C 
ENDROOT
BRANCH   1   2
ATOM      2  N   UNL     1      26.564  13.632  32.743  1.00  0.00    -0.350 N 
ATOM      3  H   UNL     1      26.596  13.486  31.709  1.00  0.00     0.345 HD
ATOM      4  H   UNL     1      25.694  13.187  33.116  1.00  0.00     0.345 HD
ATOM      5  H   UNL     1      27.385  13.158  33.183  1.00  0.00     0.345 HD
ENDBRANCH   1   2
BRANCH   1   6
ATOM      6  C   UNL     1      25.379  15.405  33.951  1.00  0.00     0.099 C 
ATOM      7  O   UNL     1      24.214  15.125  33.562  1.00  0.00    -0.544 OA
ATOM      8  O   UNL     1      25.556  16.005  35.193  1.00  0.00    -0.544 OA
ENDBRANCH   1   6
BRANCH   1   9
ATOM      9  C   UNL     1      26.663  15.959  31.813  1.00  0.00     0.047 C 
ATOM     10  C   UNL     1      27.048  17.417  32.114  1.00  0.00     0.014 C 
ATOM     11  C   UNL     1      27.632  15.361  30.781  1.00  0.00     0.014 C 
ENDBRANCH   1   9
TORSDOF 3
ENDMDL
MODEL 3
REMARK VINA RESULT:     3.411     18.767     20.050
REMARK INTER + INTRA:           3.853
REMARK INTER:                   3.761
REMARK INTRA:                   0.092
REMARK UNBOUND:                -0.056
REMARK SMILES CC(C)[C@H]([NH3+])C(=O)[O-]
REMARK SMILES IDX 4 1 5 2 6 6 7 7 8 8 2 9 1 10 3 11
REMARK H PARENT 5 3 5 4 5 5
REMARK Flexibility Score: inf
ROOT
ATOM      1  C   UNL     1      26.533  16.034  31.722  1.00  0.00     0.230 C 
ENDROOT
BRANCH   1   2
ATOM      2  N   UNL     1      27.423  15.442  30.711  1.00  0.00    -0.350 N 
ATOM      3  H   UNL     1      28.298  15.069  31.143  1.00  0.00     0.345 HD
ATOM      4  H   UNL     1      27.683  16.171  30.007  1.00  0.00     0.345 HD
ATOM      5  H   UNL     1      26.930  14.669  30.209  1.00  0.00     0.345 HD
ENDBRANCH   1   2
BRANCH   1   6
ATOM      6  C   UNL     1      26.966  17.442  32.053  1.00  0.00     0.099 C 
ATOM      7  O   UNL     1      26.994  17.827  33.252  1.00  0.00    -0.544 OA
ATOM      8  O   UNL     1      27.366  18.316  31.048  1.00  0.00    -0.544 OA
ENDBRANCH   1   6
BRANCH   1   9
ATOM      9  C   UNL     1      26.414  15.128  32.984  1.00  0.00     0.047 C 
ATOM     10  C   UNL     1      25.082  15.292  33.737  1.00  0.00     0.014 C 
ATOM     11  C   UNL     1      26.641  13.649  32.634  1.00  0.00     0.014 C 
ENDBRANCH   1   9
TORSDOF 3
ENDMDL
