MODEL 1
REMARK VINA RESULT:    -0.976      0.000      0.000
REMARK INTER + INTRA:          -1.125
REMARK INTER:                  -1.090
REMARK INTRA:                  -0.035
REMARK UNBOUND:                -0.035
REMARK SMILES CCCC(=O)[O-]
REMARK SMILES IDX 3 1 4 2 5 3 6 4 2 5 1 6
REMARK H PARENT
REMARK Flexibility Score: inf
ROOT
ATOM      1  C   UNL     1      37.839   2.491  42.078  1.00  0.00     0.052 C 
ENDROOT
BRANCH   1   2
ATOM      2  C   UNL     1      36.454   2.569  41.519  1.00  0.00     0.041 C 
ATOM      3  O   UNL     1      36.015   1.648  40.782  1.00  0.00    -0.550 OA
ATOM      4  O   UNL     1      35.664   3.684  41.771  1.00  0.00    -0.550 OA
ENDBRANCH   1   2
BRANCH   1   5
ATOM      5  C   UNL     1      38.321   1.038  42.113  1.00  0.00     0.003 C 
ATOM      6  C   UNL     1      39.644   0.879  41.368  1.00  0.00     0.004 C 
ENDBRANCH   1   5
TORSDOF 2
ENDMDL
MODEL 2
REMARK VINA RESULT:    -0.898      2.126      3.130
REMARK INTER + INTRA:          -1.039
REMARK INTER:                  -1.001
REMARK INTRA:                  -0.038
REMARK UNBOUND:                -0.035
REMARK SMILES CCCC(=O)[O-]
REMARK SMILES IDX 3 1 4 2 5 3 6 4 2 5 1 6
REMARK H PARENT
REMARK Flexibility Score: inf
ROOT
ATOM      1  C   UNL     1      38.749   3.179  41.271  1.00  0.00     0.052 C 
ENDROOT
BRANCH   1   2
ATOM      2  C   UNL     1      38.343   1.818  41.741  1.00  0.00     0.041 C 
ATOM      3  O   UNL     1      39.178   0.875  41.749  1.00  0.00    -0.550 OA
ATOM      4  O   UNL     1      37.030   1.577  42.125  1.00  0.00    -0.550 OA
ENDBRANCH   1   2
BRANCH   1   5
ATOM      5  C   UNL     1      37.990   4.260  42.045  1.00  0.00     0.003 C 
ATOM      6  C   UNL     1      37.100   5.081  41.115  1.00  0.00     0.004 C 
ENDBRANCH   1   5
TORSDOF 2
ENDMDL
MODEL 3
REMARK VINA RESULT:    -0.871      2.074      2.466
REMARK INTER + INTRA:          -1.008
REMARK INTER:                  -0.998
REMARK INTRA:                  -0.011
REMARK UNBOUND:                -0.035
REMARK SMILES CCCC(=O)[O-]
REMARK SMILES IDX 3 1 4 2 5 3 6 4 2 5 1 6
REMARK H PARENT
REMARK Flexibility Score: inf
ROOT
ATOM      1  C   UNL     1      36.317   3.661  41.882  1.00  0.00     0.052 C 
ENDROOT
BRANCH   1   2
ATOM      2  C   UNL     1      35.859   2.317  41.410  1.00  0.00     0.041 C 
ATOM      3  O   UNL     1      36.319   1.829  40.345  1.00  0.00    -0.550 OA
ATOM      4  O   UNL     1      34.888   1.624  42.121  1.00  0.00    -0.550 OA
ENDBRANCH   1   2
BRANCH   1   5
ATOM      5  C   UNL     1      37.833   3.665  42.094  1.00  0.00     0.003 C 
ATOM      6  C   UNL     1      38.380   5.090  42.125  1.00  0.00     0.004 C 
ENDBRANCH   1   5
TORSDOF 2
ENDMDL
MODEL 4
REMARK VINA RESULT:    -0.867      2.090      3.323
REMARK INTER + INTRA:          -1.003
REMARK INTER:                  -0.967
REMARK INTRA:                  -0.037
REMARK UNBOUND:                -0.035
REMARK SMILES CCCC(=O)[O-]
REMARK SMILES IDX 3 1 4 2 5 3 6 4 2 5 1 6
REMARK H PARENT
REMARK Flexibility Score: inf
ROOT
ATOM      1  C   UNL     1      37.868   2.809  42.124  1.00  0.00     0.052 C 
ENDROOT
BRANCH   1   2
ATOM      2  C   UNL     1      38.639   2.278  40.958  1.00  0.00     0.041 C 
ATOM      3  O   UNL     1      38.168   2.364  39.794  1.00  0.00    -0.550 OA
ATOM      4  O   UNL     1      39.859   1.644  41.161  1.00  0.00    -0.550 OA
ENDBRANCH   1   2
BRANCH   1   5
ATOM      5  C   UNL     1      36.363   2.679  41.873  1.00  0.00     0.003 C 
ATOM      6  C   UNL     1      35.666   4.033  41.992  1.00  0.00     0.004 C 
ENDBRANCH   1   5
TORSDOF 2
ENDMDL
MODEL 5
REMARK VINA RESULT:    -0.798      2.265      3.193
REMARK INTER + INTRA:          -0.926
REMARK INTER:                  -0.910
REMARK INTRA:                  -0.016
REMARK UNBOUND:                -0.035
REMARK SMILES CCCC(=O)[O-]
REMARK SMILES IDX 3 1 4 2 5 3 6 4 2 5 1 6
REMARK H PARENT
REMARK Flexibility Score: inf
ROOT
ATOM      1  C   UNL     1      35.143   3.548  40.972  1.00  0.00     0.052 C 
ENDROOT
BRANCH   1   2
ATOM      2  C   UNL     1      33.769   3.236  41.474  1.00  0.00     0.041 C 
ATOM      3  O   UNL     1      32.865   4.111  41.428  1.00  0.00    -0.550 OA
ATOM      4  O   UNL     1      33.499   1.995  42.036  1.00  0.00    -0.550 OA
ENDBRANCH   1   2
BRANCH   1   5
ATOM      5  C   UNL     1      36.151   3.527  42.125  1.00  0.00     0.003 C 
ATOM      6  C   UNL     1      37.484   2.931  41.680  1.00  0.00     0.004 C 
ENDBRANCH   1   5
TORSDOF 2
ENDMDL
MODEL 6
REMARK VINA RESULT:    -0.789      2.677      3.313
REMARK INTER + INTRA:          -0.917
REMARK INTER:                  -0.845
REMARK INTRA:                  -0.071
REMARK UNBOUND:                -0.035
REMARK SMILES CCCC(=O)[O-]
REMARK SMILES IDX 3 1 4 2 5 3 6 4 2 5 1 6
REMARK H PARENT
REMARK Flexibility Score: inf
ROOT
ATOM      1  C   UNL     1      39.372   1.014  41.467  1.00  0.00     0.052 C 
ENDROOT
BRANCH   1   2
ATOM      2  C   UNL     1      39.892   2.068  40.543  1.00  0.00     0.041 C 
ATOM      3  O   UNL     1      40.186   1.779  39.353  1.00  0.00    -0.550 OA
ATOM      4  O   UNL     1      40.099   3.361  41.008  1.00  0.00    -0.550 OA
ENDBRANCH   1   2
BRANCH   1   5
ATOM      5  C   UNL     1      38.067   1.474  42.123  1.00  0.00     0.003 C 
ATOM      6  C   UNL     1      36.951   1.612  41.090  1.00  0.00     0.004 C 
ENDBRANCH   1   5
TORSDOF 2
ENDMDL
MODEL 7
REMARK VINA RESULT:    -0.788      2.792      3.929
REMARK INTER + INTRA:          -0.916
REMARK INTER:                  -0.903
REMARK INTRA:                  -0.012
REMARK UNBOUND:                -0.035
REMARK SMILES CCCC(=O)[O-]
REMARK SMILES IDX 3 1 4 2 5 3 6 4 2 5 1 6
REMARK H PARENT
REMARK Flexibility Score: inf
ROOT
ATOM      1  C   UNL     1      36.270   3.241  41.942  1.00  0.00     0.052 C 
ENDROOT
BRANCH   1   2
ATOM      2  C   UNL     1      37.421   4.188  41.814  1.00  0.00     0.041 C 
ATOM      3  O   UNL     1      37.215   5.427  41.731  1.00  0.00    -0.550 OA
ATOM      4  O   UNL     1      38.719   3.699  41.737  1.00  0.00    -0.550 OA
ENDBRANCH   1   2
BRANCH   1   5
ATOM      5  C   UNL     1      34.946   4.009  41.973  1.00  0.00     0.003 C 
ATOM      6  C   UNL     1      33.755   3.055  41.927  1.00  0.00     0.004 C 
ENDBRANCH   1   5
TORSDOF 2
ENDMDL
MODEL 8
REMARK VINA RESULT:    -0.755      2.169      2.540
REMARK INTER + INTRA:          -0.879
REMARK INTER:                  -0.834
REMARK INTRA:                  -0.045
REMARK UNBOUND:                -0.035
REMARK SMILES CCCC(=O)[O-]
REMARK SMILES IDX 3 1 4 2 5 3 6 4 2 5 1 6
REMARK H PARENT
REMARK Flexibility Score: inf
ROOT
ATOM      1  C   UNL     1      36.054   3.606  42.060  1.00  0.00     0.052 C 
ENDROOT
BRANCH   1   2
ATOM      2  C   UNL     1      36.609   3.880  40.698  1.00  0.00     0.041 C 
ATOM      3  O   UNL     1      35.969   3.532  39.672  1.00  0.00    -0.550 OA
ATOM      4  O   UNL     1      37.857   4.475  40.562  1.00  0.00    -0.550 OA
ENDBRANCH   1   2
BRANCH   1   5
ATOM      5  C   UNL     1      35.431   2.208  42.113  1.00  0.00     0.003 C 
ATOM      6  C   UNL     1      36.508   1.126  42.125  1.00  0.00     0.004 C 
ENDBRANCH   1   5
TORSDOF 2
ENDMDL
MODEL 9
REMARK VINA RESULT:    -0.722      1.943      2.634
REMARK INTER + INTRA:          -0.842
REMARK INTER:                  -0.810
REMARK INTRA:                  -0.032
REMARK UNBOUND:                -0.035
REMARK SMILES CCCC(=O)[O-]
REMARK SMILES IDX 3 1 4 2 5 3 6 4 2 5 1 6
REMARK H PARENT
REMARK Flexibility Score: inf
ROOT
ATOM      1  C   UNL     1      38.394   3.540  41.765  1.00  0.00     0.052 C 
ENDROOT
BRANCH   1   2
ATOM      2  C   UNL     1      37.630   4.820  41.887  1.00  0.00     0.041 C 
ATOM      3  O   UNL     1      38.230   5.925  41.822  1.00  0.00    -0.550 OA
ATOM      4  O   UNL     1      36.261   4.793  42.121  1.00  0.00    -0.550 OA
ENDBRANCH   1   2
BRANCH   1   5
ATOM      5  C   UNL     1      37.496   2.346  42.102  1.00  0.00     0.003 C 
ATOM      6  C   UNL     1      37.458   1.344  40.951  1.00  0.00     0.004 C 
ENDBRANCH   1   5
TORSDOF 2
ENDMDL
