MODEL 1
REMARK VINA RESULT:    -5.070      0.000      0.000
REMARK INTER + INTRA:         -11.036
REMARK INTER:                  -8.774
REMARK INTRA:                  -2.262
REMARK UNBOUND:                -2.262
REMARK SMILES OC[C@@H]1O[C@H](O[C@@H]2[C@H](O)[C@@H](O)[C@@H](O[C@H]3[C@H](O)[C@H](O)[C@@H](O)O[C@@H]3CO)O[C@H]2CO)[C@H](O)[C@H](O)[C@H]1O
REMARK SMILES IDX 7 1 26 2 25 3 12 4 10 5 8 6 6 7 5 8 3 9 33 10 4 11 31 12
REMARK SMILES IDX 29 13 2 14 1 15 34 17 32 19 30 21 27 23 28 24 9 26 11 28
REMARK SMILES IDX 13 30 14 31 22 32 15 33 21 34 17 35 19 36 23 37 24 38 16 40
REMARK SMILES IDX 18 42 20 44
REMARK H PARENT 1 16 34 18 32 20 30 22 28 25 9 27 11 29 24 39 16 41 18 43
REMARK H PARENT 20 45
REMARK Flexibility Score: inf
ROOT
ATOM      1  C   UNL     1      36.354   3.321  43.013  1.00  0.00     0.184 C 
ATOM      2  C   UNL     1      34.900   3.720  42.639  1.00  0.00     0.178 C 
ATOM      3  O   UNL     1      34.704   3.938  41.241  1.00  0.00    -0.341 OA
ATOM      4  C   UNL     1      35.139   2.867  40.413  1.00  0.00     0.282 C 
ATOM      5  C   UNL     1      36.637   2.578  40.641  1.00  0.00     0.202 C 
ATOM      6  C   UNL     1      36.867   2.191  42.102  1.00  0.00     0.180 C 
ENDROOT
BRANCH   1   7
ATOM      7  O   UNL     1      37.186   4.466  42.865  1.00  0.00    -0.341 OA
BRANCH   7   8
ATOM      8  C   UNL     1      37.133   5.351  43.979  1.00  0.00     0.282 C 
ATOM      9  C   UNL     1      39.454   5.158  44.541  1.00  0.00     0.178 C 
ATOM     10  C   UNL     1      39.760   6.587  44.015  1.00  0.00     0.177 C 
ATOM     11  O   UNL     1      38.102   4.982  44.952  1.00  0.00    -0.341 OA
ATOM     12  C   UNL     1      38.720   7.061  42.985  1.00  0.00     0.179 C 
ATOM     13  C   UNL     1      37.302   6.812  43.521  1.00  0.00     0.202 C 
BRANCH   9  14
ATOM     14  C   UNL     1      39.943   4.025  43.616  1.00  0.00     0.191 C 
BRANCH  14  15
ATOM     15  O   UNL     1      40.036   2.824  44.337  1.00  0.00    -0.394 OA
ATOM     16  H   UNL     1      40.697   2.263  43.857  1.00  0.00     0.210 HD
ENDBRANCH  14  15
ENDBRANCH   9  14
BRANCH  10  17
ATOM     17  O   UNL     1      39.766   7.490  45.092  1.00  0.00    -0.387 OA
ATOM     18  H   UNL     1      40.563   8.070  44.981  1.00  0.00     0.211 HD
ENDBRANCH  10  17
BRANCH  12  19
ATOM     19  O   UNL     1      38.895   6.411  41.752  1.00  0.00    -0.387 OA
ATOM     20  H   UNL     1      39.873   6.336  41.602  1.00  0.00     0.211 HD
ENDBRANCH  12  19
BRANCH  13  21
ATOM     21  O   UNL     1      36.343   7.115  42.541  1.00  0.00    -0.385 OA
ATOM     22  H   UNL     1      35.792   6.297  42.414  1.00  0.00     0.211 HD
ENDBRANCH  13  21
ENDBRANCH   7   8
ENDBRANCH   1   7
BRANCH   2  23
ATOM     23  C   UNL     1      33.829   2.789  43.250  1.00  0.00     0.191 C 
BRANCH  23  24
ATOM     24  O   UNL     1      32.622   2.899  42.544  1.00  0.00    -0.394 OA
ATOM     25  H   UNL     1      32.811   2.617  41.612  1.00  0.00     0.210 HD
ENDBRANCH  23  24
ENDBRANCH   2  23
BRANCH   6  26
ATOM     26  O   UNL     1      38.238   1.974  42.317  1.00  0.00    -0.387 OA
ATOM     27  H   UNL     1      38.339   1.718  43.270  1.00  0.00     0.211 HD
ENDBRANCH   6  26
BRANCH   5  28
ATOM     28  O   UNL     1      37.092   1.557  39.795  1.00  0.00    -0.385 OA
ATOM     29  H   UNL     1      36.722   0.707  40.150  1.00  0.00     0.211 HD
ENDBRANCH   5  28
BRANCH   4  30
ATOM     30  O   UNL     1      34.328   1.719  40.641  1.00  0.00    -0.341 OA
BRANCH  30  31
ATOM     31  C   UNL     1      33.968   1.027  39.453  1.00  0.00     0.184 C 
ATOM     32  C   UNL     1      32.482   1.304  39.093  1.00  0.00     0.178 C 
ATOM     33  C   UNL     1      34.124  -0.481  39.723  1.00  0.00     0.180 C 
ATOM     34  O   UNL     1      32.104   0.553  37.949  1.00  0.00    -0.342 OA
ATOM     35  C   UNL     1      33.586  -1.301  38.539  1.00  0.00     0.201 C 
ATOM     36  C   UNL     1      32.156  -0.845  38.187  1.00  0.00     0.279 C 
BRANCH  32  37
ATOM     37  C   UNL     1      32.227   2.786  38.778  1.00  0.00     0.191 C 
BRANCH  37  38
ATOM     38  O   UNL     1      31.887   3.503  39.934  1.00  0.00    -0.394 OA
ATOM     39  H   UNL     1      31.000   3.910  39.772  1.00  0.00     0.210 HD
ENDBRANCH  37  38
ENDBRANCH  32  37
BRANCH  33  40
ATOM     40  O   UNL     1      35.475  -0.793  39.949  1.00  0.00    -0.387 OA
ATOM     41  H   UNL     1      35.686  -0.539  40.888  1.00  0.00     0.211 HD
ENDBRANCH  33  40
BRANCH  35  42
ATOM     42  O   UNL     1      34.409  -1.143  37.413  1.00  0.00    -0.385 OA
ATOM     43  H   UNL     1      33.989  -1.654  36.670  1.00  0.00     0.211 HD
ENDBRANCH  35  42
BRANCH  36  44
ATOM     44  O   UNL     1      31.241  -1.217  39.190  1.00  0.00    -0.366 OA
ATOM     45  H   UNL     1      31.547  -2.094  39.544  1.00  0.00     0.213 HD
ENDBRANCH  36  44
ENDBRANCH  30  31
ENDBRANCH   4  30
TORSDOF 18
ENDMDL
MODEL 2
REMARK VINA RESULT:    -4.795      4.742      6.984
REMARK INTER + INTRA:         -10.561
REMARK INTER:                  -9.060
REMARK INTRA:                  -1.501
REMARK UNBOUND:                -2.262
REMARK SMILES OC[C@@H]1O[C@H](O[C@@H]2[C@H](O)[C@@H](O)[C@@H](O[C@H]3[C@H](O)[C@H](O)[C@@H](O)O[C@@H]3CO)O[C@H]2CO)[C@H](O)[C@H](O)[C@H]1O
REMARK SMILES IDX 7 1 26 2 25 3 12 4 10 5 8 6 6 7 5 8 3 9 33 10 4 11 31 12
REMARK SMILES IDX 29 13 2 14 1 15 34 17 32 19 30 21 27 23 28 24 9 26 11 28
REMARK SMILES IDX 13 30 14 31 22 32 15 33 21 34 17 35 19 36 23 37 24 38 16 40
REMARK SMILES IDX 18 42 20 44
REMARK H PARENT 1 16 34 18 32 20 30 22 28 25 9 27 11 29 24 39 16 41 18 43
REMARK H PARENT 20 45
REMARK Flexibility Score: inf
ROOT
ATOM      1  C   UNL     1      36.200  -1.720  37.732  1.00  0.00     0.184 C 
ATOM      2  C   UNL     1      35.052  -2.252  38.633  1.00  0.00     0.178 C 
ATOM      3  O   UNL     1      34.700  -1.369  39.699  1.00  0.00    -0.341 OA
ATOM      4  C   UNL     1      34.415  -0.038  39.290  1.00  0.00     0.282 C 
ATOM      5  C   UNL     1      35.623   0.573  38.549  1.00  0.00     0.202 C 
ATOM      6  C   UNL     1      35.938  -0.263  37.309  1.00  0.00     0.180 C 
ENDROOT
BRANCH   1   7
ATOM      7  O   UNL     1      37.417  -1.790  38.466  1.00  0.00    -0.341 OA
BRANCH   7   8
ATOM      8  C   UNL     1      37.348  -2.656  39.594  1.00  0.00     0.282 C 
ATOM      9  C   UNL     1      39.296  -3.931  39.029  1.00  0.00     0.178 C 
ATOM     10  C   UNL     1      40.125  -3.278  40.168  1.00  0.00     0.177 C 
ATOM     11  O   UNL     1      37.893  -3.930  39.276  1.00  0.00    -0.341 OA
ATOM     12  C   UNL     1      39.558  -1.911  40.588  1.00  0.00     0.179 C 
ATOM     13  C   UNL     1      38.042  -2.019  40.812  1.00  0.00     0.202 C 
BRANCH   9  14
ATOM     14  C   UNL     1      39.649  -3.420  37.617  1.00  0.00     0.191 C 
BRANCH  14  15
ATOM     15  O   UNL     1      38.762  -3.965  36.676  1.00  0.00    -0.394 OA
ATOM     16  H   UNL     1      39.002  -4.922  36.590  1.00  0.00     0.210 HD
ENDBRANCH  14  15
ENDBRANCH   9  14
BRANCH  10  17
ATOM     17  O   UNL     1      40.124  -4.125  41.291  1.00  0.00    -0.387 OA
ATOM     18  H   UNL     1      39.433  -3.781  41.914  1.00  0.00     0.211 HD
ENDBRANCH  10  17
BRANCH  12  19
ATOM     19  O   UNL     1      39.838  -0.929  39.623  1.00  0.00    -0.387 OA
ATOM     20  H   UNL     1      39.392  -0.094  39.920  1.00  0.00     0.211 HD
ENDBRANCH  12  19
BRANCH  13  21
ATOM     21  O   UNL     1      37.489  -0.753  41.065  1.00  0.00    -0.385 OA
ATOM     22  H   UNL     1      36.967  -0.501  40.257  1.00  0.00     0.211 HD
ENDBRANCH  13  21
ENDBRANCH   7   8
ENDBRANCH   1   7
BRANCH   2  23
ATOM     23  C   UNL     1      33.820  -2.741  37.839  1.00  0.00     0.191 C 
BRANCH  23  24
ATOM     24  O   UNL     1      33.920  -4.114  37.574  1.00  0.00    -0.394 OA
ATOM     25  H   UNL     1      33.356  -4.575  38.248  1.00  0.00     0.210 HD
ENDBRANCH  23  24
ENDBRANCH   2  23
BRANCH   6  26
ATOM     26  O   UNL     1      37.066   0.268  36.662  1.00  0.00    -0.387 OA
ATOM     27  H   UNL     1      37.397  -0.435  36.045  1.00  0.00     0.211 HD
ENDBRANCH   6  26
BRANCH   5  28
ATOM     28  O   UNL     1      35.374   1.903  38.182  1.00  0.00    -0.385 OA
ATOM     29  H   UNL     1      35.045   2.367  38.995  1.00  0.00     0.211 HD
ENDBRANCH   5  28
BRANCH   4  30
ATOM     30  O   UNL     1      33.231  -0.018  38.499  1.00  0.00    -0.341 OA
BRANCH  30  31
ATOM     31  C   UNL     1      32.198   0.798  39.034  1.00  0.00     0.184 C 
ATOM     32  C   UNL     1      32.344   2.260  38.529  1.00  0.00     0.178 C 
ATOM     33  C   UNL     1      32.350   0.802  40.567  1.00  0.00     0.180 C 
ATOM     34  O   UNL     1      31.356   3.089  39.123  1.00  0.00    -0.342 OA
ATOM     35  C   UNL     1      31.372   1.804  41.204  1.00  0.00     0.201 C 
ATOM     36  C   UNL     1      31.514   3.183  40.530  1.00  0.00     0.279 C 
BRANCH  32  37
ATOM     37  C   UNL     1      32.181   2.367  37.005  1.00  0.00     0.191 C 
BRANCH  37  38
ATOM     38  O   UNL     1      31.320   1.377  36.512  1.00  0.00    -0.394 OA
ATOM     39  H   UNL     1      31.696   1.068  35.650  1.00  0.00     0.210 HD
ENDBRANCH  37  38
ENDBRANCH  32  37
BRANCH  33  40
ATOM     40  O   UNL     1      32.118  -0.486  41.077  1.00  0.00    -0.387 OA
ATOM     41  H   UNL     1      32.977  -0.813  41.460  1.00  0.00     0.211 HD
ENDBRANCH  33  40
BRANCH  35  42
ATOM     42  O   UNL     1      30.048   1.359  41.066  1.00  0.00    -0.385 OA
ATOM     43  H   UNL     1      29.622   1.429  41.962  1.00  0.00     0.211 HD
ENDBRANCH  35  42
BRANCH  36  44
ATOM     44  O   UNL     1      32.744   3.785  40.857  1.00  0.00    -0.366 OA
ATOM     45  H   UNL     1      32.719   3.974  41.832  1.00  0.00     0.213 HD
ENDBRANCH  36  44
ENDBRANCH  30  31
ENDBRANCH   4  30
TORSDOF 18
ENDMDL
MODEL 3
REMARK VINA RESULT:    -4.768      1.610      3.353
REMARK INTER + INTRA:         -10.514
REMARK INTER:                  -8.252
REMARK INTRA:                  -2.262
REMARK UNBOUND:                -2.262
REMARK SMILES OC[C@@H]1O[C@H](O[C@@H]2[C@H](O)[C@@H](O)[C@@H](O[C@H]3[C@H](O)[C@H](O)[C@@H](O)O[C@@H]3CO)O[C@H]2CO)[C@H](O)[C@H](O)[C@H]1O
REMARK SMILES IDX 7 1 26 2 25 3 12 4 10 5 8 6 6 7 5 8 3 9 33 10 4 11 31 12
REMARK SMILES IDX 29 13 2 14 1 15 34 17 32 19 30 21 27 23 28 24 9 26 11 28
REMARK SMILES IDX 13 30 14 31 22 32 15 33 21 34 17 35 19 36 23 37 24 38 16 40
REMARK SMILES IDX 18 42 20 44
REMARK H PARENT 1 16 34 18 32 20 30 22 28 25 9 27 11 29 24 39 16 41 18 43
REMARK H PARENT 20 45
REMARK Flexibility Score: inf
ROOT
ATOM      1  C   UNL     1      37.206   3.245  40.669  1.00  0.00     0.184 C 
ATOM      2  C   UNL     1      37.449   1.842  40.048  1.00  0.00     0.178 C 
ATOM      3  O   UNL     1      36.442   0.885  40.376  1.00  0.00    -0.341 OA
ATOM      4  C   UNL     1      35.114   1.311  40.101  1.00  0.00     0.282 C 
ATOM      5  C   UNL     1      34.793   2.614  40.863  1.00  0.00     0.202 C 
ATOM      6  C   UNL     1      35.760   3.714  40.424  1.00  0.00     0.180 C 
ENDROOT
BRANCH   1   7
ATOM      7  O   UNL     1      37.449   3.164  42.069  1.00  0.00    -0.341 OA
BRANCH   7   8
ATOM      8  C   UNL     1      38.826   3.281  42.413  1.00  0.00     0.282 C 
ATOM      9  C   UNL     1      38.542   5.154  43.880  1.00  0.00     0.178 C 
ATOM     10  C   UNL     1      38.784   4.278  45.139  1.00  0.00     0.177 C 
ATOM     11  O   UNL     1      39.152   4.635  42.702  1.00  0.00    -0.341 OA
ATOM     12  C   UNL     1      38.488   2.791  44.877  1.00  0.00     0.179 C 
ATOM     13  C   UNL     1      39.177   2.341  43.580  1.00  0.00     0.202 C 
BRANCH   9  14
ATOM     14  C   UNL     1      37.067   5.549  43.658  1.00  0.00     0.191 C 
BRANCH  14  15
ATOM     15  O   UNL     1      36.986   6.576  42.705  1.00  0.00    -0.394 OA
ATOM     16  H   UNL     1      36.201   6.366  42.138  1.00  0.00     0.210 HD
ENDBRANCH  14  15
ENDBRANCH   9  14
BRANCH  10  17
ATOM     17  O   UNL     1      40.125   4.401  45.543  1.00  0.00    -0.387 OA
ATOM     18  H   UNL     1      40.661   4.570  44.725  1.00  0.00     0.211 HD
ENDBRANCH  10  17
BRANCH  12  19
ATOM     19  O   UNL     1      37.105   2.557  44.800  1.00  0.00    -0.387 OA
ATOM     20  H   UNL     1      36.972   1.820  44.148  1.00  0.00     0.211 HD
ENDBRANCH  12  19
BRANCH  13  21
ATOM     21  O   UNL     1      38.808   1.025  43.257  1.00  0.00    -0.385 OA
ATOM     22  H   UNL     1      39.651   0.509  43.144  1.00  0.00     0.211 HD
ENDBRANCH  13  21
ENDBRANCH   7   8
ENDBRANCH   1   7
BRANCH   2  23
ATOM     23  C   UNL     1      37.756   1.884  38.534  1.00  0.00     0.191 C 
BRANCH  23  24
ATOM     24  O   UNL     1      37.716   0.592  37.989  1.00  0.00    -0.394 OA
ATOM     25  H   UNL     1      38.440   0.075  38.429  1.00  0.00     0.210 HD
ENDBRANCH  23  24
ENDBRANCH   2  23
BRANCH   6  26
ATOM     26  O   UNL     1      35.496   4.885  41.153  1.00  0.00    -0.387 OA
ATOM     27  H   UNL     1      36.052   4.841  41.974  1.00  0.00     0.211 HD
ENDBRANCH   6  26
BRANCH   5  28
ATOM     28  O   UNL     1      33.470   3.020  40.640  1.00  0.00    -0.385 OA
ATOM     29  H   UNL     1      33.499   3.993  40.447  1.00  0.00     0.211 HD
ENDBRANCH   5  28
BRANCH   4  30
ATOM     30  O   UNL     1      34.931   1.449  38.696  1.00  0.00    -0.341 OA
BRANCH  30  31
ATOM     31  C   UNL     1      34.095   0.451  38.126  1.00  0.00     0.184 C 
ATOM     32  C   UNL     1      32.607   0.892  38.183  1.00  0.00     0.178 C 
ATOM     33  C   UNL     1      34.250  -0.828  38.969  1.00  0.00     0.180 C 
ATOM     34  O   UNL     1      31.767  -0.138  37.682  1.00  0.00    -0.342 OA
ATOM     35  C   UNL     1      33.244  -1.900  38.517  1.00  0.00     0.201 C 
ATOM     36  C   UNL     1      31.821  -1.307  38.483  1.00  0.00     0.279 C 
BRANCH  32  37
ATOM     37  C   UNL     1      32.341   2.153  37.346  1.00  0.00     0.191 C 
BRANCH  37  38
ATOM     38  O   UNL     1      32.533   3.318  38.102  1.00  0.00    -0.394 OA
ATOM     39  H   UNL     1      33.484   3.330  38.379  1.00  0.00     0.210 HD
ENDBRANCH  37  38
ENDBRANCH  32  37
BRANCH  33  40
ATOM     40  O   UNL     1      35.560  -1.323  38.859  1.00  0.00    -0.387 OA
ATOM     41  H   UNL     1      36.180  -0.553  38.983  1.00  0.00     0.211 HD
ENDBRANCH  33  40
BRANCH  35  42
ATOM     42  O   UNL     1      33.573  -2.379  37.238  1.00  0.00    -0.385 OA
ATOM     43  H   UNL     1      32.784  -2.218  36.655  1.00  0.00     0.211 HD
ENDBRANCH  35  42
BRANCH  36  44
ATOM     44  O   UNL     1      31.346  -1.047  39.782  1.00  0.00    -0.366 OA
ATOM     45  H   UNL     1      31.853  -1.643  40.396  1.00  0.00     0.213 HD
ENDBRANCH  36  44
ENDBRANCH  30  31
ENDBRANCH   4  30
TORSDOF 18
ENDMDL
MODEL 4
REMARK VINA RESULT:    -4.621      2.770      4.106
REMARK INTER + INTRA:         -10.259
REMARK INTER:                  -8.104
REMARK INTRA:                  -2.155
REMARK UNBOUND:                -2.262
REMARK SMILES OC[C@@H]1O[C@H](O[C@@H]2[C@H](O)[C@@H](O)[C@@H](O[C@H]3[C@H](O)[C@H](O)[C@@H](O)O[C@@H]3CO)O[C@H]2CO)[C@H](O)[C@H](O)[C@H]1O
REMARK SMILES IDX 7 1 26 2 25 3 12 4 10 5 8 6 6 7 5 8 3 9 33 10 4 11 31 12
REMARK SMILES IDX 29 13 2 14 1 15 34 17 32 19 30 21 27 23 28 24 9 26 11 28
REMARK SMILES IDX 13 30 14 31 22 32 15 33 21 34 17 35 19 36 23 37 24 38 16 40
REMARK SMILES IDX 18 42 20 44
REMARK H PARENT 1 16 34 18 32 20 30 22 28 25 9 27 11 29 24 39 16 41 18 43
REMARK H PARENT 20 45
REMARK Flexibility Score: inf
ROOT
ATOM      1  C   UNL     1      39.457   3.300  41.873  1.00  0.00     0.184 C 
ATOM      2  C   UNL     1      38.799   1.928  42.184  1.00  0.00     0.178 C 
ATOM      3  O   UNL     1      37.683   1.621  41.347  1.00  0.00    -0.341 OA
ATOM      4  C   UNL     1      37.947   1.726  39.954  1.00  0.00     0.282 C 
ATOM      5  C   UNL     1      38.429   3.147  39.598  1.00  0.00     0.202 C 
ATOM      6  C   UNL     1      39.715   3.459  40.363  1.00  0.00     0.180 C 
ENDROOT
BRANCH   1   7
ATOM      7  O   UNL     1      38.580   4.330  42.316  1.00  0.00    -0.341 OA
BRANCH   7   8
ATOM      8  C   UNL     1      38.421   4.368  43.731  1.00  0.00     0.282 C 
ATOM      9  C   UNL     1      38.818   6.721  43.946  1.00  0.00     0.178 C 
ATOM     10  C   UNL     1      37.320   7.005  44.239  1.00  0.00     0.177 C 
ATOM     11  O   UNL     1      39.223   5.400  44.292  1.00  0.00    -0.341 OA
ATOM     12  C   UNL     1      36.401   5.900  43.691  1.00  0.00     0.179 C 
ATOM     13  C   UNL     1      36.936   4.521  44.107  1.00  0.00     0.202 C 
BRANCH   9  14
ATOM     14  C   UNL     1      39.275   7.128  42.530  1.00  0.00     0.191 C 
BRANCH  14  15
ATOM     15  O   UNL     1      38.385   8.071  41.993  1.00  0.00    -0.394 OA
ATOM     16  H   UNL     1      38.202   8.723  42.717  1.00  0.00     0.210 HD
ENDBRANCH  14  15
ENDBRANCH   9  14
BRANCH  10  17
ATOM     17  O   UNL     1      37.126   7.100  45.628  1.00  0.00    -0.387 OA
ATOM     18  H   UNL     1      36.974   8.058  45.836  1.00  0.00     0.211 HD
ENDBRANCH  10  17
BRANCH  12  19
ATOM     19  O   UNL     1      36.294   5.978  42.293  1.00  0.00    -0.387 OA
ATOM     20  H   UNL     1      35.588   6.647  42.094  1.00  0.00     0.211 HD
ENDBRANCH  12  19
BRANCH  13  21
ATOM     21  O   UNL     1      36.186   3.498  43.505  1.00  0.00    -0.385 OA
ATOM     22  H   UNL     1      36.791   3.037  42.864  1.00  0.00     0.211 HD
ENDBRANCH  13  21
ENDBRANCH   7   8
ENDBRANCH   1   7
BRANCH   2  23
ATOM     23  C   UNL     1      39.812   0.765  42.270  1.00  0.00     0.191 C 
BRANCH  23  24
ATOM     24  O   UNL     1      39.291  -0.285  43.041  1.00  0.00    -0.394 OA
ATOM     25  H   UNL     1      38.551   0.098  43.579  1.00  0.00     0.210 HD
ENDBRANCH  23  24
ENDBRANCH   2  23
BRANCH   6  26
ATOM     26  O   UNL     1      40.125   4.770  40.072  1.00  0.00    -0.387 OA
ATOM     27  H   UNL     1      40.226   4.824  39.086  1.00  0.00     0.211 HD
ENDBRANCH   6  26
BRANCH   5  28
ATOM     28  O   UNL     1      38.646   3.279  38.219  1.00  0.00    -0.385 OA
ATOM     29  H   UNL     1      38.066   2.609  37.774  1.00  0.00     0.211 HD
ENDBRANCH   5  28
BRANCH   4  30
ATOM     30  O   UNL     1      38.882   0.726  39.563  1.00  0.00    -0.341 OA
BRANCH  30  31
ATOM     31  C   UNL     1      38.291  -0.382  38.896  1.00  0.00     0.184 C 
ATOM     32  C   UNL     1      37.597   0.081  37.586  1.00  0.00     0.178 C 
ATOM     33  C   UNL     1      37.216  -0.971  39.828  1.00  0.00     0.180 C 
ATOM     34  O   UNL     1      36.944  -1.014  36.960  1.00  0.00    -0.342 OA
ATOM     35  C   UNL     1      36.414  -2.065  39.104  1.00  0.00     0.201 C 
ATOM     36  C   UNL     1      35.890  -1.532  37.756  1.00  0.00     0.279 C 
BRANCH  32  37
ATOM     37  C   UNL     1      38.596   0.663  36.573  1.00  0.00     0.191 C 
BRANCH  37  38
ATOM     38  O   UNL     1      38.047   1.754  35.885  1.00  0.00    -0.394 OA
ATOM     39  H   UNL     1      38.041   1.517  34.923  1.00  0.00     0.210 HD
ENDBRANCH  37  38
ENDBRANCH  32  37
BRANCH  33  40
ATOM     40  O   UNL     1      37.816  -1.499  40.983  1.00  0.00    -0.387 OA
ATOM     41  H   UNL     1      38.223  -2.373  40.733  1.00  0.00     0.211 HD
ENDBRANCH  33  40
BRANCH  35  42
ATOM     42  O   UNL     1      37.216  -3.194  38.871  1.00  0.00    -0.385 OA
ATOM     43  H   UNL     1      37.229  -3.721  39.715  1.00  0.00     0.211 HD
ENDBRANCH  35  42
BRANCH  36  44
ATOM     44  O   UNL     1      34.885  -0.565  37.946  1.00  0.00    -0.366 OA
ATOM     45  H   UNL     1      34.067  -1.055  38.228  1.00  0.00     0.213 HD
ENDBRANCH  36  44
ENDBRANCH  30  31
ENDBRANCH   4  30
TORSDOF 18
ENDMDL
MODEL 5
REMARK VINA RESULT:    -4.613      2.571      8.275
REMARK INTER + INTRA:         -10.246
REMARK INTER:                  -8.290
REMARK INTRA:                  -1.956
REMARK UNBOUND:                -2.262
REMARK SMILES OC[C@@H]1O[C@H](O[C@@H]2[C@H](O)[C@@H](O)[C@@H](O[C@H]3[C@H](O)[C@H](O)[C@@H](O)O[C@@H]3CO)O[C@H]2CO)[C@H](O)[C@H](O)[C@H]1O
REMARK SMILES IDX 7 1 26 2 25 3 12 4 10 5 8 6 6 7 5 8 3 9 33 10 4 11 31 12
REMARK SMILES IDX 29 13 2 14 1 15 34 17 32 19 30 21 27 23 28 24 9 26 11 28
REMARK SMILES IDX 13 30 14 31 22 32 15 33 21 34 17 35 19 36 23 37 24 38 16 40
REMARK SMILES IDX 18 42 20 44
REMARK H PARENT 1 16 34 18 32 20 30 22 28 25 9 27 11 29 24 39 16 41 18 43
REMARK H PARENT 20 45
REMARK Flexibility Score: inf
ROOT
ATOM      1  C   UNL     1      38.494   0.280  39.723  1.00  0.00     0.184 C 
ATOM      2  C   UNL     1      38.211   1.794  39.523  1.00  0.00     0.178 C 
ATOM      3  O   UNL     1      37.534   2.403  40.623  1.00  0.00    -0.341 OA
ATOM      4  C   UNL     1      38.152   2.190  41.885  1.00  0.00     0.282 C 
ATOM      5  C   UNL     1      38.274   0.681  42.182  1.00  0.00     0.202 C 
ATOM      6  C   UNL     1      39.125   0.014  41.102  1.00  0.00     0.180 C 
ENDROOT
BRANCH   1   7
ATOM      7  O   UNL     1      37.261  -0.424  39.620  1.00  0.00    -0.341 OA
BRANCH   7   8
ATOM      8  C   UNL     1      36.952  -0.832  38.291  1.00  0.00     0.282 C 
ATOM      9  C   UNL     1      36.098  -2.986  38.902  1.00  0.00     0.178 C 
ATOM     10  C   UNL     1      34.636  -2.553  38.611  1.00  0.00     0.177 C 
ATOM     11  O   UNL     1      37.067  -2.244  38.167  1.00  0.00    -0.341 OA
ATOM     12  C   UNL     1      34.456  -1.027  38.689  1.00  0.00     0.179 C 
ATOM     13  C   UNL     1      35.557  -0.328  37.879  1.00  0.00     0.202 C 
BRANCH   9  14
ATOM     14  C   UNL     1      36.443  -3.085  40.402  1.00  0.00     0.191 C 
BRANCH  14  15
ATOM     15  O   UNL     1      37.767  -3.519  40.562  1.00  0.00    -0.394 OA
ATOM     16  H   UNL     1      38.026  -3.940  39.703  1.00  0.00     0.210 HD
ENDBRANCH  14  15
ENDBRANCH   9  14
BRANCH  10  17
ATOM     17  O   UNL     1      34.270  -2.980  37.322  1.00  0.00    -0.387 OA
ATOM     18  H   UNL     1      34.894  -2.546  36.684  1.00  0.00     0.211 HD
ENDBRANCH  10  17
BRANCH  12  19
ATOM     19  O   UNL     1      34.476  -0.584  40.022  1.00  0.00    -0.387 OA
ATOM     20  H   UNL     1      33.532  -0.462  40.301  1.00  0.00     0.211 HD
ENDBRANCH  12  19
BRANCH  13  21
ATOM     21  O   UNL     1      35.486   1.064  38.049  1.00  0.00    -0.385 OA
ATOM     22  H   UNL     1      36.402   1.420  37.897  1.00  0.00     0.211 HD
ENDBRANCH  13  21
ENDBRANCH   7   8
ENDBRANCH   1   7
BRANCH   2  23
ATOM     23  C   UNL     1      39.451   2.598  39.072  1.00  0.00     0.191 C 
BRANCH  23  24
ATOM     24  O   UNL     1      39.067   3.694  38.286  1.00  0.00    -0.394 OA
ATOM     25  H   UNL     1      38.117   3.881  38.503  1.00  0.00     0.210 HD
ENDBRANCH  23  24
ENDBRANCH   2  23
BRANCH   6  26
ATOM     26  O   UNL     1      39.194  -1.367  41.349  1.00  0.00    -0.387 OA
ATOM     27  H   UNL     1      39.931  -1.720  40.785  1.00  0.00     0.211 HD
ENDBRANCH   6  26
BRANCH   5  28
ATOM     28  O   UNL     1      38.837   0.456  43.446  1.00  0.00    -0.385 OA
ATOM     29  H   UNL     1      38.249  -0.196  43.908  1.00  0.00     0.211 HD
ENDBRANCH   5  28
BRANCH   4  30
ATOM     30  O   UNL     1      39.413   2.850  41.924  1.00  0.00    -0.341 OA
BRANCH  30  31
ATOM     31  C   UNL     1      39.396   4.077  42.641  1.00  0.00     0.184 C 
ATOM     32  C   UNL     1      39.057   3.826  44.136  1.00  0.00     0.178 C 
ATOM     33  C   UNL     1      38.287   4.958  42.038  1.00  0.00     0.180 C 
ATOM     34  O   UNL     1      38.967   5.059  44.835  1.00  0.00    -0.342 OA
ATOM     35  C   UNL     1      38.093   6.233  42.876  1.00  0.00     0.201 C 
ATOM     36  C   UNL     1      37.901   5.865  44.361  1.00  0.00     0.279 C 
BRANCH  32  37
ATOM     37  C   UNL     1      40.125   2.973  44.840  1.00  0.00     0.191 C 
BRANCH  37  38
ATOM     38  O   UNL     1      39.593   2.302  45.949  1.00  0.00    -0.394 OA
ATOM     39  H   UNL     1      40.233   2.423  46.695  1.00  0.00     0.210 HD
ENDBRANCH  37  38
ENDBRANCH  32  37
BRANCH  33  40
ATOM     40  O   UNL     1      38.608   5.298  40.713  1.00  0.00    -0.387 OA
ATOM     41  H   UNL     1      38.107   4.678  40.117  1.00  0.00     0.211 HD
ENDBRANCH  33  40
BRANCH  35  42
ATOM     42  O   UNL     1      39.206   7.080  42.752  1.00  0.00    -0.385 OA
ATOM     43  H   UNL     1      39.179   7.464  41.836  1.00  0.00     0.211 HD
ENDBRANCH  35  42
BRANCH  36  44
ATOM     44  O   UNL     1      36.661   5.231  44.573  1.00  0.00    -0.366 OA
ATOM     45  H   UNL     1      36.588   5.068  45.550  1.00  0.00     0.213 HD
ENDBRANCH  36  44
ENDBRANCH  30  31
ENDBRANCH   4  30
TORSDOF 18
ENDMDL
MODEL 6
REMARK VINA RESULT:    -4.192      2.092      3.730
REMARK INTER + INTRA:          -9.518
REMARK INTER:                  -8.627
REMARK INTRA:                  -0.891
REMARK UNBOUND:                -2.262
REMARK SMILES OC[C@@H]1O[C@H](O[C@@H]2[C@H](O)[C@@H](O)[C@@H](O[C@H]3[C@H](O)[C@H](O)[C@@H](O)O[C@@H]3CO)O[C@H]2CO)[C@H](O)[C@H](O)[C@H]1O
REMARK SMILES IDX 7 1 26 2 25 3 12 4 10 5 8 6 6 7 5 8 3 9 33 10 4 11 31 12
REMARK SMILES IDX 29 13 2 14 1 15 34 17 32 19 30 21 27 23 28 24 9 26 11 28
REMARK SMILES IDX 13 30 14 31 22 32 15 33 21 34 17 35 19 36 23 37 24 38 16 40
REMARK SMILES IDX 18 42 20 44
REMARK H PARENT 1 16 34 18 32 20 30 22 28 25 9 27 11 29 24 39 16 41 18 43
REMARK H PARENT 20 45
REMARK Flexibility Score: inf
ROOT
ATOM      1  C   UNL     1      36.274   4.688  43.705  1.00  0.00     0.184 C 
ATOM      2  C   UNL     1      35.951   4.806  42.190  1.00  0.00     0.178 C 
ATOM      3  O   UNL     1      37.064   4.524  41.340  1.00  0.00    -0.341 OA
ATOM      4  C   UNL     1      37.703   3.281  41.602  1.00  0.00     0.282 C 
ATOM      5  C   UNL     1      38.196   3.221  43.063  1.00  0.00     0.202 C 
ATOM      6  C   UNL     1      37.006   3.369  44.011  1.00  0.00     0.180 C 
ENDROOT
BRANCH   1   7
ATOM      7  O   UNL     1      37.099   5.787  44.075  1.00  0.00    -0.341 OA
BRANCH   7   8
ATOM      8  C   UNL     1      37.086   6.849  43.127  1.00  0.00     0.282 C 
ATOM      9  C   UNL     1      36.448   8.549  44.691  1.00  0.00     0.178 C 
ATOM     10  C   UNL     1      37.868   9.177  44.676  1.00  0.00     0.177 C 
ATOM     11  O   UNL     1      36.131   7.835  43.500  1.00  0.00    -0.341 OA
ATOM     12  C   UNL     1      38.944   8.168  44.239  1.00  0.00     0.179 C 
ATOM     13  C   UNL     1      38.495   7.446  42.960  1.00  0.00     0.202 C 
BRANCH   9  14
ATOM     14  C   UNL     1      36.125   7.744  45.967  1.00  0.00     0.191 C 
BRANCH  14  15
ATOM     15  O   UNL     1      35.250   8.475  46.786  1.00  0.00    -0.394 OA
ATOM     16  H   UNL     1      35.219   9.391  46.409  1.00  0.00     0.210 HD
ENDBRANCH  14  15
ENDBRANCH   9  14
BRANCH  10  17
ATOM     17  O   UNL     1      37.888  10.265  43.786  1.00  0.00    -0.387 OA
ATOM     18  H   UNL     1      38.788  10.282  43.368  1.00  0.00     0.211 HD
ENDBRANCH  10  17
BRANCH  12  19
ATOM     19  O   UNL     1      39.207   7.237  45.257  1.00  0.00    -0.387 OA
ATOM     20  H   UNL     1      39.762   6.518  44.855  1.00  0.00     0.211 HD
ENDBRANCH  12  19
BRANCH  13  21
ATOM     21  O   UNL     1      39.404   6.429  42.623  1.00  0.00    -0.385 OA
ATOM     22  H   UNL     1      39.813   6.116  43.473  1.00  0.00     0.211 HD
ENDBRANCH  13  21
ENDBRANCH   7   8
ENDBRANCH   1   7
BRANCH   2  23
ATOM     23  C   UNL     1      34.676   4.041  41.770  1.00  0.00     0.191 C 
BRANCH  23  24
ATOM     24  O   UNL     1      33.954   4.775  40.819  1.00  0.00    -0.394 OA
ATOM     25  H   UNL     1      33.044   4.381  40.786  1.00  0.00     0.210 HD
ENDBRANCH  23  24
ENDBRANCH   2  23
BRANCH   6  26
ATOM     26  O   UNL     1      37.464   3.361  45.339  1.00  0.00    -0.387 OA
ATOM     27  H   UNL     1      37.557   2.408  45.602  1.00  0.00     0.211 HD
ENDBRANCH   6  26
BRANCH   5  28
ATOM     28  O   UNL     1      38.871   2.021  43.322  1.00  0.00    -0.385 OA
ATOM     29  H   UNL     1      38.380   1.307  42.840  1.00  0.00     0.211 HD
ENDBRANCH   5  28
BRANCH   4  30
ATOM     30  O   UNL     1      36.821   2.208  41.287  1.00  0.00    -0.341 OA
BRANCH  30  31
ATOM     31  C   UNL     1      37.047   1.639  40.004  1.00  0.00     0.184 C 
ATOM     32  C   UNL     1      35.846   0.745  39.588  1.00  0.00     0.178 C 
ATOM     33  C   UNL     1      38.299   0.748  40.100  1.00  0.00     0.180 C 
ATOM     34  O   UNL     1      36.106   0.119  38.341  1.00  0.00    -0.342 OA
ATOM     35  C   UNL     1      38.504  -0.038  38.794  1.00  0.00     0.201 C 
ATOM     36  C   UNL     1      37.205  -0.775  38.411  1.00  0.00     0.279 C 
BRANCH  32  37
ATOM     37  C   UNL     1      34.546   1.551  39.439  1.00  0.00     0.191 C 
BRANCH  37  38
ATOM     38  O   UNL     1      34.109   1.573  38.107  1.00  0.00    -0.394 OA
ATOM     39  H   UNL     1      34.786   2.075  37.588  1.00  0.00     0.210 HD
ENDBRANCH  37  38
ENDBRANCH  32  37
BRANCH  33  40
ATOM     40  O   UNL     1      39.431   1.534  40.370  1.00  0.00    -0.387 OA
ATOM     41  H   UNL     1      40.006   1.516  39.558  1.00  0.00     0.211 HD
ENDBRANCH  33  40
BRANCH  35  42
ATOM     42  O   UNL     1      38.868   0.826  37.749  1.00  0.00    -0.385 OA
ATOM     43  H   UNL     1      39.485   0.320  37.155  1.00  0.00     0.211 HD
ENDBRANCH  35  42
BRANCH  36  44
ATOM     44  O   UNL     1      36.936  -1.831  39.303  1.00  0.00    -0.366 OA
ATOM     45  H   UNL     1      37.793  -2.045  39.758  1.00  0.00     0.213 HD
ENDBRANCH  36  44
ENDBRANCH  30  31
ENDBRANCH   4  30
TORSDOF 18
ENDMDL
MODEL 7
REMARK VINA RESULT:    -4.178      2.095      3.321
REMARK INTER + INTRA:          -9.492
REMARK INTER:                  -7.012
REMARK INTRA:                  -2.481
REMARK UNBOUND:                -2.262
REMARK SMILES OC[C@@H]1O[C@H](O[C@@H]2[C@H](O)[C@@H](O)[C@@H](O[C@H]3[C@H](O)[C@H](O)[C@@H](O)O[C@@H]3CO)O[C@H]2CO)[C@H](O)[C@H](O)[C@H]1O
REMARK SMILES IDX 7 1 26 2 25 3 12 4 10 5 8 6 6 7 5 8 3 9 33 10 4 11 31 12
REMARK SMILES IDX 29 13 2 14 1 15 34 17 32 19 30 21 27 23 28 24 9 26 11 28
REMARK SMILES IDX 13 30 14 31 22 32 15 33 21 34 17 35 19 36 23 37 24 38 16 40
REMARK SMILES IDX 18 42 20 44
REMARK H PARENT 1 16 34 18 32 20 30 22 28 25 9 27 11 29 24 39 16 41 18 43
REMARK H PARENT 20 45
REMARK Flexibility Score: inf
ROOT
ATOM      1  C   UNL     1      37.725   5.043  43.831  1.00  0.00     0.184 C 
ATOM      2  C   UNL     1      36.315   4.639  43.318  1.00  0.00     0.178 C 
ATOM      3  O   UNL     1      36.172   4.725  41.899  1.00  0.00    -0.341 OA
ATOM      4  C   UNL     1      37.170   4.031  41.164  1.00  0.00     0.282 C 
ATOM      5  C   UNL     1      38.575   4.552  41.530  1.00  0.00     0.202 C 
ATOM      6  C   UNL     1      38.829   4.337  43.022  1.00  0.00     0.180 C 
ENDROOT
BRANCH   1   7
ATOM      7  O   UNL     1      37.864   6.453  43.696  1.00  0.00    -0.341 OA
BRANCH   7   8
ATOM      8  C   UNL     1      36.875   7.190  44.407  1.00  0.00     0.282 C 
ATOM      9  C   UNL     1      38.388   8.829  45.281  1.00  0.00     0.178 C 
ATOM     10  C   UNL     1      37.847   9.924  44.323  1.00  0.00     0.177 C 
ATOM     11  O   UNL     1      37.444   7.800  45.559  1.00  0.00    -0.341 OA
ATOM     12  C   UNL     1      37.180   9.324  43.073  1.00  0.00     0.179 C 
ATOM     13  C   UNL     1      36.196   8.219  43.485  1.00  0.00     0.202 C 
BRANCH   9  14
ATOM     14  C   UNL     1      39.772   8.271  44.886  1.00  0.00     0.191 C 
BRANCH  14  15
ATOM     15  O   UNL     1      40.018   7.072  45.572  1.00  0.00    -0.394 OA
ATOM     16  H   UNL     1      39.780   6.341  44.946  1.00  0.00     0.210 HD
ENDBRANCH  14  15
ENDBRANCH   9  14
BRANCH  10  17
ATOM     17  O   UNL     1      36.898  10.710  45.002  1.00  0.00    -0.387 OA
ATOM     18  H   UNL     1      36.026  10.565  44.551  1.00  0.00     0.211 HD
ENDBRANCH  10  17
BRANCH  12  19
ATOM     19  O   UNL     1      38.140   8.815  42.183  1.00  0.00    -0.387 OA
ATOM     20  H   UNL     1      38.024   7.829  42.165  1.00  0.00     0.211 HD
ENDBRANCH  12  19
BRANCH  13  21
ATOM     21  O   UNL     1      35.680   7.571  42.351  1.00  0.00    -0.385 OA
ATOM     22  H   UNL     1      34.956   6.967  42.668  1.00  0.00     0.211 HD
ENDBRANCH  13  21
ENDBRANCH   7   8
ENDBRANCH   1   7
BRANCH   2  23
ATOM     23  C   UNL     1      35.818   3.289  43.883  1.00  0.00     0.191 C 
BRANCH  23  24
ATOM     24  O   UNL     1      36.839   2.650  44.599  1.00  0.00    -0.394 OA
ATOM     25  H   UNL     1      37.124   3.280  45.311  1.00  0.00     0.210 HD
ENDBRANCH  23  24
ENDBRANCH   2  23
BRANCH   6  26
ATOM     26  O   UNL     1      40.090   4.855  43.361  1.00  0.00    -0.387 OA
ATOM     27  H   UNL     1      40.186   4.749  44.343  1.00  0.00     0.211 HD
ENDBRANCH   6  26
BRANCH   5  28
ATOM     28  O   UNL     1      39.567   3.910  40.776  1.00  0.00    -0.385 OA
ATOM     29  H   UNL     1      39.967   4.598  40.185  1.00  0.00     0.211 HD
ENDBRANCH   5  28
BRANCH   4  30
ATOM     30  O   UNL     1      37.043   2.629  41.380  1.00  0.00    -0.341 OA
BRANCH  30  31
ATOM     31  C   UNL     1      36.903   1.875  40.184  1.00  0.00     0.184 C 
ATOM     32  C   UNL     1      35.489   1.236  40.107  1.00  0.00     0.178 C 
ATOM     33  C   UNL     1      37.942   0.740  40.220  1.00  0.00     0.180 C 
ATOM     34  O   UNL     1      35.377   0.422  38.949  1.00  0.00    -0.342 OA
ATOM     35  C   UNL     1      37.735  -0.222  39.039  1.00  0.00     0.201 C 
ATOM     36  C   UNL     1      36.265  -0.684  38.985  1.00  0.00     0.279 C 
BRANCH  32  37
ATOM     37  C   UNL     1      34.376   2.293  40.039  1.00  0.00     0.191 C 
BRANCH  37  38
ATOM     38  O   UNL     1      33.923   2.640  41.319  1.00  0.00    -0.394 OA
ATOM     39  H   UNL     1      33.265   3.372  41.205  1.00  0.00     0.210 HD
ENDBRANCH  37  38
ENDBRANCH  32  37
BRANCH  33  40
ATOM     40  O   UNL     1      39.241   1.274  40.182  1.00  0.00    -0.387 OA
ATOM     41  H   UNL     1      39.778   0.706  39.565  1.00  0.00     0.211 HD
ENDBRANCH  33  40
BRANCH  35  42
ATOM     42  O   UNL     1      38.064   0.405  37.826  1.00  0.00    -0.385 OA
ATOM     43  H   UNL     1      38.304   1.346  38.041  1.00  0.00     0.211 HD
ENDBRANCH  35  42
BRANCH  36  44
ATOM     44  O   UNL     1      35.959  -1.536  40.063  1.00  0.00    -0.366 OA
ATOM     45  H   UNL     1      35.507  -0.977  40.749  1.00  0.00     0.213 HD
ENDBRANCH  36  44
ENDBRANCH  30  31
ENDBRANCH   4  30
TORSDOF 18
ENDMDL
MODEL 8
REMARK VINA RESULT:    -4.106      2.706      8.002
REMARK INTER + INTRA:          -9.368
REMARK INTER:                  -6.646
REMARK INTRA:                  -2.722
REMARK UNBOUND:                -2.262
REMARK SMILES OC[C@@H]1O[C@H](O[C@@H]2[C@H](O)[C@@H](O)[C@@H](O[C@H]3[C@H](O)[C@H](O)[C@@H](O)O[C@@H]3CO)O[C@H]2CO)[C@H](O)[C@H](O)[C@H]1O
REMARK SMILES IDX 7 1 26 2 25 3 12 4 10 5 8 6 6 7 5 8 3 9 33 10 4 11 31 12
REMARK SMILES IDX 29 13 2 14 1 15 34 17 32 19 30 21 27 23 28 24 9 26 11 28
REMARK SMILES IDX 13 30 14 31 22 32 15 33 21 34 17 35 19 36 23 37 24 38 16 40
REMARK SMILES IDX 18 42 20 44
REMARK H PARENT 1 16 34 18 32 20 30 22 28 25 9 27 11 29 24 39 16 41 18 43
REMARK H PARENT 20 45
REMARK Flexibility Score: inf
ROOT
ATOM      1  C   UNL     1      37.196   1.876  39.160  1.00  0.00     0.184 C 
ATOM      2  C   UNL     1      36.550   1.880  40.573  1.00  0.00     0.178 C 
ATOM      3  O   UNL     1      37.497   1.978  41.638  1.00  0.00    -0.341 OA
ATOM      4  C   UNL     1      38.404   3.066  41.520  1.00  0.00     0.282 C 
ATOM      5  C   UNL     1      39.191   2.975  40.195  1.00  0.00     0.202 C 
ATOM      6  C   UNL     1      38.218   3.020  39.018  1.00  0.00     0.180 C 
ENDROOT
BRANCH   1   7
ATOM      7  O   UNL     1      37.851   0.627  38.969  1.00  0.00    -0.341 OA
BRANCH   7   8
ATOM      8  C   UNL     1      36.963  -0.485  38.986  1.00  0.00     0.282 C 
ATOM      9  C   UNL     1      37.650  -1.365  36.866  1.00  0.00     0.178 C 
ATOM     10  C   UNL     1      38.400  -2.548  37.535  1.00  0.00     0.177 C 
ATOM     11  O   UNL     1      36.590  -0.843  37.661  1.00  0.00    -0.341 OA
ATOM     12  C   UNL     1      38.795  -2.238  38.989  1.00  0.00     0.179 C 
ATOM     13  C   UNL     1      37.588  -1.668  39.748  1.00  0.00     0.202 C 
BRANCH   9  14
ATOM     14  C   UNL     1      38.575  -0.260  36.314  1.00  0.00     0.191 C 
BRANCH  14  15
ATOM     15  O   UNL     1      37.811   0.845  35.907  1.00  0.00    -0.394 OA
ATOM     16  H   UNL     1      37.396   1.212  36.729  1.00  0.00     0.210 HD
ENDBRANCH  14  15
ENDBRANCH   9  14
BRANCH  10  17
ATOM     17  O   UNL     1      37.575  -3.687  37.530  1.00  0.00    -0.387 OA
ATOM     18  H   UNL     1      37.842  -4.236  36.748  1.00  0.00     0.211 HD
ENDBRANCH  10  17
BRANCH  12  19
ATOM     19  O   UNL     1      39.871  -1.336  39.039  1.00  0.00    -0.387 OA
ATOM     20  H   UNL     1      39.996  -1.087  39.992  1.00  0.00     0.211 HD
ENDBRANCH  12  19
BRANCH  13  21
ATOM     21  O   UNL     1      37.965  -1.255  41.037  1.00  0.00    -0.385 OA
ATOM     22  H   UNL     1      37.326  -1.675  41.672  1.00  0.00     0.211 HD
ENDBRANCH  13  21
ENDBRANCH   7   8
ENDBRANCH   1   7
BRANCH   2  23
ATOM     23  C   UNL     1      35.389   2.889  40.717  1.00  0.00     0.191 C 
BRANCH  23  24
ATOM     24  O   UNL     1      34.215   2.232  41.113  1.00  0.00    -0.394 OA
ATOM     25  H   UNL     1      33.760   1.938  40.281  1.00  0.00     0.210 HD
ENDBRANCH  23  24
ENDBRANCH   2  23
BRANCH   6  26
ATOM     26  O   UNL     1      38.932   2.890  37.816  1.00  0.00    -0.387 OA
ATOM     27  H   UNL     1      38.286   3.058  37.081  1.00  0.00     0.211 HD
ENDBRANCH   6  26
BRANCH   5  28
ATOM     28  O   UNL     1      40.125   4.014  40.087  1.00  0.00    -0.385 OA
ATOM     29  H   UNL     1      40.513   3.955  39.176  1.00  0.00     0.211 HD
ENDBRANCH   5  28
BRANCH   4  30
ATOM     30  O   UNL     1      37.702   4.298  41.645  1.00  0.00    -0.341 OA
BRANCH  30  31
ATOM     31  C   UNL     1      37.898   4.945  42.895  1.00  0.00     0.184 C 
ATOM     32  C   UNL     1      36.533   5.351  43.516  1.00  0.00     0.178 C 
ATOM     33  C   UNL     1      38.710   6.228  42.638  1.00  0.00     0.180 C 
ATOM     34  O   UNL     1      36.735   6.063  44.728  1.00  0.00    -0.342 OA
ATOM     35  C   UNL     1      38.812   7.070  43.921  1.00  0.00     0.201 C 
ATOM     36  C   UNL     1      37.409   7.293  44.519  1.00  0.00     0.279 C 
BRANCH  32  37
ATOM     37  C   UNL     1      35.655   4.132  43.837  1.00  0.00     0.191 C 
BRANCH  37  38
ATOM     38  O   UNL     1      36.430   3.034  44.236  1.00  0.00    -0.394 OA
ATOM     39  H   UNL     1      36.558   2.463  43.438  1.00  0.00     0.210 HD
ENDBRANCH  37  38
ENDBRANCH  32  37
BRANCH  33  40
ATOM     40  O   UNL     1      39.995   5.900  42.175  1.00  0.00    -0.387 OA
ATOM     41  H   UNL     1      40.082   6.268  41.254  1.00  0.00     0.211 HD
ENDBRANCH  33  40
BRANCH  35  42
ATOM     42  O   UNL     1      39.620   6.426  44.872  1.00  0.00    -0.385 OA
ATOM     43  H   UNL     1      40.342   7.064  45.120  1.00  0.00     0.211 HD
ENDBRANCH  35  42
BRANCH  36  44
ATOM     44  O   UNL     1      36.641   8.154  43.711  1.00  0.00    -0.366 OA
ATOM     45  H   UNL     1      35.690   7.902  43.850  1.00  0.00     0.213 HD
ENDBRANCH  36  44
ENDBRANCH  30  31
ENDBRANCH   4  30
TORSDOF 18
ENDMDL
