MODEL 1
REMARK VINA RESULT:    -4.138      0.000      0.000
REMARK INTER + INTRA:          -4.478
REMARK INTER:                  -4.380
REMARK INTRA:                  -0.098
REMARK UNBOUND:                -0.098
REMARK SMILES C=C(C)[C@H]1CC=C(C)C(=O)C1
REMARK SMILES IDX 8 1 7 2 6 3 5 4 4 5 11 6 9 7 10 8 2 9 1 10 3 11
REMARK H PARENT
REMARK Flexibility Score: inf
ROOT
ATOM      1  C   UNL     1     165.337 201.334 300.995  1.00  0.00     0.048 C 
ATOM      2  C   UNL     1     165.514 200.947 302.437  1.00  0.00    -0.012 C 
ATOM      3  C   UNL     1     164.800 201.570 303.389  1.00  0.00    -0.019 C 
ATOM      4  C   UNL     1     164.952 201.234 304.850  1.00  0.00     0.036 C 
ATOM      5  C   UNL     1     165.293 199.745 305.044  1.00  0.00     0.025 C 
ATOM      6  C   UNL     1     166.543 199.372 304.226  1.00  0.00     0.089 C 
ATOM      7  C   UNL     1     166.384 199.797 302.792  1.00  0.00     0.158 C 
ATOM      8  O   UNL     1     167.028 199.189 301.896  1.00  0.00    -0.295 OA
ENDROOT
BRANCH   5   9
ATOM      9  C   UNL     1     165.468 199.400 306.516  1.00  0.00    -0.077 C 
ATOM     10  C   UNL     1     166.159 198.306 306.874  1.00  0.00     0.008 C 
ATOM     11  C   UNL     1     164.878 200.265 307.602  1.00  0.00     0.039 C 
ENDBRANCH   5   9
TORSDOF 1
ENDMDL
MODEL 2
REMARK VINA RESULT:    -4.137      1.388      2.038
REMARK INTER + INTRA:          -4.477
REMARK INTER:                  -4.380
REMARK INTRA:                  -0.097
REMARK UNBOUND:                -0.098
REMARK SMILES C=C(C)[C@H]1CC=C(C)C(=O)C1
REMARK SMILES IDX 8 1 7 2 6 3 5 4 4 5 11 6 9 7 10 8 2 9 1 10 3 11
REMARK H PARENT
REMARK Flexibility Score: inf
ROOT
ATOM      1  C   UNL     1     166.420 201.276 300.919  1.00  0.00     0.048 C 
ATOM      2  C   UNL     1     166.076 200.761 302.289  1.00  0.00    -0.012 C 
ATOM      3  C   UNL     1     166.590 199.596 302.715  1.00  0.00    -0.019 C 
ATOM      4  C   UNL     1     166.264 199.026 304.070  1.00  0.00     0.036 C 
ATOM      5  C   UNL     1     166.032 200.146 305.101  1.00  0.00     0.025 C 
ATOM      6  C   UNL     1     164.947 201.118 304.599  1.00  0.00     0.089 C 
ATOM      7  C   UNL     1     165.269 201.599 303.212  1.00  0.00     0.158 C 
ATOM      8  O   UNL     1     164.815 202.709 302.826  1.00  0.00    -0.295 OA
ENDROOT
BRANCH   5   9
ATOM      9  C   UNL     1     165.682 199.580 306.470  1.00  0.00    -0.077 C 
ATOM     10  C   UNL     1     166.107 198.356 306.822  1.00  0.00     0.008 C 
ATOM     11  C   UNL     1     164.858 200.368 307.459  1.00  0.00     0.039 C 
ENDBRANCH   5   9
TORSDOF 1
ENDMDL
MODEL 3
REMARK VINA RESULT:    -4.078      1.915      3.141
REMARK INTER + INTRA:          -4.414
REMARK INTER:                  -4.316
REMARK INTRA:                  -0.098
REMARK UNBOUND:                -0.098
REMARK SMILES C=C(C)[C@H]1CC=C(C)C(=O)C1
REMARK SMILES IDX 8 1 7 2 6 3 5 4 4 5 11 6 9 7 10 8 2 9 1 10 3 11
REMARK H PARENT
REMARK Flexibility Score: inf
ROOT
ATOM      1  C   UNL     1     167.978 200.423 299.262  1.00  0.00     0.048 C 
ATOM      2  C   UNL     1     167.177 200.496 300.532  1.00  0.00    -0.012 C 
ATOM      3  C   UNL     1     166.901 199.373 301.215  1.00  0.00    -0.019 C 
ATOM      4  C   UNL     1     166.088 199.389 302.483  1.00  0.00     0.036 C 
ATOM      5  C   UNL     1     166.316 200.691 303.272  1.00  0.00     0.025 C 
ATOM      6  C   UNL     1     166.030 201.914 302.381  1.00  0.00     0.089 C 
ATOM      7  C   UNL     1     166.799 201.819 301.091  1.00  0.00     0.158 C 
ATOM      8  O   UNL     1     167.087 202.876 300.469  1.00  0.00    -0.295 OA
ENDROOT
BRANCH   5   9
ATOM      9  C   UNL     1     165.482 200.725 304.546  1.00  0.00    -0.077 C 
ATOM     10  C   UNL     1     164.460 201.588 304.659  1.00  0.00     0.008 C 
ATOM     11  C   UNL     1     165.776 199.801 305.703  1.00  0.00     0.039 C 
ENDBRANCH   5   9
TORSDOF 1
ENDMDL
MODEL 4
REMARK VINA RESULT:    -3.936      1.864      4.766
REMARK INTER + INTRA:          -4.263
REMARK INTER:                  -4.165
REMARK INTRA:                  -0.098
REMARK UNBOUND:                -0.098
REMARK SMILES C=C(C)[C@H]1CC=C(C)C(=O)C1
REMARK SMILES IDX 8 1 7 2 6 3 5 4 4 5 11 6 9 7 10 8 2 9 1 10 3 11
REMARK H PARENT
REMARK Flexibility Score: inf
ROOT
ATOM      1  C   UNL     1     165.312 199.517 306.967  1.00  0.00     0.048 C 
ATOM      2  C   UNL     1     165.786 199.767 305.562  1.00  0.00    -0.012 C 
ATOM      3  C   UNL     1     166.636 198.906 304.979  1.00  0.00    -0.019 C 
ATOM      4  C   UNL     1     167.155 199.117 303.582  1.00  0.00     0.036 C 
ATOM      5  C   UNL     1     166.106 199.821 302.701  1.00  0.00     0.025 C 
ATOM      6  C   UNL     1     165.651 201.136 303.360  1.00  0.00     0.089 C 
ATOM      7  C   UNL     1     165.217 200.894 304.780  1.00  0.00     0.158 C 
ATOM      8  O   UNL     1     164.392 201.683 305.313  1.00  0.00    -0.295 OA
ENDROOT
BRANCH   5   9
ATOM      9  C   UNL     1     166.629 200.057 301.291  1.00  0.00    -0.077 C 
ATOM     10  C   UNL     1     166.123 201.051 300.543  1.00  0.00     0.008 C 
ATOM     11  C   UNL     1     167.716 199.194 300.700  1.00  0.00     0.039 C 
ENDBRANCH   5   9
TORSDOF 1
ENDMDL
MODEL 5
REMARK VINA RESULT:    -3.874      1.148      4.442
REMARK INTER + INTRA:          -4.198
REMARK INTER:                  -4.100
REMARK INTRA:                  -0.098
REMARK UNBOUND:                -0.098
REMARK SMILES C=C(C)[C@H]1CC=C(C)C(=O)C1
REMARK SMILES IDX 8 1 7 2 6 3 5 4 4 5 11 6 9 7 10 8 2 9 1 10 3 11
REMARK H PARENT
REMARK Flexibility Score: inf
ROOT
ATOM      1  C   UNL     1     165.702 199.597 306.590  1.00  0.00     0.048 C 
ATOM      2  C   UNL     1     165.617 200.105 305.177  1.00  0.00    -0.012 C 
ATOM      3  C   UNL     1     164.858 201.178 304.897  1.00  0.00    -0.019 C 
ATOM      4  C   UNL     1     164.723 201.718 303.497  1.00  0.00     0.036 C 
ATOM      5  C   UNL     1     166.020 201.506 302.694  1.00  0.00     0.025 C 
ATOM      6  C   UNL     1     166.422 200.019 302.710  1.00  0.00     0.089 C 
ATOM      7  C   UNL     1     166.466 199.499 304.121  1.00  0.00     0.158 C 
ATOM      8  O   UNL     1     167.205 198.514 304.389  1.00  0.00    -0.295 OA
ENDROOT
BRANCH   5   9
ATOM      9  C   UNL     1     165.886 202.030 301.271  1.00  0.00    -0.077 C 
ATOM     10  C   UNL     1     164.696 201.998 300.650  1.00  0.00     0.008 C 
ATOM     11  C   UNL     1     167.071 202.595 300.527  1.00  0.00     0.039 C 
ENDBRANCH   5   9
TORSDOF 1
ENDMDL
MODEL 6
REMARK VINA RESULT:    -3.822      1.199      4.515
REMARK INTER + INTRA:          -4.144
REMARK INTER:                  -4.053
REMARK INTRA:                  -0.090
REMARK UNBOUND:                -0.098
REMARK SMILES C=C(C)[C@H]1CC=C(C)C(=O)C1
REMARK SMILES IDX 8 1 7 2 6 3 5 4 4 5 11 6 9 7 10 8 2 9 1 10 3 11
REMARK H PARENT
REMARK Flexibility Score: inf
ROOT
ATOM      1  C   UNL     1     166.201 199.735 305.904  1.00  0.00     0.048 C 
ATOM      2  C   UNL     1     165.659 200.175 304.573  1.00  0.00    -0.012 C 
ATOM      3  C   UNL     1     164.853 201.247 304.500  1.00  0.00    -0.019 C 
ATOM      4  C   UNL     1     164.269 201.721 303.195  1.00  0.00     0.036 C 
ATOM      5  C   UNL     1     165.231 201.445 302.024  1.00  0.00     0.025 C 
ATOM      6  C   UNL     1     165.612 199.953 301.986  1.00  0.00     0.089 C 
ATOM      7  C   UNL     1     166.114 199.501 303.330  1.00  0.00     0.158 C 
ATOM      8  O   UNL     1     166.898 198.517 303.394  1.00  0.00    -0.295 OA
ENDROOT
BRANCH   5   9
ATOM      9  C   UNL     1     164.640 201.901 300.697  1.00  0.00    -0.077 C 
ATOM     10  C   UNL     1     165.447 202.329 299.713  1.00  0.00     0.008 C 
ATOM     11  C   UNL     1     163.152 201.887 300.452  1.00  0.00     0.039 C 
ENDBRANCH   5   9
TORSDOF 1
ENDMDL
MODEL 7
REMARK VINA RESULT:    -3.723      2.491      3.756
REMARK INTER + INTRA:          -4.038
REMARK INTER:                  -3.948
REMARK INTRA:                  -0.090
REMARK UNBOUND:                -0.098
REMARK SMILES C=C(C)[C@H]1CC=C(C)C(=O)C1
REMARK SMILES IDX 8 1 7 2 6 3 5 4 4 5 11 6 9 7 10 8 2 9 1 10 3 11
REMARK H PARENT
REMARK Flexibility Score: inf
ROOT
ATOM      1  C   UNL     1     168.400 199.000 300.387  1.00  0.00     0.048 C 
ATOM      2  C   UNL     1     167.242 199.717 301.023  1.00  0.00    -0.012 C 
ATOM      3  C   UNL     1     166.549 199.126 302.010  1.00  0.00    -0.019 C 
ATOM      4  C   UNL     1     165.370 199.793 302.669  1.00  0.00     0.036 C 
ATOM      5  C   UNL     1     165.550 201.321 302.713  1.00  0.00     0.025 C 
ATOM      6  C   UNL     1     165.815 201.869 301.298  1.00  0.00     0.089 C 
ATOM      7  C   UNL     1     166.945 201.122 300.645  1.00  0.00     0.158 C 
ATOM      8  O   UNL     1     167.617 201.691 299.743  1.00  0.00    -0.295 OA
ENDROOT
BRANCH   5   9
ATOM      9  C   UNL     1     164.354 202.006 303.360  1.00  0.00    -0.077 C 
ATOM     10  C   UNL     1     164.206 201.984 304.694  1.00  0.00     0.008 C 
ATOM     11  C   UNL     1     163.314 202.720 302.532  1.00  0.00     0.039 C 
ENDBRANCH   5   9
TORSDOF 1
ENDMDL
MODEL 8
REMARK VINA RESULT:    -3.722      2.139      5.122
REMARK INTER + INTRA:          -4.038
REMARK INTER:                  -3.940
REMARK INTRA:                  -0.098
REMARK UNBOUND:                -0.098
REMARK SMILES C=C(C)[C@H]1CC=C(C)C(=O)C1
REMARK SMILES IDX 8 1 7 2 6 3 5 4 4 5 11 6 9 7 10 8 2 9 1 10 3 11
REMARK H PARENT
REMARK Flexibility Score: inf
ROOT
ATOM      1  C   UNL     1     165.527 199.757 305.655  1.00  0.00     0.048 C 
ATOM      2  C   UNL     1     166.127 199.931 304.287  1.00  0.00    -0.012 C 
ATOM      3  C   UNL     1     166.729 198.893 303.684  1.00  0.00    -0.019 C 
ATOM      4  C   UNL     1     167.361 199.017 302.322  1.00  0.00     0.036 C 
ATOM      5  C   UNL     1     166.603 200.034 301.450  1.00  0.00     0.025 C 
ATOM      6  C   UNL     1     166.503 201.390 302.173  1.00  0.00     0.089 C 
ATOM      7  C   UNL     1     165.944 201.211 303.557  1.00  0.00     0.158 C 
ATOM      8  O   UNL     1     165.348 202.175 304.108  1.00  0.00    -0.295 OA
ENDROOT
BRANCH   5   9
ATOM      9  C   UNL     1     167.247 200.182 300.078  1.00  0.00    -0.077 C 
ATOM     10  C   UNL     1     167.065 201.306 299.366  1.00  0.00     0.008 C 
ATOM     11  C   UNL     1     168.097 199.085 299.486  1.00  0.00     0.039 C 
ENDBRANCH   5   9
TORSDOF 1
ENDMDL
