MODEL 1
REMARK VINA RESULT:    -5.473      0.000      0.000
REMARK INTER + INTRA:          -5.473
REMARK INTER:                  -5.473
REMARK INTRA:                   0.000
REMARK UNBOUND:                 0.000
REMARK SMILES CC(C)=C1CC[C@H](C)CC1=O
REMARK SMILES IDX 8 1 7 2 6 3 5 4 4 5 2 6 1 7 3 8 10 9 11 10 9 11
REMARK H PARENT
REMARK Flexibility Score: inf
ROOT
ATOM      1  C   UNL     1      -5.048  -7.863  11.988  1.00  0.00     0.008 C 
ATOM      2  C   UNL     1      -6.575  -7.882  12.121  1.00  0.00    -0.006 C 
ATOM      3  C   UNL     1      -7.072  -9.299  12.449  1.00  0.00     0.008 C 
ATOM      4  C   UNL     1      -8.605  -9.358  12.486  1.00  0.00     0.039 C 
ATOM      5  C   UNL     1      -9.209  -8.301  13.399  1.00  0.00    -0.006 C 
ATOM      6  C   UNL     1     -10.374  -8.528  14.075  1.00  0.00    -0.070 C 
ATOM      7  C   UNL     1     -10.953  -7.508  15.028  1.00  0.00     0.039 C 
ATOM      8  C   UNL     1     -11.122  -9.833  13.930  1.00  0.00     0.039 C 
ATOM      9  C   UNL     1      -8.518  -6.976  13.416  1.00  0.00     0.159 C 
ATOM     10  O   UNL     1      -9.159  -5.906  13.595  1.00  0.00    -0.295 OA
ATOM     11  C   UNL     1      -7.033  -6.900  13.210  1.00  0.00     0.084 C 
ENDROOT
TORSDOF 0
ENDMDL
MODEL 2
REMARK VINA RESULT:    -5.407      1.531      4.087
REMARK INTER + INTRA:          -5.407
REMARK INTER:                  -5.407
REMARK INTRA:                   0.000
REMARK UNBOUND:                 0.000
REMARK SMILES CC(C)=C1CC[C@H](C)CC1=O
REMARK SMILES IDX 8 1 7 2 6 3 5 4 4 5 2 6 1 7 3 8 10 9 11 10 9 11
REMARK H PARENT
REMARK Flexibility Score: inf
ROOT
ATOM      1  C   UNL     1     -11.123  -7.606  15.353  1.00  0.00     0.008 C 
ATOM      2  C   UNL     1      -9.840  -7.568  14.516  1.00  0.00    -0.006 C 
ATOM      3  C   UNL     1      -9.917  -8.581  13.361  1.00  0.00     0.008 C 
ATOM      4  C   UNL     1      -8.601  -8.629  12.574  1.00  0.00     0.039 C 
ATOM      5  C   UNL     1      -8.145  -7.252  12.114  1.00  0.00    -0.006 C 
ATOM      6  C   UNL     1      -7.450  -7.087  10.950  1.00  0.00    -0.070 C 
ATOM      7  C   UNL     1      -7.040  -5.719  10.455  1.00  0.00     0.039 C 
ATOM      8  C   UNL     1      -7.089  -8.267  10.078  1.00  0.00     0.039 C 
ATOM      9  C   UNL     1      -8.399  -6.126  13.062  1.00  0.00     0.159 C 
ATOM     10  O   UNL     1      -7.617  -5.140  13.133  1.00  0.00    -0.295 OA
ATOM     11  C   UNL     1      -9.601  -6.156  13.961  1.00  0.00     0.084 C 
ENDROOT
TORSDOF 0
ENDMDL
MODEL 3
REMARK VINA RESULT:    -5.267      1.584      4.481
REMARK INTER + INTRA:          -5.267
REMARK INTER:                  -5.267
REMARK INTRA:                   0.000
REMARK UNBOUND:                 0.000
REMARK SMILES CC(C)=C1CC[C@H](C)CC1=O
REMARK SMILES IDX 8 1 7 2 6 3 5 4 4 5 2 6 1 7 3 8 10 9 11 10 9 11
REMARK H PARENT
REMARK Flexibility Score: inf
ROOT
ATOM      1  C   UNL     1     -11.119 -10.125  13.993  1.00  0.00     0.008 C 
ATOM      2  C   UNL     1     -10.242  -9.081  13.292  1.00  0.00    -0.006 C 
ATOM      3  C   UNL     1      -9.896  -7.932  14.254  1.00  0.00     0.008 C 
ATOM      4  C   UNL     1      -9.104  -6.828  13.542  1.00  0.00     0.039 C 
ATOM      5  C   UNL     1      -7.882  -7.365  12.809  1.00  0.00    -0.006 C 
ATOM      6  C   UNL     1      -6.749  -6.614  12.673  1.00  0.00    -0.070 C 
ATOM      7  C   UNL     1      -5.511  -7.157  11.997  1.00  0.00     0.039 C 
ATOM      8  C   UNL     1      -6.668  -5.211  13.228  1.00  0.00     0.039 C 
ATOM      9  C   UNL     1      -8.042  -8.700  12.158  1.00  0.00     0.159 C 
ATOM     10  O   UNL     1      -7.428  -8.987  11.095  1.00  0.00    -0.295 OA
ATOM     11  C   UNL     1      -8.953  -9.728  12.763  1.00  0.00     0.084 C 
ENDROOT
TORSDOF 0
ENDMDL
MODEL 4
REMARK VINA RESULT:    -5.226      1.802      2.680
REMARK INTER + INTRA:          -5.226
REMARK INTER:                  -5.226
REMARK INTRA:                   0.000
REMARK UNBOUND:                 0.000
REMARK SMILES CC(C)=C1CC[C@H](C)CC1=O
REMARK SMILES IDX 8 1 7 2 6 3 5 4 4 5 2 6 1 7 3 8 10 9 11 10 9 11
REMARK H PARENT
REMARK Flexibility Score: inf
ROOT
ATOM      1  C   UNL     1      -6.510  -9.061   9.848  1.00  0.00     0.008 C 
ATOM      2  C   UNL     1      -6.917  -8.360  11.148  1.00  0.00    -0.006 C 
ATOM      3  C   UNL     1      -7.693  -7.067  10.846  1.00  0.00     0.008 C 
ATOM      4  C   UNL     1      -8.021  -6.300  12.134  1.00  0.00     0.039 C 
ATOM      5  C   UNL     1      -8.717  -7.170  13.171  1.00  0.00    -0.006 C 
ATOM      6  C   UNL     1      -9.628  -6.645  14.042  1.00  0.00    -0.070 C 
ATOM      7  C   UNL     1     -10.366  -7.509  15.039  1.00  0.00     0.039 C 
ATOM      8  C   UNL     1      -9.971  -5.173  14.024  1.00  0.00     0.039 C 
ATOM      9  C   UNL     1      -8.258  -8.589  13.251  1.00  0.00     0.159 C 
ATOM     10  O   UNL     1      -8.260  -9.218  14.344  1.00  0.00    -0.295 OA
ATOM     11  C   UNL     1      -7.772  -9.294  12.018  1.00  0.00     0.084 C 
ENDROOT
TORSDOF 0
ENDMDL
MODEL 5
REMARK VINA RESULT:    -5.203     14.656     16.703
REMARK INTER + INTRA:          -5.203
REMARK INTER:                  -5.203
REMARK INTRA:                   0.000
REMARK UNBOUND:                 0.000
REMARK SMILES CC(C)=C1CC[C@H](C)CC1=O
REMARK SMILES IDX 8 1 7 2 6 3 5 4 4 5 2 6 1 7 3 8 10 9 11 10 9 11
REMARK H PARENT
REMARK Flexibility Score: inf
ROOT
ATOM      1  C   UNL     1       2.736   6.002   9.382  1.00  0.00     0.008 C 
ATOM      2  C   UNL     1       3.095   4.876  10.358  1.00  0.00    -0.006 C 
ATOM      3  C   UNL     1       3.837   5.437  11.582  1.00  0.00     0.008 C 
ATOM      4  C   UNL     1       4.294   4.313  12.521  1.00  0.00     0.039 C 
ATOM      5  C   UNL     1       3.157   3.374  12.905  1.00  0.00    -0.006 C 
ATOM      6  C   UNL     1       3.128   2.757  14.123  1.00  0.00    -0.070 C 
ATOM      7  C   UNL     1       1.978   1.869  14.536  1.00  0.00     0.039 C 
ATOM      8  C   UNL     1       4.231   2.966  15.134  1.00  0.00     0.039 C 
ATOM      9  C   UNL     1       2.156   3.085  11.835  1.00  0.00     0.159 C 
ATOM     10  O   UNL     1       1.574   1.969  11.768  1.00  0.00    -0.295 OA
ATOM     11  C   UNL     1       1.830   4.129  10.807  1.00  0.00     0.084 C 
ENDROOT
TORSDOF 0
ENDMDL
MODEL 6
REMARK VINA RESULT:    -5.159      1.567      2.433
REMARK INTER + INTRA:          -5.159
REMARK INTER:                  -5.159
REMARK INTRA:                   0.000
REMARK UNBOUND:                 0.000
REMARK SMILES CC(C)=C1CC[C@H](C)CC1=O
REMARK SMILES IDX 8 1 7 2 6 3 5 4 4 5 2 6 1 7 3 8 10 9 11 10 9 11
REMARK H PARENT
REMARK Flexibility Score: inf
ROOT
ATOM      1  C   UNL     1      -5.339  -6.403  11.164  1.00  0.00     0.008 C 
ATOM      2  C   UNL     1      -6.261  -7.145  12.137  1.00  0.00    -0.006 C 
ATOM      3  C   UNL     1      -7.094  -6.148  12.960  1.00  0.00     0.008 C 
ATOM      4  C   UNL     1      -7.949  -6.869  14.011  1.00  0.00     0.039 C 
ATOM      5  C   UNL     1      -8.796  -7.982  13.410  1.00  0.00    -0.006 C 
ATOM      6  C   UNL     1     -10.016  -8.305  13.932  1.00  0.00    -0.070 C 
ATOM      7  C   UNL     1     -10.891  -9.369  13.311  1.00  0.00     0.039 C 
ATOM      8  C   UNL     1     -10.569  -7.582  15.138  1.00  0.00     0.039 C 
ATOM      9  C   UNL     1      -8.164  -8.765  12.306  1.00  0.00     0.159 C 
ATOM     10  O   UNL     1      -8.425  -9.986  12.137  1.00  0.00    -0.295 OA
ATOM     11  C   UNL     1      -7.191  -8.101  11.375  1.00  0.00     0.084 C 
ENDROOT
TORSDOF 0
ENDMDL
MODEL 7
REMARK VINA RESULT:    -5.107     14.504     16.540
REMARK INTER + INTRA:          -5.107
REMARK INTER:                  -5.107
REMARK INTRA:                   0.000
REMARK UNBOUND:                 0.000
REMARK SMILES CC(C)=C1CC[C@H](C)CC1=O
REMARK SMILES IDX 8 1 7 2 6 3 5 4 4 5 2 6 1 7 3 8 10 9 11 10 9 11
REMARK H PARENT
REMARK Flexibility Score: inf
ROOT
ATOM      1  C   UNL     1       2.797   0.483  15.849  1.00  0.00     0.008 C 
ATOM      2  C   UNL     1       2.725   1.727  14.957  1.00  0.00    -0.006 C 
ATOM      3  C   UNL     1       4.083   2.448  14.922  1.00  0.00     0.008 C 
ATOM      4  C   UNL     1       4.003   3.751  14.117  1.00  0.00     0.039 C 
ATOM      5  C   UNL     1       3.416   3.543  12.727  1.00  0.00    -0.006 C 
ATOM      6  C   UNL     1       3.809   4.312  11.669  1.00  0.00    -0.070 C 
ATOM      7  C   UNL     1       3.276   4.078  10.274  1.00  0.00     0.039 C 
ATOM      8  C   UNL     1       4.829   5.414  11.837  1.00  0.00     0.039 C 
ATOM      9  C   UNL     1       2.316   2.539  12.623  1.00  0.00     0.159 C 
ATOM     10  O   UNL     1       1.384   2.673  11.785  1.00  0.00    -0.295 OA
ATOM     11  C   UNL     1       2.299   1.344  13.531  1.00  0.00     0.084 C 
ENDROOT
TORSDOF 0
ENDMDL
MODEL 8
REMARK VINA RESULT:    -5.063     10.261     11.606
REMARK INTER + INTRA:          -5.063
REMARK INTER:                  -5.063
REMARK INTRA:                   0.000
REMARK UNBOUND:                 0.000
REMARK SMILES CC(C)=C1CC[C@H](C)CC1=O
REMARK SMILES IDX 8 1 7 2 6 3 5 4 4 5 2 6 1 7 3 8 10 9 11 10 9 11
REMARK H PARENT
REMARK Flexibility Score: inf
ROOT
ATOM      1  C   UNL     1       2.388  -3.338  20.142  1.00  0.00     0.008 C 
ATOM      2  C   UNL     1       1.561  -4.582  20.485  1.00  0.00    -0.006 C 
ATOM      3  C   UNL     1       0.076  -4.351  20.161  1.00  0.00     0.008 C 
ATOM      4  C   UNL     1      -0.782  -5.548  20.592  1.00  0.00     0.039 C 
ATOM      5  C   UNL     1      -0.261  -6.869  20.041  1.00  0.00    -0.006 C 
ATOM      6  C   UNL     1      -1.111  -7.894  19.736  1.00  0.00    -0.070 C 
ATOM      7  C   UNL     1      -0.612  -9.188  19.136  1.00  0.00     0.039 C 
ATOM      8  C   UNL     1      -2.601  -7.766  19.949  1.00  0.00     0.039 C 
ATOM      9  C   UNL     1       1.224  -7.010  19.969  1.00  0.00     0.159 C 
ATOM     10  O   UNL     1       1.783  -8.128  20.124  1.00  0.00    -0.295 OA
ATOM     11  C   UNL     1       2.082  -5.805  19.715  1.00  0.00     0.084 C 
ENDROOT
TORSDOF 0
ENDMDL
MODEL 9
REMARK VINA RESULT:    -5.000     10.782     12.016
REMARK INTER + INTRA:          -5.000
REMARK INTER:                  -5.000
REMARK INTRA:                   0.000
REMARK UNBOUND:                 0.000
REMARK SMILES CC(C)=C1CC[C@H](C)CC1=O
REMARK SMILES IDX 8 1 7 2 6 3 5 4 4 5 2 6 1 7 3 8 10 9 11 10 9 11
REMARK H PARENT
REMARK Flexibility Score: inf
ROOT
ATOM      1  C   UNL     1      -6.273  -2.787   2.115  1.00  0.00     0.008 C 
ATOM      2  C   UNL     1      -5.812  -4.221   1.838  1.00  0.00    -0.006 C 
ATOM      3  C   UNL     1      -4.333  -4.398   2.222  1.00  0.00     0.008 C 
ATOM      4  C   UNL     1      -3.825  -5.799   1.857  1.00  0.00     0.039 C 
ATOM      5  C   UNL     1      -4.710  -6.904   2.417  1.00  0.00    -0.006 C 
ATOM      6  C   UNL     1      -4.189  -8.113   2.783  1.00  0.00    -0.070 C 
ATOM      7  C   UNL     1      -5.048  -9.197   3.392  1.00  0.00     0.039 C 
ATOM      8  C   UNL     1      -2.715  -8.409   2.632  1.00  0.00     0.039 C 
ATOM      9  C   UNL     1      -6.178  -6.628   2.427  1.00  0.00     0.159 C 
ATOM     10  O   UNL     1      -7.019  -7.554   2.275  1.00  0.00    -0.295 OA
ATOM     11  C   UNL     1      -6.678  -5.225   2.615  1.00  0.00     0.084 C 
ENDROOT
TORSDOF 0
ENDMDL
