MODEL 1
REMARK VINA RESULT:     2.138      0.000      0.000
REMARK INTER + INTRA:           2.480
REMARK INTER:                   2.513
REMARK INTRA:                  -0.032
REMARK UNBOUND:                -0.032
REMARK SMILES O=C([O-])CCC(=O)[O-]
REMARK SMILES IDX 4 1 2 2 1 3 3 4 5 5 6 6 7 7 8 8
REMARK H PARENT
REMARK Flexibility Score: inf
ROOT
ATOM      1  C   UNL     1      11.392  13.059  16.336  1.00  0.00     0.059 C 
ENDROOT
BRANCH   1   2
ATOM      2  C   UNL     1      12.662  12.678  17.035  1.00  0.00     0.042 C 
ATOM      3  O   UNL     1      12.715  11.628  17.728  1.00  0.00    -0.550 OA
ATOM      4  O   UNL     1      13.798  13.463  16.888  1.00  0.00    -0.550 OA
ENDBRANCH   1   2
BRANCH   1   5
ATOM      5  C   UNL     1      10.346  11.943  16.420  1.00  0.00     0.059 C 
BRANCH   5   6
ATOM      6  C   UNL     1       9.082  12.318  15.709  1.00  0.00     0.042 C 
ATOM      7  O   UNL     1       8.907  11.984  14.507  1.00  0.00    -0.550 OA
ATOM      8  O   UNL     1       8.079  13.000  16.386  1.00  0.00    -0.550 OA
ENDBRANCH   5   6
ENDBRANCH   1   5
TORSDOF 3
ENDMDL
MODEL 2
REMARK VINA RESULT:     2.157      0.054      4.340
REMARK INTER + INTRA:           2.503
REMARK INTER:                   2.535
REMARK INTRA:                  -0.032
REMARK UNBOUND:                -0.032
REMARK SMILES O=C([O-])CCC(=O)[O-]
REMARK SMILES IDX 4 1 2 2 1 3 3 4 5 5 6 6 7 7 8 8
REMARK H PARENT
REMARK Flexibility Score: inf
ROOT
ATOM      1  C   UNL     1      10.370  11.958  16.448  1.00  0.00     0.059 C 
ENDROOT
BRANCH   1   2
ATOM      2  C   UNL     1       9.119  12.318  15.706  1.00  0.00     0.042 C 
ATOM      3  O   UNL     1       8.968  11.963  14.508  1.00  0.00    -0.550 OA
ATOM      4  O   UNL     1       8.104  13.011  16.352  1.00  0.00    -0.550 OA
ENDBRANCH   1   2
BRANCH   1   5
ATOM      5  C   UNL     1      11.430  13.058  16.331  1.00  0.00     0.059 C 
BRANCH   5   6
ATOM      6  C   UNL     1      12.688  12.690  17.059  1.00  0.00     0.042 C 
ATOM      7  O   UNL     1      12.715  11.678  17.808  1.00  0.00    -0.550 OA
ATOM      8  O   UNL     1      13.841  13.443  16.877  1.00  0.00    -0.550 OA
ENDBRANCH   5   6
ENDBRANCH   1   5
TORSDOF 3
ENDMDL
