MODEL 1
REMARK VINA RESULT:    -3.064      0.000      0.000
REMARK INTER + INTRA:          -3.944
REMARK INTER:                  -3.601
REMARK INTRA:                  -0.343
REMARK UNBOUND:                -0.343
REMARK SMILES [NH3+][C@@H](CO)C(=O)[O-]
REMARK SMILES IDX 3 1 2 2 1 3 5 7 6 8 7 9 4 10
REMARK H PARENT 1 4 1 5 1 6 4 11
REMARK Flexibility Score: inf
ROOT
ATOM      1  C   UNL     1      18.924   7.827  24.676  1.00  0.00     0.227 C 
ENDROOT
BRANCH   1   2
ATOM      2  C   UNL     1      17.613   8.617  24.509  1.00  0.00     0.253 C 
BRANCH   2   3
ATOM      3  N   UNL     1      17.552   9.726  25.469  1.00  0.00    -0.348 N 
ATOM      4  H   UNL     1      18.308  10.419  25.260  1.00  0.00     0.345 HD
ATOM      5  H   UNL     1      16.622  10.206  25.421  1.00  0.00     0.345 HD
ATOM      6  H   UNL     1      17.699   9.363  26.438  1.00  0.00     0.345 HD
ENDBRANCH   2   3
BRANCH   2   7
ATOM      7  C   UNL     1      16.421   7.712  24.673  1.00  0.00     0.102 C 
ATOM      8  O   UNL     1      15.713   7.768  25.715  1.00  0.00    -0.544 OA
ATOM      9  O   UNL     1      16.101   6.798  23.678  1.00  0.00    -0.544 OA
ENDBRANCH   2   7
ENDBRANCH   1   2
BRANCH   1  10
ATOM     10  O   UNL     1      18.715   6.671  25.445  1.00  0.00    -0.390 OA
ATOM     11  H   UNL     1      18.741   5.903  24.817  1.00  0.00     0.210 HD
ENDBRANCH   1  10
TORSDOF 4
ENDMDL
MODEL 2
REMARK VINA RESULT:    -2.820      2.184      2.922
REMARK INTER + INTRA:          -3.657
REMARK INTER:                  -3.287
REMARK INTRA:                  -0.371
REMARK UNBOUND:                -0.343
REMARK SMILES [NH3+][C@@H](CO)C(=O)[O-]
REMARK SMILES IDX 3 1 2 2 1 3 5 7 6 8 7 9 4 10
REMARK H PARENT 1 4 1 5 1 6 4 11
REMARK Flexibility Score: inf
ROOT
ATOM      1  C   UNL     1      16.321   9.350  25.485  1.00  0.00     0.227 C 
ENDROOT
BRANCH   1   2
ATOM      2  C   UNL     1      16.746   8.089  24.710  1.00  0.00     0.253 C 
BRANCH   2   3
ATOM      3  N   UNL     1      16.647   6.899  25.563  1.00  0.00    -0.348 N 
ATOM      4  H   UNL     1      16.498   7.187  26.559  1.00  0.00     0.345 HD
ATOM      5  H   UNL     1      15.852   6.290  25.259  1.00  0.00     0.345 HD
ATOM      6  H   UNL     1      17.536   6.351  25.510  1.00  0.00     0.345 HD
ENDBRANCH   2   3
BRANCH   2   7
ATOM      7  C   UNL     1      18.146   8.239  24.175  1.00  0.00     0.102 C 
ATOM      8  O   UNL     1      19.117   7.690  24.761  1.00  0.00    -0.544 OA
ATOM      9  O   UNL     1      18.375   8.997  23.034  1.00  0.00    -0.544 OA
ENDBRANCH   2   7
ENDBRANCH   1   2
BRANCH   1  10
ATOM     10  O   UNL     1      17.439  10.125  25.828  1.00  0.00    -0.390 OA
ATOM     11  H   UNL     1      18.011   9.557  26.408  1.00  0.00     0.210 HD
ENDBRANCH   1  10
TORSDOF 4
ENDMDL
MODEL 3
REMARK VINA RESULT:    -2.818      1.969      2.058
REMARK INTER + INTRA:          -3.655
REMARK INTER:                  -3.402
REMARK INTRA:                  -0.253
REMARK UNBOUND:                -0.343
REMARK SMILES [NH3+][C@@H](CO)C(=O)[O-]
REMARK SMILES IDX 3 1 2 2 1 3 5 7 6 8 7 9 4 10
REMARK H PARENT 1 4 1 5 1 6 4 11
REMARK Flexibility Score: inf
ROOT
ATOM      1  C   UNL     1      19.364   7.176  24.375  1.00  0.00     0.227 C 
ENDROOT
BRANCH   1   2
ATOM      2  C   UNL     1      18.451   7.755  23.279  1.00  0.00     0.253 C 
BRANCH   2   3
ATOM      3  N   UNL     1      19.226   8.566  22.333  1.00  0.00    -0.348 N 
ATOM      4  H   UNL     1      19.907   7.960  21.820  1.00  0.00     0.345 HD
ATOM      5  H   UNL     1      18.594   9.036  21.643  1.00  0.00     0.345 HD
ATOM      6  H   UNL     1      19.765   9.296  22.853  1.00  0.00     0.345 HD
ENDBRANCH   2   3
BRANCH   2   7
ATOM      7  C   UNL     1      17.341   8.571  23.886  1.00  0.00     0.102 C 
ATOM      8  O   UNL     1      17.597   9.473  24.729  1.00  0.00    -0.544 OA
ATOM      9  O   UNL     1      16.021   8.323  23.530  1.00  0.00    -0.544 OA
ENDBRANCH   2   7
ENDBRANCH   1   2
BRANCH   1  10
ATOM     10  O   UNL     1      18.613   6.778  25.491  1.00  0.00    -0.390 OA
ATOM     11  H   UNL     1      19.055   7.174  26.287  1.00  0.00     0.210 HD
ENDBRANCH   1  10
TORSDOF 4
ENDMDL
MODEL 4
REMARK VINA RESULT:    -2.808      2.727      3.206
REMARK INTER + INTRA:          -3.643
REMARK INTER:                  -3.426
REMARK INTRA:                  -0.217
REMARK UNBOUND:                -0.343
REMARK SMILES [NH3+][C@@H](CO)C(=O)[O-]
REMARK SMILES IDX 3 1 2 2 1 3 5 7 6 8 7 9 4 10
REMARK H PARENT 1 4 1 5 1 6 4 11
REMARK Flexibility Score: inf
ROOT
ATOM      1  C   UNL     1      18.552   5.837  23.194  1.00  0.00     0.227 C 
ENDROOT
BRANCH   1   2
ATOM      2  C   UNL     1      19.076   6.956  24.113  1.00  0.00     0.253 C 
BRANCH   2   3
ATOM      3  N   UNL     1      18.617   6.750  25.492  1.00  0.00    -0.348 N 
ATOM      4  H   UNL     1      17.653   6.344  25.489  1.00  0.00     0.345 HD
ATOM      5  H   UNL     1      19.262   6.104  26.004  1.00  0.00     0.345 HD
ATOM      6  H   UNL     1      18.584   7.667  25.993  1.00  0.00     0.345 HD
ENDBRANCH   2   3
BRANCH   2   7
ATOM      7  C   UNL     1      18.640   8.306  23.608  1.00  0.00     0.102 C 
ATOM      8  O   UNL     1      19.068   8.746  22.507  1.00  0.00    -0.544 OA
ATOM      9  O   UNL     1      17.773   9.083  24.365  1.00  0.00    -0.544 OA
ENDBRANCH   2   7
ENDBRANCH   1   2
BRANCH   1  10
ATOM     10  O   UNL     1      19.020   6.009  21.882  1.00  0.00    -0.390 OA
ATOM     11  H   UNL     1      19.687   6.744  21.912  1.00  0.00     0.210 HD
ENDBRANCH   1  10
TORSDOF 4
ENDMDL
MODEL 5
REMARK VINA RESULT:    -2.779      2.319      2.596
REMARK INTER + INTRA:          -3.609
REMARK INTER:                  -3.220
REMARK INTRA:                  -0.389
REMARK UNBOUND:                -0.343
REMARK SMILES [NH3+][C@@H](CO)C(=O)[O-]
REMARK SMILES IDX 3 1 2 2 1 3 5 7 6 8 7 9 4 10
REMARK H PARENT 1 4 1 5 1 6 4 11
REMARK Flexibility Score: inf
ROOT
ATOM      1  C   UNL     1      17.488   9.025  24.467  1.00  0.00     0.227 C 
ENDROOT
BRANCH   1   2
ATOM      2  C   UNL     1      16.121   8.326  24.353  1.00  0.00     0.253 C 
BRANCH   2   3
ATOM      3  N   UNL     1      15.445   8.712  23.109  1.00  0.00    -0.348 N 
ATOM      4  H   UNL     1      16.133   8.728  22.320  1.00  0.00     0.345 HD
ATOM      5  H   UNL     1      14.675   8.039  22.882  1.00  0.00     0.345 HD
ATOM      6  H   UNL     1      15.040   9.671  23.210  1.00  0.00     0.345 HD
ENDBRANCH   2   3
BRANCH   2   7
ATOM      7  C   UNL     1      15.257   8.647  25.544  1.00  0.00     0.102 C 
ATOM      8  O   UNL     1      15.238   7.882  26.545  1.00  0.00    -0.544 OA
ATOM      9  O   UNL     1      14.464   9.787  25.539  1.00  0.00    -0.544 OA
ENDBRANCH   2   7
ENDBRANCH   1   2
BRANCH   1  10
ATOM     10  O   UNL     1      17.550   9.813  25.627  1.00  0.00    -0.390 OA
ATOM     11  H   UNL     1      16.674  10.274  25.704  1.00  0.00     0.210 HD
ENDBRANCH   1  10
TORSDOF 4
ENDMDL
MODEL 6
REMARK VINA RESULT:    -2.774      2.332      2.909
REMARK INTER + INTRA:          -3.604
REMARK INTER:                  -3.383
REMARK INTRA:                  -0.221
REMARK UNBOUND:                -0.343
REMARK SMILES [NH3+][C@@H](CO)C(=O)[O-]
REMARK SMILES IDX 3 1 2 2 1 3 5 7 6 8 7 9 4 10
REMARK H PARENT 1 4 1 5 1 6 4 11
REMARK Flexibility Score: inf
ROOT
ATOM      1  C   UNL     1      17.999   8.624  24.510  1.00  0.00     0.227 C 
ENDROOT
BRANCH   1   2
ATOM      2  C   UNL     1      18.476   8.681  23.048  1.00  0.00     0.253 C 
BRANCH   2   3
ATOM      3  N   UNL     1      17.715   9.683  22.294  1.00  0.00    -0.348 N 
ATOM      4  H   UNL     1      16.720   9.694  22.620  1.00  0.00     0.345 HD
ATOM      5  H   UNL     1      18.129  10.636  22.421  1.00  0.00     0.345 HD
ATOM      6  H   UNL     1      17.723   9.441  21.276  1.00  0.00     0.345 HD
ENDBRANCH   2   3
BRANCH   2   7
ATOM      7  C   UNL     1      18.358   7.329  22.396  1.00  0.00     0.102 C 
ATOM      8  O   UNL     1      18.337   7.224  21.140  1.00  0.00    -0.544 OA
ATOM      9  O   UNL     1      18.257   6.186  23.180  1.00  0.00    -0.544 OA
ENDBRANCH   2   7
ENDBRANCH   1   2
BRANCH   1  10
ATOM     10  O   UNL     1      19.017   8.143  25.349  1.00  0.00    -0.390 OA
ATOM     11  H   UNL     1      18.655   7.339  25.803  1.00  0.00     0.210 HD
ENDBRANCH   1  10
TORSDOF 4
ENDMDL
MODEL 7
REMARK VINA RESULT:    -2.763      2.144      2.541
REMARK INTER + INTRA:          -3.590
REMARK INTER:                  -3.584
REMARK INTRA:                  -0.005
REMARK UNBOUND:                -0.343
REMARK SMILES [NH3+][C@@H](CO)C(=O)[O-]
REMARK SMILES IDX 3 1 2 2 1 3 5 7 6 8 7 9 4 10
REMARK H PARENT 1 4 1 5 1 6 4 11
REMARK Flexibility Score: inf
ROOT
ATOM      1  C   UNL     1      17.755   7.284  24.553  1.00  0.00     0.227 C 
ENDROOT
BRANCH   1   2
ATOM      2  C   UNL     1      18.215   8.695  24.144  1.00  0.00     0.253 C 
BRANCH   2   3
ATOM      3  N   UNL     1      17.432   9.719  24.845  1.00  0.00    -0.348 N 
ATOM      4  H   UNL     1      16.410   9.539  24.711  1.00  0.00     0.345 HD
ATOM      5  H   UNL     1      17.652   9.717  25.869  1.00  0.00     0.345 HD
ATOM      6  H   UNL     1      17.653  10.663  24.452  1.00  0.00     0.345 HD
ENDBRANCH   2   3
BRANCH   2   7
ATOM      7  C   UNL     1      18.109   8.879  22.653  1.00  0.00     0.102 C 
ATOM      8  O   UNL     1      16.986   8.838  22.083  1.00  0.00    -0.544 OA
ATOM      9  O   UNL     1      19.255   9.081  21.895  1.00  0.00    -0.544 OA
ENDBRANCH   2   7
ENDBRANCH   1   2
BRANCH   1  10
ATOM     10  O   UNL     1      18.613   6.741  25.522  1.00  0.00    -0.390 OA
ATOM     11  H   UNL     1      18.438   5.764  25.540  1.00  0.00     0.210 HD
ENDBRANCH   1  10
TORSDOF 4
ENDMDL
MODEL 8
REMARK VINA RESULT:    -2.739      2.527      3.348
REMARK INTER + INTRA:          -3.562
REMARK INTER:                  -3.331
REMARK INTRA:                  -0.230
REMARK UNBOUND:                -0.343
REMARK SMILES [NH3+][C@@H](CO)C(=O)[O-]
REMARK SMILES IDX 3 1 2 2 1 3 5 7 6 8 7 9 4 10
REMARK H PARENT 1 4 1 5 1 6 4 11
REMARK Flexibility Score: inf
ROOT
ATOM      1  C   UNL     1      16.964   8.522  21.771  1.00  0.00     0.227 C 
ENDROOT
BRANCH   1   2
ATOM      2  C   UNL     1      18.123   9.202  22.523  1.00  0.00     0.253 C 
BRANCH   2   3
ATOM      3  N   UNL     1      19.407   8.890  21.885  1.00  0.00    -0.348 N 
ATOM      4  H   UNL     1      19.567   9.533  21.075  1.00  0.00     0.345 HD
ATOM      5  H   UNL     1      20.194   8.994  22.568  1.00  0.00     0.345 HD
ATOM      6  H   UNL     1      19.395   7.908  21.526  1.00  0.00     0.345 HD
ENDBRANCH   2   3
BRANCH   2   7
ATOM      7  C   UNL     1      18.137   8.783  23.969  1.00  0.00     0.102 C 
ATOM      8  O   UNL     1      17.336   9.301  24.793  1.00  0.00    -0.544 OA
ATOM      9  O   UNL     1      19.047   7.829  24.407  1.00  0.00    -0.544 OA
ENDBRANCH   2   7
ENDBRANCH   1   2
BRANCH   1  10
ATOM     10  O   UNL     1      15.728   8.879  22.331  1.00  0.00    -0.390 OA
ATOM     11  H   UNL     1      15.030   8.587  21.688  1.00  0.00     0.210 HD
ENDBRANCH   1  10
TORSDOF 4
ENDMDL
MODEL 9
REMARK VINA RESULT:    -2.723      1.943      2.340
REMARK INTER + INTRA:          -3.543
REMARK INTER:                  -3.317
REMARK INTRA:                  -0.226
REMARK UNBOUND:                -0.343
REMARK SMILES [NH3+][C@@H](CO)C(=O)[O-]
REMARK SMILES IDX 3 1 2 2 1 3 5 7 6 8 7 9 4 10
REMARK H PARENT 1 4 1 5 1 6 4 11
REMARK Flexibility Score: inf
ROOT
ATOM      1  C   UNL     1      18.396   8.775  22.948  1.00  0.00     0.227 C 
ENDROOT
BRANCH   1   2
ATOM      2  C   UNL     1      17.942   8.603  24.409  1.00  0.00     0.253 C 
BRANCH   2   3
ATOM      3  N   UNL     1      18.922   7.815  25.166  1.00  0.00    -0.348 N 
ATOM      4  H   UNL     1      19.625   8.451  25.607  1.00  0.00     0.345 HD
ATOM      5  H   UNL     1      18.448   7.253  25.912  1.00  0.00     0.345 HD
ATOM      6  H   UNL     1      19.427   7.165  24.520  1.00  0.00     0.345 HD
ENDBRANCH   2   3
BRANCH   2   7
ATOM      7  C   UNL     1      16.583   7.955  24.472  1.00  0.00     0.102 C 
ATOM      8  O   UNL     1      15.670   8.306  23.678  1.00  0.00    -0.544 OA
ATOM      9  O   UNL     1      16.326   6.973  25.420  1.00  0.00    -0.544 OA
ENDBRANCH   2   7
ENDBRANCH   1   2
BRANCH   1  10
ATOM     10  O   UNL     1      17.754   9.872  22.353  1.00  0.00    -0.390 OA
ATOM     11  H   UNL     1      18.173   9.997  21.462  1.00  0.00     0.210 HD
ENDBRANCH   1  10
TORSDOF 4
ENDMDL
