MODEL 1
REMARK VINA RESULT:    -3.403      0.000      0.000
REMARK INTER + INTRA:          -4.284
REMARK INTER:                  -4.000
REMARK INTRA:                  -0.284
REMARK UNBOUND:                -0.284
REMARK SMILES O=c1cc(-c2ccc(O)c(O)c2)oc2cc(O)cc(O)c12
REMARK SMILES IDX 4 1 3 2 2 3 1 4 21 5 19 6 18 7 16 8 15 9 14 10 13 11 5 12
REMARK SMILES IDX 6 13 7 14 8 15 12 16 10 17 9 18 11 20 20 22 17 24
REMARK H PARENT 9 19 11 21 20 23 17 25
REMARK Flexibility Score: inf
ROOT
ATOM      1  C   UNL     1      34.929  21.505  12.011  1.00  0.00     0.138 A 
ATOM      2  C   UNL     1      35.940  22.112  12.770  1.00  0.00     0.100 A 
ATOM      3  C   UNL     1      36.189  21.666  14.069  1.00  0.00     0.197 A 
ATOM      4  O   UNL     1      37.059  22.270  14.748  1.00  0.00    -0.289 OA
ATOM      5  C   UNL     1      35.443  20.586  14.598  1.00  0.00     0.107 A 
ATOM      6  C   UNL     1      35.637  20.020  15.893  1.00  0.00     0.134 A 
ATOM      7  C   UNL     1      34.759  19.030  16.352  1.00  0.00     0.093 A 
ATOM      8  C   UNL     1      33.733  18.542  15.539  1.00  0.00     0.123 A 
ATOM      9  C   UNL     1      33.569  19.049  14.253  1.00  0.00     0.094 A 
ATOM     10  C   UNL     1      34.407  20.062  13.779  1.00  0.00     0.146 A 
ATOM     11  O   UNL     1      34.206  20.529  12.550  1.00  0.00    -0.456 OA
ENDROOT
BRANCH   1  12
ATOM     12  C   UNL     1      34.624  21.939  10.624  1.00  0.00     0.021 A 
ATOM     13  C   UNL     1      33.292  21.926  10.174  1.00  0.00     0.016 A 
ATOM     14  C   UNL     1      32.979  22.323   8.871  1.00  0.00     0.051 A 
ATOM     15  C   UNL     1      33.992  22.728   7.994  1.00  0.00     0.157 A 
ATOM     16  C   UNL     1      35.639  22.335   9.732  1.00  0.00     0.062 A 
ATOM     17  C   UNL     1      35.324  22.731   8.424  1.00  0.00     0.158 A 
BRANCH  15  18
ATOM     18  O   UNL     1      33.683  23.125   6.694  1.00  0.00    -0.504 OA
ATOM     19  H   UNL     1      32.737  23.373   6.426  1.00  0.00     0.293 HD
ENDBRANCH  15  18
BRANCH  17  20
ATOM     20  O   UNL     1      36.331  23.125   7.543  1.00  0.00    -0.504 OA
ATOM     21  H   UNL     1      36.280  22.917   6.552  1.00  0.00     0.293 HD
ENDBRANCH  17  20
ENDBRANCH   1  12
BRANCH   6  22
ATOM     22  O   UNL     1      36.682  20.376  16.752  1.00  0.00    -0.507 OA
ATOM     23  H   UNL     1      36.939  21.322  16.985  1.00  0.00     0.293 HD
ENDBRANCH   6  22
BRANCH   8  24
ATOM     24  O   UNL     1      32.875  17.546  15.999  1.00  0.00    -0.508 OA
ATOM     25  H   UNL     1      32.648  17.454  16.982  1.00  0.00     0.293 HD
ENDBRANCH   8  24
TORSDOF 5
ENDMDL
MODEL 2
REMARK VINA RESULT:    -1.548      1.272      2.818
REMARK INTER + INTRA:          -2.103
REMARK INTER:                  -1.792
REMARK INTRA:                  -0.312
REMARK UNBOUND:                -0.284
REMARK SMILES O=c1cc(-c2ccc(O)c(O)c2)oc2cc(O)cc(O)c12
REMARK SMILES IDX 4 1 3 2 2 3 1 4 21 5 19 6 18 7 16 8 15 9 14 10 13 11 5 12
REMARK SMILES IDX 6 13 7 14 8 15 12 16 10 17 9 18 11 20 20 22 17 24
REMARK H PARENT 9 19 11 21 20 23 17 25
REMARK Flexibility Score: inf
ROOT
ATOM      1  C   UNL     1      34.796  21.465  11.829  1.00  0.00     0.138 A 
ATOM      2  C   UNL     1      33.907  20.655  12.549  1.00  0.00     0.100 A 
ATOM      3  C   UNL     1      34.228  20.266  13.850  1.00  0.00     0.197 A 
ATOM      4  O   UNL     1      33.441  19.488  14.449  1.00  0.00    -0.289 OA
ATOM      5  C   UNL     1      35.431  20.718  14.444  1.00  0.00     0.107 A 
ATOM      6  C   UNL     1      35.842  20.420  15.777  1.00  0.00     0.134 A 
ATOM      7  C   UNL     1      37.109  20.826  16.216  1.00  0.00     0.093 A 
ATOM      8  C   UNL     1      37.953  21.572  15.389  1.00  0.00     0.123 A 
ATOM      9  C   UNL     1      37.539  21.914  14.105  1.00  0.00     0.094 A 
ATOM     10  C   UNL     1      36.295  21.495  13.627  1.00  0.00     0.146 A 
ATOM     11  O   UNL     1      35.945  21.831  12.389  1.00  0.00    -0.456 OA
ENDROOT
BRANCH   1  12
ATOM     12  C   UNL     1      34.504  21.909  10.442  1.00  0.00     0.021 A 
ATOM     13  C   UNL     1      33.176  21.898   9.979  1.00  0.00     0.016 A 
ATOM     14  C   UNL     1      32.875  22.304   8.676  1.00  0.00     0.051 A 
ATOM     15  C   UNL     1      33.896  22.718   7.812  1.00  0.00     0.157 A 
ATOM     16  C   UNL     1      35.527  22.314   9.563  1.00  0.00     0.062 A 
ATOM     17  C   UNL     1      35.224  22.720   8.255  1.00  0.00     0.158 A 
BRANCH  15  18
ATOM     18  O   UNL     1      33.599  23.124   6.513  1.00  0.00    -0.504 OA
ATOM     19  H   UNL     1      32.650  23.112   6.157  1.00  0.00     0.293 HD
ENDBRANCH  15  18
BRANCH  17  20
ATOM     20  O   UNL     1      36.239  23.121   7.387  1.00  0.00    -0.504 OA
ATOM     21  H   UNL     1      36.427  22.623   6.525  1.00  0.00     0.293 HD
ENDBRANCH  17  20
ENDBRANCH   1  12
BRANCH   6  22
ATOM     22  O   UNL     1      35.042  19.754  16.710  1.00  0.00    -0.507 OA
ATOM     23  H   UNL     1      34.888  20.059  17.659  1.00  0.00     0.293 HD
ENDBRANCH   6  22
BRANCH   8  24
ATOM     24  O   UNL     1      39.205  21.984  15.841  1.00  0.00    -0.508 OA
ATOM     25  H   UNL     1      39.827  21.352  16.331  1.00  0.00     0.293 HD
ENDBRANCH   8  24
TORSDOF 5
ENDMDL
MODEL 3
REMARK VINA RESULT:    -1.054     15.432     18.653
REMARK INTER + INTRA:          -1.523
REMARK INTER:                  -1.227
REMARK INTRA:                  -0.296
REMARK UNBOUND:                -0.284
REMARK SMILES O=c1cc(-c2ccc(O)c(O)c2)oc2cc(O)cc(O)c12
REMARK SMILES IDX 4 1 3 2 2 3 1 4 21 5 19 6 18 7 16 8 15 9 14 10 13 11 5 12
REMARK SMILES IDX 6 13 7 14 8 15 12 16 10 17 9 18 11 20 20 22 17 24
REMARK H PARENT 9 19 11 21 20 23 17 25
REMARK Flexibility Score: inf
ROOT
ATOM      1  C   UNL     1      50.564  22.327  19.459  1.00  0.00     0.138 A 
ATOM      2  C   UNL     1      49.221  22.480  19.089  1.00  0.00     0.100 A 
ATOM      3  C   UNL     1      48.842  22.262  17.763  1.00  0.00     0.197 A 
ATOM      4  O   UNL     1      47.642  22.466  17.447  1.00  0.00    -0.289 OA
ATOM      5  C   UNL     1      49.810  21.858  16.812  1.00  0.00     0.107 A 
ATOM      6  C   UNL     1      49.532  21.568  15.443  1.00  0.00     0.134 A 
ATOM      7  C   UNL     1      50.590  21.291  14.568  1.00  0.00     0.093 A 
ATOM      8  C   UNL     1      51.909  21.234  15.027  1.00  0.00     0.123 A 
ATOM      9  C   UNL     1      52.184  21.463  16.372  1.00  0.00     0.094 A 
ATOM     10  C   UNL     1      51.154  21.775  17.263  1.00  0.00     0.146 A 
ATOM     11  O   UNL     1      51.462  22.001  18.536  1.00  0.00    -0.456 OA
ENDROOT
BRANCH   1  12
ATOM     12  C   UNL     1      51.021  22.545  20.856  1.00  0.00     0.021 A 
ATOM     13  C   UNL     1      52.397  22.530  21.143  1.00  0.00     0.016 A 
ATOM     14  C   UNL     1      52.853  22.726  22.449  1.00  0.00     0.051 A 
ATOM     15  C   UNL     1      51.941  22.929  23.492  1.00  0.00     0.157 A 
ATOM     16  C   UNL     1      50.109  22.738  21.912  1.00  0.00     0.062 A 
ATOM     17  C   UNL     1      50.567  22.932  23.223  1.00  0.00     0.158 A 
BRANCH  15  18
ATOM     18  O   UNL     1      52.392  23.125  24.795  1.00  0.00    -0.504 OA
ATOM     19  H   UNL     1      51.937  22.684  25.587  1.00  0.00     0.293 HD
ENDBRANCH  15  18
BRANCH  17  20
ATOM     20  O   UNL     1      49.661  23.123  24.266  1.00  0.00    -0.504 OA
ATOM     21  H   UNL     1      49.248  24.030  24.450  1.00  0.00     0.293 HD
ENDBRANCH  17  20
ENDBRANCH   1  12
BRANCH   6  22
ATOM     22  O   UNL     1      48.244  21.515  14.902  1.00  0.00    -0.507 OA
ATOM     23  H   UNL     1      47.815  20.689  14.514  1.00  0.00     0.293 HD
ENDBRANCH   6  22
BRANCH   8  24
ATOM     24  O   UNL     1      52.953  20.943  14.151  1.00  0.00    -0.508 OA
ATOM     25  H   UNL     1      53.040  20.033  13.713  1.00  0.00     0.293 HD
ENDBRANCH   8  24
TORSDOF 5
ENDMDL
MODEL 4
REMARK VINA RESULT:    -0.708     13.378     15.588
REMARK INTER + INTRA:          -1.116
REMARK INTER:                  -0.843
REMARK INTRA:                  -0.273
REMARK UNBOUND:                -0.284
REMARK SMILES O=c1cc(-c2ccc(O)c(O)c2)oc2cc(O)cc(O)c12
REMARK SMILES IDX 4 1 3 2 2 3 1 4 21 5 19 6 18 7 16 8 15 9 14 10 13 11 5 12
REMARK SMILES IDX 6 13 7 14 8 15 12 16 10 17 9 18 11 20 20 22 17 24
REMARK H PARENT 9 19 11 21 20 23 17 25
REMARK Flexibility Score: inf
ROOT
ATOM      1  C   UNL     1      48.317  22.515  18.216  1.00  0.00     0.138 A 
ATOM      2  C   UNL     1      49.532  22.681  17.537  1.00  0.00     0.100 A 
ATOM      3  C   UNL     1      50.707  22.877  18.265  1.00  0.00     0.197 A 
ATOM      4  O   UNL     1      51.773  23.084  17.629  1.00  0.00    -0.289 OA
ATOM      5  C   UNL     1      50.667  22.875  19.680  1.00  0.00     0.107 A 
ATOM      6  C   UNL     1      51.806  23.025  20.526  1.00  0.00     0.134 A 
ATOM      7  C   UNL     1      51.629  23.125  21.911  1.00  0.00     0.093 A 
ATOM      8  C   UNL     1      50.359  23.019  22.485  1.00  0.00     0.123 A 
ATOM      9  C   UNL     1      49.247  22.819  21.672  1.00  0.00     0.094 A 
ATOM     10  C   UNL     1      49.388  22.750  20.284  1.00  0.00     0.146 A 
ATOM     11  O   UNL     1      48.298  22.573  19.543  1.00  0.00    -0.456 OA
ENDROOT
BRANCH   1  12
ATOM     12  C   UNL     1      47.038  22.302  17.491  1.00  0.00     0.021 A 
ATOM     13  C   UNL     1      45.934  23.123  17.781  1.00  0.00     0.016 A 
ATOM     14  C   UNL     1      44.718  22.938  17.118  1.00  0.00     0.051 A 
ATOM     15  C   UNL     1      44.581  21.924  16.163  1.00  0.00     0.157 A 
ATOM     16  C   UNL     1      46.889  21.275  16.538  1.00  0.00     0.062 A 
ATOM     17  C   UNL     1      45.667  21.090  15.875  1.00  0.00     0.158 A 
BRANCH  15  18
ATOM     18  O   UNL     1      43.370  21.738  15.500  1.00  0.00    -0.504 OA
ATOM     19  H   UNL     1      43.309  21.192  14.648  1.00  0.00     0.293 HD
ENDBRANCH  15  18
BRANCH  17  20
ATOM     20  O   UNL     1      45.524  20.073  14.931  1.00  0.00    -0.504 OA
ATOM     21  H   UNL     1      45.319  20.277  13.959  1.00  0.00     0.293 HD
ENDBRANCH  17  20
ENDBRANCH   1  12
BRANCH   6  22
ATOM     22  O   UNL     1      53.125  23.056  20.061  1.00  0.00    -0.507 OA
ATOM     23  H   UNL     1      53.920  23.353  20.604  1.00  0.00     0.293 HD
ENDBRANCH   6  22
BRANCH   8  24
ATOM     24  O   UNL     1      50.195  23.105  23.866  1.00  0.00    -0.508 OA
ATOM     25  H   UNL     1      49.319  23.402  24.278  1.00  0.00     0.293 HD
ENDBRANCH   8  24
TORSDOF 5
ENDMDL
