MODEL 1
REMARK VINA RESULT:     4.957      0.000      0.000
REMARK INTER + INTRA:           9.604
REMARK INTER:                   6.985
REMARK INTRA:                   2.619
REMARK UNBOUND:                 2.619
REMARK SMILES C[C@@H](CO)CCC(=O)[C@@H](C)[C@H]1C(=O)C[C@H]2[C@@H]3CC=C4C[C@H](O)CC[C@]4(C)[C@@H]3CC[C@]12C
REMARK SMILES IDX 6 1 5 2 2 3 1 4 3 5 4 6 7 8 8 9 9 10 10 11 11 12 12 13 30 14
REMARK SMILES IDX 13 15 14 16 15 17 29 18 31 19 16 20 28 21 27 22 17 23 25 24
REMARK SMILES IDX 18 25 19 26 24 27 26 28 20 29 23 30 21 31 22 32
REMARK H PARENT 4 7 22 33
REMARK Flexibility Score: inf
ROOT
ATOM      1  C   UNL     1      18.869  24.218  25.650  1.00  0.00     0.076 C 
ENDROOT
BRANCH   1   2
ATOM      2  C   UNL     1      18.343  25.066  24.476  1.00  0.00     0.013 C 
BRANCH   2   3
ATOM      3  C   UNL     1      19.114  24.828  23.152  1.00  0.00     0.012 C 
ATOM      4  C   UNL     1      18.290  23.997  22.153  1.00  0.00     0.010 C 
BRANCH   3   5
ATOM      5  C   UNL     1      19.544  26.164  22.511  1.00  0.00     0.159 C 
BRANCH   5   6
ATOM      6  O   UNL     1      20.367  25.950  21.395  1.00  0.00    -0.396 OA
ATOM      7  H   UNL     1      20.508  26.835  20.967  1.00  0.00     0.210 HD
ENDBRANCH   5   6
ENDBRANCH   3   5
ENDBRANCH   2   3
ENDBRANCH   1   2
BRANCH   1   8
ATOM      8  C   UNL     1      20.000  24.903  26.388  1.00  0.00     0.136 C 
ATOM      9  O   UNL     1      19.744  25.903  27.043  1.00  0.00    -0.299 OA
BRANCH   8  10
ATOM     10  C   UNL     1      21.450  24.431  26.306  1.00  0.00     0.064 C 
ATOM     11  C   UNL     1      21.799  23.876  24.908  1.00  0.00     0.017 C 
BRANCH  10  12
ATOM     12  C   UNL     1      22.516  25.493  26.777  1.00  0.00     0.072 C 
ATOM     13  C   UNL     1      22.039  26.600  27.694  1.00  0.00     0.137 C 
ATOM     14  C   UNL     1      23.761  24.951  27.559  1.00  0.00    -0.019 C 
ATOM     15  O   UNL     1      21.043  27.276  27.489  1.00  0.00    -0.299 OA
ATOM     16  C   UNL     1      23.039  26.955  28.749  1.00  0.00     0.080 C 
ATOM     17  C   UNL     1      24.284  26.251  28.208  1.00  0.00     0.007 C 
ATOM     18  C   UNL     1      24.888  24.412  26.652  1.00  0.00     0.008 C 
ATOM     19  C   UNL     1      23.342  23.876  28.618  1.00  0.00     0.012 C 
ATOM     20  C   UNL     1      25.502  26.037  29.143  1.00  0.00     0.001 C 
ATOM     21  C   UNL     1      26.208  24.190  27.445  1.00  0.00     0.005 C 
ATOM     22  C   UNL     1      26.694  25.401  28.337  1.00  0.00     0.003 C 
ATOM     23  C   UNL     1      25.947  27.336  29.827  1.00  0.00     0.031 C 
ATOM     24  C   UNL     1      27.717  26.466  27.669  1.00  0.00    -0.008 C 
ATOM     25  C   UNL     1      26.444  28.315  28.815  1.00  0.00    -0.027 C 
ATOM     26  C   UNL     1      27.208  27.922  27.777  1.00  0.00    -0.065 C 
ATOM     27  C   UNL     1      28.018  26.132  26.170  1.00  0.00     0.014 C 
ATOM     28  C   UNL     1      29.063  26.412  28.448  1.00  0.00     0.016 C 
ATOM     29  C   UNL     1      27.798  29.016  26.902  1.00  0.00     0.063 C 
ATOM     30  C   UNL     1      28.760  27.231  25.390  1.00  0.00     0.033 C 
ATOM     31  C   UNL     1      28.025  28.574  25.451  1.00  0.00     0.118 C 
BRANCH  31  32
ATOM     32  O   UNL     1      26.830  28.531  24.713  1.00  0.00    -0.393 OA
ATOM     33  H   UNL     1      27.048  28.286  23.773  1.00  0.00     0.210 HD
ENDBRANCH  31  32
ENDBRANCH  10  12
ENDBRANCH   8  10
ENDBRANCH   1   8
TORSDOF 8
ENDMDL
MODEL 2
REMARK VINA RESULT:     5.470      1.466      1.968
REMARK INTER + INTRA:          10.328
REMARK INTER:                   9.224
REMARK INTRA:                   1.103
REMARK UNBOUND:                 2.619
REMARK SMILES C[C@@H](CO)CCC(=O)[C@@H](C)[C@H]1C(=O)C[C@H]2[C@@H]3CC=C4C[C@H](O)CC[C@]4(C)[C@@H]3CC[C@]12C
REMARK SMILES IDX 6 1 5 2 2 3 1 4 3 5 4 6 7 8 8 9 9 10 10 11 11 12 12 13 30 14
REMARK SMILES IDX 13 15 14 16 15 17 29 18 31 19 16 20 28 21 27 22 17 23 25 24
REMARK SMILES IDX 18 25 19 26 24 27 26 28 20 29 23 30 21 31 22 32
REMARK H PARENT 4 7 22 33
REMARK Flexibility Score: inf
ROOT
ATOM      1  C   UNL     1      20.006  26.011  25.316  1.00  0.00     0.076 C 
ENDROOT
BRANCH   1   2
ATOM      2  C   UNL     1      19.195  24.744  24.981  1.00  0.00     0.013 C 
BRANCH   2   3
ATOM      3  C   UNL     1      19.408  24.244  23.529  1.00  0.00     0.012 C 
ATOM      4  C   UNL     1      18.077  23.876  22.851  1.00  0.00     0.010 C 
BRANCH   3   5
ATOM      5  C   UNL     1      20.167  25.291  22.686  1.00  0.00     0.159 C 
BRANCH   5   6
ATOM      6  O   UNL     1      19.586  25.438  21.417  1.00  0.00    -0.396 OA
ATOM      7  H   UNL     1      20.177  24.966  20.773  1.00  0.00     0.210 HD
ENDBRANCH   5   6
ENDBRANCH   3   5
ENDBRANCH   2   3
ENDBRANCH   1   2
BRANCH   1   8
ATOM      8  C   UNL     1      20.913  25.808  26.512  1.00  0.00     0.136 C 
ATOM      9  O   UNL     1      21.317  24.679  26.750  1.00  0.00    -0.299 OA
BRANCH   8  10
ATOM     10  C   UNL     1      21.298  26.941  27.461  1.00  0.00     0.064 C 
ATOM     11  C   UNL     1      20.583  26.823  28.824  1.00  0.00     0.017 C 
BRANCH  10  12
ATOM     12  C   UNL     1      22.851  27.141  27.650  1.00  0.00     0.072 C 
ATOM     13  C   UNL     1      23.304  28.265  28.560  1.00  0.00     0.137 C 
ATOM     14  C   UNL     1      23.660  25.927  28.223  1.00  0.00    -0.019 C 
ATOM     15  O   UNL     1      22.881  29.407  28.497  1.00  0.00    -0.299 OA
ATOM     16  C   UNL     1      24.499  27.902  29.384  1.00  0.00     0.080 C 
ATOM     17  C   UNL     1      24.960  26.630  28.670  1.00  0.00     0.007 C 
ATOM     18  C   UNL     1      24.053  24.877  27.162  1.00  0.00     0.008 C 
ATOM     19  C   UNL     1      22.900  25.251  29.414  1.00  0.00     0.012 C 
ATOM     20  C   UNL     1      25.969  25.687  29.375  1.00  0.00     0.001 C 
ATOM     21  C   UNL     1      25.112  23.875  27.710  1.00  0.00     0.005 C 
ATOM     22  C   UNL     1      26.376  24.515  28.409  1.00  0.00     0.003 C 
ATOM     23  C   UNL     1      27.214  26.433  29.872  1.00  0.00     0.031 C 
ATOM     24  C   UNL     1      27.679  24.806  27.489  1.00  0.00    -0.008 C 
ATOM     25  C   UNL     1      27.987  26.983  28.719  1.00  0.00    -0.027 C 
ATOM     26  C   UNL     1      28.158  26.272  27.587  1.00  0.00    -0.065 C 
ATOM     27  C   UNL     1      27.432  24.440  25.987  1.00  0.00     0.014 C 
ATOM     28  C   UNL     1      28.854  23.925  28.006  1.00  0.00     0.016 C 
ATOM     29  C   UNL     1      29.097  26.853  26.543  1.00  0.00     0.063 C 
ATOM     30  C   UNL     1      28.514  24.930  25.007  1.00  0.00     0.033 C 
ATOM     31  C   UNL     1      28.738  26.441  25.110  1.00  0.00     0.118 C 
BRANCH  31  32
ATOM     32  O   UNL     1      27.633  27.153  24.612  1.00  0.00    -0.393 OA
ATOM     33  H   UNL     1      27.301  26.688  23.797  1.00  0.00     0.210 HD
ENDBRANCH  31  32
ENDBRANCH  10  12
ENDBRANCH   8  10
ENDBRANCH   1   8
TORSDOF 8
ENDMDL
