MODEL 1
REMARK VINA RESULT:    -3.773      0.000      0.000
REMARK INTER + INTRA:          -5.503
REMARK INTER:                  -4.986
REMARK INTRA:                  -0.517
REMARK UNBOUND:                -0.517
REMARK SMILES CC(C)=CCC[C@@H](C(=O)[O-])[C@@H]1CC[C@]2(C)C3=C(CC[C@@]12C)[C@]1(C)CC[C@@H](O)C(C)(C)[C@H]1CC3
REMARK SMILES IDX 6 1 7 2 8 3 9 4 10 5 11 6 12 7 20 8 13 9 14 10 19 11 21 12
REMARK SMILES IDX 15 13 16 14 18 15 17 16 33 17 22 18 32 19 31 20 24 21 23 22
REMARK SMILES IDX 28 23 25 24 26 25 29 26 30 27 27 28 5 30 4 31 2 32 1 33 3 34
REMARK H PARENT 27 29
REMARK Flexibility Score: inf
ROOT
ATOM      1  C   UNL     1       7.041 -56.488 567.587  1.00  0.00     0.014 C 
ENDROOT
BRANCH   1   2
ATOM      2  C   UNL     1       8.152 -55.402 567.609  1.00  0.00     0.039 C 
BRANCH   2   3
ATOM      3  C   UNL     1       8.231 -54.789 566.228  1.00  0.00     0.045 C 
ATOM      4  O   UNL     1       9.054 -55.216 565.376  1.00  0.00    -0.550 OA
ATOM      5  O   UNL     1       7.363 -53.756 565.886  1.00  0.00    -0.550 OA
ENDBRANCH   2   3
BRANCH   2   6
ATOM      6  C   UNL     1       8.005 -54.360 568.784  1.00  0.00     0.004 C 
ATOM      7  C   UNL     1       9.047 -53.220 568.818  1.00  0.00     0.006 C 
ATOM      8  C   UNL     1       7.916 -54.824 570.271  1.00  0.00    -0.020 C 
ATOM      9  C   UNL     1       9.125 -52.733 570.296  1.00  0.00     0.012 C 
ATOM     10  C   UNL     1       7.968 -53.454 571.024  1.00  0.00    -0.006 C 
ATOM     11  C   UNL     1       6.620 -55.544 570.685  1.00  0.00     0.012 C 
ATOM     12  C   UNL     1       9.125 -55.743 570.641  1.00  0.00     0.012 C 
ATOM     13  C   UNL     1       6.703 -52.545 570.890  1.00  0.00     0.017 C 
ATOM     14  C   UNL     1       8.114 -53.703 572.521  1.00  0.00    -0.064 C 
ATOM     15  C   UNL     1       6.514 -55.671 572.233  1.00  0.00     0.032 C 
ATOM     16  C   UNL     1       7.364 -54.698 573.097  1.00  0.00    -0.064 C 
ATOM     17  C   UNL     1       9.053 -52.837 573.340  1.00  0.00     0.032 C 
ATOM     18  C   UNL     1       7.470 -54.928 574.628  1.00  0.00    -0.008 C 
ATOM     19  C   UNL     1       8.633 -52.607 574.813  1.00  0.00     0.009 C 
ATOM     20  C   UNL     1       7.489 -53.523 575.330  1.00  0.00     0.007 C 
ATOM     21  C   UNL     1       6.222 -55.720 575.137  1.00  0.00     0.014 C 
ATOM     22  C   UNL     1       8.747 -55.759 574.879  1.00  0.00     0.016 C 
ATOM     23  C   UNL     1       7.276 -53.499 576.902  1.00  0.00    -0.006 C 
ATOM     24  C   UNL     1       6.073 -55.759 576.654  1.00  0.00     0.033 C 
ATOM     25  C   UNL     1       6.009 -54.344 577.253  1.00  0.00     0.120 C 
ATOM     26  C   UNL     1       7.005 -52.034 577.354  1.00  0.00     0.014 C 
ATOM     27  C   UNL     1       8.494 -54.009 577.731  1.00  0.00     0.014 C 
BRANCH  25  28
ATOM     28  O   UNL     1       5.844 -54.434 578.645  1.00  0.00    -0.393 OA
ATOM     29  H   UNL     1       6.699 -54.144 579.062  1.00  0.00     0.210 HD
ENDBRANCH  25  28
ENDBRANCH   2   6
ENDBRANCH   1   2
BRANCH   1  30
ATOM     30  C   UNL     1       7.535 -57.943 567.396  1.00  0.00     0.028 C 
BRANCH  30  31
ATOM     31  C   UNL     1       8.179 -58.191 566.039  1.00  0.00    -0.028 C 
ATOM     32  C   UNL     1       7.561 -58.578 564.903  1.00  0.00    -0.080 C 
ATOM     33  C   UNL     1       6.073 -58.790 564.791  1.00  0.00     0.039 C 
ATOM     34  C   UNL     1       8.414 -58.786 563.675  1.00  0.00     0.039 C 
ENDBRANCH  30  31
ENDBRANCH   1  30
TORSDOF 6
ENDMDL
MODEL 2
REMARK VINA RESULT:    -0.838      1.557      3.057
REMARK INTER + INTRA:          -1.624
REMARK INTER:                  -1.954
REMARK INTRA:                   0.329
REMARK UNBOUND:                -0.517
REMARK SMILES CC(C)=CCC[C@@H](C(=O)[O-])[C@@H]1CC[C@]2(C)C3=C(CC[C@@]12C)[C@]1(C)CC[C@@H](O)C(C)(C)[C@H]1CC3
REMARK SMILES IDX 6 1 7 2 8 3 9 4 10 5 11 6 12 7 20 8 13 9 14 10 19 11 21 12
REMARK SMILES IDX 15 13 16 14 18 15 17 16 33 17 22 18 32 19 31 20 24 21 23 22
REMARK SMILES IDX 28 23 25 24 26 25 29 26 30 27 27 28 5 30 4 31 2 32 1 33 3 34
REMARK H PARENT 27 29
REMARK Flexibility Score: inf
ROOT
ATOM      1  C   UNL     1       9.114 -56.681 567.665  1.00  0.00     0.014 C 
ENDROOT
BRANCH   1   2
ATOM      2  C   UNL     1       8.149 -55.840 568.546  1.00  0.00     0.039 C 
BRANCH   2   3
ATOM      3  C   UNL     1       6.793 -55.835 567.877  1.00  0.00     0.045 C 
ATOM      4  O   UNL     1       5.783 -56.318 568.455  1.00  0.00    -0.550 OA
ATOM      5  O   UNL     1       6.653 -55.266 566.614  1.00  0.00    -0.550 OA
ENDBRANCH   2   3
BRANCH   2   6
ATOM      6  C   UNL     1       8.133 -56.269 570.064  1.00  0.00     0.004 C 
ATOM      7  C   UNL     1       7.150 -57.400 570.442  1.00  0.00     0.006 C 
ATOM      8  C   UNL     1       7.943 -55.219 571.201  1.00  0.00    -0.020 C 
ATOM      9  C   UNL     1       6.837 -57.228 571.958  1.00  0.00     0.012 C 
ATOM     10  C   UNL     1       7.818 -56.144 572.456  1.00  0.00    -0.006 C 
ATOM     11  C   UNL     1       9.115 -54.250 571.439  1.00  0.00     0.012 C 
ATOM     12  C   UNL     1       6.650 -54.372 570.965  1.00  0.00     0.012 C 
ATOM     13  C   UNL     1       9.125 -56.876 572.906  1.00  0.00     0.017 C 
ATOM     14  C   UNL     1       7.404 -55.308 573.663  1.00  0.00    -0.064 C 
ATOM     15  C   UNL     1       8.944 -53.475 572.779  1.00  0.00     0.032 C 
ATOM     16  C   UNL     1       8.000 -54.085 573.851  1.00  0.00    -0.064 C 
ATOM     17  C   UNL     1       6.374 -55.851 574.636  1.00  0.00     0.032 C 
ATOM     18  C   UNL     1       7.620 -53.249 575.101  1.00  0.00    -0.008 C 
ATOM     19  C   UNL     1       6.541 -55.393 576.106  1.00  0.00     0.009 C 
ATOM     20  C   UNL     1       7.538 -54.222 576.331  1.00  0.00     0.007 C 
ATOM     21  C   UNL     1       8.725 -52.181 575.386  1.00  0.00     0.014 C 
ATOM     22  C   UNL     1       6.284 -52.539 574.788  1.00  0.00     0.016 C 
ATOM     23  C   UNL     1       7.475 -53.561 577.772  1.00  0.00    -0.006 C 
ATOM     24  C   UNL     1       8.606 -51.494 576.741  1.00  0.00     0.033 C 
ATOM     25  C   UNL     1       8.624 -52.510 577.895  1.00  0.00     0.120 C 
ATOM     26  C   UNL     1       7.725 -54.661 578.844  1.00  0.00     0.014 C 
ATOM     27  C   UNL     1       6.111 -52.892 578.120  1.00  0.00     0.014 C 
BRANCH  25  28
ATOM     28  O   UNL     1       8.541 -51.827 579.120  1.00  0.00    -0.393 OA
ATOM     29  H   UNL     1       7.946 -51.043 578.980  1.00  0.00     0.210 HD
ENDBRANCH  25  28
ENDBRANCH   2   6
ENDBRANCH   1   2
BRANCH   1  30
ATOM     30  C   UNL     1       8.461 -57.854 566.892  1.00  0.00     0.028 C 
BRANCH  30  31
ATOM     31  C   UNL     1       8.910 -57.947 565.441  1.00  0.00    -0.028 C 
ATOM     32  C   UNL     1       8.215 -58.466 564.405  1.00  0.00    -0.080 C 
ATOM     33  C   UNL     1       6.816 -59.013 564.528  1.00  0.00     0.039 C 
ATOM     34  C   UNL     1       8.876 -58.472 563.048  1.00  0.00     0.039 C 
ENDBRANCH  30  31
ENDBRANCH   1  30
TORSDOF 6
ENDMDL
