MODEL 1
REMARK VINA RESULT:    -1.746      0.000      0.000
REMARK INTER + INTRA:          -3.222
REMARK INTER:                  -2.665
REMARK INTRA:                  -0.557
REMARK UNBOUND:                -0.557
REMARK SMILES O=C([O-])CCCCCCCCC(=O)[O-]
REMARK SMILES IDX 7 1 6 2 5 3 4 4 2 5 1 6 3 7 8 8 9 9 10 10 11 11 12 12 13 13
REMARK SMILES IDX 14 14
REMARK H PARENT
REMARK Flexibility Score: inf
ROOT
ATOM      1  C   UNL     1     139.078  55.905 -10.405  1.00  0.00     0.000 C 
ENDROOT
BRANCH   1   2
ATOM      2  C   UNL     1     139.066  56.539  -9.006  1.00  0.00     0.000 C 
BRANCH   2   3
ATOM      3  C   UNL     1     137.696  56.433  -8.319  1.00  0.00     0.006 C 
BRANCH   3   4
ATOM      4  C   UNL     1     136.565  57.048  -9.155  1.00  0.00     0.053 C 
BRANCH   4   5
ATOM      5  C   UNL     1     135.236  56.563  -8.671  1.00  0.00     0.041 C 
ATOM      6  O   UNL     1     134.251  56.527  -9.455  1.00  0.00    -0.550 OA
ATOM      7  O   UNL     1     135.070  56.200  -7.341  1.00  0.00    -0.550 OA
ENDBRANCH   4   5
ENDBRANCH   3   4
ENDBRANCH   2   3
ENDBRANCH   1   2
BRANCH   1   8
ATOM      8  C   UNL     1     139.437  56.946 -11.476  1.00  0.00     0.000 C 
BRANCH   8   9
ATOM      9  C   UNL     1     139.913  56.306 -12.790  1.00  0.00     0.000 C 
BRANCH   9  10
ATOM     10  C   UNL     1     140.863  55.118 -12.560  1.00  0.00     0.006 C 
BRANCH  10  11
ATOM     11  C   UNL     1     140.564  53.946 -13.505  1.00  0.00     0.053 C 
BRANCH  11  12
ATOM     12  C   UNL     1     139.210  53.357 -13.250  1.00  0.00     0.041 C 
ATOM     13  O   UNL     1     138.304  53.450 -14.120  1.00  0.00    -0.550 OA
ATOM     14  O   UNL     1     138.958  52.681 -12.064  1.00  0.00    -0.550 OA
ENDBRANCH  11  12
ENDBRANCH  10  11
ENDBRANCH   9  10
ENDBRANCH   8   9
ENDBRANCH   1   8
TORSDOF 9
ENDMDL
MODEL 2
REMARK VINA RESULT:    -1.669      1.842      5.716
REMARK INTER + INTRA:          -3.104
REMARK INTER:                  -2.184
REMARK INTRA:                  -0.920
REMARK UNBOUND:                -0.557
REMARK SMILES O=C([O-])CCCCCCCCC(=O)[O-]
REMARK SMILES IDX 7 1 6 2 5 3 4 4 2 5 1 6 3 7 8 8 9 9 10 10 11 11 12 12 13 13
REMARK SMILES IDX 14 14
REMARK H PARENT
REMARK Flexibility Score: inf
ROOT
ATOM      1  C   UNL     1     142.614  56.067 -10.482  1.00  0.00     0.000 C 
ENDROOT
BRANCH   1   2
ATOM      2  C   UNL     1     141.859  57.125 -11.301  1.00  0.00     0.000 C 
BRANCH   2   3
ATOM      3  C   UNL     1     141.540  56.651 -12.728  1.00  0.00     0.006 C 
BRANCH   3   4
ATOM      4  C   UNL     1     140.107  56.117 -12.868  1.00  0.00     0.053 C 
BRANCH   4   5
ATOM      5  C   UNL     1     140.118  54.631 -13.031  1.00  0.00     0.041 C 
ATOM      6  O   UNL     1     141.197  53.990 -12.935  1.00  0.00    -0.550 OA
ATOM      7  O   UNL     1     138.943  53.957 -13.341  1.00  0.00    -0.550 OA
ENDBRANCH   4   5
ENDBRANCH   3   4
ENDBRANCH   2   3
ENDBRANCH   1   2
BRANCH   1   8
ATOM      8  C   UNL     1     141.653  55.303  -9.557  1.00  0.00     0.000 C 
BRANCH   8   9
ATOM      9  C   UNL     1     140.482  56.172  -9.070  1.00  0.00     0.000 C 
BRANCH   9  10
ATOM     10  C   UNL     1     139.112  55.583  -9.448  1.00  0.00     0.006 C 
BRANCH  10  11
ATOM     11  C   UNL     1     138.023  56.661  -9.535  1.00  0.00     0.053 C 
BRANCH  11  12
ATOM     12  C   UNL     1     137.052  56.565  -8.399  1.00  0.00     0.041 C 
ATOM     13  O   UNL     1     137.402  56.894  -7.235  1.00  0.00    -0.550 OA
ATOM     14  O   UNL     1     135.751  56.138  -8.630  1.00  0.00    -0.550 OA
ENDBRANCH  11  12
ENDBRANCH  10  11
ENDBRANCH   9  10
ENDBRANCH   8   9
ENDBRANCH   1   8
TORSDOF 9
ENDMDL
MODEL 3
REMARK VINA RESULT:    -1.661      1.538      5.998
REMARK INTER + INTRA:          -3.093
REMARK INTER:                  -2.413
REMARK INTRA:                  -0.679
REMARK UNBOUND:                -0.557
REMARK SMILES O=C([O-])CCCCCCCCC(=O)[O-]
REMARK SMILES IDX 7 1 6 2 5 3 4 4 2 5 1 6 3 7 8 8 9 9 10 10 11 11 12 12 13 13
REMARK SMILES IDX 14 14
REMARK H PARENT
REMARK Flexibility Score: inf
ROOT
ATOM      1  C   UNL     1     139.774  56.673 -12.488  1.00  0.00     0.000 C 
ENDROOT
BRANCH   1   2
ATOM      2  C   UNL     1     139.684  55.209 -12.944  1.00  0.00     0.000 C 
BRANCH   2   3
ATOM      3  C   UNL     1     140.300  54.234 -11.930  1.00  0.00     0.006 C 
BRANCH   3   4
ATOM      4  C   UNL     1     139.363  53.068 -11.585  1.00  0.00     0.053 C 
BRANCH   4   5
ATOM      5  C   UNL     1     139.095  52.237 -12.800  1.00  0.00     0.041 C 
ATOM      6  O   UNL     1     137.931  52.167 -13.275  1.00  0.00    -0.550 OA
ATOM      7  O   UNL     1     140.120  51.499 -13.378  1.00  0.00    -0.550 OA
ENDBRANCH   4   5
ENDBRANCH   3   4
ENDBRANCH   2   3
ENDBRANCH   1   2
BRANCH   1   8
ATOM      8  C   UNL     1     140.041  56.761 -10.977  1.00  0.00     0.000 C 
BRANCH   8   9
ATOM      9  C   UNL     1     138.783  57.123 -10.172  1.00  0.00     0.000 C 
BRANCH   9  10
ATOM     10  C   UNL     1     138.244  55.940  -9.350  1.00  0.00     0.006 C 
BRANCH  10  11
ATOM     11  C   UNL     1     136.891  56.256  -8.698  1.00  0.00     0.053 C 
BRANCH  11  12
ATOM     12  C   UNL     1     137.044  56.643  -7.259  1.00  0.00     0.041 C 
ATOM     13  O   UNL     1     138.166  56.558  -6.695  1.00  0.00    -0.550 OA
ATOM     14  O   UNL     1     135.951  57.124  -6.549  1.00  0.00    -0.550 OA
ENDBRANCH  11  12
ENDBRANCH  10  11
ENDBRANCH   9  10
ENDBRANCH   8   9
ENDBRANCH   1   8
TORSDOF 9
ENDMDL
MODEL 4
REMARK VINA RESULT:    -1.640      2.374      3.011
REMARK INTER + INTRA:          -3.061
REMARK INTER:                  -2.224
REMARK INTRA:                  -0.837
REMARK UNBOUND:                -0.557
REMARK SMILES O=C([O-])CCCCCCCCC(=O)[O-]
REMARK SMILES IDX 7 1 6 2 5 3 4 4 2 5 1 6 3 7 8 8 9 9 10 10 11 11 12 12 13 13
REMARK SMILES IDX 14 14
REMARK H PARENT
REMARK Flexibility Score: inf
ROOT
ATOM      1  C   UNL     1     140.090  56.728 -10.859  1.00  0.00     0.000 C 
ENDROOT
BRANCH   1   2
ATOM      2  C   UNL     1     138.732  57.121 -10.257  1.00  0.00     0.000 C 
BRANCH   2   3
ATOM      3  C   UNL     1     138.136  56.018  -9.370  1.00  0.00     0.006 C 
BRANCH   3   4
ATOM      4  C   UNL     1     139.204  55.077  -8.796  1.00  0.00     0.053 C 
BRANCH   4   5
ATOM      5  C   UNL     1     139.547  55.469  -7.395  1.00  0.00     0.041 C 
ATOM      6  O   UNL     1     140.627  56.068  -7.150  1.00  0.00    -0.550 OA
ATOM      7  O   UNL     1     138.698  55.128  -6.350  1.00  0.00    -0.550 OA
ENDBRANCH   4   5
ENDBRANCH   3   4
ENDBRANCH   2   3
ENDBRANCH   1   2
BRANCH   1   8
ATOM      8  C   UNL     1     140.002  56.627 -12.389  1.00  0.00     0.000 C 
BRANCH   8   9
ATOM      9  C   UNL     1     140.431  55.249 -12.919  1.00  0.00     0.000 C 
BRANCH   9  10
ATOM     10  C   UNL     1     139.258  54.258 -13.010  1.00  0.00     0.006 C 
BRANCH  10  11
ATOM     11  C   UNL     1     139.364  53.138 -11.966  1.00  0.00     0.053 C 
BRANCH  11  12
ATOM     12  C   UNL     1     139.038  51.799 -12.553  1.00  0.00     0.041 C 
ATOM     13  O   UNL     1     138.013  51.173 -12.175  1.00  0.00    -0.550 OA
ATOM     14  O   UNL     1     139.852  51.254 -13.537  1.00  0.00    -0.550 OA
ENDBRANCH  11  12
ENDBRANCH  10  11
ENDBRANCH   9  10
ENDBRANCH   8   9
ENDBRANCH   1   8
TORSDOF 9
ENDMDL
MODEL 5
REMARK VINA RESULT:    -1.604      1.744      2.417
REMARK INTER + INTRA:          -3.005
REMARK INTER:                  -2.070
REMARK INTRA:                  -0.935
REMARK UNBOUND:                -0.557
REMARK SMILES O=C([O-])CCCCCCCCC(=O)[O-]
REMARK SMILES IDX 7 1 6 2 5 3 4 4 2 5 1 6 3 7 8 8 9 9 10 10 11 11 12 12 13 13
REMARK SMILES IDX 14 14
REMARK H PARENT
REMARK Flexibility Score: inf
ROOT
ATOM      1  C   UNL     1     141.261  56.810 -11.252  1.00  0.00     0.000 C 
ENDROOT
BRANCH   1   2
ATOM      2  C   UNL     1     140.199  57.064 -10.171  1.00  0.00     0.000 C 
BRANCH   2   3
ATOM      3  C   UNL     1     139.990  55.853  -9.249  1.00  0.00     0.006 C 
BRANCH   3   4
ATOM      4  C   UNL     1     138.548  55.326  -9.282  1.00  0.00     0.053 C 
BRANCH   4   5
ATOM      5  C   UNL     1     137.648  56.217  -8.488  1.00  0.00     0.041 C 
ATOM      6  O   UNL     1     137.939  56.517  -7.301  1.00  0.00    -0.550 OA
ATOM      7  O   UNL     1     136.460  56.677  -9.043  1.00  0.00    -0.550 OA
ENDBRANCH   4   5
ENDBRANCH   3   4
ENDBRANCH   2   3
ENDBRANCH   1   2
BRANCH   1   8
ATOM      8  C   UNL     1     140.652  56.933 -12.657  1.00  0.00     0.000 C 
BRANCH   8   9
ATOM      9  C   UNL     1     139.622  55.832 -12.955  1.00  0.00     0.000 C 
BRANCH   9  10
ATOM     10  C   UNL     1     140.231  54.421 -12.906  1.00  0.00     0.006 C 
BRANCH  10  11
ATOM     11  C   UNL     1     139.240  53.381 -12.366  1.00  0.00     0.053 C 
BRANCH  11  12
ATOM     12  C   UNL     1     139.935  52.291 -11.608  1.00  0.00     0.041 C 
ATOM     13  O   UNL     1     139.828  51.093 -11.979  1.00  0.00    -0.550 OA
ATOM     14  O   UNL     1     140.723  52.604 -10.507  1.00  0.00    -0.550 OA
ENDBRANCH  11  12
ENDBRANCH  10  11
ENDBRANCH   9  10
ENDBRANCH   8   9
ENDBRANCH   1   8
TORSDOF 9
ENDMDL
MODEL 6
REMARK VINA RESULT:    -1.586      3.852      5.252
REMARK INTER + INTRA:          -2.978
REMARK INTER:                  -1.997
REMARK INTRA:                  -0.981
REMARK UNBOUND:                -0.557
REMARK SMILES O=C([O-])CCCCCCCCC(=O)[O-]
REMARK SMILES IDX 7 1 6 2 5 3 4 4 2 5 1 6 3 7 8 8 9 9 10 10 11 11 12 12 13 13
REMARK SMILES IDX 14 14
REMARK H PARENT
REMARK Flexibility Score: inf
ROOT
ATOM      1  C   UNL     1     139.637  55.513  -8.699  1.00  0.00     0.000 C 
ENDROOT
BRANCH   1   2
ATOM      2  C   UNL     1     140.567  56.662  -8.283  1.00  0.00     0.000 C 
BRANCH   2   3
ATOM      3  C   UNL     1     142.052  56.274  -8.345  1.00  0.00     0.006 C 
BRANCH   3   4
ATOM      4  C   UNL     1     142.614  56.309  -9.773  1.00  0.00     0.053 C 
BRANCH   4   5
ATOM      5  C   UNL     1     143.139  54.963 -10.160  1.00  0.00     0.041 C 
ATOM      6  O   UNL     1     142.349  54.060 -10.541  1.00  0.00    -0.550 OA
ATOM      7  O   UNL     1     144.497  54.689 -10.053  1.00  0.00    -0.550 OA
ENDBRANCH   4   5
ENDBRANCH   3   4
ENDBRANCH   2   3
ENDBRANCH   1   2
BRANCH   1   8
ATOM      8  C   UNL     1     138.604  55.990  -9.732  1.00  0.00     0.000 C 
BRANCH   8   9
ATOM      9  C   UNL     1     139.191  56.994 -10.737  1.00  0.00     0.000 C 
BRANCH   9  10
ATOM     10  C   UNL     1     139.518  56.350 -12.095  1.00  0.00     0.006 C 
BRANCH  10  11
ATOM     11  C   UNL     1     140.608  57.120 -12.853  1.00  0.00     0.053 C 
BRANCH  11  12
ATOM     12  C   UNL     1     141.657  56.203 -13.403  1.00  0.00     0.041 C 
ATOM     13  O   UNL     1     141.405  54.982 -13.575  1.00  0.00    -0.550 OA
ATOM     14  O   UNL     1     142.905  56.705 -13.752  1.00  0.00    -0.550 OA
ENDBRANCH  11  12
ENDBRANCH  10  11
ENDBRANCH   9  10
ENDBRANCH   8   9
ENDBRANCH   1   8
TORSDOF 9
ENDMDL
MODEL 7
REMARK VINA RESULT:    -1.552      3.522      5.778
REMARK INTER + INTRA:          -2.926
REMARK INTER:                  -1.862
REMARK INTRA:                  -1.064
REMARK UNBOUND:                -0.557
REMARK SMILES O=C([O-])CCCCCCCCC(=O)[O-]
REMARK SMILES IDX 7 1 6 2 5 3 4 4 2 5 1 6 3 7 8 8 9 9 10 10 11 11 12 12 13 13
REMARK SMILES IDX 14 14
REMARK H PARENT
REMARK Flexibility Score: inf
ROOT
ATOM      1  C   UNL     1     138.751  56.065 -10.041  1.00  0.00     0.000 C 
ENDROOT
BRANCH   1   2
ATOM      2  C   UNL     1     139.662  57.023 -10.822  1.00  0.00     0.000 C 
BRANCH   2   3
ATOM      3  C   UNL     1     139.514  56.872 -12.344  1.00  0.00     0.006 C 
BRANCH   3   4
ATOM      4  C   UNL     1     140.709  56.154 -12.987  1.00  0.00     0.053 C 
BRANCH   4   5
ATOM      5  C   UNL     1     140.467  54.679 -13.035  1.00  0.00     0.041 C 
ATOM      6  O   UNL     1     141.438  53.878 -13.044  1.00  0.00    -0.550 OA
ATOM      7  O   UNL     1     139.170  54.190 -13.121  1.00  0.00    -0.550 OA
ENDBRANCH   4   5
ENDBRANCH   3   4
ENDBRANCH   2   3
ENDBRANCH   1   2
BRANCH   1   8
ATOM      8  C   UNL     1     139.568  54.936  -9.394  1.00  0.00     0.000 C 
BRANCH   8   9
ATOM      9  C   UNL     1     140.963  55.398  -8.942  1.00  0.00     0.000 C 
BRANCH   9  10
ATOM     10  C   UNL     1     142.095  54.579  -9.586  1.00  0.00     0.006 C 
BRANCH  10  11
ATOM     11  C   UNL     1     143.150  55.473 -10.252  1.00  0.00     0.053 C 
BRANCH  11  12
ATOM     12  C   UNL     1     144.424  55.511  -9.465  1.00  0.00     0.041 C 
ATOM     13  O   UNL     1     144.465  55.033  -8.301  1.00  0.00    -0.550 OA
ATOM     14  O   UNL     1     145.573  56.050 -10.028  1.00  0.00    -0.550 OA
ENDBRANCH  11  12
ENDBRANCH  10  11
ENDBRANCH   9  10
ENDBRANCH   8   9
ENDBRANCH   1   8
TORSDOF 9
ENDMDL
MODEL 8
REMARK VINA RESULT:    -1.546      3.097      5.941
REMARK INTER + INTRA:          -2.917
REMARK INTER:                  -1.876
REMARK INTRA:                  -1.041
REMARK UNBOUND:                -0.557
REMARK SMILES O=C([O-])CCCCCCCCC(=O)[O-]
REMARK SMILES IDX 7 1 6 2 5 3 4 4 2 5 1 6 3 7 8 8 9 9 10 10 11 11 12 12 13 13
REMARK SMILES IDX 14 14
REMARK H PARENT
REMARK Flexibility Score: inf
ROOT
ATOM      1  C   UNL     1     140.807  54.239 -12.847  1.00  0.00     0.000 C 
ENDROOT
BRANCH   1   2
ATOM      2  C   UNL     1     141.940  55.146 -13.354  1.00  0.00     0.000 C 
BRANCH   2   3
ATOM      3  C   UNL     1     143.249  54.948 -12.575  1.00  0.00     0.006 C 
BRANCH   3   4
ATOM      4  C   UNL     1     143.365  55.885 -11.364  1.00  0.00     0.053 C 
BRANCH   4   5
ATOM      5  C   UNL     1     143.254  55.107 -10.091  1.00  0.00     0.041 C 
ATOM      6  O   UNL     1     143.104  53.858 -10.122  1.00  0.00    -0.550 OA
ATOM      7  O   UNL     1     143.267  55.769  -8.869  1.00  0.00    -0.550 OA
ENDBRANCH   4   5
ENDBRANCH   3   4
ENDBRANCH   2   3
ENDBRANCH   1   2
BRANCH   1   8
ATOM      8  C   UNL     1     139.506  55.036 -12.667  1.00  0.00     0.000 C 
BRANCH   8   9
ATOM      9  C   UNL     1     139.752  56.546 -12.518  1.00  0.00     0.000 C 
BRANCH   9  10
ATOM     10  C   UNL     1     139.130  57.124 -11.235  1.00  0.00     0.006 C 
BRANCH  10  11
ATOM     11  C   UNL     1     140.072  57.002 -10.030  1.00  0.00     0.053 C 
BRANCH  11  12
ATOM     12  C   UNL     1     139.520  56.084  -8.982  1.00  0.00     0.041 C 
ATOM     13  O   UNL     1     140.073  56.003  -7.855  1.00  0.00    -0.550 OA
ATOM     14  O   UNL     1     138.377  55.340  -9.244  1.00  0.00    -0.550 OA
ENDBRANCH  11  12
ENDBRANCH  10  11
ENDBRANCH   9  10
ENDBRANCH   8   9
ENDBRANCH   1   8
TORSDOF 9
ENDMDL
MODEL 9
REMARK VINA RESULT:    -1.539      2.064      2.939
REMARK INTER + INTRA:          -2.905
REMARK INTER:                  -2.152
REMARK INTRA:                  -0.753
REMARK UNBOUND:                -0.557
REMARK SMILES O=C([O-])CCCCCCCCC(=O)[O-]
REMARK SMILES IDX 7 1 6 2 5 3 4 4 2 5 1 6 3 7 8 8 9 9 10 10 11 11 12 12 13 13
REMARK SMILES IDX 14 14
REMARK H PARENT
REMARK Flexibility Score: inf
ROOT
ATOM      1  C   UNL     1     141.037  56.343 -12.076  1.00  0.00     0.000 C 
ENDROOT
BRANCH   1   2
ATOM      2  C   UNL     1     139.643  56.802 -11.621  1.00  0.00     0.000 C 
BRANCH   2   3
ATOM      3  C   UNL     1     139.512  56.870 -10.092  1.00  0.00     0.006 C 
BRANCH   3   4
ATOM      4  C   UNL     1     138.070  57.125  -9.632  1.00  0.00     0.053 C 
BRANCH   4   5
ATOM      5  C   UNL     1     137.808  56.438  -8.330  1.00  0.00     0.041 C 
ATOM      6  O   UNL     1     136.868  55.606  -8.230  1.00  0.00    -0.550 OA
ATOM      7  O   UNL     1     138.570  56.754  -7.211  1.00  0.00    -0.550 OA
ENDBRANCH   4   5
ENDBRANCH   3   4
ENDBRANCH   2   3
ENDBRANCH   1   2
BRANCH   1   8
ATOM      8  C   UNL     1     140.958  54.991 -12.802  1.00  0.00     0.000 C 
BRANCH   8   9
ATOM      9  C   UNL     1     139.512  54.516 -13.017  1.00  0.00     0.000 C 
BRANCH   9  10
ATOM     10  C   UNL     1     139.242  53.137 -12.392  1.00  0.00     0.006 C 
BRANCH  10  11
ATOM     11  C   UNL     1     139.567  53.107 -10.892  1.00  0.00     0.053 C 
BRANCH  11  12
ATOM     12  C   UNL     1     140.501  51.987 -10.547  1.00  0.00     0.041 C 
ATOM     13  O   UNL     1     141.428  51.668 -11.337  1.00  0.00    -0.550 OA
ATOM     14  O   UNL     1     140.363  51.314  -9.340  1.00  0.00    -0.550 OA
ENDBRANCH  11  12
ENDBRANCH  10  11
ENDBRANCH   9  10
ENDBRANCH   8   9
ENDBRANCH   1   8
TORSDOF 9
ENDMDL
