MODEL 1
REMARK VINA RESULT:    -1.476      0.000      0.000
REMARK INTER + INTRA:          -3.493
REMARK INTER:                  -2.684
REMARK INTRA:                  -0.809
REMARK UNBOUND:                -0.809
REMARK SMILES CCCCCCCCCCCCCCCC(=O)[O-]
REMARK SMILES IDX 9 1 10 2 11 3 12 4 13 5 14 6 15 7 16 8 17 9 18 10 8 11 7 12
REMARK SMILES IDX 6 13 5 14 4 15 3 16 2 17 1 18
REMARK H PARENT
REMARK Flexibility Score: inf
ROOT
ATOM      1  C   UNL     1       3.627  44.651  11.319  1.00  0.00     0.000 C 
ENDROOT
BRANCH   1   2
ATOM      2  C   UNL     1       5.090  45.125  11.248  1.00  0.00     0.000 C 
BRANCH   2   3
ATOM      3  C   UNL     1       5.797  44.875   9.902  1.00  0.00     0.000 C 
BRANCH   3   4
ATOM      4  C   UNL     1       6.699  43.632   9.917  1.00  0.00     0.000 C 
BRANCH   4   5
ATOM      5  C   UNL     1       8.127  43.996  10.348  1.00  0.00     0.000 C 
BRANCH   5   6
ATOM      6  C   UNL     1       8.401  43.686  11.831  1.00  0.00     0.006 C 
BRANCH   6   7
ATOM      7  C   UNL     1       8.061  42.247  12.249  1.00  0.00     0.053 C 
BRANCH   7   8
ATOM      8  C   UNL     1       7.148  42.207  13.436  1.00  0.00     0.041 C 
ATOM      9  O   UNL     1       7.378  41.415  14.387  1.00  0.00    -0.550 OA
ATOM     10  O   UNL     1       6.023  43.021  13.476  1.00  0.00    -0.550 OA
ENDBRANCH   7   8
ENDBRANCH   6   7
ENDBRANCH   5   6
ENDBRANCH   4   5
ENDBRANCH   3   4
ENDBRANCH   2   3
ENDBRANCH   1   2
BRANCH   1  11
ATOM     11  C   UNL     1       3.334  43.465  10.387  1.00  0.00     0.000 C 
BRANCH  11  12
ATOM     12  C   UNL     1       1.838  43.322  10.058  1.00  0.00    -0.000 C 
BRANCH  12  13
ATOM     13  C   UNL     1       1.048  42.496  11.095  1.00  0.00    -0.000 C 
BRANCH  13  14
ATOM     14  C   UNL     1       0.042  43.359  11.878  1.00  0.00    -0.000 C 
BRANCH  14  15
ATOM     15  C   UNL     1       0.664  44.038  13.112  1.00  0.00    -0.000 C 
BRANCH  15  16
ATOM     16  C   UNL     1      -0.336  44.776  14.020  1.00  0.00    -0.000 C 
BRANCH  16  17
ATOM     17  C   UNL     1      -1.553  43.918  14.394  1.00  0.00    -0.003 C 
ATOM     18  C   UNL     1      -2.608  44.747  15.122  1.00  0.00     0.004 C 
ENDBRANCH  16  17
ENDBRANCH  15  16
ENDBRANCH  14  15
ENDBRANCH  13  14
ENDBRANCH  12  13
ENDBRANCH  11  12
ENDBRANCH   1  11
TORSDOF 14
ENDMDL
MODEL 2
REMARK VINA RESULT:    -0.952      1.346      1.985
REMARK INTER + INTRA:          -2.540
REMARK INTER:                  -1.473
REMARK INTRA:                  -1.068
REMARK UNBOUND:                -0.809
REMARK SMILES CCCCCCCCCCCCCCCC(=O)[O-]
REMARK SMILES IDX 9 1 10 2 11 3 12 4 13 5 14 6 15 7 16 8 17 9 18 10 8 11 7 12
REMARK SMILES IDX 6 13 5 14 4 15 3 16 2 17 1 18
REMARK H PARENT
REMARK Flexibility Score: inf
ROOT
ATOM      1  C   UNL     1       2.979  42.226  10.445  1.00  0.00     0.000 C 
ENDROOT
BRANCH   1   2
ATOM      2  C   UNL     1       4.286  42.805   9.875  1.00  0.00     0.000 C 
BRANCH   2   3
ATOM      3  C   UNL     1       4.397  44.341   9.916  1.00  0.00     0.000 C 
BRANCH   3   4
ATOM      4  C   UNL     1       5.840  44.836  10.094  1.00  0.00     0.000 C 
BRANCH   4   5
ATOM      5  C   UNL     1       6.286  44.707  11.558  1.00  0.00     0.000 C 
BRANCH   5   6
ATOM      6  C   UNL     1       7.813  44.571  11.707  1.00  0.00     0.006 C 
BRANCH   6   7
ATOM      7  C   UNL     1       8.415  43.366  10.968  1.00  0.00     0.053 C 
BRANCH   7   8
ATOM      8  C   UNL     1       7.875  42.066  11.480  1.00  0.00     0.041 C 
ATOM      9  O   UNL     1       7.565  41.148  10.676  1.00  0.00    -0.550 OA
ATOM     10  O   UNL     1       7.682  41.880  12.842  1.00  0.00    -0.550 OA
ENDBRANCH   7   8
ENDBRANCH   6   7
ENDBRANCH   5   6
ENDBRANCH   4   5
ENDBRANCH   3   4
ENDBRANCH   2   3
ENDBRANCH   1   2
BRANCH   1  11
ATOM     11  C   UNL     1       1.809  43.222  10.396  1.00  0.00     0.000 C 
BRANCH  11  12
ATOM     12  C   UNL     1       0.469  42.585  10.803  1.00  0.00    -0.000 C 
BRANCH  12  13
ATOM     13  C   UNL     1       0.118  42.772  12.295  1.00  0.00    -0.000 C 
BRANCH  13  14
ATOM     14  C   UNL     1       0.746  44.049  12.881  1.00  0.00    -0.000 C 
BRANCH  14  15
ATOM     15  C   UNL     1      -0.252  44.891  13.698  1.00  0.00    -0.000 C 
BRANCH  15  16
ATOM     16  C   UNL     1      -0.876  44.168  14.905  1.00  0.00    -0.000 C 
BRANCH  16  17
ATOM     17  C   UNL     1      -2.392  43.968  14.765  1.00  0.00    -0.003 C 
ATOM     18  C   UNL     1      -2.747  42.486  14.698  1.00  0.00     0.004 C 
ENDBRANCH  16  17
ENDBRANCH  15  16
ENDBRANCH  14  15
ENDBRANCH  13  14
ENDBRANCH  12  13
ENDBRANCH  11  12
ENDBRANCH   1  11
TORSDOF 14
ENDMDL
MODEL 3
REMARK VINA RESULT:    -0.564      0.962      1.448
REMARK INTER + INTRA:          -1.834
REMARK INTER:                  -2.190
REMARK INTRA:                   0.356
REMARK UNBOUND:                -0.809
REMARK SMILES CCCCCCCCCCCCCCCC(=O)[O-]
REMARK SMILES IDX 9 1 10 2 11 3 12 4 13 5 14 6 15 7 16 8 17 9 18 10 8 11 7 12
REMARK SMILES IDX 6 13 5 14 4 15 3 16 2 17 1 18
REMARK H PARENT
REMARK Flexibility Score: inf
ROOT
ATOM      1  C   UNL     1       5.107  44.757  10.794  1.00  0.00     0.000 C 
ENDROOT
BRANCH   1   2
ATOM      2  C   UNL     1       6.090  43.995   9.887  1.00  0.00     0.000 C 
BRANCH   2   3
ATOM      3  C   UNL     1       5.944  42.462   9.902  1.00  0.00     0.000 C 
BRANCH   3   4
ATOM      4  C   UNL     1       7.106  41.754  10.614  1.00  0.00     0.000 C 
BRANCH   4   5
ATOM      5  C   UNL     1       8.274  42.722  10.852  1.00  0.00     0.000 C 
BRANCH   5   6
ATOM      6  C   UNL     1       8.288  43.303  12.278  1.00  0.00     0.006 C 
BRANCH   6   7
ATOM      7  C   UNL     1       6.894  43.513  12.888  1.00  0.00     0.053 C 
BRANCH   7   8
ATOM      8  C   UNL     1       6.554  42.455  13.893  1.00  0.00     0.041 C 
ATOM      9  O   UNL     1       5.480  42.522  14.545  1.00  0.00    -0.550 OA
ATOM     10  O   UNL     1       7.441  41.413  14.133  1.00  0.00    -0.550 OA
ENDBRANCH   7   8
ENDBRANCH   6   7
ENDBRANCH   5   6
ENDBRANCH   4   5
ENDBRANCH   3   4
ENDBRANCH   2   3
ENDBRANCH   1   2
BRANCH   1  11
ATOM     11  C   UNL     1       4.041  43.846  11.424  1.00  0.00     0.000 C 
BRANCH  11  12
ATOM     12  C   UNL     1       2.632  44.102  10.862  1.00  0.00    -0.000 C 
BRANCH  12  13
ATOM     13  C   UNL     1       1.706  42.868  10.918  1.00  0.00    -0.000 C 
BRANCH  13  14
ATOM     14  C   UNL     1       0.379  43.173  11.635  1.00  0.00    -0.000 C 
BRANCH  14  15
ATOM     15  C   UNL     1       0.573  43.624  13.094  1.00  0.00    -0.000 C 
BRANCH  15  16
ATOM     16  C   UNL     1      -0.446  44.667  13.592  1.00  0.00    -0.000 C 
BRANCH  16  17
ATOM     17  C   UNL     1      -1.588  44.046  14.409  1.00  0.00    -0.003 C 
ATOM     18  C   UNL     1      -2.442  45.125  15.067  1.00  0.00     0.004 C 
ENDBRANCH  16  17
ENDBRANCH  15  16
ENDBRANCH  14  15
ENDBRANCH  13  14
ENDBRANCH  12  13
ENDBRANCH  11  12
ENDBRANCH   1  11
TORSDOF 14
ENDMDL
MODEL 4
REMARK VINA RESULT:    -0.344      3.043      7.964
REMARK INTER + INTRA:          -1.433
REMARK INTER:                  -1.758
REMARK INTRA:                   0.325
REMARK UNBOUND:                -0.809
REMARK SMILES CCCCCCCCCCCCCCCC(=O)[O-]
REMARK SMILES IDX 9 1 10 2 11 3 12 4 13 5 14 6 15 7 16 8 17 9 18 10 8 11 7 12
REMARK SMILES IDX 6 13 5 14 4 15 3 16 2 17 1 18
REMARK H PARENT
REMARK Flexibility Score: inf
ROOT
ATOM      1  C   UNL     1       2.238  42.975  10.881  1.00  0.00     0.000 C 
ENDROOT
BRANCH   1   2
ATOM      2  C   UNL     1       1.956  44.024  11.973  1.00  0.00     0.000 C 
BRANCH   2   3
ATOM      3  C   UNL     1       0.621  43.851  12.720  1.00  0.00     0.000 C 
BRANCH   3   4
ATOM      4  C   UNL     1       0.211  45.099  13.517  1.00  0.00     0.000 C 
BRANCH   4   5
ATOM      5  C   UNL     1      -0.616  44.713  14.752  1.00  0.00     0.000 C 
BRANCH   5   6
ATOM      6  C   UNL     1      -2.102  45.097  14.619  1.00  0.00     0.006 C 
BRANCH   6   7
ATOM      7  C   UNL     1      -3.077  44.057  15.191  1.00  0.00     0.053 C 
BRANCH   7   8
ATOM      8  C   UNL     1      -2.639  42.654  14.899  1.00  0.00     0.041 C 
ATOM      9  O   UNL     1      -1.470  42.283  15.184  1.00  0.00    -0.550 OA
ATOM     10  O   UNL     1      -3.510  41.768  14.279  1.00  0.00    -0.550 OA
ENDBRANCH   7   8
ENDBRANCH   6   7
ENDBRANCH   5   6
ENDBRANCH   4   5
ENDBRANCH   3   4
ENDBRANCH   2   3
ENDBRANCH   1   2
BRANCH   1  11
ATOM     11  C   UNL     1       3.400  43.369   9.955  1.00  0.00     0.000 C 
BRANCH  11  12
ATOM     12  C   UNL     1       3.923  44.790  10.228  1.00  0.00    -0.000 C 
BRANCH  12  13
ATOM     13  C   UNL     1       4.920  44.872  11.402  1.00  0.00    -0.000 C 
BRANCH  13  14
ATOM     14  C   UNL     1       6.370  45.059  10.919  1.00  0.00    -0.000 C 
BRANCH  14  15
ATOM     15  C   UNL     1       6.988  43.767  10.354  1.00  0.00    -0.000 C 
BRANCH  15  16
ATOM     16  C   UNL     1       8.245  43.272  11.092  1.00  0.00    -0.000 C 
BRANCH  16  17
ATOM     17  C   UNL     1       7.982  42.029  11.955  1.00  0.00    -0.003 C 
ATOM     18  C   UNL     1       7.182  42.387  13.204  1.00  0.00     0.004 C 
ENDBRANCH  16  17
ENDBRANCH  15  16
ENDBRANCH  14  15
ENDBRANCH  13  14
ENDBRANCH  12  13
ENDBRANCH  11  12
ENDBRANCH   1  11
TORSDOF 14
ENDMDL
MODEL 5
REMARK VINA RESULT:    -0.235      2.883      6.806
REMARK INTER + INTRA:          -1.235
REMARK INTER:                  -0.719
REMARK INTRA:                  -0.516
REMARK UNBOUND:                -0.809
REMARK SMILES CCCCCCCCCCCCCCCC(=O)[O-]
REMARK SMILES IDX 9 1 10 2 11 3 12 4 13 5 14 6 15 7 16 8 17 9 18 10 8 11 7 12
REMARK SMILES IDX 6 13 5 14 4 15 3 16 2 17 1 18
REMARK H PARENT
REMARK Flexibility Score: inf
ROOT
ATOM      1  C   UNL     1       5.476  42.594  14.379  1.00  0.00     0.000 C 
ENDROOT
BRANCH   1   2
ATOM      2  C   UNL     1       5.393  43.859  13.506  1.00  0.00     0.000 C 
BRANCH   2   3
ATOM      3  C   UNL     1       4.360  43.803  12.365  1.00  0.00     0.000 C 
BRANCH   3   4
ATOM      4  C   UNL     1       4.327  45.085  11.519  1.00  0.00     0.000 C 
BRANCH   4   5
ATOM      5  C   UNL     1       3.905  44.778  10.075  1.00  0.00     0.000 C 
BRANCH   5   6
ATOM      6  C   UNL     1       3.134  43.451   9.947  1.00  0.00     0.006 C 
BRANCH   6   7
ATOM      7  C   UNL     1       1.608  43.612   9.875  1.00  0.00     0.053 C 
BRANCH   7   8
ATOM      8  C   UNL     1       0.922  43.005  11.060  1.00  0.00     0.041 C 
ATOM      9  O   UNL     1       1.208  43.388  12.224  1.00  0.00    -0.550 OA
ATOM     10  O   UNL     1      -0.009  41.990  10.880  1.00  0.00    -0.550 OA
ENDBRANCH   7   8
ENDBRANCH   6   7
ENDBRANCH   5   6
ENDBRANCH   4   5
ENDBRANCH   3   4
ENDBRANCH   2   3
ENDBRANCH   1   2
BRANCH   1  11
ATOM     11  C   UNL     1       6.836  41.884  14.281  1.00  0.00     0.000 C 
BRANCH  11  12
ATOM     12  C   UNL     1       7.657  42.336  13.060  1.00  0.00    -0.000 C 
BRANCH  12  13
ATOM     13  C   UNL     1       8.060  41.181  12.120  1.00  0.00    -0.000 C 
BRANCH  13  14
ATOM     14  C   UNL     1       7.630  41.442  10.665  1.00  0.00    -0.000 C 
BRANCH  14  15
ATOM     15  C   UNL     1       6.513  42.495  10.546  1.00  0.00    -0.000 C 
BRANCH  15  16
ATOM     16  C   UNL     1       6.934  43.815   9.875  1.00  0.00    -0.000 C 
BRANCH  16  17
ATOM     17  C   UNL     1       8.388  44.205  10.178  1.00  0.00    -0.003 C 
ATOM     18  C   UNL     1       8.494  44.944  11.508  1.00  0.00     0.004 C 
ENDBRANCH  16  17
ENDBRANCH  15  16
ENDBRANCH  14  15
ENDBRANCH  13  14
ENDBRANCH  12  13
ENDBRANCH  11  12
ENDBRANCH   1  11
TORSDOF 14
ENDMDL
MODEL 6
REMARK VINA RESULT:     0.845      2.910      7.401
REMARK INTER + INTRA:           0.728
REMARK INTER:                   0.477
REMARK INTRA:                   0.251
REMARK UNBOUND:                -0.809
REMARK SMILES CCCCCCCCCCCCCCCC(=O)[O-]
REMARK SMILES IDX 9 1 10 2 11 3 12 4 13 5 14 6 15 7 16 8 17 9 18 10 8 11 7 12
REMARK SMILES IDX 6 13 5 14 4 15 3 16 2 17 1 18
REMARK H PARENT
REMARK Flexibility Score: inf
ROOT
ATOM      1  C   UNL     1       4.482  44.647  11.585  1.00  0.00     0.000 C 
ENDROOT
BRANCH   1   2
ATOM      2  C   UNL     1       2.972  44.349  11.603  1.00  0.00     0.000 C 
BRANCH   2   3
ATOM      3  C   UNL     1       2.595  42.859  11.495  1.00  0.00     0.000 C 
BRANCH   3   4
ATOM      4  C   UNL     1       1.414  42.604  10.546  1.00  0.00     0.000 C 
BRANCH   4   5
ATOM      5  C   UNL     1       0.076  42.833  11.262  1.00  0.00     0.000 C 
BRANCH   5   6
ATOM      6  C   UNL     1       0.228  43.629  12.572  1.00  0.00     0.006 C 
BRANCH   6   7
ATOM      7  C   UNL     1      -0.855  43.332  13.621  1.00  0.00     0.053 C 
BRANCH   7   8
ATOM      8  C   UNL     1      -1.139  44.521  14.487  1.00  0.00     0.041 C 
ATOM      9  O   UNL     1      -0.199  45.116  15.076  1.00  0.00    -0.550 OA
ATOM     10  O   UNL     1      -2.447  44.950  14.672  1.00  0.00    -0.550 OA
ENDBRANCH   7   8
ENDBRANCH   6   7
ENDBRANCH   5   6
ENDBRANCH   4   5
ENDBRANCH   3   4
ENDBRANCH   2   3
ENDBRANCH   1   2
BRANCH   1  11
ATOM     11  C   UNL     1       5.157  44.407  12.945  1.00  0.00     0.000 C 
BRANCH  11  12
ATOM     12  C   UNL     1       6.390  43.492  12.845  1.00  0.00    -0.000 C 
BRANCH  12  13
ATOM     13  C   UNL     1       7.669  44.219  12.378  1.00  0.00    -0.000 C 
BRANCH  13  14
ATOM     14  C   UNL     1       7.621  44.571  10.880  1.00  0.00    -0.000 C 
BRANCH  14  15
ATOM     15  C   UNL     1       7.499  43.332   9.974  1.00  0.00    -0.000 C 
BRANCH  15  16
ATOM     16  C   UNL     1       6.083  42.737   9.875  1.00  0.00    -0.000 C 
BRANCH  16  17
ATOM     17  C   UNL     1       6.076  41.201   9.878  1.00  0.00    -0.003 C 
ATOM     18  C   UNL     1       7.417  40.647  10.350  1.00  0.00     0.004 C 
ENDBRANCH  16  17
ENDBRANCH  15  16
ENDBRANCH  14  15
ENDBRANCH  13  14
ENDBRANCH  12  13
ENDBRANCH  11  12
ENDBRANCH   1  11
TORSDOF 14
ENDMDL
MODEL 7
REMARK VINA RESULT:     0.952      1.634      2.891
REMARK INTER + INTRA:           0.923
REMARK INTER:                   0.996
REMARK INTRA:                  -0.073
REMARK UNBOUND:                -0.809
REMARK SMILES CCCCCCCCCCCCCCCC(=O)[O-]
REMARK SMILES IDX 9 1 10 2 11 3 12 4 13 5 14 6 15 7 16 8 17 9 18 10 8 11 7 12
REMARK SMILES IDX 6 13 5 14 4 15 3 16 2 17 1 18
REMARK H PARENT
REMARK Flexibility Score: inf
ROOT
ATOM      1  C   UNL     1       6.459  45.121  10.483  1.00  0.00     0.000 C 
ENDROOT
BRANCH   1   2
ATOM      2  C   UNL     1       7.260  43.870  10.078  1.00  0.00     0.000 C 
BRANCH   2   3
ATOM      3  C   UNL     1       6.460  42.555  10.061  1.00  0.00     0.000 C 
BRANCH   3   4
ATOM      4  C   UNL     1       7.281  41.344  10.531  1.00  0.00     0.000 C 
BRANCH   4   5
ATOM      5  C   UNL     1       8.309  41.759  11.593  1.00  0.00     0.000 C 
BRANCH   5   6
ATOM      6  C   UNL     1       7.680  42.542  12.761  1.00  0.00     0.006 C 
BRANCH   6   7
ATOM      7  C   UNL     1       7.254  41.669  13.950  1.00  0.00     0.053 C 
BRANCH   7   8
ATOM      8  C   UNL     1       6.004  42.176  14.601  1.00  0.00     0.041 C 
ATOM      9  O   UNL     1       5.560  41.622  15.641  1.00  0.00    -0.550 OA
ATOM     10  O   UNL     1       5.308  43.238  14.038  1.00  0.00    -0.550 OA
ENDBRANCH   7   8
ENDBRANCH   6   7
ENDBRANCH   5   6
ENDBRANCH   4   5
ENDBRANCH   3   4
ENDBRANCH   2   3
ENDBRANCH   1   2
BRANCH   1  11
ATOM     11  C   UNL     1       5.665  44.930  11.786  1.00  0.00     0.000 C 
BRANCH  11  12
ATOM     12  C   UNL     1       4.151  45.125  11.594  1.00  0.00    -0.000 C 
BRANCH  12  13
ATOM     13  C   UNL     1       3.672  44.891  10.145  1.00  0.00    -0.000 C 
BRANCH  13  14
ATOM     14  C   UNL     1       3.346  43.412   9.875  1.00  0.00    -0.000 C 
BRANCH  14  15
ATOM     15  C   UNL     1       2.616  42.731  11.048  1.00  0.00    -0.000 C 
BRANCH  15  16
ATOM     16  C   UNL     1       1.082  42.692  10.923  1.00  0.00    -0.000 C 
BRANCH  16  17
ATOM     17  C   UNL     1       0.366  42.975  12.252  1.00  0.00    -0.003 C 
ATOM     18  C   UNL     1      -1.000  42.296  12.295  1.00  0.00     0.004 C 
ENDBRANCH  16  17
ENDBRANCH  15  16
ENDBRANCH  14  15
ENDBRANCH  13  14
ENDBRANCH  12  13
ENDBRANCH  11  12
ENDBRANCH   1  11
TORSDOF 14
ENDMDL
