MODEL 1
REMARK VINA RESULT:    -4.877      0.000      0.000
REMARK INTER + INTRA:          -5.344
REMARK INTER:                  -5.162
REMARK INTRA:                  -0.182
REMARK UNBOUND:                -0.182
REMARK SMILES C=C(C)[C@H]1CC[C@]2(C)CCCC(=C)[C@@H]2C1
REMARK SMILES IDX 4 1 5 2 6 3 7 4 9 5 10 6 11 7 12 8 13 9 14 10 15 11 8 12
REMARK SMILES IDX 2 13 3 14 1 15
REMARK H PARENT
REMARK Flexibility Score: inf
ROOT
ATOM      1  C   UNL     1      58.860  43.584  42.469  1.00  0.00     0.015 C 
ATOM      2  C   UNL     1      59.516  44.853  43.035  1.00  0.00     0.008 C 
ATOM      3  C   UNL     1      58.453  45.807  43.593  1.00  0.00     0.008 C 
ATOM      4  C   UNL     1      57.367  46.217  42.550  1.00  0.00    -0.026 C 
ATOM      5  C   UNL     1      56.275  47.069  43.301  1.00  0.00     0.008 C 
ATOM      6  C   UNL     1      54.840  46.701  42.913  1.00  0.00     0.005 C 
ATOM      7  C   UNL     1      54.562  45.236  43.262  1.00  0.00     0.031 C 
ATOM      8  C   UNL     1      55.645  44.318  42.740  1.00  0.00    -0.074 C 
ATOM      9  C   UNL     1      55.530  43.004  43.006  1.00  0.00     0.008 C 
ATOM     10  C   UNL     1      56.752  44.932  41.869  1.00  0.00     0.021 C 
ATOM     11  C   UNL     1      57.844  43.946  41.370  1.00  0.00     0.016 C 
ATOM     12  C   UNL     1      58.002  47.125  41.465  1.00  0.00     0.012 C 
ENDROOT
BRANCH   1  13
ATOM     13  C   UNL     1      59.902  42.599  41.957  1.00  0.00    -0.077 C 
ATOM     14  C   UNL     1      61.097  42.254  42.807  1.00  0.00     0.039 C 
ATOM     15  C   UNL     1      59.783  42.018  40.751  1.00  0.00     0.008 C 
ENDBRANCH   1  13
TORSDOF 1
ENDMDL
MODEL 2
REMARK VINA RESULT:    -4.710      1.283      5.013
REMARK INTER + INTRA:          -5.167
REMARK INTER:                  -4.975
REMARK INTRA:                  -0.192
REMARK UNBOUND:                -0.182
REMARK SMILES C=C(C)[C@H]1CC[C@]2(C)CCCC(=C)[C@@H]2C1
REMARK SMILES IDX 4 1 5 2 6 3 7 4 9 5 10 6 11 7 12 8 13 9 14 10 15 11 8 12
REMARK SMILES IDX 2 13 3 14 1 15
REMARK H PARENT
REMARK Flexibility Score: inf
ROOT
ATOM      1  C   UNL     1      55.824  45.011  43.218  1.00  0.00     0.015 C 
ATOM      2  C   UNL     1      55.870  43.483  43.374  1.00  0.00     0.008 C 
ATOM      3  C   UNL     1      57.288  43.019  43.727  1.00  0.00     0.008 C 
ATOM      4  C   UNL     1      58.369  43.458  42.692  1.00  0.00    -0.026 C 
ATOM      5  C   UNL     1      59.778  43.040  43.260  1.00  0.00     0.008 C 
ATOM      6  C   UNL     1      60.850  44.121  43.088  1.00  0.00     0.005 C 
ATOM      7  C   UNL     1      60.439  45.391  43.837  1.00  0.00     0.031 C 
ATOM      8  C   UNL     1      59.023  45.806  43.506  1.00  0.00    -0.074 C 
ATOM      9  C   UNL     1      58.532  46.897  44.125  1.00  0.00     0.008 C 
ATOM     10  C   UNL     1      58.272  45.011  42.427  1.00  0.00     0.021 C 
ATOM     11  C   UNL     1      56.818  45.473  42.136  1.00  0.00     0.016 C 
ATOM     12  C   UNL     1      58.159  42.691  41.360  1.00  0.00     0.012 C 
ENDROOT
BRANCH   1  13
ATOM     13  C   UNL     1      54.413  45.499  42.917  1.00  0.00    -0.077 C 
ATOM     14  C   UNL     1      53.865  46.709  43.630  1.00  0.00     0.039 C 
ATOM     15  C   UNL     1      53.632  44.873  42.020  1.00  0.00     0.008 C 
ENDBRANCH   1  13
TORSDOF 1
ENDMDL
MODEL 3
REMARK VINA RESULT:    -4.585      1.313      4.901
REMARK INTER + INTRA:          -5.035
REMARK INTER:                  -4.855
REMARK INTRA:                  -0.180
REMARK UNBOUND:                -0.182
REMARK SMILES C=C(C)[C@H]1CC[C@]2(C)CCCC(=C)[C@@H]2C1
REMARK SMILES IDX 4 1 5 2 6 3 7 4 9 5 10 6 11 7 12 8 13 9 14 10 15 11 8 12
REMARK SMILES IDX 2 13 3 14 1 15
REMARK H PARENT
REMARK Flexibility Score: inf
ROOT
ATOM      1  C   UNL     1      55.047  45.832  42.675  1.00  0.00     0.015 C 
ATOM      2  C   UNL     1      55.952  46.986  42.220  1.00  0.00     0.008 C 
ATOM      3  C   UNL     1      57.341  46.463  41.833  1.00  0.00     0.008 C 
ATOM      4  C   UNL     1      58.056  45.674  42.973  1.00  0.00    -0.026 C 
ATOM      5  C   UNL     1      59.392  45.080  42.384  1.00  0.00     0.008 C 
ATOM      6  C   UNL     1      59.653  43.631  42.806  1.00  0.00     0.005 C 
ATOM      7  C   UNL     1      58.521  42.728  42.311  1.00  0.00     0.031 C 
ATOM      8  C   UNL     1      57.160  43.286  42.666  1.00  0.00    -0.074 C 
ATOM      9  C   UNL     1      56.078  42.595  42.260  1.00  0.00     0.008 C 
ATOM     10  C   UNL     1      57.104  44.549  43.538  1.00  0.00     0.021 C 
ATOM     11  C   UNL     1      55.682  45.084  43.863  1.00  0.00     0.016 C 
ATOM     12  C   UNL     1      58.444  46.647  44.117  1.00  0.00     0.012 C 
ENDROOT
BRANCH   1  13
ATOM     13  C   UNL     1      53.646  46.323  43.015  1.00  0.00    -0.077 C 
ATOM     14  C   UNL     1      52.491  46.002  42.102  1.00  0.00     0.039 C 
ATOM     15  C   UNL     1      53.406  47.042  44.125  1.00  0.00     0.008 C 
ENDBRANCH   1  13
TORSDOF 1
ENDMDL
MODEL 4
REMARK VINA RESULT:    -4.332     20.562     23.226
REMARK INTER + INTRA:          -4.767
REMARK INTER:                  -4.594
REMARK INTRA:                  -0.173
REMARK UNBOUND:                -0.182
REMARK SMILES C=C(C)[C@H]1CC[C@]2(C)CCCC(=C)[C@@H]2C1
REMARK SMILES IDX 4 1 5 2 6 3 7 4 9 5 10 6 11 7 12 8 13 9 14 10 15 11 8 12
REMARK SMILES IDX 2 13 3 14 1 15
REMARK H PARENT
REMARK Flexibility Score: inf
ROOT
ATOM      1  C   UNL     1      53.641  30.474  25.853  1.00  0.00     0.015 C 
ATOM      2  C   UNL     1      53.763  30.399  24.323  1.00  0.00     0.008 C 
ATOM      3  C   UNL     1      54.665  29.230  23.911  1.00  0.00     0.008 C 
ATOM      4  C   UNL     1      56.094  29.288  24.533  1.00  0.00    -0.026 C 
ATOM      5  C   UNL     1      56.846  27.960  24.141  1.00  0.00     0.008 C 
ATOM      6  C   UNL     1      57.635  27.341  25.299  1.00  0.00     0.005 C 
ATOM      7  C   UNL     1      56.687  26.981  26.446  1.00  0.00     0.031 C 
ATOM      8  C   UNL     1      55.777  28.134  26.807  1.00  0.00    -0.074 C 
ATOM      9  C   UNL     1      54.875  27.933  27.786  1.00  0.00     0.008 C 
ATOM     10  C   UNL     1      56.001  29.478  26.098  1.00  0.00     0.021 C 
ATOM     11  C   UNL     1      55.031  30.624  26.498  1.00  0.00     0.016 C 
ATOM     12  C   UNL     1      56.885  30.471  23.914  1.00  0.00     0.012 C 
ENDROOT
BRANCH   1  13
ATOM     13  C   UNL     1      52.707  31.597  26.283  1.00  0.00    -0.077 C 
ATOM     14  C   UNL     1      51.248  31.312  26.530  1.00  0.00     0.039 C 
ATOM     15  C   UNL     1      53.154  32.853  26.454  1.00  0.00     0.008 C 
ENDBRANCH   1  13
TORSDOF 1
ENDMDL
MODEL 5
REMARK VINA RESULT:    -4.036      1.202      2.767
REMARK INTER + INTRA:          -4.454
REMARK INTER:                  -4.256
REMARK INTRA:                  -0.198
REMARK UNBOUND:                -0.182
REMARK SMILES C=C(C)[C@H]1CC[C@]2(C)CCCC(=C)[C@@H]2C1
REMARK SMILES IDX 4 1 5 2 6 3 7 4 9 5 10 6 11 7 12 8 13 9 14 10 15 11 8 12
REMARK SMILES IDX 2 13 3 14 1 15
REMARK H PARENT
REMARK Flexibility Score: inf
ROOT
ATOM      1  C   UNL     1      59.510  44.017  42.787  1.00  0.00     0.015 C 
ATOM      2  C   UNL     1      58.710  43.409  41.626  1.00  0.00     0.008 C 
ATOM      3  C   UNL     1      57.414  44.195  41.394  1.00  0.00     0.008 C 
ATOM      4  C   UNL     1      56.497  44.281  42.653  1.00  0.00    -0.026 C 
ATOM      5  C   UNL     1      55.289  45.232  42.307  1.00  0.00     0.008 C 
ATOM      6  C   UNL     1      54.948  46.217  43.429  1.00  0.00     0.005 C 
ATOM      7  C   UNL     1      56.147  47.125  43.714  1.00  0.00     0.031 C 
ATOM      8  C   UNL     1      57.422  46.332  43.895  1.00  0.00    -0.074 C 
ATOM      9  C   UNL     1      58.556  47.020  44.125  1.00  0.00     0.008 C 
ATOM     10  C   UNL     1      57.324  44.799  43.895  1.00  0.00     0.021 C 
ATOM     11  C   UNL     1      58.665  44.035  44.074  1.00  0.00     0.016 C 
ATOM     12  C   UNL     1      55.911  42.880  42.969  1.00  0.00     0.012 C 
ENDROOT
BRANCH   1  13
ATOM     13  C   UNL     1      60.828  43.284  43.001  1.00  0.00    -0.077 C 
ATOM     14  C   UNL     1      62.008  44.009  43.594  1.00  0.00     0.039 C 
ATOM     15  C   UNL     1      60.969  41.988  42.673  1.00  0.00     0.008 C 
ENDBRANCH   1  13
TORSDOF 1
ENDMDL
MODEL 6
REMARK VINA RESULT:    -3.871     21.550     22.996
REMARK INTER + INTRA:          -4.279
REMARK INTER:                  -4.099
REMARK INTRA:                  -0.180
REMARK UNBOUND:                -0.182
REMARK SMILES C=C(C)[C@H]1CC[C@]2(C)CCCC(=C)[C@@H]2C1
REMARK SMILES IDX 4 1 5 2 6 3 7 4 9 5 10 6 11 7 12 8 13 9 14 10 15 11 8 12
REMARK SMILES IDX 2 13 3 14 1 15
REMARK H PARENT
REMARK Flexibility Score: inf
ROOT
ATOM      1  C   UNL     1      55.995  28.369  25.885  1.00  0.00     0.015 C 
ATOM      2  C   UNL     1      56.247  29.884  25.840  1.00  0.00     0.008 C 
ATOM      3  C   UNL     1      55.055  30.647  26.431  1.00  0.00     0.008 C 
ATOM      4  C   UNL     1      53.698  30.334  25.730  1.00  0.00    -0.026 C 
ATOM      5  C   UNL     1      52.559  31.069  26.533  1.00  0.00     0.008 C 
ATOM      6  C   UNL     1      51.311  30.208  26.749  1.00  0.00     0.005 C 
ATOM      7  C   UNL     1      51.671  28.956  27.553  1.00  0.00     0.031 C 
ATOM      8  C   UNL     1      52.875  28.244  26.977  1.00  0.00    -0.074 C 
ATOM      9  C   UNL     1      53.309  27.139  27.613  1.00  0.00     0.008 C 
ATOM     10  C   UNL     1      53.465  28.774  25.662  1.00  0.00     0.021 C 
ATOM     11  C   UNL     1      54.706  28.013  25.121  1.00  0.00     0.016 C 
ATOM     12  C   UNL     1      53.706  30.920  24.293  1.00  0.00     0.012 C 
ENDROOT
BRANCH   1  13
ATOM     13  C   UNL     1      57.189  27.590  25.349  1.00  0.00    -0.077 C 
ATOM     14  C   UNL     1      57.505  27.611  23.875  1.00  0.00     0.039 C 
ATOM     15  C   UNL     1      57.982  26.875  26.165  1.00  0.00     0.008 C 
ENDBRANCH   1  13
TORSDOF 1
ENDMDL
MODEL 7
REMARK VINA RESULT:    -3.742     18.668     20.343
REMARK INTER + INTRA:          -4.142
REMARK INTER:                  -3.957
REMARK INTRA:                  -0.186
REMARK UNBOUND:                -0.182
REMARK SMILES C=C(C)[C@H]1CC[C@]2(C)CCCC(=C)[C@@H]2C1
REMARK SMILES IDX 4 1 5 2 6 3 7 4 9 5 10 6 11 7 12 8 13 9 14 10 15 11 8 12
REMARK SMILES IDX 2 13 3 14 1 15
REMARK H PARENT
REMARK Flexibility Score: inf
ROOT
ATOM      1  C   UNL     1      51.254  31.535  27.209  1.00  0.00     0.015 C 
ATOM      2  C   UNL     1      50.804  30.442  28.191  1.00  0.00     0.008 C 
ATOM      3  C   UNL     1      49.531  30.871  28.930  1.00  0.00     0.008 C 
ATOM      4  C   UNL     1      49.674  32.220  29.699  1.00  0.00    -0.026 C 
ATOM      5  C   UNL     1      48.258  32.599  30.278  1.00  0.00     0.008 C 
ATOM      6  C   UNL     1      47.903  34.078  30.103  1.00  0.00     0.005 C 
ATOM      7  C   UNL     1      47.875  34.439  28.616  1.00  0.00     0.031 C 
ATOM      8  C   UNL     1      49.121  33.969  27.899  1.00  0.00    -0.074 C 
ATOM      9  C   UNL     1      49.205  34.202  26.576  1.00  0.00     0.008 C 
ATOM     10  C   UNL     1      50.241  33.338  28.740  1.00  0.00     0.021 C 
ATOM     11  C   UNL     1      51.493  32.863  27.951  1.00  0.00     0.016 C 
ATOM     12  C   UNL     1      50.634  32.035  30.904  1.00  0.00     0.012 C 
ENDROOT
BRANCH   1  13
ATOM     13  C   UNL     1      52.489  31.108  26.427  1.00  0.00    -0.077 C 
ATOM     14  C   UNL     1      52.631  29.682  25.961  1.00  0.00     0.039 C 
ATOM     15  C   UNL     1      53.468  31.981  26.134  1.00  0.00     0.008 C 
ENDBRANCH   1  13
TORSDOF 1
ENDMDL
MODEL 8
REMARK VINA RESULT:    -3.708     18.817     20.681
REMARK INTER + INTRA:          -4.106
REMARK INTER:                  -3.908
REMARK INTRA:                  -0.198
REMARK UNBOUND:                -0.182
REMARK SMILES C=C(C)[C@H]1CC[C@]2(C)CCCC(=C)[C@@H]2C1
REMARK SMILES IDX 4 1 5 2 6 3 7 4 9 5 10 6 11 7 12 8 13 9 14 10 15 11 8 12
REMARK SMILES IDX 2 13 3 14 1 15
REMARK H PARENT
REMARK Flexibility Score: inf
ROOT
ATOM      1  C   UNL     1      48.769  30.418  28.569  1.00  0.00     0.015 C 
ATOM      2  C   UNL     1      48.236  30.869  29.937  1.00  0.00     0.008 C 
ATOM      3  C   UNL     1      48.684  32.303  30.244  1.00  0.00     0.008 C 
ATOM      4  C   UNL     1      50.231  32.500  30.210  1.00  0.00    -0.026 C 
ATOM      5  C   UNL     1      50.526  34.036  30.396  1.00  0.00     0.008 C 
ATOM      6  C   UNL     1      51.609  34.568  29.452  1.00  0.00     0.005 C 
ATOM      7  C   UNL     1      51.173  34.383  27.997  1.00  0.00     0.031 C 
ATOM      8  C   UNL     1      50.694  32.973  27.727  1.00  0.00    -0.074 C 
ATOM      9  C   UNL     1      50.256  32.690  26.486  1.00  0.00     0.008 C 
ATOM     10  C   UNL     1      50.822  31.941  28.857  1.00  0.00     0.021 C 
ATOM     11  C   UNL     1      50.306  30.512  28.530  1.00  0.00     0.016 C 
ATOM     12  C   UNL     1      50.878  31.753  31.406  1.00  0.00     0.012 C 
ENDROOT
BRANCH   1  13
ATOM     13  C   UNL     1      48.292  29.013  28.220  1.00  0.00    -0.077 C 
ATOM     14  C   UNL     1      48.108  28.615  26.779  1.00  0.00     0.039 C 
ATOM     15  C   UNL     1      48.031  28.106  29.176  1.00  0.00     0.008 C 
ENDBRANCH   1  13
TORSDOF 1
ENDMDL
MODEL 9
REMARK VINA RESULT:    -3.648     20.820     23.322
REMARK INTER + INTRA:          -4.043
REMARK INTER:                  -3.846
REMARK INTRA:                  -0.196
REMARK UNBOUND:                -0.182
REMARK SMILES C=C(C)[C@H]1CC[C@]2(C)CCCC(=C)[C@@H]2C1
REMARK SMILES IDX 4 1 5 2 6 3 7 4 9 5 10 6 11 7 12 8 13 9 14 10 15 11 8 12
REMARK SMILES IDX 2 13 3 14 1 15
REMARK H PARENT
REMARK Flexibility Score: inf
ROOT
ATOM      1  C   UNL     1      53.025  30.035  26.132  1.00  0.00     0.015 C 
ATOM      2  C   UNL     1      54.102  31.130  26.130  1.00  0.00     0.008 C 
ATOM      3  C   UNL     1      55.397  30.612  25.490  1.00  0.00     0.008 C 
ATOM      4  C   UNL     1      55.970  29.335  26.177  1.00  0.00    -0.026 C 
ATOM      5  C   UNL     1      57.203  28.843  25.328  1.00  0.00     0.008 C 
ATOM      6  C   UNL     1      57.233  27.326  25.119  1.00  0.00     0.005 C 
ATOM      7  C   UNL     1      55.979  26.875  24.366  1.00  0.00     0.031 C 
ATOM      8  C   UNL     1      54.718  27.433  24.988  1.00  0.00    -0.074 C 
ATOM      9  C   UNL     1      53.546  27.130  24.398  1.00  0.00     0.008 C 
ATOM     10  C   UNL     1      54.850  28.228  26.295  1.00  0.00     0.021 C 
ATOM     11  C   UNL     1      53.525  28.787  26.884  1.00  0.00     0.016 C 
ATOM     12  C   UNL     1      56.494  29.694  27.593  1.00  0.00     0.012 C 
ENDROOT
BRANCH   1  13
ATOM     13  C   UNL     1      51.714  30.544  26.716  1.00  0.00    -0.077 C 
ATOM     14  C   UNL     1      51.600  31.971  27.185  1.00  0.00     0.039 C 
ATOM     15  C   UNL     1      50.639  29.744  26.825  1.00  0.00     0.008 C 
ENDBRANCH   1  13
TORSDOF 1
ENDMDL
