MODEL 1
REMARK VINA RESULT:    -3.041      0.000      0.000
REMARK INTER + INTRA:         -11.732
REMARK INTER:                  -6.952
REMARK INTRA:                  -4.780
REMARK UNBOUND:                -4.780
REMARK SMILES CCCCCCCCCCCCCCCCCCCCCCCC(=O)[O-]
REMARK SMILES IDX 13 1 14 2 15 3 16 4 17 5 18 6 19 7 20 8 21 9 22 10 23 11
REMARK SMILES IDX 24 12 25 13 26 14 12 15 11 16 10 17 9 18 8 19 7 20 6 21 5 22
REMARK SMILES IDX 4 23 3 24 2 25 1 26
REMARK H PARENT
REMARK Flexibility Score: inf
ROOT
ATOM      1  C   UNL     1     166.641 154.640 180.328  1.00  0.00     0.000 C 
ENDROOT
BRANCH   1   2
ATOM      2  C   UNL     1     167.493 153.374 180.525  1.00  0.00     0.000 C 
BRANCH   2   3
ATOM      3  C   UNL     1     168.811 153.410 179.731  1.00  0.00     0.000 C 
BRANCH   3   4
ATOM      4  C   UNL     1     169.051 152.207 178.800  1.00  0.00     0.000 C 
BRANCH   4   5
ATOM      5  C   UNL     1     167.795 151.337 178.614  1.00  0.00     0.000 C 
BRANCH   5   6
ATOM      6  C   UNL     1     167.171 151.492 177.217  1.00  0.00     0.000 C 
BRANCH   6   7
ATOM      7  C   UNL     1     165.973 152.457 177.211  1.00  0.00     0.000 C 
BRANCH   7   8
ATOM      8  C   UNL     1     166.330 153.851 176.661  1.00  0.00     0.000 C 
BRANCH   8   9
ATOM      9  C   UNL     1     167.620 153.915 175.820  1.00  0.00     0.000 C 
BRANCH   9  10
ATOM     10  C   UNL     1     168.314 155.291 175.777  1.00  0.00     0.006 C 
BRANCH  10  11
ATOM     11  C   UNL     1     169.560 155.390 176.676  1.00  0.00     0.053 C 
BRANCH  11  12
ATOM     12  C   UNL     1     169.956 156.808 176.952  1.00  0.00     0.041 C 
ATOM     13  O   UNL     1     169.999 157.649 176.014  1.00  0.00    -0.550 OA
ATOM     14  O   UNL     1     170.310 157.197 178.237  1.00  0.00    -0.550 OA
ENDBRANCH  11  12
ENDBRANCH  10  11
ENDBRANCH   9  10
ENDBRANCH   8   9
ENDBRANCH   7   8
ENDBRANCH   6   7
ENDBRANCH   5   6
ENDBRANCH   4   5
ENDBRANCH   3   4
ENDBRANCH   2   3
ENDBRANCH   1   2
BRANCH   1  15
ATOM     15  C   UNL     1     167.466 155.837 179.830  1.00  0.00     0.000 C 
BRANCH  15  16
ATOM     16  C   UNL     1     166.682 156.743 178.867  1.00  0.00     0.000 C 
BRANCH  16  17
ATOM     17  C   UNL     1     165.554 157.481 179.602  1.00  0.00     0.000 C 
BRANCH  17  18
ATOM     18  C   UNL     1     164.217 157.426 178.846  1.00  0.00    -0.000 C 
BRANCH  18  19
ATOM     19  C   UNL     1     163.824 155.998 178.438  1.00  0.00    -0.000 C 
BRANCH  19  20
ATOM     20  C   UNL     1     162.936 156.011 177.184  1.00  0.00    -0.000 C 
BRANCH  20  21
ATOM     21  C   UNL     1     162.033 157.255 177.098  1.00  0.00    -0.000 C 
BRANCH  21  22
ATOM     22  C   UNL     1     162.094 158.019 175.763  1.00  0.00    -0.000 C 
BRANCH  22  23
ATOM     23  C   UNL     1     163.347 158.902 175.634  1.00  0.00    -0.000 C 
BRANCH  23  24
ATOM     24  C   UNL     1     164.406 158.305 174.690  1.00  0.00    -0.000 C 
BRANCH  24  25
ATOM     25  C   UNL     1     165.669 157.764 175.384  1.00  0.00    -0.003 C 
ATOM     26  C   UNL     1     166.559 158.866 175.958  1.00  0.00     0.004 C 
ENDBRANCH  24  25
ENDBRANCH  23  24
ENDBRANCH  22  23
ENDBRANCH  21  22
ENDBRANCH  20  21
ENDBRANCH  19  20
ENDBRANCH  18  19
ENDBRANCH  17  18
ENDBRANCH  16  17
ENDBRANCH  15  16
ENDBRANCH   1  15
TORSDOF 22
ENDMDL
MODEL 2
REMARK VINA RESULT:    -2.992      2.893      6.345
REMARK INTER + INTRA:         -11.620
REMARK INTER:                  -7.150
REMARK INTRA:                  -4.470
REMARK UNBOUND:                -4.780
REMARK SMILES CCCCCCCCCCCCCCCCCCCCCCCC(=O)[O-]
REMARK SMILES IDX 13 1 14 2 15 3 16 4 17 5 18 6 19 7 20 8 21 9 22 10 23 11
REMARK SMILES IDX 24 12 25 13 26 14 12 15 11 16 10 17 9 18 8 19 7 20 6 21 5 22
REMARK SMILES IDX 4 23 3 24 2 25 1 26
REMARK H PARENT
REMARK Flexibility Score: inf
ROOT
ATOM      1  C   UNL     1     167.197 154.926 180.661  1.00  0.00     0.000 C 
ENDROOT
BRANCH   1   2
ATOM      2  C   UNL     1     165.733 155.314 180.388  1.00  0.00     0.000 C 
BRANCH   2   3
ATOM      3  C   UNL     1     165.547 156.824 180.157  1.00  0.00     0.000 C 
BRANCH   3   4
ATOM      4  C   UNL     1     164.418 157.205 179.181  1.00  0.00     0.000 C 
BRANCH   4   5
ATOM      5  C   UNL     1     163.691 155.979 178.601  1.00  0.00     0.000 C 
BRANCH   5   6
ATOM      6  C   UNL     1     163.304 156.167 177.124  1.00  0.00     0.000 C 
BRANCH   6   7
ATOM      7  C   UNL     1     163.985 157.391 176.489  1.00  0.00     0.000 C 
BRANCH   7   8
ATOM      8  C   UNL     1     162.988 158.334 175.788  1.00  0.00     0.000 C 
BRANCH   8   9
ATOM      9  C   UNL     1     161.500 158.007 176.021  1.00  0.00     0.000 C 
BRANCH   9  10
ATOM     10  C   UNL     1     160.623 159.195 176.465  1.00  0.00     0.006 C 
BRANCH  10  11
ATOM     11  C   UNL     1     159.833 158.937 177.762  1.00  0.00     0.053 C 
BRANCH  11  12
ATOM     12  C   UNL     1     160.722 158.559 178.907  1.00  0.00     0.041 C 
ATOM     13  O   UNL     1     161.631 159.342 179.291  1.00  0.00    -0.550 OA
ATOM     14  O   UNL     1     160.571 157.326 179.530  1.00  0.00    -0.550 OA
ENDBRANCH  11  12
ENDBRANCH  10  11
ENDBRANCH   9  10
ENDBRANCH   8   9
ENDBRANCH   7   8
ENDBRANCH   6   7
ENDBRANCH   5   6
ENDBRANCH   4   5
ENDBRANCH   3   4
ENDBRANCH   2   3
ENDBRANCH   1   2
BRANCH   1  15
ATOM     15  C   UNL     1     167.443 153.414 180.535  1.00  0.00     0.000 C 
BRANCH  15  16
ATOM     16  C   UNL     1     168.923 153.068 180.307  1.00  0.00     0.000 C 
BRANCH  16  17
ATOM     17  C   UNL     1     169.101 152.226 179.035  1.00  0.00     0.000 C 
BRANCH  17  18
ATOM     18  C   UNL     1     167.885 151.335 178.738  1.00  0.00    -0.000 C 
BRANCH  18  19
ATOM     19  C   UNL     1     167.455 151.391 177.263  1.00  0.00    -0.000 C 
BRANCH  19  20
ATOM     20  C   UNL     1     165.964 151.740 177.140  1.00  0.00    -0.000 C 
BRANCH  20  21
ATOM     21  C   UNL     1     165.683 153.246 177.295  1.00  0.00    -0.000 C 
BRANCH  21  22
ATOM     22  C   UNL     1     166.505 154.165 176.373  1.00  0.00    -0.000 C 
BRANCH  22  23
ATOM     23  C   UNL     1     167.503 155.048 177.142  1.00  0.00    -0.000 C 
BRANCH  23  24
ATOM     24  C   UNL     1     167.493 156.514 176.670  1.00  0.00    -0.000 C 
BRANCH  24  25
ATOM     25  C   UNL     1     168.077 157.526 177.672  1.00  0.00    -0.003 C 
ATOM     26  C   UNL     1     169.381 157.053 178.314  1.00  0.00     0.004 C 
ENDBRANCH  24  25
ENDBRANCH  23  24
ENDBRANCH  22  23
ENDBRANCH  21  22
ENDBRANCH  20  21
ENDBRANCH  19  20
ENDBRANCH  18  19
ENDBRANCH  17  18
ENDBRANCH  16  17
ENDBRANCH  15  16
ENDBRANCH   1  15
TORSDOF 22
ENDMDL
MODEL 3
REMARK VINA RESULT:    -2.988      2.803      6.810
REMARK INTER + INTRA:         -11.612
REMARK INTER:                  -7.487
REMARK INTRA:                  -4.125
REMARK UNBOUND:                -4.780
REMARK SMILES CCCCCCCCCCCCCCCCCCCCCCCC(=O)[O-]
REMARK SMILES IDX 13 1 14 2 15 3 16 4 17 5 18 6 19 7 20 8 21 9 22 10 23 11
REMARK SMILES IDX 24 12 25 13 26 14 12 15 11 16 10 17 9 18 8 19 7 20 6 21 5 22
REMARK SMILES IDX 4 23 3 24 2 25 1 26
REMARK H PARENT
REMARK Flexibility Score: inf
ROOT
ATOM      1  C   UNL     1     166.342 156.527 178.802  1.00  0.00     0.000 C 
ENDROOT
BRANCH   1   2
ATOM      2  C   UNL     1     165.242 157.246 179.603  1.00  0.00     0.000 C 
BRANCH   2   3
ATOM      3  C   UNL     1     163.823 156.857 179.152  1.00  0.00     0.000 C 
BRANCH   3   4
ATOM      4  C   UNL     1     163.756 155.798 178.036  1.00  0.00     0.000 C 
BRANCH   4   5
ATOM      5  C   UNL     1     163.481 156.407 176.650  1.00  0.00     0.000 C 
BRANCH   5   6
ATOM      6  C   UNL     1     163.122 157.901 176.722  1.00  0.00     0.000 C 
BRANCH   6   7
ATOM      7  C   UNL     1     161.826 158.232 175.963  1.00  0.00     0.000 C 
BRANCH   7   8
ATOM      8  C   UNL     1     160.675 158.650 176.898  1.00  0.00     0.000 C 
BRANCH   8   9
ATOM      9  C   UNL     1     160.072 157.515 177.747  1.00  0.00     0.000 C 
BRANCH   9  10
ATOM     10  C   UNL     1     160.320 157.621 179.265  1.00  0.00     0.006 C 
BRANCH  10  11
ATOM     11  C   UNL     1     160.349 159.067 179.793  1.00  0.00     0.053 C 
BRANCH  11  12
ATOM     12  C   UNL     1     161.643 159.402 180.471  1.00  0.00     0.041 C 
ATOM     13  O   UNL     1     162.475 160.162 179.908  1.00  0.00    -0.550 OA
ATOM     14  O   UNL     1     161.948 158.849 181.708  1.00  0.00    -0.550 OA
ENDBRANCH  11  12
ENDBRANCH  10  11
ENDBRANCH   9  10
ENDBRANCH   8   9
ENDBRANCH   7   8
ENDBRANCH   6   7
ENDBRANCH   5   6
ENDBRANCH   4   5
ENDBRANCH   3   4
ENDBRANCH   2   3
ENDBRANCH   1   2
BRANCH   1  15
ATOM     15  C   UNL     1     167.201 155.600 179.677  1.00  0.00     0.000 C 
BRANCH  15  16
ATOM     16  C   UNL     1     166.406 154.416 180.251  1.00  0.00     0.000 C 
BRANCH  16  17
ATOM     17  C   UNL     1     167.318 153.204 180.486  1.00  0.00     0.000 C 
BRANCH  17  18
ATOM     18  C   UNL     1     168.651 153.307 179.729  1.00  0.00    -0.000 C 
BRANCH  18  19
ATOM     19  C   UNL     1     168.998 152.023 178.960  1.00  0.00    -0.000 C 
BRANCH  19  20
ATOM     20  C   UNL     1     167.734 151.202 178.664  1.00  0.00    -0.000 C 
BRANCH  20  21
ATOM     21  C   UNL     1     167.186 151.430 177.243  1.00  0.00    -0.000 C 
BRANCH  21  22
ATOM     22  C   UNL     1     165.967 152.366 177.152  1.00  0.00    -0.000 C 
BRANCH  22  23
ATOM     23  C   UNL     1     166.306 153.732 176.530  1.00  0.00    -0.000 C 
BRANCH  23  24
ATOM     24  C   UNL     1     167.732 153.791 175.954  1.00  0.00    -0.000 C 
BRANCH  24  25
ATOM     25  C   UNL     1     168.345 155.200 175.872  1.00  0.00    -0.003 C 
ATOM     26  C   UNL     1     169.575 155.374 176.762  1.00  0.00     0.004 C 
ENDBRANCH  24  25
ENDBRANCH  23  24
ENDBRANCH  22  23
ENDBRANCH  21  22
ENDBRANCH  20  21
ENDBRANCH  19  20
ENDBRANCH  18  19
ENDBRANCH  17  18
ENDBRANCH  16  17
ENDBRANCH  15  16
ENDBRANCH   1  15
TORSDOF 22
ENDMDL
MODEL 4
REMARK VINA RESULT:    -2.984      2.912      6.773
REMARK INTER + INTRA:         -11.602
REMARK INTER:                  -7.192
REMARK INTRA:                  -4.410
REMARK UNBOUND:                -4.780
REMARK SMILES CCCCCCCCCCCCCCCCCCCCCCCC(=O)[O-]
REMARK SMILES IDX 13 1 14 2 15 3 16 4 17 5 18 6 19 7 20 8 21 9 22 10 23 11
REMARK SMILES IDX 24 12 25 13 26 14 12 15 11 16 10 17 9 18 8 19 7 20 6 21 5 22
REMARK SMILES IDX 4 23 3 24 2 25 1 26
REMARK H PARENT
REMARK Flexibility Score: inf
ROOT
ATOM      1  C   UNL     1     166.011 153.579 176.895  1.00  0.00     0.000 C 
ENDROOT
BRANCH   1   2
ATOM      2  C   UNL     1     164.858 154.526 177.269  1.00  0.00     0.000 C 
BRANCH   2   3
ATOM      3  C   UNL     1     164.681 155.679 176.265  1.00  0.00     0.000 C 
BRANCH   3   4
ATOM      4  C   UNL     1     165.926 156.009 175.419  1.00  0.00     0.000 C 
BRANCH   4   5
ATOM      5  C   UNL     1     165.934 157.460 174.908  1.00  0.00     0.000 C 
BRANCH   5   6
ATOM      6  C   UNL     1     164.529 157.960 174.530  1.00  0.00     0.000 C 
BRANCH   6   7
ATOM      7  C   UNL     1     164.205 159.330 175.150  1.00  0.00     0.000 C 
BRANCH   7   8
ATOM      8  C   UNL     1     163.099 159.257 176.219  1.00  0.00     0.000 C 
BRANCH   8   9
ATOM      9  C   UNL     1     161.894 158.367 175.859  1.00  0.00     0.000 C 
BRANCH   9  10
ATOM     10  C   UNL     1     161.520 157.302 176.909  1.00  0.00     0.006 C 
BRANCH  10  11
ATOM     11  C   UNL     1     162.253 157.466 178.253  1.00  0.00     0.053 C 
BRANCH  11  12
ATOM     12  C   UNL     1     161.348 157.956 179.342  1.00  0.00     0.041 C 
ATOM     13  O   UNL     1     161.761 158.019 180.530  1.00  0.00    -0.550 OA
ATOM     14  O   UNL     1     160.036 158.310 179.053  1.00  0.00    -0.550 OA
ENDBRANCH  11  12
ENDBRANCH  10  11
ENDBRANCH   9  10
ENDBRANCH   8   9
ENDBRANCH   7   8
ENDBRANCH   6   7
ENDBRANCH   5   6
ENDBRANCH   4   5
ENDBRANCH   3   4
ENDBRANCH   2   3
ENDBRANCH   1   2
BRANCH   1  15
ATOM     15  C   UNL     1     165.711 152.112 177.245  1.00  0.00     0.000 C 
BRANCH  15  16
ATOM     16  C   UNL     1     166.979 151.250 177.338  1.00  0.00     0.000 C 
BRANCH  16  17
ATOM     17  C   UNL     1     168.241 152.106 177.156  1.00  0.00     0.000 C 
BRANCH  17  18
ATOM     18  C   UNL     1     169.165 152.070 178.382  1.00  0.00    -0.000 C 
BRANCH  18  19
ATOM     19  C   UNL     1     168.449 151.585 179.652  1.00  0.00    -0.000 C 
BRANCH  19  20
ATOM     20  C   UNL     1     168.198 152.752 180.619  1.00  0.00    -0.000 C 
BRANCH  20  21
ATOM     21  C   UNL     1     166.782 153.344 180.496  1.00  0.00    -0.000 C 
BRANCH  21  22
ATOM     22  C   UNL     1     166.719 154.880 180.401  1.00  0.00    -0.000 C 
BRANCH  22  23
ATOM     23  C   UNL     1     167.911 155.482 179.636  1.00  0.00    -0.000 C 
BRANCH  23  24
ATOM     24  C   UNL     1     167.504 156.642 178.710  1.00  0.00    -0.000 C 
BRANCH  24  25
ATOM     25  C   UNL     1     166.252 157.421 179.151  1.00  0.00    -0.003 C 
ATOM     26  C   UNL     1     166.069 158.740 178.402  1.00  0.00     0.004 C 
ENDBRANCH  24  25
ENDBRANCH  23  24
ENDBRANCH  22  23
ENDBRANCH  21  22
ENDBRANCH  20  21
ENDBRANCH  19  20
ENDBRANCH  18  19
ENDBRANCH  17  18
ENDBRANCH  16  17
ENDBRANCH  15  16
ENDBRANCH   1  15
TORSDOF 22
ENDMDL
MODEL 5
REMARK VINA RESULT:    -2.963      3.365      6.109
REMARK INTER + INTRA:         -11.554
REMARK INTER:                  -7.391
REMARK INTRA:                  -4.163
REMARK UNBOUND:                -4.780
REMARK SMILES CCCCCCCCCCCCCCCCCCCCCCCC(=O)[O-]
REMARK SMILES IDX 13 1 14 2 15 3 16 4 17 5 18 6 19 7 20 8 21 9 22 10 23 11
REMARK SMILES IDX 24 12 25 13 26 14 12 15 11 16 10 17 9 18 8 19 7 20 6 21 5 22
REMARK SMILES IDX 4 23 3 24 2 25 1 26
REMARK H PARENT
REMARK Flexibility Score: inf
ROOT
ATOM      1  C   UNL     1     168.935 151.985 178.332  1.00  0.00     0.000 C 
ENDROOT
BRANCH   1   2
ATOM      2  C   UNL     1     168.100 151.991 177.039  1.00  0.00     0.000 C 
BRANCH   2   3
ATOM      3  C   UNL     1     166.625 151.621 177.278  1.00  0.00     0.000 C 
BRANCH   3   4
ATOM      4  C   UNL     1     165.643 152.807 177.280  1.00  0.00     0.000 C 
BRANCH   4   5
ATOM      5  C   UNL     1     166.248 154.085 176.671  1.00  0.00     0.000 C 
BRANCH   5   6
ATOM      6  C   UNL     1     165.236 155.241 176.602  1.00  0.00     0.000 C 
BRANCH   6   7
ATOM      7  C   UNL     1     163.887 154.882 177.247  1.00  0.00     0.000 C 
BRANCH   7   8
ATOM      8  C   UNL     1     162.910 156.073 177.293  1.00  0.00     0.000 C 
BRANCH   8   9
ATOM      9  C   UNL     1     162.834 156.809 178.645  1.00  0.00     0.000 C 
BRANCH   9  10
ATOM     10  C   UNL     1     161.716 157.864 178.762  1.00  0.00     0.006 C 
BRANCH  10  11
ATOM     11  C   UNL     1     160.504 157.593 177.851  1.00  0.00     0.053 C 
BRANCH  11  12
ATOM     12  C   UNL     1     159.743 158.842 177.525  1.00  0.00     0.041 C 
ATOM     13  O   UNL     1     159.811 159.343 176.371  1.00  0.00    -0.550 OA
ATOM     14  O   UNL     1     158.986 159.473 178.504  1.00  0.00    -0.550 OA
ENDBRANCH  11  12
ENDBRANCH  10  11
ENDBRANCH   9  10
ENDBRANCH   8   9
ENDBRANCH   7   8
ENDBRANCH   6   7
ENDBRANCH   5   6
ENDBRANCH   4   5
ENDBRANCH   3   4
ENDBRANCH   2   3
ENDBRANCH   1   2
BRANCH   1  15
ATOM     15  C   UNL     1     168.294 151.143 179.447  1.00  0.00     0.000 C 
BRANCH  15  16
ATOM     16  C   UNL     1     168.317 151.847 180.813  1.00  0.00     0.000 C 
BRANCH  16  17
ATOM     17  C   UNL     1     168.919 153.255 180.696  1.00  0.00     0.000 C 
BRANCH  17  18
ATOM     18  C   UNL     1     167.926 154.360 181.084  1.00  0.00    -0.000 C 
BRANCH  18  19
ATOM     19  C   UNL     1     166.519 154.122 180.513  1.00  0.00    -0.000 C 
BRANCH  19  20
ATOM     20  C   UNL     1     165.780 155.452 180.304  1.00  0.00    -0.000 C 
BRANCH  20  21
ATOM     21  C   UNL     1     166.720 156.671 180.305  1.00  0.00    -0.000 C 
BRANCH  21  22
ATOM     22  C   UNL     1     166.515 157.660 179.142  1.00  0.00    -0.000 C 
BRANCH  22  23
ATOM     23  C   UNL     1     167.537 157.470 178.008  1.00  0.00    -0.000 C 
BRANCH  23  24
ATOM     24  C   UNL     1     168.883 156.908 178.501  1.00  0.00    -0.000 C 
BRANCH  24  25
ATOM     25  C   UNL     1     169.323 155.591 177.838  1.00  0.00    -0.003 C 
ATOM     26  C   UNL     1     170.069 155.801 176.521  1.00  0.00     0.004 C 
ENDBRANCH  24  25
ENDBRANCH  23  24
ENDBRANCH  22  23
ENDBRANCH  21  22
ENDBRANCH  20  21
ENDBRANCH  19  20
ENDBRANCH  18  19
ENDBRANCH  17  18
ENDBRANCH  16  17
ENDBRANCH  15  16
ENDBRANCH   1  15
TORSDOF 22
ENDMDL
MODEL 6
REMARK VINA RESULT:    -2.948      3.318      6.222
REMARK INTER + INTRA:         -11.519
REMARK INTER:                  -7.702
REMARK INTRA:                  -3.817
REMARK UNBOUND:                -4.780
REMARK SMILES CCCCCCCCCCCCCCCCCCCCCCCC(=O)[O-]
REMARK SMILES IDX 13 1 14 2 15 3 16 4 17 5 18 6 19 7 20 8 21 9 22 10 23 11
REMARK SMILES IDX 24 12 25 13 26 14 12 15 11 16 10 17 9 18 8 19 7 20 6 21 5 22
REMARK SMILES IDX 4 23 3 24 2 25 1 26
REMARK H PARENT
REMARK Flexibility Score: inf
ROOT
ATOM      1  C   UNL     1     169.439 153.112 179.981  1.00  0.00     0.000 C 
ENDROOT
BRANCH   1   2
ATOM      2  C   UNL     1     168.633 154.382 179.655  1.00  0.00     0.000 C 
BRANCH   2   3
ATOM      3  C   UNL     1     167.563 154.699 180.715  1.00  0.00     0.000 C 
BRANCH   3   4
ATOM      4  C   UNL     1     166.105 154.590 180.229  1.00  0.00     0.000 C 
BRANCH   4   5
ATOM      5  C   UNL     1     165.458 155.962 179.968  1.00  0.00     0.000 C 
BRANCH   5   6
ATOM      6  C   UNL     1     164.658 155.997 178.655  1.00  0.00     0.000 C 
BRANCH   6   7
ATOM      7  C   UNL     1     163.370 156.829 178.773  1.00  0.00     0.000 C 
BRANCH   7   8
ATOM      8  C   UNL     1     162.549 156.850 177.469  1.00  0.00     0.000 C 
BRANCH   8   9
ATOM      9  C   UNL     1     162.042 158.238 177.034  1.00  0.00     0.000 C 
BRANCH   9  10
ATOM     10  C   UNL     1     161.378 158.294 175.643  1.00  0.00     0.006 C 
BRANCH  10  11
ATOM     11  C   UNL     1     161.341 159.703 175.025  1.00  0.00     0.053 C 
BRANCH  11  12
ATOM     12  C   UNL     1     160.027 160.389 175.242  1.00  0.00     0.041 C 
ATOM     13  O   UNL     1     159.847 161.563 174.819  1.00  0.00    -0.550 OA
ATOM     14  O   UNL     1     159.012 159.749 175.941  1.00  0.00    -0.550 OA
ENDBRANCH  11  12
ENDBRANCH  10  11
ENDBRANCH   9  10
ENDBRANCH   8   9
ENDBRANCH   7   8
ENDBRANCH   6   7
ENDBRANCH   5   6
ENDBRANCH   4   5
ENDBRANCH   3   4
ENDBRANCH   2   3
ENDBRANCH   1   2
BRANCH   1  15
ATOM     15  C   UNL     1     169.385 152.070 178.852  1.00  0.00     0.000 C 
BRANCH  15  16
ATOM     16  C   UNL     1     167.998 151.422 178.705  1.00  0.00     0.000 C 
BRANCH  16  17
ATOM     17  C   UNL     1     167.457 151.601 177.280  1.00  0.00     0.000 C 
BRANCH  17  18
ATOM     18  C   UNL     1     166.181 152.457 177.232  1.00  0.00    -0.000 C 
BRANCH  18  19
ATOM     19  C   UNL     1     166.398 153.806 176.528  1.00  0.00    -0.000 C 
BRANCH  19  20
ATOM     20  C   UNL     1     167.760 153.841 175.819  1.00  0.00    -0.000 C 
BRANCH  20  21
ATOM     21  C   UNL     1     168.649 155.011 176.280  1.00  0.00    -0.000 C 
BRANCH  21  22
ATOM     22  C   UNL     1     167.896 156.305 176.640  1.00  0.00    -0.000 C 
BRANCH  22  23
ATOM     23  C   UNL     1     167.478 157.119 175.403  1.00  0.00    -0.000 C 
BRANCH  23  24
ATOM     24  C   UNL     1     166.372 158.146 175.708  1.00  0.00    -0.000 C 
BRANCH  24  25
ATOM     25  C   UNL     1     165.067 157.953 174.915  1.00  0.00    -0.003 C 
ATOM     26  C   UNL     1     164.761 156.488 174.606  1.00  0.00     0.004 C 
ENDBRANCH  24  25
ENDBRANCH  23  24
ENDBRANCH  22  23
ENDBRANCH  21  22
ENDBRANCH  20  21
ENDBRANCH  19  20
ENDBRANCH  18  19
ENDBRANCH  17  18
ENDBRANCH  16  17
ENDBRANCH  15  16
ENDBRANCH   1  15
TORSDOF 22
ENDMDL
MODEL 7
REMARK VINA RESULT:    -2.929      1.199      2.241
REMARK INTER + INTRA:         -11.476
REMARK INTER:                  -7.055
REMARK INTRA:                  -4.421
REMARK UNBOUND:                -4.780
REMARK SMILES CCCCCCCCCCCCCCCCCCCCCCCC(=O)[O-]
REMARK SMILES IDX 13 1 14 2 15 3 16 4 17 5 18 6 19 7 20 8 21 9 22 10 23 11
REMARK SMILES IDX 24 12 25 13 26 14 12 15 11 16 10 17 9 18 8 19 7 20 6 21 5 22
REMARK SMILES IDX 4 23 3 24 2 25 1 26
REMARK H PARENT
REMARK Flexibility Score: inf
ROOT
ATOM      1  C   UNL     1     166.097 154.256 180.529  1.00  0.00     0.000 C 
ENDROOT
BRANCH   1   2
ATOM      2  C   UNL     1     167.055 153.054 180.599  1.00  0.00     0.000 C 
BRANCH   2   3
ATOM      3  C   UNL     1     168.373 153.295 179.841  1.00  0.00     0.000 C 
BRANCH   3   4
ATOM      4  C   UNL     1     168.881 152.100 179.011  1.00  0.00     0.000 C 
BRANCH   4   5
ATOM      5  C   UNL     1     167.747 151.164 178.557  1.00  0.00     0.000 C 
BRANCH   5   6
ATOM      6  C   UNL     1     167.232 151.501 177.148  1.00  0.00     0.000 C 
BRANCH   6   7
ATOM      7  C   UNL     1     165.999 152.420 177.176  1.00  0.00     0.000 C 
BRANCH   7   8
ATOM      8  C   UNL     1     166.254 153.785 176.510  1.00  0.00     0.000 C 
BRANCH   8   9
ATOM      9  C   UNL     1     167.728 154.090 176.179  1.00  0.00     0.000 C 
BRANCH   9  10
ATOM     10  C   UNL     1     168.118 155.581 176.207  1.00  0.00     0.006 C 
BRANCH  10  11
ATOM     11  C   UNL     1     169.086 155.952 177.346  1.00  0.00     0.053 C 
BRANCH  11  12
ATOM     12  C   UNL     1     170.495 155.529 177.060  1.00  0.00     0.041 C 
ATOM     13  O   UNL     1     171.030 154.609 177.735  1.00  0.00    -0.550 OA
ATOM     14  O   UNL     1     171.231 156.173 176.073  1.00  0.00    -0.550 OA
ENDBRANCH  11  12
ENDBRANCH  10  11
ENDBRANCH   9  10
ENDBRANCH   8   9
ENDBRANCH   7   8
ENDBRANCH   6   7
ENDBRANCH   5   6
ENDBRANCH   4   5
ENDBRANCH   3   4
ENDBRANCH   2   3
ENDBRANCH   1   2
BRANCH   1  15
ATOM     15  C   UNL     1     166.797 155.546 180.072  1.00  0.00     0.000 C 
BRANCH  15  16
ATOM     16  C   UNL     1     165.808 156.649 179.665  1.00  0.00     0.000 C 
BRANCH  16  17
ATOM     17  C   UNL     1     164.611 156.061 178.904  1.00  0.00     0.000 C 
BRANCH  17  18
ATOM     18  C   UNL     1     164.043 157.027 177.852  1.00  0.00    -0.000 C 
BRANCH  18  19
ATOM     19  C   UNL     1     165.066 157.387 176.763  1.00  0.00    -0.000 C 
BRANCH  19  20
ATOM     20  C   UNL     1     164.582 156.924 175.381  1.00  0.00    -0.000 C 
BRANCH  20  21
ATOM     21  C   UNL     1     165.143 157.777 174.229  1.00  0.00    -0.000 C 
BRANCH  21  22
ATOM     22  C   UNL     1     165.090 159.300 174.455  1.00  0.00    -0.000 C 
BRANCH  22  23
ATOM     23  C   UNL     1     163.658 159.862 174.411  1.00  0.00    -0.000 C 
BRANCH  23  24
ATOM     24  C   UNL     1     163.190 160.415 175.769  1.00  0.00    -0.000 C 
BRANCH  24  25
ATOM     25  C   UNL     1     161.919 159.758 176.338  1.00  0.00    -0.003 C 
ATOM     26  C   UNL     1     161.352 158.663 175.435  1.00  0.00     0.004 C 
ENDBRANCH  24  25
ENDBRANCH  23  24
ENDBRANCH  22  23
ENDBRANCH  21  22
ENDBRANCH  20  21
ENDBRANCH  19  20
ENDBRANCH  18  19
ENDBRANCH  17  18
ENDBRANCH  16  17
ENDBRANCH  15  16
ENDBRANCH   1  15
TORSDOF 22
ENDMDL
MODEL 8
REMARK VINA RESULT:    -2.922      1.554      2.863
REMARK INTER + INTRA:         -11.461
REMARK INTER:                  -7.158
REMARK INTRA:                  -4.303
REMARK UNBOUND:                -4.780
REMARK SMILES CCCCCCCCCCCCCCCCCCCCCCCC(=O)[O-]
REMARK SMILES IDX 13 1 14 2 15 3 16 4 17 5 18 6 19 7 20 8 21 9 22 10 23 11
REMARK SMILES IDX 24 12 25 13 26 14 12 15 11 16 10 17 9 18 8 19 7 20 6 21 5 22
REMARK SMILES IDX 4 23 3 24 2 25 1 26
REMARK H PARENT
REMARK Flexibility Score: inf
ROOT
ATOM      1  C   UNL     1     167.658 153.766 180.277  1.00  0.00     0.000 C 
ENDROOT
BRANCH   1   2
ATOM      2  C   UNL     1     169.050 153.433 179.711  1.00  0.00     0.000 C 
BRANCH   2   3
ATOM      3  C   UNL     1     169.103 152.056 179.026  1.00  0.00     0.000 C 
BRANCH   3   4
ATOM      4  C   UNL     1     167.740 151.366 178.830  1.00  0.00     0.000 C 
BRANCH   4   5
ATOM      5  C   UNL     1     167.215 151.480 177.388  1.00  0.00     0.000 C 
BRANCH   5   6
ATOM      6  C   UNL     1     166.012 152.431 177.272  1.00  0.00     0.000 C 
BRANCH   6   7
ATOM      7  C   UNL     1     166.343 153.705 176.476  1.00  0.00     0.000 C 
BRANCH   7   8
ATOM      8  C   UNL     1     167.797 153.731 175.968  1.00  0.00     0.000 C 
BRANCH   8   9
ATOM      9  C   UNL     1     168.600 154.993 176.339  1.00  0.00     0.000 C 
BRANCH   9  10
ATOM     10  C   UNL     1     167.798 156.309 176.351  1.00  0.00     0.006 C 
BRANCH  10  11
ATOM     11  C   UNL     1     167.257 156.723 174.970  1.00  0.00     0.053 C 
BRANCH  11  12
ATOM     12  C   UNL     1     167.558 158.154 174.643  1.00  0.00     0.041 C 
ATOM     13  O   UNL     1     168.149 158.450 173.571  1.00  0.00    -0.550 OA
ATOM     14  O   UNL     1     167.218 159.161 175.539  1.00  0.00    -0.550 OA
ENDBRANCH  11  12
ENDBRANCH  10  11
ENDBRANCH   9  10
ENDBRANCH   8   9
ENDBRANCH   7   8
ENDBRANCH   6   7
ENDBRANCH   5   6
ENDBRANCH   4   5
ENDBRANCH   3   4
ENDBRANCH   2   3
ENDBRANCH   1   2
BRANCH   1  15
ATOM     15  C   UNL     1     167.134 155.129 179.797  1.00  0.00     0.000 C 
BRANCH  15  16
ATOM     16  C   UNL     1     165.609 155.264 179.937  1.00  0.00     0.000 C 
BRANCH  16  17
ATOM     17  C   UNL     1     165.042 156.217 178.875  1.00  0.00     0.000 C 
BRANCH  17  18
ATOM     18  C   UNL     1     163.773 155.672 178.204  1.00  0.00    -0.000 C 
BRANCH  18  19
ATOM     19  C   UNL     1     163.623 156.139 176.748  1.00  0.00    -0.000 C 
BRANCH  19  20
ATOM     20  C   UNL     1     164.113 157.586 176.584  1.00  0.00    -0.000 C 
BRANCH  20  21
ATOM     21  C   UNL     1     162.964 158.594 176.400  1.00  0.00    -0.000 C 
BRANCH  21  22
ATOM     22  C   UNL     1     161.582 157.971 176.128  1.00  0.00    -0.000 C 
BRANCH  22  23
ATOM     23  C   UNL     1     160.713 157.863 177.393  1.00  0.00    -0.000 C 
BRANCH  23  24
ATOM     24  C   UNL     1     161.253 158.704 178.564  1.00  0.00    -0.000 C 
BRANCH  24  25
ATOM     25  C   UNL     1     161.371 157.957 179.905  1.00  0.00    -0.003 C 
ATOM     26  C   UNL     1     162.522 158.460 180.774  1.00  0.00     0.004 C 
ENDBRANCH  24  25
ENDBRANCH  23  24
ENDBRANCH  22  23
ENDBRANCH  21  22
ENDBRANCH  20  21
ENDBRANCH  19  20
ENDBRANCH  18  19
ENDBRANCH  17  18
ENDBRANCH  16  17
ENDBRANCH  15  16
ENDBRANCH   1  15
TORSDOF 22
ENDMDL
MODEL 9
REMARK VINA RESULT:    -2.908      1.567      6.393
REMARK INTER + INTRA:         -11.428
REMARK INTER:                  -7.355
REMARK INTRA:                  -4.073
REMARK UNBOUND:                -4.780
REMARK SMILES CCCCCCCCCCCCCCCCCCCCCCCC(=O)[O-]
REMARK SMILES IDX 13 1 14 2 15 3 16 4 17 5 18 6 19 7 20 8 21 9 22 10 23 11
REMARK SMILES IDX 24 12 25 13 26 14 12 15 11 16 10 17 9 18 8 19 7 20 6 21 5 22
REMARK SMILES IDX 4 23 3 24 2 25 1 26
REMARK H PARENT
REMARK Flexibility Score: inf
ROOT
ATOM      1  C   UNL     1     165.084 156.776 178.258  1.00  0.00     0.000 C 
ENDROOT
BRANCH   1   2
ATOM      2  C   UNL     1     164.065 157.261 179.304  1.00  0.00     0.000 C 
BRANCH   2   3
ATOM      3  C   UNL     1     162.647 156.717 179.056  1.00  0.00     0.000 C 
BRANCH   3   4
ATOM      4  C   UNL     1     161.686 157.689 178.346  1.00  0.00     0.000 C 
BRANCH   4   5
ATOM      5  C   UNL     1     161.387 157.279 176.893  1.00  0.00     0.000 C 
BRANCH   5   6
ATOM      6  C   UNL     1     162.308 157.979 175.881  1.00  0.00     0.000 C 
BRANCH   6   7
ATOM      7  C   UNL     1     162.667 159.413 176.306  1.00  0.00     0.000 C 
BRANCH   7   8
ATOM      8  C   UNL     1     164.128 159.783 175.987  1.00  0.00     0.000 C 
BRANCH   8   9
ATOM      9  C   UNL     1     164.904 158.743 175.157  1.00  0.00     0.000 C 
BRANCH   9  10
ATOM     10  C   UNL     1     166.427 158.711 175.392  1.00  0.00     0.006 C 
BRANCH  10  11
ATOM     11  C   UNL     1     167.228 158.117 174.218  1.00  0.00     0.053 C 
BRANCH  11  12
ATOM     12  C   UNL     1     168.539 157.538 174.655  1.00  0.00     0.041 C 
ATOM     13  O   UNL     1     168.610 156.334 175.022  1.00  0.00    -0.550 OA
ATOM     14  O   UNL     1     169.676 158.334 174.691  1.00  0.00    -0.550 OA
ENDBRANCH  11  12
ENDBRANCH  10  11
ENDBRANCH   9  10
ENDBRANCH   8   9
ENDBRANCH   7   8
ENDBRANCH   6   7
ENDBRANCH   5   6
ENDBRANCH   4   5
ENDBRANCH   3   4
ENDBRANCH   2   3
ENDBRANCH   1   2
BRANCH   1  15
ATOM     15  C   UNL     1     164.633 155.490 177.545  1.00  0.00     0.000 C 
BRANCH  15  16
ATOM     16  C   UNL     1     165.457 155.189 176.283  1.00  0.00     0.000 C 
BRANCH  16  17
ATOM     17  C   UNL     1     166.394 153.994 176.511  1.00  0.00     0.000 C 
BRANCH  17  18
ATOM     18  C   UNL     1     165.701 152.824 177.227  1.00  0.00    -0.000 C 
BRANCH  18  19
ATOM     19  C   UNL     1     166.546 151.541 177.222  1.00  0.00    -0.000 C 
BRANCH  19  20
ATOM     20  C   UNL     1     168.019 151.855 176.921  1.00  0.00    -0.000 C 
BRANCH  20  21
ATOM     21  C   UNL     1     168.886 151.951 178.190  1.00  0.00    -0.000 C 
BRANCH  21  22
ATOM     22  C   UNL     1     168.271 151.323 179.454  1.00  0.00    -0.000 C 
BRANCH  22  23
ATOM     23  C   UNL     1     168.104 152.332 180.604  1.00  0.00    -0.000 C 
BRANCH  23  24
ATOM     24  C   UNL     1     167.764 153.750 180.112  1.00  0.00    -0.000 C 
BRANCH  24  25
ATOM     25  C   UNL     1     166.429 154.317 180.627  1.00  0.00    -0.003 C 
ATOM     26  C   UNL     1     166.591 155.619 181.411  1.00  0.00     0.004 C 
ENDBRANCH  24  25
ENDBRANCH  23  24
ENDBRANCH  22  23
ENDBRANCH  21  22
ENDBRANCH  20  21
ENDBRANCH  19  20
ENDBRANCH  18  19
ENDBRANCH  17  18
ENDBRANCH  16  17
ENDBRANCH  15  16
ENDBRANCH   1  15
TORSDOF 22
ENDMDL
