MODEL 1
REMARK VINA RESULT:    -4.517      0.000      0.000
REMARK INTER + INTRA:         -14.538
REMARK INTER:                 -11.381
REMARK INTRA:                  -3.157
REMARK UNBOUND:                -3.157
REMARK SMILES CCCCCCCCCCCCCCCCCCCCCCCCCCCC(=O)[O-]
REMARK SMILES IDX 15 1 16 2 17 3 18 4 19 5 20 6 21 7 22 8 23 9 24 10 25 11
REMARK SMILES IDX 26 12 27 13 28 14 29 15 30 16 14 17 13 18 12 19 11 20 10 21
REMARK SMILES IDX 9 22 8 23 7 24 6 25 5 26 4 27 3 28 2 29 1 30
REMARK H PARENT
REMARK Flexibility Score: inf
ROOT
ATOM      1  C   UNL     1      -9.291  -5.851  -6.652  1.00  0.00     0.000 C 
ENDROOT
BRANCH   1   2
ATOM      2  C   UNL     1     -10.280  -6.264  -7.755  1.00  0.00     0.000 C 
BRANCH   2   3
ATOM      3  C   UNL     1     -10.985  -5.060  -8.405  1.00  0.00     0.000 C 
BRANCH   3   4
ATOM      4  C   UNL     1     -11.410  -4.003  -7.363  1.00  0.00     0.000 C 
BRANCH   4   5
ATOM      5  C   UNL     1     -12.658  -4.398  -6.554  1.00  0.00     0.000 C 
BRANCH   5   6
ATOM      6  C   UNL     1     -12.410  -4.409  -5.037  1.00  0.00     0.000 C 
BRANCH   6   7
ATOM      7  C   UNL     1     -13.058  -5.626  -4.341  1.00  0.00     0.000 C 
BRANCH   7   8
ATOM      8  C   UNL     1     -13.017  -6.921  -5.178  1.00  0.00     0.000 C 
BRANCH   8   9
ATOM      9  C   UNL     1     -14.032  -7.999  -4.762  1.00  0.00     0.000 C 
BRANCH   9  10
ATOM     10  C   UNL     1     -13.438  -9.409  -4.572  1.00  0.00     0.000 C 
BRANCH  10  11
ATOM     11  C   UNL     1     -12.819 -10.002  -5.859  1.00  0.00     0.000 C 
BRANCH  11  12
ATOM     12  C   UNL     1     -12.277 -11.431  -5.682  1.00  0.00     0.006 C 
BRANCH  12  13
ATOM     13  C   UNL     1     -11.239 -11.797  -6.751  1.00  0.00     0.053 C 
BRANCH  13  14
ATOM     14  C   UNL     1     -10.368 -12.918  -6.275  1.00  0.00     0.041 C 
ATOM     15  O   UNL     1     -10.451 -13.321  -5.084  1.00  0.00    -0.550 OA
ATOM     16  O   UNL     1      -9.442 -13.493  -7.135  1.00  0.00    -0.550 OA
ENDBRANCH  13  14
ENDBRANCH  12  13
ENDBRANCH  11  12
ENDBRANCH  10  11
ENDBRANCH   9  10
ENDBRANCH   8   9
ENDBRANCH   7   8
ENDBRANCH   6   7
ENDBRANCH   5   6
ENDBRANCH   4   5
ENDBRANCH   3   4
ENDBRANCH   2   3
ENDBRANCH   1   2
BRANCH   1  17
ATOM     17  C   UNL     1      -9.560  -6.580  -5.324  1.00  0.00     0.000 C 
BRANCH  17  18
ATOM     18  C   UNL     1      -9.608  -8.109  -5.478  1.00  0.00     0.000 C 
BRANCH  18  19
ATOM     19  C   UNL     1      -8.492  -8.818  -4.692  1.00  0.00     0.000 C 
BRANCH  19  20
ATOM     20  C   UNL     1      -8.273 -10.274  -5.141  1.00  0.00     0.000 C 
BRANCH  20  21
ATOM     21  C   UNL     1      -6.800 -10.726  -5.216  1.00  0.00     0.000 C 
BRANCH  21  22
ATOM     22  C   UNL     1      -6.103 -10.477  -6.566  1.00  0.00    -0.000 C 
BRANCH  22  23
ATOM     23  C   UNL     1      -6.501 -11.494  -7.646  1.00  0.00    -0.000 C 
BRANCH  23  24
ATOM     24  C   UNL     1      -5.724 -12.807  -7.473  1.00  0.00    -0.000 C 
BRANCH  24  25
ATOM     25  C   UNL     1      -4.230 -12.577  -7.197  1.00  0.00    -0.000 C 
BRANCH  25  26
ATOM     26  C   UNL     1      -3.482 -13.881  -6.866  1.00  0.00    -0.000 C 
BRANCH  26  27
ATOM     27  C   UNL     1      -2.343 -13.674  -5.850  1.00  0.00    -0.000 C 
BRANCH  27  28
ATOM     28  C   UNL     1      -2.262 -12.259  -5.249  1.00  0.00    -0.000 C 
BRANCH  28  29
ATOM     29  C   UNL     1      -2.528 -12.235  -3.737  1.00  0.00    -0.003 C 
ATOM     30  C   UNL     1      -1.981 -13.489  -3.062  1.00  0.00     0.004 C 
ENDBRANCH  28  29
ENDBRANCH  27  28
ENDBRANCH  26  27
ENDBRANCH  25  26
ENDBRANCH  24  25
ENDBRANCH  23  24
ENDBRANCH  22  23
ENDBRANCH  21  22
ENDBRANCH  20  21
ENDBRANCH  19  20
ENDBRANCH  18  19
ENDBRANCH  17  18
ENDBRANCH   1  17
TORSDOF 26
ENDMDL
MODEL 2
REMARK VINA RESULT:    -4.351      2.890      7.068
REMARK INTER + INTRA:         -14.122
REMARK INTER:                 -10.580
REMARK INTRA:                  -3.542
REMARK UNBOUND:                -3.157
REMARK SMILES CCCCCCCCCCCCCCCCCCCCCCCCCCCC(=O)[O-]
REMARK SMILES IDX 15 1 16 2 17 3 18 4 19 5 20 6 21 7 22 8 23 9 24 10 25 11
REMARK SMILES IDX 26 12 27 13 28 14 29 15 30 16 14 17 13 18 12 19 11 20 10 21
REMARK SMILES IDX 9 22 8 23 7 24 6 25 5 26 4 27 3 28 2 29 1 30
REMARK H PARENT
REMARK Flexibility Score: inf
ROOT
ATOM      1  C   UNL     1      -5.430 -10.748  -5.723  1.00  0.00     0.000 C 
ENDROOT
BRANCH   1   2
ATOM      2  C   UNL     1      -6.740 -10.002  -6.027  1.00  0.00     0.000 C 
BRANCH   2   3
ATOM      3  C   UNL     1      -7.969 -10.667  -5.380  1.00  0.00     0.000 C 
BRANCH   3   4
ATOM      4  C   UNL     1      -8.991  -9.628  -4.870  1.00  0.00     0.000 C 
BRANCH   4   5
ATOM      5  C   UNL     1      -8.556  -8.170  -5.095  1.00  0.00     0.000 C 
BRANCH   5   6
ATOM      6  C   UNL     1      -9.726  -7.246  -5.473  1.00  0.00     0.000 C 
BRANCH   6   7
ATOM      7  C   UNL     1     -11.008  -8.032  -5.828  1.00  0.00     0.000 C 
BRANCH   7   8
ATOM      8  C   UNL     1     -12.311  -7.242  -5.593  1.00  0.00     0.000 C 
BRANCH   8   9
ATOM      9  C   UNL     1     -12.142  -5.911  -4.841  1.00  0.00     0.000 C 
BRANCH   9  10
ATOM     10  C   UNL     1     -12.493  -4.654  -5.662  1.00  0.00     0.000 C 
BRANCH  10  11
ATOM     11  C   UNL     1     -11.274  -4.008  -6.362  1.00  0.00     0.000 C 
BRANCH  11  12
ATOM     12  C   UNL     1     -11.423  -3.905  -7.890  1.00  0.00     0.006 C 
BRANCH  12  13
ATOM     13  C   UNL     1     -10.861  -5.136  -8.614  1.00  0.00     0.053 C 
BRANCH  13  14
ATOM     14  C   UNL     1     -11.147  -5.056 -10.082  1.00  0.00     0.041 C 
ATOM     15  O   UNL     1     -10.946  -3.981 -10.708  1.00  0.00    -0.550 OA
ATOM     16  O   UNL     1     -11.667  -6.157 -10.750  1.00  0.00    -0.550 OA
ENDBRANCH  13  14
ENDBRANCH  12  13
ENDBRANCH  11  12
ENDBRANCH  10  11
ENDBRANCH   9  10
ENDBRANCH   8   9
ENDBRANCH   7   8
ENDBRANCH   6   7
ENDBRANCH   5   6
ENDBRANCH   4   5
ENDBRANCH   3   4
ENDBRANCH   2   3
ENDBRANCH   1   2
BRANCH   1  17
ATOM     17  C   UNL     1      -4.653 -11.108  -7.002  1.00  0.00     0.000 C 
BRANCH  17  18
ATOM     18  C   UNL     1      -4.749 -12.599  -7.361  1.00  0.00     0.000 C 
BRANCH  18  19
ATOM     19  C   UNL     1      -5.918 -12.904  -8.314  1.00  0.00     0.000 C 
BRANCH  19  20
ATOM     20  C   UNL     1      -6.877 -13.975  -7.764  1.00  0.00     0.000 C 
BRANCH  20  21
ATOM     21  C   UNL     1      -8.216 -14.111  -8.520  1.00  0.00     0.000 C 
BRANCH  21  22
ATOM     22  C   UNL     1      -9.476 -14.094  -7.636  1.00  0.00    -0.000 C 
BRANCH  22  23
ATOM     23  C   UNL     1      -9.897 -12.678  -7.216  1.00  0.00    -0.000 C 
BRANCH  23  24
ATOM     24  C   UNL     1     -11.424 -12.522  -7.277  1.00  0.00    -0.000 C 
BRANCH  24  25
ATOM     25  C   UNL     1     -11.921 -11.273  -6.534  1.00  0.00    -0.000 C 
BRANCH  25  26
ATOM     26  C   UNL     1     -13.332 -11.455  -5.947  1.00  0.00    -0.000 C 
BRANCH  26  27
ATOM     27  C   UNL     1     -13.403 -11.113  -4.448  1.00  0.00    -0.000 C 
BRANCH  27  28
ATOM     28  C   UNL     1     -13.054 -12.277  -3.502  1.00  0.00    -0.000 C 
BRANCH  28  29
ATOM     29  C   UNL     1     -11.597 -12.237  -3.017  1.00  0.00    -0.003 C 
ATOM     30  C   UNL     1     -10.780 -13.365  -3.639  1.00  0.00     0.004 C 
ENDBRANCH  28  29
ENDBRANCH  27  28
ENDBRANCH  26  27
ENDBRANCH  25  26
ENDBRANCH  24  25
ENDBRANCH  23  24
ENDBRANCH  22  23
ENDBRANCH  21  22
ENDBRANCH  20  21
ENDBRANCH  19  20
ENDBRANCH  18  19
ENDBRANCH  17  18
ENDBRANCH   1  17
TORSDOF 26
ENDMDL
MODEL 3
REMARK VINA RESULT:    -4.255      1.569      2.087
REMARK INTER + INTRA:         -13.878
REMARK INTER:                 -11.499
REMARK INTRA:                  -2.379
REMARK UNBOUND:                -3.157
REMARK SMILES CCCCCCCCCCCCCCCCCCCCCCCCCCCC(=O)[O-]
REMARK SMILES IDX 15 1 16 2 17 3 18 4 19 5 20 6 21 7 22 8 23 9 24 10 25 11
REMARK SMILES IDX 26 12 27 13 28 14 29 15 30 16 14 17 13 18 12 19 11 20 10 21
REMARK SMILES IDX 9 22 8 23 7 24 6 25 5 26 4 27 3 28 2 29 1 30
REMARK H PARENT
REMARK Flexibility Score: inf
ROOT
ATOM      1  C   UNL     1      -9.646  -6.180  -7.180  1.00  0.00     0.000 C 
ENDROOT
BRANCH   1   2
ATOM      2  C   UNL     1     -10.404  -5.932  -8.495  1.00  0.00     0.000 C 
BRANCH   2   3
ATOM      3  C   UNL     1     -11.360  -4.728  -8.415  1.00  0.00     0.000 C 
BRANCH   3   4
ATOM      4  C   UNL     1     -10.910  -3.698  -7.357  1.00  0.00     0.000 C 
BRANCH   4   5
ATOM      5  C   UNL     1     -11.983  -3.385  -6.300  1.00  0.00     0.000 C 
BRANCH   5   6
ATOM      6  C   UNL     1     -12.829  -4.613  -5.922  1.00  0.00     0.000 C 
BRANCH   6   7
ATOM      7  C   UNL     1     -12.427  -5.210  -4.556  1.00  0.00     0.000 C 
BRANCH   7   8
ATOM      8  C   UNL     1     -13.414  -6.267  -4.019  1.00  0.00     0.000 C 
BRANCH   8   9
ATOM      9  C   UNL     1     -13.743  -7.409  -4.995  1.00  0.00     0.000 C 
BRANCH   9  10
ATOM     10  C   UNL     1     -13.835  -8.806  -4.350  1.00  0.00     0.000 C 
BRANCH  10  11
ATOM     11  C   UNL     1     -13.553  -9.966  -5.334  1.00  0.00     0.000 C 
BRANCH  11  12
ATOM     12  C   UNL     1     -12.346 -10.834  -4.936  1.00  0.00     0.006 C 
BRANCH  12  13
ATOM     13  C   UNL     1     -12.767 -12.226  -4.448  1.00  0.00     0.053 C 
BRANCH  13  14
ATOM     14  C   UNL     1     -12.213 -12.492  -3.083  1.00  0.00     0.041 C 
ATOM     15  O   UNL     1     -12.862 -12.148  -2.059  1.00  0.00    -0.550 OA
ATOM     16  O   UNL     1     -10.966 -13.087  -2.942  1.00  0.00    -0.550 OA
ENDBRANCH  13  14
ENDBRANCH  12  13
ENDBRANCH  11  12
ENDBRANCH  10  11
ENDBRANCH   9  10
ENDBRANCH   8   9
ENDBRANCH   7   8
ENDBRANCH   6   7
ENDBRANCH   5   6
ENDBRANCH   4   5
ENDBRANCH   3   4
ENDBRANCH   2   3
ENDBRANCH   1   2
BRANCH   1  17
ATOM     17  C   UNL     1     -10.276  -7.310  -6.347  1.00  0.00     0.000 C 
BRANCH  17  18
ATOM     18  C   UNL     1      -9.459  -7.657  -5.092  1.00  0.00     0.000 C 
BRANCH  18  19
ATOM     19  C   UNL     1      -9.021  -9.131  -5.061  1.00  0.00     0.000 C 
BRANCH  19  20
ATOM     20  C   UNL     1      -7.522  -9.305  -4.752  1.00  0.00     0.000 C 
BRANCH  20  21
ATOM     21  C   UNL     1      -6.899 -10.629  -5.241  1.00  0.00     0.000 C 
BRANCH  21  22
ATOM     22  C   UNL     1      -6.257 -10.579  -6.639  1.00  0.00    -0.000 C 
BRANCH  22  23
ATOM     23  C   UNL     1      -5.005 -11.460  -6.759  1.00  0.00    -0.000 C 
BRANCH  23  24
ATOM     24  C   UNL     1      -3.825 -10.840  -5.996  1.00  0.00    -0.000 C 
BRANCH  24  25
ATOM     25  C   UNL     1      -3.171 -11.825  -5.015  1.00  0.00    -0.000 C 
BRANCH  25  26
ATOM     26  C   UNL     1      -2.483 -13.002  -5.730  1.00  0.00    -0.000 C 
BRANCH  26  27
ATOM     27  C   UNL     1      -1.708 -13.915  -4.762  1.00  0.00    -0.000 C 
BRANCH  27  28
ATOM     28  C   UNL     1      -0.483 -13.262  -4.097  1.00  0.00    -0.000 C 
BRANCH  28  29
ATOM     29  C   UNL     1       0.512 -12.683  -5.113  1.00  0.00    -0.003 C 
ATOM     30  C   UNL     1       0.691 -13.620  -6.303  1.00  0.00     0.004 C 
ENDBRANCH  28  29
ENDBRANCH  27  28
ENDBRANCH  26  27
ENDBRANCH  25  26
ENDBRANCH  24  25
ENDBRANCH  23  24
ENDBRANCH  22  23
ENDBRANCH  21  22
ENDBRANCH  20  21
ENDBRANCH  19  20
ENDBRANCH  18  19
ENDBRANCH  17  18
ENDBRANCH   1  17
TORSDOF 26
ENDMDL
MODEL 4
REMARK VINA RESULT:    -4.206      2.312      5.230
REMARK INTER + INTRA:         -13.756
REMARK INTER:                 -10.802
REMARK INTRA:                  -2.954
REMARK UNBOUND:                -3.157
REMARK SMILES CCCCCCCCCCCCCCCCCCCCCCCCCCCC(=O)[O-]
REMARK SMILES IDX 15 1 16 2 17 3 18 4 19 5 20 6 21 7 22 8 23 9 24 10 25 11
REMARK SMILES IDX 26 12 27 13 28 14 29 15 30 16 14 17 13 18 12 19 11 20 10 21
REMARK SMILES IDX 9 22 8 23 7 24 6 25 5 26 4 27 3 28 2 29 1 30
REMARK H PARENT
REMARK Flexibility Score: inf
ROOT
ATOM      1  C   UNL     1     -12.708 -10.430  -5.538  1.00  0.00     0.000 C 
ENDROOT
BRANCH   1   2
ATOM      2  C   UNL     1     -11.489  -9.675  -6.094  1.00  0.00     0.000 C 
BRANCH   2   3
ATOM      3  C   UNL     1     -10.289  -9.688  -5.129  1.00  0.00     0.000 C 
BRANCH   3   4
ATOM      4  C   UNL     1      -9.249  -8.602  -5.482  1.00  0.00     0.000 C 
BRANCH   4   5
ATOM      5  C   UNL     1      -9.669  -7.183  -5.061  1.00  0.00     0.000 C 
BRANCH   5   6
ATOM      6  C   UNL     1      -9.232  -6.105  -6.067  1.00  0.00     0.000 C 
BRANCH   6   7
ATOM      7  C   UNL     1      -9.307  -6.596  -7.530  1.00  0.00     0.000 C 
BRANCH   7   8
ATOM      8  C   UNL     1     -10.581  -6.152  -8.276  1.00  0.00     0.000 C 
BRANCH   8   9
ATOM      9  C   UNL     1     -10.494  -4.775  -8.955  1.00  0.00     0.000 C 
BRANCH   9  10
ATOM     10  C   UNL     1     -11.634  -3.802  -8.597  1.00  0.00     0.000 C 
BRANCH  10  11
ATOM     11  C   UNL     1     -11.723  -3.477  -7.087  1.00  0.00     0.000 C 
BRANCH  11  12
ATOM     12  C   UNL     1     -12.754  -4.332  -6.331  1.00  0.00     0.006 C 
BRANCH  12  13
ATOM     13  C   UNL     1     -12.259  -4.747  -4.939  1.00  0.00     0.053 C 
BRANCH  13  14
ATOM     14  C   UNL     1     -13.169  -5.777  -4.345  1.00  0.00     0.041 C 
ATOM     15  O   UNL     1     -13.712  -5.572  -3.227  1.00  0.00    -0.550 OA
ATOM     16  O   UNL     1     -13.390  -6.977  -5.009  1.00  0.00    -0.550 OA
ENDBRANCH  13  14
ENDBRANCH  12  13
ENDBRANCH  11  12
ENDBRANCH  10  11
ENDBRANCH   9  10
ENDBRANCH   8   9
ENDBRANCH   7   8
ENDBRANCH   6   7
ENDBRANCH   5   6
ENDBRANCH   4   5
ENDBRANCH   3   4
ENDBRANCH   2   3
ENDBRANCH   1   2
BRANCH   1  17
ATOM     17  C   UNL     1     -12.304 -11.667  -4.717  1.00  0.00     0.000 C 
BRANCH  17  18
ATOM     18  C   UNL     1     -12.861 -12.978  -5.295  1.00  0.00     0.000 C 
BRANCH  18  19
ATOM     19  C   UNL     1     -11.822 -14.113  -5.294  1.00  0.00     0.000 C 
BRANCH  19  20
ATOM     20  C   UNL     1     -10.380 -13.608  -5.484  1.00  0.00     0.000 C 
BRANCH  20  21
ATOM     21  C   UNL     1     -10.051 -13.071  -6.893  1.00  0.00     0.000 C 
BRANCH  21  22
ATOM     22  C   UNL     1      -8.551 -12.942  -7.215  1.00  0.00    -0.000 C 
BRANCH  22  23
ATOM     23  C   UNL     1      -7.856 -11.838  -6.405  1.00  0.00    -0.000 C 
BRANCH  23  24
ATOM     24  C   UNL     1      -6.594 -11.343  -7.128  1.00  0.00    -0.000 C 
BRANCH  24  25
ATOM     25  C   UNL     1      -5.727 -10.431  -6.247  1.00  0.00    -0.000 C 
BRANCH  25  26
ATOM     26  C   UNL     1      -4.237 -10.813  -6.284  1.00  0.00    -0.000 C 
BRANCH  26  27
ATOM     27  C   UNL     1      -4.013 -12.308  -6.576  1.00  0.00    -0.000 C 
BRANCH  27  28
ATOM     28  C   UNL     1      -2.774 -12.921  -5.897  1.00  0.00    -0.000 C 
BRANCH  28  29
ATOM     29  C   UNL     1      -2.038 -11.928  -4.986  1.00  0.00    -0.003 C 
ATOM     30  C   UNL     1      -0.583 -12.339  -4.787  1.00  0.00     0.004 C 
ENDBRANCH  28  29
ENDBRANCH  27  28
ENDBRANCH  26  27
ENDBRANCH  25  26
ENDBRANCH  24  25
ENDBRANCH  23  24
ENDBRANCH  22  23
ENDBRANCH  21  22
ENDBRANCH  20  21
ENDBRANCH  19  20
ENDBRANCH  18  19
ENDBRANCH  17  18
ENDBRANCH   1  17
TORSDOF 26
ENDMDL
MODEL 5
REMARK VINA RESULT:    -4.188      2.201      8.263
REMARK INTER + INTRA:         -13.711
REMARK INTER:                 -10.022
REMARK INTRA:                  -3.688
REMARK UNBOUND:                -3.157
REMARK SMILES CCCCCCCCCCCCCCCCCCCCCCCCCCCC(=O)[O-]
REMARK SMILES IDX 15 1 16 2 17 3 18 4 19 5 20 6 21 7 22 8 23 9 24 10 25 11
REMARK SMILES IDX 26 12 27 13 28 14 29 15 30 16 14 17 13 18 12 19 11 20 10 21
REMARK SMILES IDX 9 22 8 23 7 24 6 25 5 26 4 27 3 28 2 29 1 30
REMARK H PARENT
REMARK Flexibility Score: inf
ROOT
ATOM      1  C   UNL     1      -7.539 -10.040  -5.043  1.00  0.00     0.000 C 
ENDROOT
BRANCH   1   2
ATOM      2  C   UNL     1      -6.625 -10.016  -6.279  1.00  0.00     0.000 C 
BRANCH   2   3
ATOM      3  C   UNL     1      -5.244 -10.641  -6.012  1.00  0.00     0.000 C 
BRANCH   3   4
ATOM      4  C   UNL     1      -4.925 -11.788  -6.995  1.00  0.00     0.000 C 
BRANCH   4   5
ATOM      5  C   UNL     1      -6.096 -12.149  -7.926  1.00  0.00     0.000 C 
BRANCH   5   6
ATOM      6  C   UNL     1      -6.581 -13.598  -7.746  1.00  0.00     0.000 C 
BRANCH   6   7
ATOM      7  C   UNL     1      -7.876 -13.890  -8.535  1.00  0.00     0.000 C 
BRANCH   7   8
ATOM      8  C   UNL     1      -9.149 -13.905  -7.666  1.00  0.00     0.000 C 
BRANCH   8   9
ATOM      9  C   UNL     1      -9.444 -12.595  -6.917  1.00  0.00     0.000 C 
BRANCH   9  10
ATOM     10  C   UNL     1     -10.932 -12.193  -6.875  1.00  0.00     0.000 C 
BRANCH  10  11
ATOM     11  C   UNL     1     -11.513 -12.106  -5.444  1.00  0.00     0.000 C 
BRANCH  11  12
ATOM     12  C   UNL     1     -11.524 -13.452  -4.699  1.00  0.00     0.006 C 
BRANCH  12  13
ATOM     13  C   UNL     1     -11.120 -13.306  -3.226  1.00  0.00     0.053 C 
BRANCH  13  14
ATOM     14  C   UNL     1     -12.279 -12.822  -2.411  1.00  0.00     0.041 C 
ATOM     15  O   UNL     1     -13.276 -13.568  -2.223  1.00  0.00    -0.550 OA
ATOM     16  O   UNL     1     -12.272 -11.534  -1.890  1.00  0.00    -0.550 OA
ENDBRANCH  13  14
ENDBRANCH  12  13
ENDBRANCH  11  12
ENDBRANCH  10  11
ENDBRANCH   9  10
ENDBRANCH   8   9
ENDBRANCH   7   8
ENDBRANCH   6   7
ENDBRANCH   5   6
ENDBRANCH   4   5
ENDBRANCH   3   4
ENDBRANCH   2   3
ENDBRANCH   1   2
BRANCH   1  17
ATOM     17  C   UNL     1      -8.804  -9.186  -5.236  1.00  0.00     0.000 C 
BRANCH  17  18
ATOM     18  C   UNL     1      -8.778  -7.884  -4.419  1.00  0.00     0.000 C 
BRANCH  18  19
ATOM     19  C   UNL     1      -9.466  -6.716  -5.146  1.00  0.00     0.000 C 
BRANCH  19  20
ATOM     20  C   UNL     1      -9.913  -7.077  -6.575  1.00  0.00     0.000 C 
BRANCH  20  21
ATOM     21  C   UNL     1      -9.577  -6.028  -7.655  1.00  0.00     0.000 C 
BRANCH  21  22
ATOM     22  C   UNL     1     -10.657  -5.823  -8.733  1.00  0.00    -0.000 C 
BRANCH  22  23
ATOM     23  C   UNL     1     -11.644  -4.698  -8.388  1.00  0.00    -0.000 C 
BRANCH  23  24
ATOM     24  C   UNL     1     -10.962  -3.616  -7.537  1.00  0.00    -0.000 C 
BRANCH  24  25
ATOM     25  C   UNL     1     -11.535  -3.535  -6.114  1.00  0.00    -0.000 C 
BRANCH  25  26
ATOM     26  C   UNL     1     -12.564  -4.643  -5.825  1.00  0.00    -0.000 C 
BRANCH  26  27
ATOM     27  C   UNL     1     -12.661  -4.991  -4.329  1.00  0.00    -0.000 C 
BRANCH  27  28
ATOM     28  C   UNL     1     -13.350  -6.333  -4.020  1.00  0.00    -0.000 C 
BRANCH  28  29
ATOM     29  C   UNL     1     -13.541  -7.208  -5.267  1.00  0.00    -0.003 C 
ATOM     30  C   UNL     1     -12.876  -8.570  -5.091  1.00  0.00     0.004 C 
ENDBRANCH  28  29
ENDBRANCH  27  28
ENDBRANCH  26  27
ENDBRANCH  25  26
ENDBRANCH  24  25
ENDBRANCH  23  24
ENDBRANCH  22  23
ENDBRANCH  21  22
ENDBRANCH  20  21
ENDBRANCH  19  20
ENDBRANCH  18  19
ENDBRANCH  17  18
ENDBRANCH   1  17
TORSDOF 26
ENDMDL
MODEL 6
REMARK VINA RESULT:    -4.109      2.299      8.529
REMARK INTER + INTRA:         -13.512
REMARK INTER:                 -10.078
REMARK INTRA:                  -3.434
REMARK UNBOUND:                -3.157
REMARK SMILES CCCCCCCCCCCCCCCCCCCCCCCCCCCC(=O)[O-]
REMARK SMILES IDX 15 1 16 2 17 3 18 4 19 5 20 6 21 7 22 8 23 9 24 10 25 11
REMARK SMILES IDX 26 12 27 13 28 14 29 15 30 16 14 17 13 18 12 19 11 20 10 21
REMARK SMILES IDX 9 22 8 23 7 24 6 25 5 26 4 27 3 28 2 29 1 30
REMARK H PARENT
REMARK Flexibility Score: inf
ROOT
ATOM      1  C   UNL     1     -13.829 -10.395  -4.718  1.00  0.00     0.000 C 
ENDROOT
BRANCH   1   2
ATOM      2  C   UNL     1     -14.099 -11.616  -3.824  1.00  0.00     0.000 C 
BRANCH   2   3
ATOM      3  C   UNL     1     -13.480 -11.478  -2.422  1.00  0.00     0.000 C 
BRANCH   3   4
ATOM      4  C   UNL     1     -12.093 -12.149  -2.330  1.00  0.00     0.000 C 
BRANCH   4   5
ATOM      5  C   UNL     1     -12.020 -13.518  -3.028  1.00  0.00     0.000 C 
BRANCH   5   6
ATOM      6  C   UNL     1     -10.811 -13.647  -3.970  1.00  0.00     0.000 C 
BRANCH   6   7
ATOM      7  C   UNL     1     -11.229 -13.880  -5.439  1.00  0.00     0.000 C 
BRANCH   7   8
ATOM      8  C   UNL     1     -10.065 -13.773  -6.446  1.00  0.00     0.000 C 
BRANCH   8   9
ATOM      9  C   UNL     1      -9.507 -12.355  -6.650  1.00  0.00     0.000 C 
BRANCH   9  10
ATOM     10  C   UNL     1      -7.983 -12.285  -6.876  1.00  0.00     0.000 C 
BRANCH  10  11
ATOM     11  C   UNL     1      -7.263 -11.277  -5.951  1.00  0.00     0.000 C 
BRANCH  11  12
ATOM     12  C   UNL     1      -6.162 -10.467  -6.658  1.00  0.00     0.006 C 
BRANCH  12  13
ATOM     13  C   UNL     1      -4.762 -11.042  -6.405  1.00  0.00     0.053 C 
BRANCH  13  14
ATOM     14  C   UNL     1      -4.550 -12.280  -7.219  1.00  0.00     0.041 C 
ATOM     15  O   UNL     1      -5.101 -12.400  -8.345  1.00  0.00    -0.550 OA
ATOM     16  O   UNL     1      -3.771 -13.316  -6.718  1.00  0.00    -0.550 OA
ENDBRANCH  13  14
ENDBRANCH  12  13
ENDBRANCH  11  12
ENDBRANCH  10  11
ENDBRANCH   9  10
ENDBRANCH   8   9
ENDBRANCH   7   8
ENDBRANCH   6   7
ENDBRANCH   5   6
ENDBRANCH   4   5
ENDBRANCH   3   4
ENDBRANCH   2   3
ENDBRANCH   1   2
BRANCH   1  17
ATOM     17  C   UNL     1     -12.989 -10.752  -5.957  1.00  0.00     0.000 C 
BRANCH  17  18
ATOM     18  C   UNL     1     -11.850  -9.753  -6.219  1.00  0.00     0.000 C 
BRANCH  18  19
ATOM     19  C   UNL     1     -10.842  -9.688  -5.059  1.00  0.00     0.000 C 
BRANCH  19  20
ATOM     20  C   UNL     1      -9.632  -8.786  -5.364  1.00  0.00     0.000 C 
BRANCH  20  21
ATOM     21  C   UNL     1      -9.976  -7.385  -5.909  1.00  0.00     0.000 C 
BRANCH  21  22
ATOM     22  C   UNL     1      -9.542  -6.207  -5.018  1.00  0.00    -0.000 C 
BRANCH  22  23
ATOM     23  C   UNL     1     -10.685  -5.227  -4.717  1.00  0.00    -0.000 C 
BRANCH  23  24
ATOM     24  C   UNL     1     -12.048  -5.928  -4.827  1.00  0.00    -0.000 C 
BRANCH  24  25
ATOM     25  C   UNL     1     -12.998  -5.222  -5.807  1.00  0.00    -0.000 C 
BRANCH  25  26
ATOM     26  C   UNL     1     -12.435  -3.883  -6.316  1.00  0.00    -0.000 C 
BRANCH  26  27
ATOM     27  C   UNL     1     -12.174  -3.886  -7.834  1.00  0.00    -0.000 C 
BRANCH  27  28
ATOM     28  C   UNL     1     -10.688  -3.926  -8.234  1.00  0.00    -0.000 C 
BRANCH  28  29
ATOM     29  C   UNL     1     -10.372  -5.035  -9.247  1.00  0.00    -0.003 C 
ATOM     30  C   UNL     1     -11.029  -4.754 -10.595  1.00  0.00     0.004 C 
ENDBRANCH  28  29
ENDBRANCH  27  28
ENDBRANCH  26  27
ENDBRANCH  25  26
ENDBRANCH  24  25
ENDBRANCH  23  24
ENDBRANCH  22  23
ENDBRANCH  21  22
ENDBRANCH  20  21
ENDBRANCH  19  20
ENDBRANCH  18  19
ENDBRANCH  17  18
ENDBRANCH   1  17
TORSDOF 26
ENDMDL
MODEL 7
REMARK VINA RESULT:    -4.076      2.959      8.949
REMARK INTER + INTRA:         -13.428
REMARK INTER:                 -11.012
REMARK INTRA:                  -2.416
REMARK UNBOUND:                -3.157
REMARK SMILES CCCCCCCCCCCCCCCCCCCCCCCCCCCC(=O)[O-]
REMARK SMILES IDX 15 1 16 2 17 3 18 4 19 5 20 6 21 7 22 8 23 9 24 10 25 11
REMARK SMILES IDX 26 12 27 13 28 14 29 15 30 16 14 17 13 18 12 19 11 20 10 21
REMARK SMILES IDX 9 22 8 23 7 24 6 25 5 26 4 27 3 28 2 29 1 30
REMARK H PARENT
REMARK Flexibility Score: inf
ROOT
ATOM      1  C   UNL     1      -9.415  -7.066  -6.625  1.00  0.00     0.000 C 
ENDROOT
BRANCH   1   2
ATOM      2  C   UNL     1      -9.351  -7.318  -5.110  1.00  0.00     0.000 C 
BRANCH   2   3
ATOM      3  C   UNL     1      -9.013  -8.779  -4.761  1.00  0.00     0.000 C 
BRANCH   3   4
ATOM      4  C   UNL     1      -7.641  -9.208  -5.325  1.00  0.00     0.000 C 
BRANCH   4   5
ATOM      5  C   UNL     1      -7.314 -10.694  -5.098  1.00  0.00     0.000 C 
BRANCH   5   6
ATOM      6  C   UNL     1      -7.658 -11.576  -6.310  1.00  0.00     0.000 C 
BRANCH   6   7
ATOM      7  C   UNL     1      -6.533 -11.589  -7.368  1.00  0.00     0.000 C 
BRANCH   7   8
ATOM      8  C   UNL     1      -6.181 -12.997  -7.890  1.00  0.00     0.000 C 
BRANCH   8   9
ATOM      9  C   UNL     1      -4.696 -13.217  -8.228  1.00  0.00     0.000 C 
BRANCH   9  10
ATOM     10  C   UNL     1      -3.862 -13.850  -7.097  1.00  0.00     0.000 C 
BRANCH  10  11
ATOM     11  C   UNL     1      -3.149 -12.815  -6.195  1.00  0.00     0.000 C 
BRANCH  11  12
ATOM     12  C   UNL     1      -2.166 -13.443  -5.192  1.00  0.00     0.006 C 
BRANCH  12  13
ATOM     13  C   UNL     1      -0.894 -12.603  -5.018  1.00  0.00     0.053 C 
BRANCH  13  14
ATOM     14  C   UNL     1       0.321 -13.421  -5.329  1.00  0.00     0.041 C 
ATOM     15  O   UNL     1       0.893 -14.075  -4.417  1.00  0.00    -0.550 OA
ATOM     16  O   UNL     1       0.840 -13.433  -6.617  1.00  0.00    -0.550 OA
ENDBRANCH  13  14
ENDBRANCH  12  13
ENDBRANCH  11  12
ENDBRANCH  10  11
ENDBRANCH   9  10
ENDBRANCH   8   9
ENDBRANCH   7   8
ENDBRANCH   6   7
ENDBRANCH   5   6
ENDBRANCH   4   5
ENDBRANCH   3   4
ENDBRANCH   2   3
ENDBRANCH   1   2
BRANCH   1  17
ATOM     17  C   UNL     1      -9.575  -5.574  -6.963  1.00  0.00     0.000 C 
BRANCH  17  18
ATOM     18  C   UNL     1     -10.604  -5.318  -8.076  1.00  0.00     0.000 C 
BRANCH  18  19
ATOM     19  C   UNL     1     -11.467  -4.073  -7.809  1.00  0.00     0.000 C 
BRANCH  19  20
ATOM     20  C   UNL     1     -11.939  -3.971  -6.347  1.00  0.00     0.000 C 
BRANCH  20  21
ATOM     21  C   UNL     1     -12.712  -5.197  -5.818  1.00  0.00     0.000 C 
BRANCH  21  22
ATOM     22  C   UNL     1     -12.877  -5.261  -4.289  1.00  0.00    -0.000 C 
BRANCH  22  23
ATOM     23  C   UNL     1     -13.690  -6.478  -3.823  1.00  0.00    -0.000 C 
BRANCH  23  24
ATOM     24  C   UNL     1     -13.664  -7.590  -4.883  1.00  0.00    -0.000 C 
BRANCH  24  25
ATOM     25  C   UNL     1     -13.825  -8.991  -4.274  1.00  0.00    -0.000 C 
BRANCH  25  26
ATOM     26  C   UNL     1     -13.599 -10.113  -5.302  1.00  0.00    -0.000 C 
BRANCH  26  27
ATOM     27  C   UNL     1     -12.175 -10.695  -5.246  1.00  0.00    -0.000 C 
BRANCH  27  28
ATOM     28  C   UNL     1     -11.500 -10.889  -6.616  1.00  0.00    -0.000 C 
BRANCH  28  29
ATOM     29  C   UNL     1     -11.133 -12.352  -6.901  1.00  0.00    -0.003 C 
ATOM     30  C   UNL     1     -12.282 -13.288  -6.540  1.00  0.00     0.004 C 
ENDBRANCH  28  29
ENDBRANCH  27  28
ENDBRANCH  26  27
ENDBRANCH  25  26
ENDBRANCH  24  25
ENDBRANCH  23  24
ENDBRANCH  22  23
ENDBRANCH  21  22
ENDBRANCH  20  21
ENDBRANCH  19  20
ENDBRANCH  18  19
ENDBRANCH  17  18
ENDBRANCH   1  17
TORSDOF 26
ENDMDL
MODEL 8
REMARK VINA RESULT:    -3.950      2.643      6.951
REMARK INTER + INTRA:         -13.110
REMARK INTER:                  -9.388
REMARK INTRA:                  -3.722
REMARK UNBOUND:                -3.157
REMARK SMILES CCCCCCCCCCCCCCCCCCCCCCCCCCCC(=O)[O-]
REMARK SMILES IDX 15 1 16 2 17 3 18 4 19 5 20 6 21 7 22 8 23 9 24 10 25 11
REMARK SMILES IDX 26 12 27 13 28 14 29 15 30 16 14 17 13 18 12 19 11 20 10 21
REMARK SMILES IDX 9 22 8 23 7 24 6 25 5 26 4 27 3 28 2 29 1 30
REMARK H PARENT
REMARK Flexibility Score: inf
ROOT
ATOM      1  C   UNL     1     -13.071  -5.929  -4.335  1.00  0.00     0.000 C 
ENDROOT
BRANCH   1   2
ATOM      2  C   UNL     1     -12.045  -5.131  -5.157  1.00  0.00     0.000 C 
BRANCH   2   3
ATOM      3  C   UNL     1     -11.909  -5.644  -6.602  1.00  0.00     0.000 C 
BRANCH   3   4
ATOM      4  C   UNL     1     -10.498  -6.198  -6.892  1.00  0.00     0.000 C 
BRANCH   4   5
ATOM      5  C   UNL     1      -9.474  -5.896  -5.784  1.00  0.00     0.000 C 
BRANCH   5   6
ATOM      6  C   UNL     1      -9.204  -7.103  -4.871  1.00  0.00     0.000 C 
BRANCH   6   7
ATOM      7  C   UNL     1      -8.622  -8.309  -5.642  1.00  0.00     0.000 C 
BRANCH   7   8
ATOM      8  C   UNL     1      -8.478  -9.587  -4.791  1.00  0.00     0.000 C 
BRANCH   8   9
ATOM      9  C   UNL     1      -7.664 -10.717  -5.442  1.00  0.00     0.000 C 
BRANCH   9  10
ATOM     10  C   UNL     1      -6.244 -10.318  -5.889  1.00  0.00     0.000 C 
BRANCH  10  11
ATOM     11  C   UNL     1      -5.709 -11.150  -7.078  1.00  0.00     0.000 C 
BRANCH  11  12
ATOM     12  C   UNL     1      -4.351 -11.820  -6.803  1.00  0.00     0.006 C 
BRANCH  12  13
ATOM     13  C   UNL     1      -3.665 -11.252  -5.553  1.00  0.00     0.053 C 
BRANCH  13  14
ATOM     14  C   UNL     1      -2.432 -12.038  -5.231  1.00  0.00     0.041 C 
ATOM     15  O   UNL     1      -1.370 -11.444  -4.905  1.00  0.00    -0.550 OA
ATOM     16  O   UNL     1      -2.447 -13.424  -5.323  1.00  0.00    -0.550 OA
ENDBRANCH  13  14
ENDBRANCH  12  13
ENDBRANCH  11  12
ENDBRANCH  10  11
ENDBRANCH   9  10
ENDBRANCH   8   9
ENDBRANCH   7   8
ENDBRANCH   6   7
ENDBRANCH   5   6
ENDBRANCH   4   5
ENDBRANCH   3   4
ENDBRANCH   2   3
ENDBRANCH   1   2
BRANCH   1  17
ATOM     17  C   UNL     1     -13.750  -7.034  -5.164  1.00  0.00     0.000 C 
BRANCH  17  18
ATOM     18  C   UNL     1     -14.125  -8.267  -4.325  1.00  0.00     0.000 C 
BRANCH  18  19
ATOM     19  C   UNL     1     -13.444  -9.552  -4.826  1.00  0.00     0.000 C 
BRANCH  19  20
ATOM     20  C   UNL     1     -12.128  -9.280  -5.578  1.00  0.00     0.000 C 
BRANCH  20  21
ATOM     21  C   UNL     1     -11.879 -10.169  -6.814  1.00  0.00     0.000 C 
BRANCH  21  22
ATOM     22  C   UNL     1     -12.224 -11.659  -6.634  1.00  0.00    -0.000 C 
BRANCH  22  23
ATOM     23  C   UNL     1     -11.100 -12.597  -7.098  1.00  0.00    -0.000 C 
BRANCH  23  24
ATOM     24  C   UNL     1     -10.622 -13.489  -5.942  1.00  0.00    -0.000 C 
BRANCH  24  25
ATOM     25  C   UNL     1     -10.563 -12.740  -4.602  1.00  0.00    -0.000 C 
BRANCH  25  26
ATOM     26  C   UNL     1     -11.391 -13.428  -3.502  1.00  0.00    -0.000 C 
BRANCH  26  27
ATOM     27  C   UNL     1     -12.818 -13.778  -3.961  1.00  0.00    -0.000 C 
BRANCH  27  28
ATOM     28  C   UNL     1     -13.941 -13.195  -3.085  1.00  0.00    -0.000 C 
BRANCH  28  29
ATOM     29  C   UNL     1     -13.445 -12.728  -1.709  1.00  0.00    -0.003 C 
ATOM     30  C   UNL     1     -13.564 -11.214  -1.566  1.00  0.00     0.004 C 
ENDBRANCH  28  29
ENDBRANCH  27  28
ENDBRANCH  26  27
ENDBRANCH  25  26
ENDBRANCH  24  25
ENDBRANCH  23  24
ENDBRANCH  22  23
ENDBRANCH  21  22
ENDBRANCH  20  21
ENDBRANCH  19  20
ENDBRANCH  18  19
ENDBRANCH  17  18
ENDBRANCH   1  17
TORSDOF 26
ENDMDL
MODEL 9
REMARK VINA RESULT:    -3.926      2.634      7.685
REMARK INTER + INTRA:         -13.051
REMARK INTER:                  -9.617
REMARK INTRA:                  -3.434
REMARK UNBOUND:                -3.157
REMARK SMILES CCCCCCCCCCCCCCCCCCCCCCCCCCCC(=O)[O-]
REMARK SMILES IDX 15 1 16 2 17 3 18 4 19 5 20 6 21 7 22 8 23 9 24 10 25 11
REMARK SMILES IDX 26 12 27 13 28 14 29 15 30 16 14 17 13 18 12 19 11 20 10 21
REMARK SMILES IDX 9 22 8 23 7 24 6 25 5 26 4 27 3 28 2 29 1 30
REMARK H PARENT
REMARK Flexibility Score: inf
ROOT
ATOM      1  C   UNL     1      -9.993  -5.574  -4.851  1.00  0.00     0.000 C 
ENDROOT
BRANCH   1   2
ATOM      2  C   UNL     1      -9.780  -6.124  -6.271  1.00  0.00     0.000 C 
BRANCH   2   3
ATOM      3  C   UNL     1      -8.863  -7.360  -6.301  1.00  0.00     0.000 C 
BRANCH   3   4
ATOM      4  C   UNL     1      -8.933  -8.167  -4.987  1.00  0.00     0.000 C 
BRANCH   4   5
ATOM      5  C   UNL     1      -9.251  -9.658  -5.192  1.00  0.00     0.000 C 
BRANCH   5   6
ATOM      6  C   UNL     1      -8.096 -10.581  -4.768  1.00  0.00     0.000 C 
BRANCH   6   7
ATOM      7  C   UNL     1      -6.713 -10.013  -5.155  1.00  0.00     0.000 C 
BRANCH   7   8
ATOM      8  C   UNL     1      -6.338 -10.232  -6.635  1.00  0.00     0.000 C 
BRANCH   8   9
ATOM      9  C   UNL     1      -5.881 -11.657  -6.990  1.00  0.00     0.000 C 
BRANCH   9  10
ATOM     10  C   UNL     1      -4.353 -11.842  -7.086  1.00  0.00     0.000 C 
BRANCH  10  11
ATOM     11  C   UNL     1      -3.613 -11.607  -5.748  1.00  0.00     0.000 C 
BRANCH  11  12
ATOM     12  C   UNL     1      -2.483 -12.617  -5.482  1.00  0.00     0.006 C 
BRANCH  12  13
ATOM     13  C   UNL     1      -1.607 -12.211  -4.289  1.00  0.00     0.053 C 
BRANCH  13  14
ATOM     14  C   UNL     1      -1.743 -13.204  -3.178  1.00  0.00     0.041 C 
ATOM     15  O   UNL     1      -2.783 -13.908  -3.081  1.00  0.00    -0.550 OA
ATOM     16  O   UNL     1      -0.736 -13.328  -2.229  1.00  0.00    -0.550 OA
ENDBRANCH  13  14
ENDBRANCH  12  13
ENDBRANCH  11  12
ENDBRANCH  10  11
ENDBRANCH   9  10
ENDBRANCH   8   9
ENDBRANCH   7   8
ENDBRANCH   6   7
ENDBRANCH   5   6
ENDBRANCH   4   5
ENDBRANCH   3   4
ENDBRANCH   2   3
ENDBRANCH   1   2
BRANCH   1  17
ATOM     17  C   UNL     1     -11.298  -4.769  -4.726  1.00  0.00     0.000 C 
BRANCH  17  18
ATOM     18  C   UNL     1     -12.492  -5.452  -5.414  1.00  0.00     0.000 C 
BRANCH  18  19
ATOM     19  C   UNL     1     -13.517  -6.005  -4.408  1.00  0.00     0.000 C 
BRANCH  19  20
ATOM     20  C   UNL     1     -13.665  -7.536  -4.483  1.00  0.00     0.000 C 
BRANCH  20  21
ATOM     21  C   UNL     1     -12.710  -8.243  -5.467  1.00  0.00     0.000 C 
BRANCH  21  22
ATOM     22  C   UNL     1     -12.794  -9.780  -5.476  1.00  0.00    -0.000 C 
BRANCH  22  23
ATOM     23  C   UNL     1     -13.458 -10.353  -4.216  1.00  0.00    -0.000 C 
BRANCH  23  24
ATOM     24  C   UNL     1     -14.037 -11.750  -4.491  1.00  0.00    -0.000 C 
BRANCH  24  25
ATOM     25  C   UNL     1     -13.272 -12.862  -3.758  1.00  0.00    -0.000 C 
BRANCH  25  26
ATOM     26  C   UNL     1     -11.858 -12.427  -3.332  1.00  0.00    -0.000 C 
BRANCH  26  27
ATOM     27  C   UNL     1     -10.767 -13.403  -3.806  1.00  0.00    -0.000 C 
BRANCH  27  28
ATOM     28  C   UNL     1     -10.918 -13.887  -5.260  1.00  0.00    -0.000 C 
BRANCH  28  29
ATOM     29  C   UNL     1     -10.630 -12.785  -6.290  1.00  0.00    -0.003 C 
ATOM     30  C   UNL     1      -9.400 -13.121  -7.128  1.00  0.00     0.004 C 
ENDBRANCH  28  29
ENDBRANCH  27  28
ENDBRANCH  26  27
ENDBRANCH  25  26
ENDBRANCH  24  25
ENDBRANCH  23  24
ENDBRANCH  22  23
ENDBRANCH  21  22
ENDBRANCH  20  21
ENDBRANCH  19  20
ENDBRANCH  18  19
ENDBRANCH  17  18
ENDBRANCH   1  17
TORSDOF 26
ENDMDL
