MODEL 1
REMARK VINA RESULT:    -2.547      0.000      0.000
REMARK INTER + INTRA:          -3.859
REMARK INTER:                  -3.589
REMARK INTRA:                  -0.269
REMARK UNBOUND:                -0.269
REMARK SMILES CCCCCCCCC=O
REMARK SMILES IDX 5 1 4 2 3 3 2 4 1 5 6 6 7 7 8 8 9 9 10 10
REMARK H PARENT
REMARK Flexibility Score: inf
ROOT
ATOM      1  C   UNL     1     128.335 127.048 116.786  1.00  0.00     0.000 C 
ENDROOT
BRANCH   1   2
ATOM      2  C   UNL     1     127.047 127.427 117.527  1.00  0.00    -0.000 C 
BRANCH   2   3
ATOM      3  C   UNL     1     127.222 128.741 118.297  1.00  0.00    -0.000 C 
BRANCH   3   4
ATOM      4  C   UNL     1     125.862 129.349 118.661  1.00  0.00    -0.003 C 
ATOM      5  C   UNL     1     124.748 128.312 118.555  1.00  0.00     0.004 C 
ENDBRANCH   3   4
ENDBRANCH   2   3
ENDBRANCH   1   2
BRANCH   1   6
ATOM      6  C   UNL     1     128.050 126.735 115.312  1.00  0.00     0.000 C 
BRANCH   6   7
ATOM      7  C   UNL     1     128.086 125.224 115.053  1.00  0.00     0.008 C 
BRANCH   7   8
ATOM      8  C   UNL     1     128.843 124.493 116.167  1.00  0.00     0.072 C 
BRANCH   8   9
ATOM      9  C   UNL     1     128.710 123.007 116.020  1.00  0.00     0.224 C 
ATOM     10  O   UNL     1     127.642 122.510 115.698  1.00  0.00    -0.303 OA
ENDBRANCH   8   9
ENDBRANCH   7   8
ENDBRANCH   6   7
ENDBRANCH   1   6
TORSDOF 7
ENDMDL
MODEL 2
REMARK VINA RESULT:    -2.534     14.273     15.831
REMARK INTER + INTRA:          -3.840
REMARK INTER:                  -3.514
REMARK INTRA:                  -0.326
REMARK UNBOUND:                -0.269
REMARK SMILES CCCCCCCCC=O
REMARK SMILES IDX 5 1 4 2 3 3 2 4 1 5 6 6 7 7 8 8 9 9 10 10
REMARK H PARENT
REMARK Flexibility Score: inf
ROOT
ATOM      1  C   UNL     1     111.556 126.625 118.021  1.00  0.00     0.000 C 
ENDROOT
BRANCH   1   2
ATOM      2  C   UNL     1     110.994 128.022 117.728  1.00  0.00    -0.000 C 
BRANCH   2   3
ATOM      3  C   UNL     1     111.836 128.744 116.671  1.00  0.00    -0.000 C 
BRANCH   3   4
ATOM      4  C   UNL     1     112.310 127.770 115.586  1.00  0.00    -0.003 C 
ATOM      5  C   UNL     1     113.704 128.137 115.087  1.00  0.00     0.004 C 
ENDBRANCH   3   4
ENDBRANCH   2   3
ENDBRANCH   1   2
BRANCH   1   6
ATOM      6  C   UNL     1     110.429 125.629 118.315  1.00  0.00     0.000 C 
BRANCH   6   7
ATOM      7  C   UNL     1     110.995 124.259 118.708  1.00  0.00     0.008 C 
BRANCH   7   8
ATOM      8  C   UNL     1     112.232 124.409 119.600  1.00  0.00     0.072 C 
BRANCH   8   9
ATOM      9  C   UNL     1     113.125 123.210 119.486  1.00  0.00     0.224 C 
ATOM     10  O   UNL     1     112.906 122.353 118.644  1.00  0.00    -0.303 OA
ENDBRANCH   8   9
ENDBRANCH   7   8
ENDBRANCH   6   7
ENDBRANCH   1   6
TORSDOF 7
ENDMDL
MODEL 3
REMARK VINA RESULT:    -2.534     19.905     21.387
REMARK INTER + INTRA:          -3.839
REMARK INTER:                  -3.535
REMARK INTRA:                  -0.304
REMARK UNBOUND:                -0.269
REMARK SMILES CCCCCCCCC=O
REMARK SMILES IDX 5 1 4 2 3 3 2 4 1 5 6 6 7 7 8 8 9 9 10 10
REMARK H PARENT
REMARK Flexibility Score: inf
ROOT
ATOM      1  C   UNL     1     111.286 110.548 118.077  1.00  0.00     0.000 C 
ENDROOT
BRANCH   1   2
ATOM      2  C   UNL     1     112.476 109.909 118.804  1.00  0.00    -0.000 C 
BRANCH   2   3
ATOM      3  C   UNL     1     113.802 110.507 118.322  1.00  0.00    -0.000 C 
BRANCH   3   4
ATOM      4  C   UNL     1     114.664 110.958 119.507  1.00  0.00    -0.003 C 
ATOM      5  C   UNL     1     115.509 112.175 119.142  1.00  0.00     0.004 C 
ENDBRANCH   3   4
ENDBRANCH   2   3
ENDBRANCH   1   2
BRANCH   1   6
ATOM      6  C   UNL     1     111.749 111.683 117.157  1.00  0.00     0.000 C 
BRANCH   6   7
ATOM      7  C   UNL     1     110.657 112.054 116.148  1.00  0.00     0.008 C 
BRANCH   7   8
ATOM      8  C   UNL     1     111.109 113.208 115.247  1.00  0.00     0.072 C 
BRANCH   8   9
ATOM      9  C   UNL     1     110.249 114.419 115.453  1.00  0.00     0.224 C 
ATOM     10  O   UNL     1     110.756 115.516 115.628  1.00  0.00    -0.303 OA
ENDBRANCH   8   9
ENDBRANCH   7   8
ENDBRANCH   6   7
ENDBRANCH   1   6
TORSDOF 7
ENDMDL
MODEL 4
REMARK VINA RESULT:    -2.530      1.059      2.225
REMARK INTER + INTRA:          -3.834
REMARK INTER:                  -3.486
REMARK INTRA:                  -0.348
REMARK UNBOUND:                -0.269
REMARK SMILES CCCCCCCCC=O
REMARK SMILES IDX 5 1 4 2 3 3 2 4 1 5 6 6 7 7 8 8 9 9 10 10
REMARK H PARENT
REMARK Flexibility Score: inf
ROOT
ATOM      1  C   UNL     1     127.658 128.645 118.360  1.00  0.00     0.000 C 
ENDROOT
BRANCH   1   2
ATOM      2  C   UNL     1     126.361 129.357 118.761  1.00  0.00    -0.000 C 
BRANCH   2   3
ATOM      3  C   UNL     1     125.132 128.555 118.316  1.00  0.00    -0.000 C 
BRANCH   3   4
ATOM      4  C   UNL     1     124.288 128.127 119.522  1.00  0.00    -0.003 C 
ATOM      5  C   UNL     1     123.622 126.776 119.277  1.00  0.00     0.004 C 
ENDBRANCH   3   4
ENDBRANCH   2   3
ENDBRANCH   1   2
BRANCH   1   6
ATOM      6  C   UNL     1     127.362 127.366 117.569  1.00  0.00     0.000 C 
BRANCH   6   7
ATOM      7  C   UNL     1     128.486 127.062 116.572  1.00  0.00     0.008 C 
BRANCH   7   8
ATOM      8  C   UNL     1     127.939 126.365 115.321  1.00  0.00     0.072 C 
BRANCH   8   9
ATOM      9  C   UNL     1     128.667 125.081 115.061  1.00  0.00     0.224 C 
ATOM     10  O   UNL     1     128.383 124.070 115.685  1.00  0.00    -0.303 OA
ENDBRANCH   8   9
ENDBRANCH   7   8
ENDBRANCH   6   7
ENDBRANCH   1   6
TORSDOF 7
ENDMDL
MODEL 5
REMARK VINA RESULT:    -2.526     14.178     15.996
REMARK INTER + INTRA:          -3.828
REMARK INTER:                  -3.510
REMARK INTRA:                  -0.319
REMARK UNBOUND:                -0.269
REMARK SMILES CCCCCCCCC=O
REMARK SMILES IDX 5 1 4 2 3 3 2 4 1 5 6 6 7 7 8 8 9 9 10 10
REMARK H PARENT
REMARK Flexibility Score: inf
ROOT
ATOM      1  C   UNL     1     111.473 126.883 117.694  1.00  0.00     0.000 C 
ENDROOT
BRANCH   1   2
ATOM      2  C   UNL     1     110.299 126.135 118.336  1.00  0.00    -0.000 C 
BRANCH   2   3
ATOM      3  C   UNL     1     110.657 124.667 118.597  1.00  0.00    -0.000 C 
BRANCH   3   4
ATOM      4  C   UNL     1     112.051 124.545 119.225  1.00  0.00    -0.003 C 
ATOM      5  C   UNL     1     112.588 123.122 119.102  1.00  0.00     0.004 C 
ENDBRANCH   3   4
ENDBRANCH   2   3
ENDBRANCH   1   2
BRANCH   1   6
ATOM      6  C   UNL     1     111.191 128.388 117.618  1.00  0.00     0.000 C 
BRANCH   6   7
ATOM      7  C   UNL     1     111.647 128.966 116.273  1.00  0.00     0.008 C 
BRANCH   7   8
ATOM      8  C   UNL     1     112.484 127.948 115.492  1.00  0.00     0.072 C 
BRANCH   8   9
ATOM      9  C   UNL     1     113.758 128.565 114.999  1.00  0.00     0.224 C 
ATOM     10  O   UNL     1     114.834 128.217 115.462  1.00  0.00    -0.303 OA
ENDBRANCH   8   9
ENDBRANCH   7   8
ENDBRANCH   6   7
ENDBRANCH   1   6
TORSDOF 7
ENDMDL
MODEL 6
REMARK VINA RESULT:    -2.508      0.771      1.590
REMARK INTER + INTRA:          -3.804
REMARK INTER:                  -3.401
REMARK INTRA:                  -0.403
REMARK UNBOUND:                -0.269
REMARK SMILES CCCCCCCCC=O
REMARK SMILES IDX 5 1 4 2 3 3 2 4 1 5 6 6 7 7 8 8 9 9 10 10
REMARK H PARENT
REMARK Flexibility Score: inf
ROOT
ATOM      1  C   UNL     1     127.858 126.722 115.510  1.00  0.00     0.000 C 
ENDROOT
BRANCH   1   2
ATOM      2  C   UNL     1     128.926 127.285 116.455  1.00  0.00    -0.000 C 
BRANCH   2   3
ATOM      3  C   UNL     1     128.288 127.870 117.720  1.00  0.00    -0.000 C 
BRANCH   3   4
ATOM      4  C   UNL     1     126.774 127.632 117.732  1.00  0.00    -0.003 C 
ATOM      5  C   UNL     1     126.036 128.809 118.366  1.00  0.00     0.004 C 
ENDBRANCH   3   4
ENDBRANCH   2   3
ENDBRANCH   1   2
BRANCH   1   6
ATOM      6  C   UNL     1     128.253 125.331 114.998  1.00  0.00     0.000 C 
BRANCH   6   7
ATOM      7  C   UNL     1     128.710 124.430 116.151  1.00  0.00     0.008 C 
BRANCH   7   8
ATOM      8  C   UNL     1     128.875 122.980 115.683  1.00  0.00     0.072 C 
BRANCH   8   9
ATOM      9  C   UNL     1     127.758 122.120 116.196  1.00  0.00     0.224 C 
ATOM     10  O   UNL     1     126.854 121.772 115.453  1.00  0.00    -0.303 OA
ENDBRANCH   8   9
ENDBRANCH   7   8
ENDBRANCH   6   7
ENDBRANCH   1   6
TORSDOF 7
ENDMDL
MODEL 7
REMARK VINA RESULT:    -2.422     11.938     14.554
REMARK INTER + INTRA:          -3.682
REMARK INTER:                  -3.322
REMARK INTRA:                  -0.360
REMARK UNBOUND:                -0.269
REMARK SMILES CCCCCCCCC=O
REMARK SMILES IDX 5 1 4 2 3 3 2 4 1 5 6 6 7 7 8 8 9 9 10 10
REMARK H PARENT
REMARK Flexibility Score: inf
ROOT
ATOM      1  C   UNL     1     127.449 111.376 118.240  1.00  0.00     0.000 C 
ENDROOT
BRANCH   1   2
ATOM      2  C   UNL     1     128.756 112.055 118.666  1.00  0.00    -0.000 C 
BRANCH   2   3
ATOM      3  C   UNL     1     128.747 113.545 118.304  1.00  0.00    -0.000 C 
BRANCH   3   4
ATOM      4  C   UNL     1     128.280 114.396 119.490  1.00  0.00    -0.003 C 
ATOM      5  C   UNL     1     127.142 115.329 119.084  1.00  0.00     0.004 C 
ENDBRANCH   3   4
ENDBRANCH   2   3
ENDBRANCH   1   2
BRANCH   1   6
ATOM      6  C   UNL     1     127.110 111.701 116.781  1.00  0.00     0.000 C 
BRANCH   6   7
ATOM      7  C   UNL     1     126.957 110.420 115.952  1.00  0.00     0.008 C 
BRANCH   7   8
ATOM      8  C   UNL     1     125.715 110.489 115.058  1.00  0.00     0.072 C 
BRANCH   8   9
ATOM      9  C   UNL     1     124.468 110.230 115.851  1.00  0.00     0.224 C 
ATOM     10  O   UNL     1     123.462 110.894 115.656  1.00  0.00    -0.303 OA
ENDBRANCH   8   9
ENDBRANCH   7   8
ENDBRANCH   6   7
ENDBRANCH   1   6
TORSDOF 7
ENDMDL
MODEL 8
REMARK VINA RESULT:    -2.407     11.145     13.503
REMARK INTER + INTRA:          -3.660
REMARK INTER:                  -3.132
REMARK INTRA:                  -0.529
REMARK UNBOUND:                -0.269
REMARK SMILES CCCCCCCCC=O
REMARK SMILES IDX 5 1 4 2 3 3 2 4 1 5 6 6 7 7 8 8 9 9 10 10
REMARK H PARENT
REMARK Flexibility Score: inf
ROOT
ATOM      1  C   UNL     1     113.626 128.084 114.912  1.00  0.00     0.000 C 
ENDROOT
BRANCH   1   2
ATOM      2  C   UNL     1     112.203 128.274 115.450  1.00  0.00    -0.000 C 
BRANCH   2   3
ATOM      3  C   UNL     1     111.997 127.490 116.751  1.00  0.00    -0.000 C 
BRANCH   3   4
ATOM      4  C   UNL     1     112.089 128.415 117.970  1.00  0.00    -0.003 C 
ATOM      5  C   UNL     1     113.439 128.274 118.668  1.00  0.00     0.004 C 
ENDBRANCH   3   4
ENDBRANCH   2   3
ENDBRANCH   1   2
BRANCH   1   6
ATOM      6  C   UNL     1     114.384 129.417 114.876  1.00  0.00     0.000 C 
BRANCH   6   7
ATOM      7  C   UNL     1     115.508 129.440 115.918  1.00  0.00     0.008 C 
BRANCH   7   8
ATOM      8  C   UNL     1     116.884 129.433 115.242  1.00  0.00     0.072 C 
BRANCH   8   9
ATOM      9  C   UNL     1     117.640 128.182 115.576  1.00  0.00     0.224 C 
ATOM     10  O   UNL     1     117.046 127.132 115.766  1.00  0.00    -0.303 OA
ENDBRANCH   8   9
ENDBRANCH   7   8
ENDBRANCH   6   7
ENDBRANCH   1   6
TORSDOF 7
ENDMDL
MODEL 9
REMARK VINA RESULT:    -2.020     12.894     15.373
REMARK INTER + INTRA:          -3.116
REMARK INTER:                  -2.817
REMARK INTRA:                  -0.299
REMARK UNBOUND:                -0.269
REMARK SMILES CCCCCCCCC=O
REMARK SMILES IDX 5 1 4 2 3 3 2 4 1 5 6 6 7 7 8 8 9 9 10 10
REMARK H PARENT
REMARK Flexibility Score: inf
ROOT
ATOM      1  C   UNL     1     111.360 128.915 116.741  1.00  0.00     0.000 C 
ENDROOT
BRANCH   1   2
ATOM      2  C   UNL     1     110.792 128.127 117.928  1.00  0.00    -0.000 C 
BRANCH   2   3
ATOM      3  C   UNL     1     111.393 126.718 117.992  1.00  0.00    -0.000 C 
BRANCH   3   4
ATOM      4  C   UNL     1     110.323 125.680 118.348  1.00  0.00    -0.003 C 
ATOM      5  C   UNL     1     110.957 124.354 118.759  1.00  0.00     0.004 C 
ENDBRANCH   3   4
ENDBRANCH   2   3
ENDBRANCH   1   2
BRANCH   1   6
ATOM      6  C   UNL     1     112.596 128.219 116.160  1.00  0.00     0.000 C 
BRANCH   6   7
ATOM      7  C   UNL     1     113.065 128.913 114.875  1.00  0.00     0.008 C 
BRANCH   7   8
ATOM      8  C   UNL     1     114.441 129.559 115.069  1.00  0.00     0.072 C 
BRANCH   8   9
ATOM      9  C   UNL     1     115.273 128.769 116.035  1.00  0.00     0.224 C 
ATOM     10  O   UNL     1     116.192 128.072 115.634  1.00  0.00    -0.303 OA
ENDBRANCH   8   9
ENDBRANCH   7   8
ENDBRANCH   6   7
ENDBRANCH   1   6
TORSDOF 7
ENDMDL
