MODEL 1
REMARK VINA RESULT:    -3.682      0.000      0.000
REMARK INTER + INTRA:          -8.427
REMARK INTER:                  -5.620
REMARK INTRA:                  -2.807
REMARK UNBOUND:                -2.807
REMARK SMILES CC(=O)CCC=C(C)CCC=C(C)CCC=C(C)C
REMARK SMILES IDX 10 1 11 2 12 3 13 4 14 5 15 6 16 7 18 8 17 9 19 10 9 11 7 12
REMARK SMILES IDX 6 13 8 14 5 15 4 16 2 17 3 18 1 19
REMARK H PARENT
REMARK Flexibility Score: inf
ROOT
ATOM      1  C   UNL     1       1.194 -13.110   8.833  1.00  0.00     0.032 C 
ENDROOT
BRANCH   1   2
ATOM      2  C   UNL     1       2.391 -12.493   9.513  1.00  0.00    -0.028 C 
ATOM      3  C   UNL     1       3.680 -12.771   9.205  1.00  0.00    -0.077 C 
ATOM      4  C   UNL     1       4.048 -13.799   8.162  1.00  0.00     0.039 C 
BRANCH   3   5
ATOM      5  C   UNL     1       4.788 -12.071   9.962  1.00  0.00     0.034 C 
BRANCH   5   6
ATOM      6  C   UNL     1       6.009 -12.978  10.156  1.00  0.00     0.032 C 
BRANCH   6   7
ATOM      7  C   UNL     1       5.867 -13.840  11.388  1.00  0.00    -0.028 C 
ATOM      8  C   UNL     1       6.409 -15.971  10.188  1.00  0.00     0.039 C 
ATOM      9  C   UNL     1       6.014 -15.183  11.413  1.00  0.00    -0.080 C 
ATOM     10  C   UNL     1       5.770 -15.907  12.712  1.00  0.00     0.039 C 
ENDBRANCH   6   7
ENDBRANCH   5   6
ENDBRANCH   3   5
ENDBRANCH   1   2
BRANCH   1  11
ATOM     11  C   UNL     1       0.453 -14.090   9.753  1.00  0.00     0.034 C 
BRANCH  11  12
ATOM     12  C   UNL     1       0.527 -15.518   9.241  1.00  0.00    -0.077 C 
ATOM     13  C   UNL     1       1.446 -16.406   9.683  1.00  0.00    -0.028 C 
ATOM     14  C   UNL     1      -0.476 -15.976   8.214  1.00  0.00     0.039 C 
BRANCH  13  15
ATOM     15  C   UNL     1       2.525 -16.072  10.685  1.00  0.00     0.035 C 
BRANCH  15  16
ATOM     16  C   UNL     1       2.165 -16.591  12.080  1.00  0.00     0.079 C 
BRANCH  16  17
ATOM     17  C   UNL     1       1.828 -15.450  13.004  1.00  0.00     0.130 C 
ATOM     18  O   UNL     1       1.026 -15.625  13.909  1.00  0.00    -0.300 OA
ATOM     19  C   UNL     1       2.465 -14.101  12.846  1.00  0.00     0.087 C 
ENDBRANCH  16  17
ENDBRANCH  15  16
ENDBRANCH  13  15
ENDBRANCH  11  12
ENDBRANCH   1  11
TORSDOF 9
ENDMDL
MODEL 2
REMARK VINA RESULT:    -3.573      2.894      5.577
REMARK INTER + INTRA:          -8.260
REMARK INTER:                  -6.827
REMARK INTRA:                  -1.433
REMARK UNBOUND:                -2.807
REMARK SMILES CC(=O)CCC=C(C)CCC=C(C)CCC=C(C)C
REMARK SMILES IDX 10 1 11 2 12 3 13 4 14 5 15 6 16 7 18 8 17 9 19 10 9 11 7 12
REMARK SMILES IDX 6 13 8 14 5 15 4 16 2 17 3 18 1 19
REMARK H PARENT
REMARK Flexibility Score: inf
ROOT
ATOM      1  C   UNL     1       2.177 -15.807  10.318  1.00  0.00     0.032 C 
ENDROOT
BRANCH   1   2
ATOM      2  C   UNL     1       2.246 -16.574  11.616  1.00  0.00    -0.028 C 
ATOM      3  C   UNL     1       3.036 -16.242  12.665  1.00  0.00    -0.077 C 
ATOM      4  C   UNL     1       3.990 -15.074  12.609  1.00  0.00     0.039 C 
BRANCH   3   5
ATOM      5  C   UNL     1       3.000 -17.096  13.915  1.00  0.00     0.034 C 
BRANCH   5   6
ATOM      6  C   UNL     1       2.179 -18.375  13.709  1.00  0.00     0.032 C 
BRANCH   6   7
ATOM      7  C   UNL     1       1.868 -19.049  15.025  1.00  0.00    -0.028 C 
ATOM      8  C   UNL     1      -0.312 -17.854  15.333  1.00  0.00     0.039 C 
ATOM      9  C   UNL     1       0.773 -18.806  15.777  1.00  0.00    -0.080 C 
ATOM     10  C   UNL     1       0.642 -19.511  17.103  1.00  0.00     0.039 C 
ENDBRANCH   6   7
ENDBRANCH   5   6
ENDBRANCH   3   5
ENDBRANCH   1   2
BRANCH   1  11
ATOM     11  C   UNL     1       0.985 -14.839  10.286  1.00  0.00     0.034 C 
BRANCH  11  12
ATOM     12  C   UNL     1       0.311 -14.814   8.925  1.00  0.00    -0.077 C 
ATOM     13  C   UNL     1       0.388 -13.752   8.091  1.00  0.00    -0.028 C 
ATOM     14  C   UNL     1      -0.460 -16.027   8.472  1.00  0.00     0.039 C 
BRANCH  13  15
ATOM     15  C   UNL     1       1.100 -12.466   8.432  1.00  0.00     0.035 C 
BRANCH  15  16
ATOM     16  C   UNL     1       2.425 -12.347   7.670  1.00  0.00     0.079 C 
BRANCH  16  17
ATOM     17  C   UNL     1       3.575 -12.809   8.525  1.00  0.00     0.130 C 
ATOM     18  O   UNL     1       4.407 -13.570   8.055  1.00  0.00    -0.300 OA
ATOM     19  C   UNL     1       3.730 -12.346   9.944  1.00  0.00     0.087 C 
ENDBRANCH  16  17
ENDBRANCH  15  16
ENDBRANCH  13  15
ENDBRANCH  11  12
ENDBRANCH   1  11
TORSDOF 9
ENDMDL
MODEL 3
REMARK VINA RESULT:    -3.519      2.328      3.962
REMARK INTER + INTRA:          -8.177
REMARK INTER:                  -6.241
REMARK INTRA:                  -1.936
REMARK UNBOUND:                -2.807
REMARK SMILES CC(=O)CCC=C(C)CCC=C(C)CCC=C(C)C
REMARK SMILES IDX 10 1 11 2 12 3 13 4 14 5 15 6 16 7 18 8 17 9 19 10 9 11 7 12
REMARK SMILES IDX 6 13 8 14 5 15 4 16 2 17 3 18 1 19
REMARK H PARENT
REMARK Flexibility Score: inf
ROOT
ATOM      1  C   UNL     1       0.490 -15.768   8.867  1.00  0.00     0.032 C 
ENDROOT
BRANCH   1   2
ATOM      2  C   UNL     1       0.392 -14.530   9.723  1.00  0.00    -0.028 C 
ATOM      3  C   UNL     1       0.426 -13.262   9.249  1.00  0.00    -0.077 C 
ATOM      4  C   UNL     1       0.627 -12.962   7.783  1.00  0.00     0.039 C 
BRANCH   3   5
ATOM      5  C   UNL     1       0.308 -12.107  10.220  1.00  0.00     0.034 C 
BRANCH   5   6
ATOM      6  C   UNL     1       1.397 -12.155  11.299  1.00  0.00     0.032 C 
BRANCH   6   7
ATOM      7  C   UNL     1       0.870 -12.739  12.589  1.00  0.00    -0.028 C 
ATOM      8  C   UNL     1       3.146 -13.070  13.584  1.00  0.00     0.039 C 
ATOM      9  C   UNL     1       1.640 -13.180  13.608  1.00  0.00    -0.080 C 
ATOM     10  C   UNL     1       0.962 -13.802  14.802  1.00  0.00     0.039 C 
ENDBRANCH   6   7
ENDBRANCH   5   6
ENDBRANCH   3   5
ENDBRANCH   1   2
BRANCH   1  11
ATOM     11  C   UNL     1       1.534 -16.758   9.404  1.00  0.00     0.034 C 
BRANCH  11  12
ATOM     12  C   UNL     1       2.689 -16.048  10.090  1.00  0.00    -0.077 C 
ATOM     13  C   UNL     1       2.845 -16.034  11.433  1.00  0.00    -0.028 C 
ATOM     14  C   UNL     1       3.719 -15.348   9.241  1.00  0.00     0.039 C 
BRANCH  13  15
ATOM     15  C   UNL     1       1.873 -16.669  12.398  1.00  0.00     0.035 C 
BRANCH  15  16
ATOM     16  C   UNL     1       2.577 -17.105  13.687  1.00  0.00     0.079 C 
BRANCH  16  17
ATOM     17  C   UNL     1       1.961 -18.367  14.231  1.00  0.00     0.130 C 
ATOM     18  O   UNL     1       2.507 -19.440  14.027  1.00  0.00    -0.300 OA
ATOM     19  C   UNL     1       0.691 -18.336  15.031  1.00  0.00     0.087 C 
ENDBRANCH  16  17
ENDBRANCH  15  16
ENDBRANCH  13  15
ENDBRANCH  11  12
ENDBRANCH   1  11
TORSDOF 9
ENDMDL
MODEL 4
REMARK VINA RESULT:    -3.502      3.105      6.217
REMARK INTER + INTRA:          -8.151
REMARK INTER:                  -6.091
REMARK INTRA:                  -2.060
REMARK UNBOUND:                -2.807
REMARK SMILES CC(=O)CCC=C(C)CCC=C(C)CCC=C(C)C
REMARK SMILES IDX 10 1 11 2 12 3 13 4 14 5 15 6 16 7 18 8 17 9 19 10 9 11 7 12
REMARK SMILES IDX 6 13 8 14 5 15 4 16 2 17 3 18 1 19
REMARK H PARENT
REMARK Flexibility Score: inf
ROOT
ATOM      1  C   UNL     1       2.815 -14.598  15.667  1.00  0.00     0.032 C 
ENDROOT
BRANCH   1   2
ATOM      2  C   UNL     1       2.747 -15.640  14.577  1.00  0.00    -0.028 C 
ATOM      3  C   UNL     1       2.129 -15.467  13.386  1.00  0.00    -0.077 C 
ATOM      4  C   UNL     1       1.379 -14.201  13.051  1.00  0.00     0.039 C 
BRANCH   3   5
ATOM      5  C   UNL     1       2.145 -16.594  12.375  1.00  0.00     0.034 C 
BRANCH   5   6
ATOM      6  C   UNL     1       2.488 -16.093  10.967  1.00  0.00     0.032 C 
BRANCH   6   7
ATOM      7  C   UNL     1       1.405 -16.447   9.975  1.00  0.00    -0.028 C 
ATOM      8  C   UNL     1       0.879 -14.063   9.415  1.00  0.00     0.039 C 
ATOM      9  C   UNL     1       0.657 -15.552   9.295  1.00  0.00    -0.080 C 
ATOM     10  C   UNL     1      -0.435 -16.067   8.392  1.00  0.00     0.039 C 
ENDBRANCH   6   7
ENDBRANCH   5   6
ENDBRANCH   3   5
ENDBRANCH   1   2
BRANCH   1  11
ATOM     11  C   UNL     1       1.989 -15.000  16.898  1.00  0.00     0.034 C 
BRANCH  11  12
ATOM     12  C   UNL     1       0.496 -14.921  16.631  1.00  0.00    -0.077 C 
ATOM     13  C   UNL     1      -0.309 -16.007  16.652  1.00  0.00    -0.028 C 
ATOM     14  C   UNL     1      -0.123 -13.575  16.351  1.00  0.00     0.039 C 
BRANCH  13  15
ATOM     15  C   UNL     1       0.185 -17.414  16.888  1.00  0.00     0.035 C 
BRANCH  15  16
ATOM     16  C   UNL     1       0.191 -18.226  15.588  1.00  0.00     0.079 C 
BRANCH  16  17
ATOM     17  C   UNL     1       1.219 -19.324  15.650  1.00  0.00     0.130 C 
ATOM     18  O   UNL     1       1.080 -20.234  16.454  1.00  0.00    -0.300 OA
ATOM     19  C   UNL     1       2.409 -19.334  14.736  1.00  0.00     0.087 C 
ENDBRANCH  16  17
ENDBRANCH  15  16
ENDBRANCH  13  15
ENDBRANCH  11  12
ENDBRANCH   1  11
TORSDOF 9
ENDMDL
MODEL 5
REMARK VINA RESULT:    -3.391      2.676      5.581
REMARK INTER + INTRA:          -7.982
REMARK INTER:                  -6.566
REMARK INTRA:                  -1.416
REMARK UNBOUND:                -2.807
REMARK SMILES CC(=O)CCC=C(C)CCC=C(C)CCC=C(C)C
REMARK SMILES IDX 10 1 11 2 12 3 13 4 14 5 15 6 16 7 18 8 17 9 19 10 9 11 7 12
REMARK SMILES IDX 6 13 8 14 5 15 4 16 2 17 3 18 1 19
REMARK H PARENT
REMARK Flexibility Score: inf
ROOT
ATOM      1  C   UNL     1       3.121 -16.540  12.736  1.00  0.00     0.032 C 
ENDROOT
BRANCH   1   2
ATOM      2  C   UNL     1       2.045 -16.471  11.680  1.00  0.00    -0.028 C 
ATOM      3  C   UNL     1       2.273 -16.257  10.363  1.00  0.00    -0.077 C 
ATOM      4  C   UNL     1       3.659 -16.002   9.822  1.00  0.00     0.039 C 
BRANCH   3   5
ATOM      5  C   UNL     1       1.099 -16.222   9.407  1.00  0.00     0.034 C 
BRANCH   5   6
ATOM      6  C   UNL     1       0.282 -14.932   9.555  1.00  0.00     0.032 C 
BRANCH   6   7
ATOM      7  C   UNL     1       0.388 -14.066   8.321  1.00  0.00    -0.028 C 
ATOM      8  C   UNL     1       2.031 -12.480   9.349  1.00  0.00     0.039 C 
ATOM      9  C   UNL     1       1.143 -12.951   8.223  1.00  0.00    -0.080 C 
ATOM     10  C   UNL     1       1.086 -12.156   6.943  1.00  0.00     0.039 C 
ENDBRANCH   6   7
ENDBRANCH   5   6
ENDBRANCH   3   5
ENDBRANCH   1   2
BRANCH   1  11
ATOM     11  C   UNL     1       2.533 -16.702  14.146  1.00  0.00     0.034 C 
BRANCH  11  12
ATOM     12  C   UNL     1       2.005 -18.106  14.383  1.00  0.00    -0.077 C 
ATOM     13  C   UNL     1       0.767 -18.348  14.871  1.00  0.00    -0.028 C 
ATOM     14  C   UNL     1       2.885 -19.281  14.044  1.00  0.00     0.039 C 
BRANCH  13  15
ATOM     15  C   UNL     1      -0.203 -17.265  15.279  1.00  0.00     0.035 C 
BRANCH  15  16
ATOM     16  C   UNL     1      -0.177 -17.041  16.794  1.00  0.00     0.079 C 
BRANCH  16  17
ATOM     17  C   UNL     1      -0.229 -15.570  17.117  1.00  0.00     0.130 C 
ATOM     18  O   UNL     1      -0.697 -15.205  18.184  1.00  0.00    -0.300 OA
ATOM     19  C   UNL     1       0.293 -14.540  16.159  1.00  0.00     0.087 C 
ENDBRANCH  16  17
ENDBRANCH  15  16
ENDBRANCH  13  15
ENDBRANCH  11  12
ENDBRANCH   1  11
TORSDOF 9
ENDMDL
MODEL 6
REMARK VINA RESULT:    -3.363      3.194      5.860
REMARK INTER + INTRA:          -7.940
REMARK INTER:                  -6.316
REMARK INTRA:                  -1.624
REMARK UNBOUND:                -2.807
REMARK SMILES CC(=O)CCC=C(C)CCC=C(C)CCC=C(C)C
REMARK SMILES IDX 10 1 11 2 12 3 13 4 14 5 15 6 16 7 18 8 17 9 19 10 9 11 7 12
REMARK SMILES IDX 6 13 8 14 5 15 4 16 2 17 3 18 1 19
REMARK H PARENT
REMARK Flexibility Score: inf
ROOT
ATOM      1  C   UNL     1       2.504 -16.894  14.179  1.00  0.00     0.032 C 
ENDROOT
BRANCH   1   2
ATOM      2  C   UNL     1       1.701 -15.837  13.462  1.00  0.00    -0.028 C 
ATOM      3  C   UNL     1       2.234 -14.784  12.798  1.00  0.00    -0.077 C 
ATOM      4  C   UNL     1       3.722 -14.533  12.761  1.00  0.00     0.039 C 
BRANCH   3   5
ATOM      5  C   UNL     1       1.310 -13.800  12.112  1.00  0.00     0.034 C 
BRANCH   5   6
ATOM      6  C   UNL     1       1.622 -13.673  10.615  1.00  0.00     0.032 C 
BRANCH   6   7
ATOM      7  C   UNL     1       0.565 -14.347   9.772  1.00  0.00    -0.028 C 
ATOM      8  C   UNL     1       1.808 -16.516   9.616  1.00  0.00     0.039 C 
ATOM      9  C   UNL     1       0.647 -15.607   9.293  1.00  0.00    -0.080 C 
ATOM     10  C   UNL     1      -0.462 -16.110   8.405  1.00  0.00     0.039 C 
ENDBRANCH   6   7
ENDBRANCH   5   6
ENDBRANCH   3   5
ENDBRANCH   1   2
BRANCH   1  11
ATOM     11  C   UNL     1       2.147 -18.309  13.701  1.00  0.00     0.034 C 
BRANCH  11  12
ATOM     12  C   UNL     1       2.660 -19.377  14.652  1.00  0.00    -0.077 C 
ATOM     13  C   UNL     1       1.927 -19.847  15.687  1.00  0.00    -0.028 C 
ATOM     14  C   UNL     1       4.034 -19.954  14.425  1.00  0.00     0.039 C 
BRANCH  13  15
ATOM     15  C   UNL     1       0.552 -19.335  16.044  1.00  0.00     0.035 C 
BRANCH  15  16
ATOM     16  C   UNL     1       0.534 -18.730  17.451  1.00  0.00     0.079 C 
BRANCH  16  17
ATOM     17  C   UNL     1       0.585 -17.226  17.387  1.00  0.00     0.130 C 
ATOM     18  O   UNL     1       1.439 -16.626  18.021  1.00  0.00    -0.300 OA
ATOM     19  C   UNL     1      -0.386 -16.446  16.550  1.00  0.00     0.087 C 
ENDBRANCH  16  17
ENDBRANCH  15  16
ENDBRANCH  13  15
ENDBRANCH  11  12
ENDBRANCH   1  11
TORSDOF 9
ENDMDL
MODEL 7
REMARK VINA RESULT:    -3.345      2.580      5.019
REMARK INTER + INTRA:          -7.912
REMARK INTER:                  -6.523
REMARK INTRA:                  -1.389
REMARK UNBOUND:                -2.807
REMARK SMILES CC(=O)CCC=C(C)CCC=C(C)CCC=C(C)C
REMARK SMILES IDX 10 1 11 2 12 3 13 4 14 5 15 6 16 7 18 8 17 9 19 10 9 11 7 12
REMARK SMILES IDX 6 13 8 14 5 15 4 16 2 17 3 18 1 19
REMARK H PARENT
REMARK Flexibility Score: inf
ROOT
ATOM      1  C   UNL     1       1.795 -16.284  10.394  1.00  0.00     0.032 C 
ENDROOT
BRANCH   1   2
ATOM      2  C   UNL     1       2.939 -16.223  11.377  1.00  0.00    -0.028 C 
ATOM      3  C   UNL     1       2.795 -16.123  12.720  1.00  0.00    -0.077 C 
ATOM      4  C   UNL     1       1.438 -16.002  13.371  1.00  0.00     0.039 C 
BRANCH   3   5
ATOM      5  C   UNL     1       4.030 -16.082  13.594  1.00  0.00     0.034 C 
BRANCH   5   6
ATOM      6  C   UNL     1       3.936 -17.072  14.762  1.00  0.00     0.032 C 
BRANCH   6   7
ATOM      7  C   UNL     1       4.037 -18.501  14.284  1.00  0.00    -0.028 C 
ATOM      8  C   UNL     1       1.810 -19.166  15.218  1.00  0.00     0.039 C 
ATOM      9  C   UNL     1       3.109 -19.457  14.505  1.00  0.00    -0.080 C 
ATOM     10  C   UNL     1       3.392 -20.857  14.022  1.00  0.00     0.039 C 
ENDBRANCH   6   7
ENDBRANCH   5   6
ENDBRANCH   3   5
ENDBRANCH   1   2
BRANCH   1  11
ATOM     11  C   UNL     1       1.078 -14.932  10.263  1.00  0.00     0.034 C 
BRANCH  11  12
ATOM     12  C   UNL     1       0.348 -14.802   8.938  1.00  0.00    -0.077 C 
ATOM     13  C   UNL     1       0.403 -13.683   8.180  1.00  0.00    -0.028 C 
ATOM     14  C   UNL     1      -0.454 -15.973   8.431  1.00  0.00     0.039 C 
BRANCH  13  15
ATOM     15  C   UNL     1       1.143 -12.431   8.583  1.00  0.00     0.035 C 
BRANCH  15  16
ATOM     16  C   UNL     1       2.508 -12.348   7.892  1.00  0.00     0.079 C 
BRANCH  16  17
ATOM     17  C   UNL     1       3.596 -12.870   8.794  1.00  0.00     0.130 C 
ATOM     18  O   UNL     1       3.900 -12.241   9.795  1.00  0.00    -0.300 OA
ATOM     19  C   UNL     1       4.310 -14.156   8.495  1.00  0.00     0.087 C 
ENDBRANCH  16  17
ENDBRANCH  15  16
ENDBRANCH  13  15
ENDBRANCH  11  12
ENDBRANCH   1  11
TORSDOF 9
ENDMDL
MODEL 8
REMARK VINA RESULT:    -3.309      2.591      4.899
REMARK INTER + INTRA:          -7.857
REMARK INTER:                  -5.825
REMARK INTRA:                  -2.032
REMARK UNBOUND:                -2.807
REMARK SMILES CC(=O)CCC=C(C)CCC=C(C)CCC=C(C)C
REMARK SMILES IDX 10 1 11 2 12 3 13 4 14 5 15 6 16 7 18 8 17 9 19 10 9 11 7 12
REMARK SMILES IDX 6 13 8 14 5 15 4 16 2 17 3 18 1 19
REMARK H PARENT
REMARK Flexibility Score: inf
ROOT
ATOM      1  C   UNL     1       2.491 -16.384   9.999  1.00  0.00     0.032 C 
ENDROOT
BRANCH   1   2
ATOM      2  C   UNL     1       1.986 -16.461  11.419  1.00  0.00    -0.028 C 
ATOM      3  C   UNL     1       2.754 -16.284  12.520  1.00  0.00    -0.077 C 
ATOM      4  C   UNL     1       4.242 -16.045  12.426  1.00  0.00     0.039 C 
BRANCH   3   5
ATOM      5  C   UNL     1       2.115 -16.378  13.889  1.00  0.00     0.034 C 
BRANCH   5   6
ATOM      6  C   UNL     1       1.412 -17.726  14.099  1.00  0.00     0.032 C 
BRANCH   6   7
ATOM      7  C   UNL     1       2.408 -18.858  14.196  1.00  0.00    -0.028 C 
ATOM      8  C   UNL     1       1.319 -19.889  16.203  1.00  0.00     0.039 C 
ATOM      9  C   UNL     1       2.397 -19.817  15.148  1.00  0.00    -0.080 C 
ATOM     10  C   UNL     1       3.504 -20.839  15.149  1.00  0.00     0.039 C 
ENDBRANCH   6   7
ENDBRANCH   5   6
ENDBRANCH   3   5
ENDBRANCH   1   2
BRANCH   1  11
ATOM     11  C   UNL     1       2.246 -15.003   9.375  1.00  0.00     0.034 C 
BRANCH  11  12
ATOM     12  C   UNL     1       0.766 -14.673   9.287  1.00  0.00    -0.077 C 
ATOM     13  C   UNL     1       0.235 -13.549   9.819  1.00  0.00    -0.028 C 
ATOM     14  C   UNL     1      -0.149 -15.624   8.559  1.00  0.00     0.039 C 
BRANCH  13  15
ATOM     15  C   UNL     1       1.031 -12.530  10.598  1.00  0.00     0.035 C 
BRANCH  15  16
ATOM     16  C   UNL     1       1.053 -12.867  12.092  1.00  0.00     0.079 C 
BRANCH  16  17
ATOM     17  C   UNL     1       2.441 -12.709  12.655  1.00  0.00     0.130 C 
ATOM     18  O   UNL     1       2.616 -12.807  13.860  1.00  0.00    -0.300 OA
ATOM     19  C   UNL     1       3.620 -12.443  11.766  1.00  0.00     0.087 C 
ENDBRANCH  16  17
ENDBRANCH  15  16
ENDBRANCH  13  15
ENDBRANCH  11  12
ENDBRANCH   1  11
TORSDOF 9
ENDMDL
