MODEL 1
REMARK VINA RESULT:    -3.136      0.000      0.000
REMARK INTER + INTRA:          -4.572
REMARK INTER:                  -4.236
REMARK INTRA:                  -0.336
REMARK UNBOUND:                -0.336
REMARK SMILES C=C1C(=O)O[C@@H]2[C@H]3O[C@@]3(C)CCC=C(C)CC[C@@H]12
REMARK SMILES IDX 6 1 18 2 2 3 1 4 3 5 4 6 5 7 17 8 16 9 14 10 15 11 13 12
REMARK SMILES IDX 7 14 9 15 8 16 10 17 11 18 12 19
REMARK H PARENT
REMARK Flexibility Score: 70.00
ROOT
ATOM      1  C   UNL     1      21.631 -10.173  24.698  1.00  0.00     0.216 C 
ATOM      2  C   UNL     1      20.477  -9.826  23.690  1.00  0.00     0.070 C 
ATOM      3  C   UNL     1      21.127  -9.981  22.347  1.00  0.00     0.037 C 
ATOM      4  C   UNL     1      20.515  -9.884  21.166  1.00  0.00     0.021 C 
ATOM      5  C   UNL     1      22.504 -10.339  22.551  1.00  0.00     0.334 C 
ATOM      6  O   UNL     1      23.355 -10.542  21.646  1.00  0.00    -0.247 OA
ATOM      7  O   UNL     1      22.780 -10.445  23.895  1.00  0.00    -0.455 OA
ENDROOT
BRANCH   2   8
ATOM      8  C   UNL     1      19.908  -8.380  23.879  1.00  0.00     0.017 C 
BRANCH   8   9
ATOM      9  C   UNL     1      18.908  -8.268  25.055  1.00  0.00     0.031 C 
BRANCH   9  10
ATOM     10  C   UNL     1      19.418  -7.501  26.275  1.00  0.00    -0.077 C 
ATOM     11  C   UNL     1      19.646  -6.014  26.134  1.00  0.00     0.039 C 
ATOM     12  C   UNL     1      19.604  -8.034  27.512  1.00  0.00    -0.028 CG0
ATOM     13  G   UNL     1      19.602  -9.499  27.882  1.00  0.00     0.000 G0
ENDBRANCH   9  10
ENDBRANCH   8   9
ENDBRANCH   2   8
BRANCH   1  14
ATOM     14  C   UNL     1      21.345 -11.426  25.563  1.00  0.00     0.192 C 
ATOM     15  C   UNL     1      21.139 -11.433  27.052  1.00  0.00     0.096 C 
ATOM     16  O   UNL     1      22.409 -11.630  26.479  1.00  0.00    -0.362 OA
ATOM     17  C   UNL     1      20.572 -12.725  27.644  1.00  0.00     0.045 C 
BRANCH  15  18
ATOM     18  C   UNL     1      20.988 -10.144  27.897  1.00  0.00     0.042 C 
BRANCH  18  19
ATOM     19  C   UNL     1      19.595  -9.498  27.891  1.00  0.00     0.030 CG0
ATOM     20  G   UNL     1      19.606  -8.033  27.524  1.00  0.00     0.000 G0
ENDBRANCH  18  19
ENDBRANCH  15  18
ENDBRANCH   1  14
TORSDOF 0
ENDMDL
MODEL 2
REMARK VINA RESULT:    -3.012      4.084      5.968
REMARK INTER + INTRA:          -4.404
REMARK INTER:                  -4.164
REMARK INTRA:                  -0.240
REMARK UNBOUND:                -0.336
REMARK SMILES C=C1C(=O)O[C@@H]2[C@H]3O[C@@]3(C)CCC=C(C)CC[C@@H]12
REMARK SMILES IDX 6 1 18 2 2 3 1 4 3 5 4 6 5 7 17 8 16 9 14 10 15 11 13 12
REMARK SMILES IDX 7 14 9 15 8 16 10 17 11 18 12 19
REMARK H PARENT
REMARK Flexibility Score: 70.00
ROOT
ATOM      1  C   UNL     1      20.579  -5.776  25.285  1.00  0.00     0.216 C 
ATOM      2  C   UNL     1      21.350  -5.073  26.460  1.00  0.00     0.070 C 
ATOM      3  C   UNL     1      20.561  -3.818  26.695  1.00  0.00     0.037 C 
ATOM      4  C   UNL     1      20.773  -2.932  27.668  1.00  0.00     0.021 C 
ATOM      5  C   UNL     1      19.483  -3.780  25.744  1.00  0.00     0.334 C 
ATOM      6  O   UNL     1      18.624  -2.866  25.643  1.00  0.00    -0.247 OA
ATOM      7  O   UNL     1      19.504  -4.900  24.946  1.00  0.00    -0.455 OA
ENDROOT
BRANCH   2   8
ATOM      8  C   UNL     1      22.841  -4.747  26.111  1.00  0.00     0.017 C 
BRANCH   8   9
ATOM      9  C   UNL     1      23.210  -5.077  24.645  1.00  0.00     0.031 C 
BRANCH   9  10
ATOM     10  C   UNL     1      24.346  -6.084  24.469  1.00  0.00    -0.077 C 
ATOM     11  C   UNL     1      25.759  -5.553  24.391  1.00  0.00     0.039 C 
ATOM     12  C   UNL     1      24.199  -7.436  24.463  1.00  0.00    -0.028 CG0
ATOM     13  G   UNL     1      22.906  -8.210  24.368  1.00  0.00     0.000 G0
ENDBRANCH   9  10
ENDBRANCH   8   9
ENDBRANCH   2   8
BRANCH   1  14
ATOM     14  C   UNL     1      19.974  -7.148  25.673  1.00  0.00     0.192 C 
ATOM     15  C   UNL     1      20.736  -8.438  25.792  1.00  0.00     0.096 C 
ATOM     16  O   UNL     1      20.112  -8.056  24.591  1.00  0.00    -0.362 OA
ATOM     17  C   UNL     1      19.999  -9.591  26.478  1.00  0.00     0.045 C 
BRANCH  15  18
ATOM     18  C   UNL     1      22.282  -8.523  25.737  1.00  0.00     0.042 C 
BRANCH  18  19
ATOM     19  C   UNL     1      22.921  -8.239  24.370  1.00  0.00     0.030 CG0
ATOM     20  G   UNL     1      24.202  -7.443  24.452  1.00  0.00     0.000 G0
ENDBRANCH  18  19
ENDBRANCH  15  18
ENDBRANCH   1  14
TORSDOF 0
ENDMDL
MODEL 3
REMARK VINA RESULT:    -2.988      3.141      4.865
REMARK INTER + INTRA:          -4.372
REMARK INTER:                  -4.471
REMARK INTRA:                   0.099
REMARK UNBOUND:                -0.336
REMARK SMILES C=C1C(=O)O[C@@H]2[C@H]3O[C@@]3(C)CCC=C(C)CC[C@@H]12
REMARK SMILES IDX 6 1 18 2 2 3 1 4 3 5 4 6 5 7 17 8 16 9 14 10 15 11 13 12
REMARK SMILES IDX 7 14 9 15 8 16 10 17 11 18 12 19
REMARK H PARENT
REMARK Flexibility Score: 70.00
ROOT
ATOM      1  C   UNL     1      21.816  -6.209  26.882  1.00  0.00     0.216 C 
ATOM      2  C   UNL     1      20.429  -5.982  26.181  1.00  0.00     0.070 C 
ATOM      3  C   UNL     1      20.356  -4.491  26.023  1.00  0.00     0.037 C 
ATOM      4  C   UNL     1      19.396  -3.819  25.387  1.00  0.00     0.021 C 
ATOM      5  C   UNL     1      21.543  -3.920  26.598  1.00  0.00     0.334 C 
ATOM      6  O   UNL     1      21.817  -2.692  26.652  1.00  0.00    -0.247 OA
ATOM      7  O   UNL     1      22.367  -4.908  27.085  1.00  0.00    -0.455 OA
ENDROOT
BRANCH   2   8
ATOM      8  C   UNL     1      19.220  -6.522  27.017  1.00  0.00     0.017 C 
BRANCH   8   9
ATOM      9  C   UNL     1      18.909  -8.013  26.745  1.00  0.00     0.031 C 
BRANCH   9  10
ATOM     10  C   UNL     1      19.184  -8.487  25.318  1.00  0.00    -0.077 C 
ATOM     11  C   UNL     1      18.376  -7.874  24.198  1.00  0.00     0.039 C 
ATOM     12  C   UNL     1      20.164  -9.359  24.960  1.00  0.00    -0.028 CG0
ATOM     13  G   UNL     1      20.995 -10.223  25.878  1.00  0.00     0.000 G0
ENDBRANCH   9  10
ENDBRANCH   8   9
ENDBRANCH   2   8
BRANCH   1  14
ATOM     14  C   UNL     1      22.818  -7.025  26.028  1.00  0.00     0.192 C 
ATOM     15  C   UNL     1      22.965  -8.521  26.043  1.00  0.00     0.096 C 
ATOM     16  O   UNL     1      23.740  -7.692  26.876  1.00  0.00    -0.362 OA
ATOM     17  C   UNL     1      23.794  -9.124  24.906  1.00  0.00     0.045 C 
BRANCH  15  18
ATOM     18  C   UNL     1      21.984  -9.467  26.778  1.00  0.00     0.042 C 
BRANCH  18  19
ATOM     19  C   UNL     1      21.003 -10.241  25.885  1.00  0.00     0.030 CG0
ATOM     20  G   UNL     1      20.186  -9.358  24.972  1.00  0.00     0.000 G0
ENDBRANCH  18  19
ENDBRANCH  15  18
ENDBRANCH   1  14
TORSDOF 0
ENDMDL
MODEL 4
REMARK VINA RESULT:    -2.751      3.817      5.769
REMARK INTER + INTRA:          -4.052
REMARK INTER:                  -3.839
REMARK INTRA:                  -0.213
REMARK UNBOUND:                -0.336
REMARK SMILES C=C1C(=O)O[C@@H]2[C@H]3O[C@@]3(C)CCC=C(C)CC[C@@H]12
REMARK SMILES IDX 6 1 18 2 2 3 1 4 3 5 4 6 5 7 17 8 16 9 14 10 15 11 13 12
REMARK SMILES IDX 7 14 9 15 8 16 10 17 11 18 12 19
REMARK H PARENT
REMARK Flexibility Score: 70.00
ROOT
ATOM      1  C   UNL     1      21.940  -4.952  24.754  1.00  0.00     0.216 C 
ATOM      2  C   UNL     1      22.957  -5.562  25.783  1.00  0.00     0.070 C 
ATOM      3  C   UNL     1      24.276  -4.987  25.356  1.00  0.00     0.037 C 
ATOM      4  C   UNL     1      25.438  -5.141  25.991  1.00  0.00     0.021 C 
ATOM      5  C   UNL     1      24.055  -4.171  24.194  1.00  0.00     0.334 C 
ATOM      6  O   UNL     1      24.940  -3.538  23.560  1.00  0.00    -0.247 OA
ATOM      7  O   UNL     1      22.720  -4.158  23.860  1.00  0.00    -0.455 OA
ENDROOT
BRANCH   2   8
ATOM      8  C   UNL     1      22.990  -7.128  25.764  1.00  0.00     0.017 C 
BRANCH   8   9
ATOM      9  C   UNL     1      21.998  -7.746  24.750  1.00  0.00     0.031 C 
BRANCH   9  10
ATOM     10  C   UNL     1      20.961  -8.696  25.349  1.00  0.00    -0.077 C 
ATOM     11  C   UNL     1      21.321 -10.160  25.459  1.00  0.00     0.039 C 
ATOM     12  C   UNL     1      19.765  -8.318  25.873  1.00  0.00    -0.028 CG0
ATOM     13  G   UNL     1      19.103  -6.966  25.751  1.00  0.00     0.000 G0
ENDBRANCH   9  10
ENDBRANCH   8   9
ENDBRANCH   2   8
BRANCH   1  14
ATOM     14  C   UNL     1      20.875  -4.034  25.403  1.00  0.00     0.192 C 
ATOM     15  C   UNL     1      19.730  -4.494  26.262  1.00  0.00     0.096 C 
ATOM     16  O   UNL     1      19.594  -4.335  24.871  1.00  0.00    -0.362 OA
ATOM     17  C   UNL     1      18.993  -3.399  27.038  1.00  0.00     0.045 C 
BRANCH  15  18
ATOM     18  C   UNL     1      19.582  -5.946  26.780  1.00  0.00     0.042 C 
BRANCH  18  19
ATOM     19  C   UNL     1      19.084  -6.976  25.755  1.00  0.00     0.030 CG0
ATOM     20  G   UNL     1      19.759  -8.322  25.871  1.00  0.00     0.000 G0
ENDBRANCH  18  19
ENDBRANCH  15  18
ENDBRANCH   1  14
TORSDOF 0
ENDMDL
MODEL 5
REMARK VINA RESULT:    -2.743     13.793     14.910
REMARK INTER + INTRA:          -4.041
REMARK INTER:                  -3.693
REMARK INTRA:                  -0.347
REMARK UNBOUND:                -0.336
REMARK SMILES C=C1C(=O)O[C@@H]2[C@H]3O[C@@]3(C)CCC=C(C)CC[C@@H]12
REMARK SMILES IDX 6 1 18 2 2 3 1 4 3 5 4 6 5 7 17 8 16 9 14 10 15 11 13 12
REMARK SMILES IDX 7 14 9 15 8 16 10 17 11 18 12 19
REMARK H PARENT
REMARK Flexibility Score: 70.00
ROOT
ATOM      1  C   UNL     1      22.760   3.530  20.607  1.00  0.00     0.216 C 
ATOM      2  C   UNL     1      24.259   3.924  20.350  1.00  0.00     0.070 C 
ATOM      3  C   UNL     1      24.586   3.236  19.057  1.00  0.00     0.037 C 
ATOM      4  C   UNL     1      25.727   3.352  18.377  1.00  0.00     0.021 C 
ATOM      5  C   UNL     1      23.427   2.500  18.634  1.00  0.00     0.334 C 
ATOM      6  O   UNL     1      23.341   1.796  17.594  1.00  0.00    -0.247 OA
ATOM      7  O   UNL     1      22.393   2.675  19.524  1.00  0.00    -0.455 OA
ENDROOT
BRANCH   2   8
ATOM      8  C   UNL     1      25.223   3.463  21.496  1.00  0.00     0.017 C 
BRANCH   8   9
ATOM      9  C   UNL     1      25.324   4.485  22.654  1.00  0.00     0.031 C 
BRANCH   9  10
ATOM     10  C   UNL     1      24.709   4.033  23.978  1.00  0.00    -0.077 C 
ATOM     11  C   UNL     1      25.426   2.960  24.763  1.00  0.00     0.039 C 
ATOM     12  C   UNL     1      23.607   4.582  24.555  1.00  0.00    -0.028 CG0
ATOM     13  G   UNL     1      22.630   5.543  23.921  1.00  0.00     0.000 G0
ENDBRANCH   9  10
ENDBRANCH   8   9
ENDBRANCH   2   8
BRANCH   1  14
ATOM     14  C   UNL     1      21.792   4.739  20.611  1.00  0.00     0.192 C 
ATOM     15  C   UNL     1      21.100   5.301  21.820  1.00  0.00     0.096 C 
ATOM     16  O   UNL     1      20.499   4.317  21.015  1.00  0.00    -0.362 OA
ATOM     17  C   UNL     1      20.439   6.670  21.639  1.00  0.00     0.045 C 
BRANCH  15  18
ATOM     18  C   UNL     1      21.425   4.862  23.270  1.00  0.00     0.042 C 
BRANCH  18  19
ATOM     19  C   UNL     1      22.627   5.555  23.927  1.00  0.00     0.030 CG0
ATOM     20  G   UNL     1      23.609   4.598  24.559  1.00  0.00     0.000 G0
ENDBRANCH  18  19
ENDBRANCH  15  18
ENDBRANCH   1  14
TORSDOF 0
ENDMDL
MODEL 6
REMARK VINA RESULT:    -2.728     12.035     14.099
REMARK INTER + INTRA:          -4.020
REMARK INTER:                  -3.709
REMARK INTRA:                  -0.311
REMARK UNBOUND:                -0.336
REMARK SMILES C=C1C(=O)O[C@@H]2[C@H]3O[C@@]3(C)CCC=C(C)CC[C@@H]12
REMARK SMILES IDX 6 1 18 2 2 3 1 4 3 5 4 6 5 7 17 8 16 9 14 10 15 11 13 12
REMARK SMILES IDX 7 14 9 15 8 16 10 17 11 18 12 19
REMARK H PARENT
REMARK Flexibility Score: 70.00
ROOT
ATOM      1  C   UNL     1      23.346   2.987  19.911  1.00  0.00     0.216 C 
ATOM      2  C   UNL     1      24.612   2.072  19.741  1.00  0.00     0.070 C 
ATOM      3  C   UNL     1      24.606   1.734  18.279  1.00  0.00     0.037 C 
ATOM      4  C   UNL     1      25.550   1.050  17.632  1.00  0.00     0.021 C 
ATOM      5  C   UNL     1      23.454   2.349  17.680  1.00  0.00     0.334 C 
ATOM      6  O   UNL     1      23.125   2.271  16.467  1.00  0.00    -0.247 OA
ATOM      7  O   UNL     1      22.743   3.060  18.619  1.00  0.00    -0.455 OA
ENDROOT
BRANCH   2   8
ATOM      8  C   UNL     1      24.559   0.777  20.621  1.00  0.00     0.017 C 
BRANCH   8   9
ATOM      9  C   UNL     1      25.767   0.642  21.578  1.00  0.00     0.031 C 
BRANCH   9  10
ATOM     10  C   UNL     1      25.435   0.740  23.067  1.00  0.00    -0.077 C 
ATOM     11  C   UNL     1      25.231  -0.545  23.835  1.00  0.00     0.039 C 
ATOM     12  C   UNL     1      25.391   1.895  23.784  1.00  0.00    -0.028 CG0
ATOM     13  G   UNL     1      25.401   3.304  23.241  1.00  0.00     0.000 G0
ENDBRANCH   9  10
ENDBRANCH   8   9
ENDBRANCH   2   8
BRANCH   1  14
ATOM     14  C   UNL     1      23.680   4.430  20.365  1.00  0.00     0.192 C 
ATOM     15  C   UNL     1      23.894   4.872  21.786  1.00  0.00     0.096 C 
ATOM     16  O   UNL     1      22.628   4.933  21.175  1.00  0.00    -0.362 OA
ATOM     17  C   UNL     1      24.508   6.262  21.970  1.00  0.00     0.045 C 
BRANCH  15  18
ATOM     18  C   UNL     1      24.007   3.889  22.977  1.00  0.00     0.042 C 
BRANCH  18  19
ATOM     19  C   UNL     1      25.407   3.315  23.243  1.00  0.00     0.030 CG0
ATOM     20  G   UNL     1      25.393   1.902  23.776  1.00  0.00     0.000 G0
ENDBRANCH  18  19
ENDBRANCH  15  18
ENDBRANCH   1  14
TORSDOF 0
ENDMDL
MODEL 7
REMARK VINA RESULT:    -2.680     10.307     12.236
REMARK INTER + INTRA:          -3.955
REMARK INTER:                  -3.744
REMARK INTRA:                  -0.211
REMARK UNBOUND:                -0.336
REMARK SMILES C=C1C(=O)O[C@@H]2[C@H]3O[C@@]3(C)CCC=C(C)CC[C@@H]12
REMARK SMILES IDX 6 1 18 2 2 3 1 4 3 5 4 6 5 7 17 8 16 9 14 10 15 11 13 12
REMARK SMILES IDX 7 14 9 15 8 16 10 17 11 18 12 19
REMARK H PARENT
REMARK Flexibility Score: 70.00
ROOT
ATOM      1  C   UNL     1      24.352  -1.448  20.720  1.00  0.00     0.216 C 
ATOM      2  C   UNL     1      25.616  -1.121  21.594  1.00  0.00     0.070 C 
ATOM      3  C   UNL     1      25.302  -1.755  22.917  1.00  0.00     0.037 C 
ATOM      4  C   UNL     1      26.125  -1.828  23.963  1.00  0.00     0.021 C 
ATOM      5  C   UNL     1      23.995  -2.348  22.832  1.00  0.00     0.334 C 
ATOM      6  O   UNL     1      23.404  -2.960  23.760  1.00  0.00    -0.247 OA
ATOM      7  O   UNL     1      23.464  -2.166  21.577  1.00  0.00    -0.455 OA
ENDROOT
BRANCH   2   8
ATOM      8  C   UNL     1      25.876   0.416  21.750  1.00  0.00     0.017 C 
BRANCH   8   9
ATOM      9  C   UNL     1      24.777   1.289  21.099  1.00  0.00     0.031 C 
BRANCH   9  10
ATOM     10  C   UNL     1      25.266   2.254  20.019  1.00  0.00    -0.077 C 
ATOM     11  C   UNL     1      25.698   3.637  20.447  1.00  0.00     0.039 C 
ATOM     12  C   UNL     1      25.427   1.941  18.706  1.00  0.00    -0.028 CG0
ATOM     13  G   UNL     1      24.931   0.703  17.997  1.00  0.00     0.000 G0
ENDBRANCH   9  10
ENDBRANCH   8   9
ENDBRANCH   2   8
BRANCH   1  14
ATOM     14  C   UNL     1      24.660  -2.342  19.493  1.00  0.00     0.192 C 
ATOM     15  C   UNL     1      25.300  -1.880  18.214  1.00  0.00     0.096 C 
ATOM     16  O   UNL     1      23.903  -1.900  18.377  1.00  0.00    -0.362 OA
ATOM     17  C   UNL     1      25.782  -2.984  17.269  1.00  0.00     0.045 C 
BRANCH  15  18
ATOM     18  C   UNL     1      25.925  -0.475  18.032  1.00  0.00     0.042 C 
BRANCH  18  19
ATOM     19  C   UNL     1      24.936   0.699  17.987  1.00  0.00     0.030 CG0
ATOM     20  G   UNL     1      25.420   1.930  18.715  1.00  0.00     0.000 G0
ENDBRANCH  18  19
ENDBRANCH  15  18
ENDBRANCH   1  14
TORSDOF 0
ENDMDL
MODEL 8
REMARK VINA RESULT:    -2.670      3.162      4.883
REMARK INTER + INTRA:          -3.942
REMARK INTER:                  -3.606
REMARK INTRA:                  -0.337
REMARK UNBOUND:                -0.336
REMARK SMILES C=C1C(=O)O[C@@H]2[C@H]3O[C@@]3(C)CCC=C(C)CC[C@@H]12
REMARK SMILES IDX 6 1 18 2 2 3 1 4 3 5 4 6 5 7 17 8 16 9 14 10 15 11 13 12
REMARK SMILES IDX 7 14 9 15 8 16 10 17 11 18 12 19
REMARK H PARENT
REMARK Flexibility Score: 70.00
ROOT
ATOM      1  C   UNL     1      21.788  -7.854  25.540  1.00  0.00     0.216 C 
ATOM      2  C   UNL     1      20.659  -8.563  24.709  1.00  0.00     0.070 C 
ATOM      3  C   UNL     1      19.580  -7.524  24.627  1.00  0.00     0.037 C 
ATOM      4  C   UNL     1      18.447  -7.627  23.932  1.00  0.00     0.021 C 
ATOM      5  C   UNL     1      20.015  -6.364  25.356  1.00  0.00     0.334 C 
ATOM      6  O   UNL     1      19.359  -5.300  25.507  1.00  0.00    -0.247 OA
ATOM      7  O   UNL     1      21.275  -6.564  25.872  1.00  0.00    -0.455 OA
ENDROOT
BRANCH   2   8
ATOM      8  C   UNL     1      20.131  -9.876  25.381  1.00  0.00     0.017 C 
BRANCH   8   9
ATOM      9  C   UNL     1      21.096 -11.074  25.218  1.00  0.00     0.031 C 
BRANCH   9  10
ATOM     10  C   UNL     1      21.843 -11.487  26.485  1.00  0.00    -0.077 C 
ATOM     11  C   UNL     1      21.038 -12.057  27.630  1.00  0.00     0.039 C 
ATOM     12  C   UNL     1      23.194 -11.464  26.639  1.00  0.00    -0.028 CG0
ATOM     13  G   UNL     1      24.203 -10.805  25.729  1.00  0.00     0.000 G0
ENDBRANCH   9  10
ENDBRANCH   8   9
ENDBRANCH   2   8
BRANCH   1  14
ATOM     14  C   UNL     1      23.107  -7.656  24.753  1.00  0.00     0.192 C 
ATOM     15  C   UNL     1      24.430  -8.286  25.090  1.00  0.00     0.096 C 
ATOM     16  O   UNL     1      24.068  -7.018  25.580  1.00  0.00    -0.362 OA
ATOM     17  C   UNL     1      25.510  -8.195  24.009  1.00  0.00     0.045 C 
BRANCH  15  18
ATOM     18  C   UNL     1      24.601  -9.387  26.165  1.00  0.00     0.042 C 
BRANCH  18  19
ATOM     19  C   UNL     1      24.213 -10.810  25.736  1.00  0.00     0.030 CG0
ATOM     20  G   UNL     1      23.197 -11.462  26.643  1.00  0.00     0.000 G0
ENDBRANCH  18  19
ENDBRANCH  15  18
ENDBRANCH   1  14
TORSDOF 0
ENDMDL
MODEL 9
REMARK VINA RESULT:    -2.619      1.668      3.526
REMARK INTER + INTRA:          -3.874
REMARK INTER:                  -3.975
REMARK INTRA:                   0.101
REMARK UNBOUND:                -0.336
REMARK SMILES C=C1C(=O)O[C@@H]2[C@H]3O[C@@]3(C)CCC=C(C)CC[C@@H]12
REMARK SMILES IDX 6 1 18 2 2 3 1 4 3 5 4 6 5 7 17 8 16 9 14 10 15 11 13 12
REMARK SMILES IDX 7 14 9 15 8 16 10 17 11 18 12 19
REMARK H PARENT
REMARK Flexibility Score: 70.00
ROOT
ATOM      1  C   UNL     1      20.349  -9.281  23.976  1.00  0.00     0.216 C 
ATOM      2  C   UNL     1      21.638  -9.939  24.586  1.00  0.00     0.070 C 
ATOM      3  C   UNL     1      22.445 -10.315  23.378  1.00  0.00     0.037 C 
ATOM      4  C   UNL     1      23.678 -10.823  23.389  1.00  0.00     0.021 C 
ATOM      5  C   UNL     1      21.695  -9.953  22.206  1.00  0.00     0.334 C 
ATOM      6  O   UNL     1      22.062 -10.129  21.015  1.00  0.00    -0.247 OA
ATOM      7  O   UNL     1      20.503  -9.365  22.559  1.00  0.00    -0.455 OA
ENDROOT
BRANCH   2   8
ATOM      8  C   UNL     1      21.330 -11.192  25.474  1.00  0.00     0.017 C 
BRANCH   8   9
ATOM      9  C   UNL     1      21.089 -10.840  26.961  1.00  0.00     0.031 C 
BRANCH   9  10
ATOM     10  C   UNL     1      21.854  -9.621  27.476  1.00  0.00    -0.077 C 
ATOM     11  C   UNL     1      23.362  -9.700  27.526  1.00  0.00     0.039 C 
ATOM     12  C   UNL     1      21.291  -8.431  27.815  1.00  0.00    -0.028 CG0
ATOM     13  G   UNL     1      19.821  -8.139  28.003  1.00  0.00     0.000 G0
ENDBRANCH   9  10
ENDBRANCH   8   9
ENDBRANCH   2   8
BRANCH   1  14
ATOM     14  C   UNL     1      20.176  -7.788  24.351  1.00  0.00     0.192 C 
ATOM     15  C   UNL     1      19.465  -7.269  25.569  1.00  0.00     0.096 C 
ATOM     16  O   UNL     1      18.798  -7.448  24.343  1.00  0.00    -0.362 OA
ATOM     17  C   UNL     1      19.682  -5.788  25.891  1.00  0.00     0.045 C 
BRANCH  15  18
ATOM     18  C   UNL     1      18.979  -8.177  26.725  1.00  0.00     0.042 C 
BRANCH  18  19
ATOM     19  C   UNL     1      19.815  -8.129  28.013  1.00  0.00     0.030 CG0
ATOM     20  G   UNL     1      21.278  -8.434  27.798  1.00  0.00     0.000 G0
ENDBRANCH  18  19
ENDBRANCH  15  18
ENDBRANCH   1  14
TORSDOF 0
ENDMDL
