MODEL 1
REMARK VINA RESULT:    -4.210      0.000      0.000
REMARK INTER + INTRA:          -5.624
REMARK INTER:                  -5.441
REMARK INTRA:                  -0.184
REMARK UNBOUND:                -0.184
REMARK SMILES CCO[C@@H]1O[C@H](CO)[C@@H](O)[C@@H](O)[C@H]1O
REMARK SMILES IDX 4 1 13 2 11 3 9 4 6 5 5 6 3 7 2 8 1 9 14 10 12 12 7 14 8 15
REMARK SMILES IDX 10 17
REMARK H PARENT 14 11 12 13 8 16 10 18
REMARK Flexibility Score: inf
ROOT
ATOM      1  C   UNL     1       7.718   6.095   1.919  1.00  0.00     0.281 C 
ATOM      2  C   UNL     1       9.156   5.490   2.006  1.00  0.00     0.202 C 
ATOM      3  C   UNL     1       9.109   4.077   2.630  1.00  0.00     0.179 C 
ATOM      4  C   UNL     1       8.100   3.153   1.900  1.00  0.00     0.177 C 
ATOM      5  C   UNL     1       6.914   3.980   1.325  1.00  0.00     0.178 C 
ATOM      6  O   UNL     1       6.700   5.123   2.133  1.00  0.00    -0.341 OA
ENDROOT
BRANCH   1   7
ATOM      7  O   UNL     1       7.602   7.099   2.911  1.00  0.00    -0.350 OA
BRANCH   7   8
ATOM      8  C   UNL     1       6.581   8.015   2.571  1.00  0.00     0.160 C 
ATOM      9  C   UNL     1       6.783   8.475   1.136  1.00  0.00     0.035 C 
ENDBRANCH   7   8
ENDBRANCH   1   7
BRANCH   2  10
ATOM     10  O   UNL     1       9.732   5.432   0.725  1.00  0.00    -0.385 OA
ATOM     11  H   UNL     1      10.602   5.907   0.781  1.00  0.00     0.211 HD
ENDBRANCH   2  10
BRANCH   3  12
ATOM     12  O   UNL     1      10.388   3.497   2.731  1.00  0.00    -0.387 OA
ATOM     13  H   UNL     1      10.277   2.519   2.863  1.00  0.00     0.211 HD
ENDBRANCH   3  12
BRANCH   5  14
ATOM     14  C   UNL     1       5.622   3.158   1.284  1.00  0.00     0.191 C 
BRANCH  14  15
ATOM     15  O   UNL     1       5.102   3.140  -0.017  1.00  0.00    -0.394 OA
ATOM     16  H   UNL     1       4.142   2.905   0.074  1.00  0.00     0.210 HD
ENDBRANCH  14  15
ENDBRANCH   5  14
BRANCH   4  17
ATOM     17  O   UNL     1       8.712   2.385   0.893  1.00  0.00    -0.387 OA
ATOM     18  H   UNL     1       8.124   2.402   0.095  1.00  0.00     0.211 HD
ENDBRANCH   4  17
TORSDOF 7
ENDMDL
MODEL 2
REMARK VINA RESULT:    -3.577      1.647      4.012
REMARK INTER + INTRA:          -4.807
REMARK INTER:                  -4.508
REMARK INTRA:                  -0.299
REMARK UNBOUND:                -0.184
REMARK SMILES CCO[C@@H]1O[C@H](CO)[C@@H](O)[C@@H](O)[C@H]1O
REMARK SMILES IDX 4 1 13 2 11 3 9 4 6 5 5 6 3 7 2 8 1 9 14 10 12 12 7 14 8 15
REMARK SMILES IDX 10 17
REMARK H PARENT 14 11 12 13 8 16 10 18
REMARK Flexibility Score: inf
ROOT
ATOM      1  C   UNL     1       6.409   3.184   2.900  1.00  0.00     0.281 C 
ATOM      2  C   UNL     1       7.515   2.796   1.868  1.00  0.00     0.202 C 
ATOM      3  C   UNL     1       7.554   3.817   0.709  1.00  0.00     0.179 C 
ATOM      4  C   UNL     1       7.682   5.275   1.224  1.00  0.00     0.177 C 
ATOM      5  C   UNL     1       6.991   5.431   2.609  1.00  0.00     0.178 C 
ATOM      6  O   UNL     1       5.922   4.509   2.710  1.00  0.00    -0.341 OA
ENDROOT
BRANCH   1   7
ATOM      7  O   UNL     1       5.330   2.278   2.751  1.00  0.00    -0.350 OA
BRANCH   7   8
ATOM      8  C   UNL     1       4.446   2.724   1.744  1.00  0.00     0.160 C 
ATOM      9  C   UNL     1       3.021   2.668   2.270  1.00  0.00     0.035 C 
ENDBRANCH   7   8
ENDBRANCH   1   7
BRANCH   2  10
ATOM     10  O   UNL     1       8.768   2.741   2.503  1.00  0.00    -0.385 OA
ATOM     11  H   UNL     1       9.345   2.154   1.947  1.00  0.00     0.211 HD
ENDBRANCH   2  10
BRANCH   3  12
ATOM     12  O   UNL     1       8.536   3.501  -0.248  1.00  0.00    -0.387 OA
ATOM     13  H   UNL     1       9.242   2.962   0.195  1.00  0.00     0.211 HD
ENDBRANCH   3  12
BRANCH   5  14
ATOM     14  C   UNL     1       6.440   6.847   2.806  1.00  0.00     0.191 C 
BRANCH  14  15
ATOM     15  O   UNL     1       6.687   7.625   1.668  1.00  0.00    -0.394 OA
ATOM     16  H   UNL     1       6.187   7.194   0.927  1.00  0.00     0.210 HD
ENDBRANCH  14  15
ENDBRANCH   5  14
BRANCH   4  17
ATOM     17  O   UNL     1       9.021   5.705   1.279  1.00  0.00    -0.387 OA
ATOM     18  H   UNL     1       9.104   6.518   0.717  1.00  0.00     0.211 HD
ENDBRANCH   4  17
TORSDOF 7
ENDMDL
MODEL 3
REMARK VINA RESULT:    -3.407      3.802      5.467
REMARK INTER + INTRA:          -4.587
REMARK INTER:                  -4.185
REMARK INTRA:                  -0.402
REMARK UNBOUND:                -0.184
REMARK SMILES CCO[C@@H]1O[C@H](CO)[C@@H](O)[C@@H](O)[C@H]1O
REMARK SMILES IDX 4 1 13 2 11 3 9 4 6 5 5 6 3 7 2 8 1 9 14 10 12 12 7 14 8 15
REMARK SMILES IDX 10 17
REMARK H PARENT 14 11 12 13 8 16 10 18
REMARK Flexibility Score: inf
ROOT
ATOM      1  C   UNL     1      13.086   7.154   2.085  1.00  0.00     0.281 C 
ATOM      2  C   UNL     1      12.880   5.609   2.180  1.00  0.00     0.202 C 
ATOM      3  C   UNL     1      11.472   5.285   2.728  1.00  0.00     0.179 C 
ATOM      4  C   UNL     1      10.356   6.003   1.924  1.00  0.00     0.177 C 
ATOM      5  C   UNL     1      10.871   7.358   1.361  1.00  0.00     0.178 C 
ATOM      6  O   UNL     1      11.867   7.879   2.220  1.00  0.00    -0.341 OA
ENDROOT
BRANCH   1   7
ATOM      7  O   UNL     1      13.964   7.546   3.125  1.00  0.00    -0.350 OA
BRANCH   7   8
ATOM      8  C   UNL     1      15.309   7.375   2.727  1.00  0.00     0.160 C 
ATOM      9  C   UNL     1      15.489   7.937   1.325  1.00  0.00     0.035 C 
ENDBRANCH   7   8
ENDBRANCH   1   7
BRANCH   2  10
ATOM     10  O   UNL     1      13.049   5.022   0.914  1.00  0.00    -0.385 OA
ATOM     11  H   UNL     1      14.008   5.124   0.678  1.00  0.00     0.211 HD
ENDBRANCH   2  10
BRANCH   3  12
ATOM     12  O   UNL     1      11.246   3.900   2.834  1.00  0.00    -0.387 OA
ATOM     13  H   UNL     1      11.976   3.505   3.378  1.00  0.00     0.211 HD
ENDBRANCH   3  12
BRANCH   5  14
ATOM     14  C   UNL     1       9.739   8.384   1.241  1.00  0.00     0.191 C 
BRANCH  14  15
ATOM     15  O   UNL     1       8.542   7.745   0.891  1.00  0.00    -0.394 OA
ATOM     16  H   UNL     1       7.898   7.952   1.617  1.00  0.00     0.210 HD
ENDBRANCH  14  15
ENDBRANCH   5  14
BRANCH   4  17
ATOM     17  O   UNL     1       9.837   5.195   0.895  1.00  0.00    -0.387 OA
ATOM     18  H   UNL     1       8.910   4.945   1.140  1.00  0.00     0.211 HD
ENDBRANCH   4  17
TORSDOF 7
ENDMDL
MODEL 4
REMARK VINA RESULT:    -3.401      1.742      4.492
REMARK INTER + INTRA:          -4.579
REMARK INTER:                  -4.206
REMARK INTRA:                  -0.373
REMARK UNBOUND:                -0.184
REMARK SMILES CCO[C@@H]1O[C@H](CO)[C@@H](O)[C@@H](O)[C@H]1O
REMARK SMILES IDX 4 1 13 2 11 3 9 4 6 5 5 6 3 7 2 8 1 9 14 10 12 12 7 14 8 15
REMARK SMILES IDX 10 17
REMARK H PARENT 14 11 12 13 8 16 10 18
REMARK Flexibility Score: inf
ROOT
ATOM      1  C   UNL     1       7.687   3.066   2.281  1.00  0.00     0.281 C 
ATOM      2  C   UNL     1       7.186   4.280   1.436  1.00  0.00     0.202 C 
ATOM      3  C   UNL     1       7.822   5.592   1.949  1.00  0.00     0.179 C 
ATOM      4  C   UNL     1       9.368   5.497   2.027  1.00  0.00     0.177 C 
ATOM      5  C   UNL     1       9.813   4.039   2.335  1.00  0.00     0.178 C 
ATOM      6  O   UNL     1       8.811   3.388   3.094  1.00  0.00    -0.341 OA
ENDROOT
BRANCH   1   7
ATOM      7  O   UNL     1       6.626   2.646   3.120  1.00  0.00    -0.350 OA
BRANCH   7   8
ATOM      8  C   UNL     1       5.380   2.872   2.493  1.00  0.00     0.160 C 
ATOM      9  C   UNL     1       4.658   1.544   2.326  1.00  0.00     0.035 C 
ENDBRANCH   7   8
ENDBRANCH   1   7
BRANCH   2  10
ATOM     10  O   UNL     1       7.507   4.088   0.081  1.00  0.00    -0.385 OA
ATOM     11  H   UNL     1       8.076   3.277   0.034  1.00  0.00     0.211 HD
ENDBRANCH   2  10
BRANCH   3  12
ATOM     12  O   UNL     1       7.392   6.715   1.217  1.00  0.00    -0.387 OA
ATOM     13  H   UNL     1       7.749   6.640   0.294  1.00  0.00     0.211 HD
ENDBRANCH   3  12
BRANCH   5  14
ATOM     14  C   UNL     1      11.126   4.006   3.125  1.00  0.00     0.191 C 
BRANCH  14  15
ATOM     15  O   UNL     1      12.133   4.676   2.416  1.00  0.00    -0.394 OA
ATOM     16  H   UNL     1      12.282   4.149   1.588  1.00  0.00     0.210 HD
ENDBRANCH  14  15
ENDBRANCH   5  14
BRANCH   4  17
ATOM     17  O   UNL     1       9.991   5.977   0.861  1.00  0.00    -0.387 OA
ATOM     18  H   UNL     1       9.688   6.910   0.714  1.00  0.00     0.211 HD
ENDBRANCH   4  17
TORSDOF 7
ENDMDL
MODEL 5
REMARK VINA RESULT:    -3.207      2.571      5.016
REMARK INTER + INTRA:          -4.329
REMARK INTER:                  -4.035
REMARK INTRA:                  -0.294
REMARK UNBOUND:                -0.184
REMARK SMILES CCO[C@@H]1O[C@H](CO)[C@@H](O)[C@@H](O)[C@H]1O
REMARK SMILES IDX 4 1 13 2 11 3 9 4 6 5 5 6 3 7 2 8 1 9 14 10 12 12 7 14 8 15
REMARK SMILES IDX 10 17
REMARK H PARENT 14 11 12 13 8 16 10 18
REMARK Flexibility Score: inf
ROOT
ATOM      1  C   UNL     1       9.485   5.343   1.973  1.00  0.00     0.281 C 
ATOM      2  C   UNL     1       9.571   6.891   1.789  1.00  0.00     0.202 C 
ATOM      3  C   UNL     1      10.554   7.503   2.812  1.00  0.00     0.179 C 
ATOM      4  C   UNL     1      11.940   6.804   2.775  1.00  0.00     0.177 C 
ATOM      5  C   UNL     1      11.790   5.309   2.373  1.00  0.00     0.178 C 
ATOM      6  O   UNL     1      10.527   4.829   2.797  1.00  0.00    -0.341 OA
ENDROOT
BRANCH   1   7
ATOM      7  O   UNL     1       8.240   5.039   2.575  1.00  0.00    -0.350 OA
BRANCH   7   8
ATOM      8  C   UNL     1       7.299   4.650   1.595  1.00  0.00     0.160 C 
ATOM      9  C   UNL     1       7.931   3.613   0.681  1.00  0.00     0.035 C 
ENDBRANCH   7   8
ENDBRANCH   1   7
BRANCH   2  10
ATOM     10  O   UNL     1       9.985   7.199   0.481  1.00  0.00    -0.385 OA
ATOM     11  H   UNL     1      10.487   8.054   0.534  1.00  0.00     0.211 HD
ENDBRANCH   2  10
BRANCH   3  12
ATOM     12  O   UNL     1      10.658   8.900   2.684  1.00  0.00    -0.387 OA
ATOM     13  H   UNL     1      10.155   9.178   1.875  1.00  0.00     0.211 HD
ENDBRANCH   3  12
BRANCH   5  14
ATOM     14  C   UNL     1      12.883   4.444   3.008  1.00  0.00     0.191 C 
BRANCH  14  15
ATOM     15  O   UNL     1      13.992   4.363   2.155  1.00  0.00    -0.394 OA
ATOM     16  H   UNL     1      13.979   5.192   1.609  1.00  0.00     0.210 HD
ENDBRANCH  14  15
ENDBRANCH   5  14
BRANCH   4  17
ATOM     17  O   UNL     1      12.847   7.465   1.927  1.00  0.00    -0.387 OA
ATOM     18  H   UNL     1      12.539   8.402   1.821  1.00  0.00     0.211 HD
ENDBRANCH   4  17
TORSDOF 7
ENDMDL
MODEL 6
REMARK VINA RESULT:    -3.189      1.332      3.320
REMARK INTER + INTRA:          -4.306
REMARK INTER:                  -3.941
REMARK INTRA:                  -0.365
REMARK UNBOUND:                -0.184
REMARK SMILES CCO[C@@H]1O[C@H](CO)[C@@H](O)[C@@H](O)[C@H]1O
REMARK SMILES IDX 4 1 13 2 11 3 9 4 6 5 5 6 3 7 2 8 1 9 14 10 12 12 7 14 8 15
REMARK SMILES IDX 10 17
REMARK H PARENT 14 11 12 13 8 16 10 18
REMARK Flexibility Score: inf
ROOT
ATOM      1  C   UNL     1       6.981   5.866   3.125  1.00  0.00     0.281 C 
ATOM      2  C   UNL     1       6.247   4.769   2.292  1.00  0.00     0.202 C 
ATOM      3  C   UNL     1       7.014   4.482   0.982  1.00  0.00     0.179 C 
ATOM      4  C   UNL     1       8.508   4.154   1.243  1.00  0.00     0.177 C 
ATOM      5  C   UNL     1       9.022   4.906   2.504  1.00  0.00     0.178 C 
ATOM      6  O   UNL     1       8.304   6.116   2.659  1.00  0.00    -0.341 OA
ENDROOT
BRANCH   1   7
ATOM      7  O   UNL     1       6.233   7.066   3.031  1.00  0.00    -0.350 OA
BRANCH   7   8
ATOM      8  C   UNL     1       7.053   8.126   2.584  1.00  0.00     0.160 C 
ATOM      9  C   UNL     1       6.253   9.012   1.642  1.00  0.00     0.035 C 
ENDBRANCH   7   8
ENDBRANCH   1   7
BRANCH   2  10
ATOM     10  O   UNL     1       6.128   3.589   3.047  1.00  0.00    -0.385 OA
ATOM     11  H   UNL     1       6.609   2.880   2.547  1.00  0.00     0.211 HD
ENDBRANCH   2  10
BRANCH   3  12
ATOM     12  O   UNL     1       6.382   3.500   0.196  1.00  0.00    -0.387 OA
ATOM     13  H   UNL     1       7.082   2.918  -0.199  1.00  0.00     0.211 HD
ENDBRANCH   3  12
BRANCH   5  14
ATOM     14  C   UNL     1      10.515   5.232   2.395  1.00  0.00     0.191 C 
BRANCH  14  15
ATOM     15  O   UNL     1      11.281   4.111   2.743  1.00  0.00    -0.394 OA
ATOM     16  H   UNL     1      11.200   3.477   1.984  1.00  0.00     0.210 HD
ENDBRANCH  14  15
ENDBRANCH   5  14
BRANCH   4  17
ATOM     17  O   UNL     1       8.738   2.771   1.354  1.00  0.00    -0.387 OA
ATOM     18  H   UNL     1       7.858   2.314   1.359  1.00  0.00     0.211 HD
ENDBRANCH   4  17
TORSDOF 7
ENDMDL
MODEL 7
REMARK VINA RESULT:    -2.986     10.957     12.943
REMARK INTER + INTRA:          -4.043
REMARK INTER:                  -4.022
REMARK INTRA:                  -0.021
REMARK UNBOUND:                -0.184
REMARK SMILES CCO[C@@H]1O[C@H](CO)[C@@H](O)[C@@H](O)[C@H]1O
REMARK SMILES IDX 4 1 13 2 11 3 9 4 6 5 5 6 3 7 2 8 1 9 14 10 12 12 7 14 8 15
REMARK SMILES IDX 10 17
REMARK H PARENT 14 11 12 13 8 16 10 18
REMARK Flexibility Score: inf
ROOT
ATOM      1  C   UNL     1      20.651   8.099   1.775  1.00  0.00     0.281 C 
ATOM      2  C   UNL     1      19.251   8.766   1.963  1.00  0.00     0.202 C 
ATOM      3  C   UNL     1      18.371   8.534   0.714  1.00  0.00     0.179 C 
ATOM      4  C   UNL     1      18.287   7.032   0.333  1.00  0.00     0.177 C 
ATOM      5  C   UNL     1      19.598   6.293   0.727  1.00  0.00     0.178 C 
ATOM      6  O   UNL     1      20.686   7.196   0.674  1.00  0.00    -0.341 OA
ENDROOT
BRANCH   1   7
ATOM      7  O   UNL     1      21.601   9.125   1.551  1.00  0.00    -0.350 OA
BRANCH   7   8
ATOM      8  C   UNL     1      22.886   8.707   1.964  1.00  0.00     0.160 C 
ATOM      9  C   UNL     1      22.742   7.620   3.017  1.00  0.00     0.035 C 
ENDBRANCH   7   8
ENDBRANCH   1   7
BRANCH   2  10
ATOM     10  O   UNL     1      18.616   8.241   3.102  1.00  0.00    -0.385 OA
ATOM     11  H   UNL     1      18.183   7.393   2.823  1.00  0.00     0.211 HD
ENDBRANCH   2  10
BRANCH   3  12
ATOM     12  O   UNL     1      17.100   9.125   0.839  1.00  0.00    -0.387 OA
ATOM     13  H   UNL     1      17.017   9.496   1.756  1.00  0.00     0.211 HD
ENDBRANCH   3  12
BRANCH   5  14
ATOM     14  C   UNL     1      19.887   5.120  -0.217  1.00  0.00     0.191 C 
BRANCH  14  15
ATOM     15  O   UNL     1      21.240   5.113  -0.579  1.00  0.00    -0.394 OA
ATOM     16  H   UNL     1      21.577   6.030  -0.399  1.00  0.00     0.210 HD
ENDBRANCH  14  15
ENDBRANCH   5  14
BRANCH   4  17
ATOM     17  O   UNL     1      17.164   6.402   0.899  1.00  0.00    -0.387 OA
ATOM     18  H   UNL     1      17.366   5.434   0.981  1.00  0.00     0.211 HD
ENDBRANCH   4  17
TORSDOF 7
ENDMDL
MODEL 8
REMARK VINA RESULT:    -2.791      1.497      4.076
REMARK INTER + INTRA:          -3.791
REMARK INTER:                  -3.418
REMARK INTRA:                  -0.373
REMARK UNBOUND:                -0.184
REMARK SMILES CCO[C@@H]1O[C@H](CO)[C@@H](O)[C@@H](O)[C@H]1O
REMARK SMILES IDX 4 1 13 2 11 3 9 4 6 5 5 6 3 7 2 8 1 9 14 10 12 12 7 14 8 15
REMARK SMILES IDX 10 17
REMARK H PARENT 14 11 12 13 8 16 10 18
REMARK Flexibility Score: inf
ROOT
ATOM      1  C   UNL     1       7.627   4.253   2.722  1.00  0.00     0.281 C 
ATOM      2  C   UNL     1       9.057   4.365   2.104  1.00  0.00     0.202 C 
ATOM      3  C   UNL     1       9.132   5.564   1.132  1.00  0.00     0.179 C 
ATOM      4  C   UNL     1       8.648   6.880   1.794  1.00  0.00     0.177 C 
ATOM      5  C   UNL     1       7.556   6.587   2.862  1.00  0.00     0.178 C 
ATOM      6  O   UNL     1       6.841   5.421   2.501  1.00  0.00    -0.341 OA
ENDROOT
BRANCH   1   7
ATOM      7  O   UNL     1       6.974   3.147   2.124  1.00  0.00    -0.350 OA
BRANCH   7   8
ATOM      8  C   UNL     1       5.687   2.973   2.682  1.00  0.00     0.160 C 
ATOM      9  C   UNL     1       4.722   2.550   1.585  1.00  0.00     0.035 C 
ENDBRANCH   7   8
ENDBRANCH   1   7
BRANCH   2  10
ATOM     10  O   UNL     1      10.012   4.513   3.125  1.00  0.00    -0.385 OA
ATOM     11  H   UNL     1       9.509   4.584   3.978  1.00  0.00     0.211 HD
ENDBRANCH   2  10
BRANCH   3  12
ATOM     12  O   UNL     1      10.406   5.698   0.548  1.00  0.00    -0.387 OA
ATOM     13  H   UNL     1      10.324   5.520  -0.425  1.00  0.00     0.211 HD
ENDBRANCH   3  12
BRANCH   5  14
ATOM     14  C   UNL     1       6.566   7.751   2.990  1.00  0.00     0.191 C 
BRANCH  14  15
ATOM     15  O   UNL     1       7.169   8.945   2.572  1.00  0.00    -0.394 OA
ATOM     16  H   UNL     1       8.031   9.003   3.062  1.00  0.00     0.210 HD
ENDBRANCH  14  15
ENDBRANCH   5  14
BRANCH   4  17
ATOM     17  O   UNL     1       9.708   7.620   2.348  1.00  0.00    -0.387 OA
ATOM     18  H   UNL     1      10.199   8.055   1.605  1.00  0.00     0.211 HD
ENDBRANCH   4  17
TORSDOF 7
ENDMDL
