MODEL 1
REMARK VINA RESULT:    -1.039      0.000      0.000
REMARK INTER + INTRA:          -9.791
REMARK INTER:                  -2.739
REMARK INTRA:                  -7.052
REMARK UNBOUND:                -7.052
REMARK SMILES CCCCCCCCCCCCCCCCCCCCCCCCCCCCCC(=O)[O-]
REMARK SMILES IDX 16 1 17 2 18 3 19 4 20 5 21 6 22 7 23 8 24 9 25 10 26 11
REMARK SMILES IDX 27 12 28 13 29 14 30 15 31 16 32 17 15 18 14 19 13 20 12 21
REMARK SMILES IDX 11 22 10 23 9 24 8 25 7 26 6 27 5 28 4 29 3 30 2 31 1 32
REMARK H PARENT
REMARK Flexibility Score: inf
ROOT
ATOM      1  C   UNL     1      11.393  15.693  27.607  1.00  0.00     0.000 C 
ENDROOT
BRANCH   1   2
ATOM      2  C   UNL     1      12.039  17.076  27.428  1.00  0.00     0.000 C 
BRANCH   2   3
ATOM      3  C   UNL     1      11.701  18.049  28.573  1.00  0.00     0.000 C 
BRANCH   3   4
ATOM      4  C   UNL     1      10.584  19.063  28.253  1.00  0.00     0.000 C 
BRANCH   4   5
ATOM      5  C   UNL     1       9.275  18.881  29.048  1.00  0.00     0.000 C 
BRANCH   5   6
ATOM      6  C   UNL     1       9.259  17.690  30.023  1.00  0.00     0.000 C 
BRANCH   6   7
ATOM      7  C   UNL     1       8.108  16.705  29.753  1.00  0.00     0.000 C 
BRANCH   7   8
ATOM      8  C   UNL     1       7.830  16.528  28.252  1.00  0.00     0.000 C 
BRANCH   8   9
ATOM      9  C   UNL     1       6.330  16.514  27.921  1.00  0.00     0.000 C 
BRANCH   9  10
ATOM     10  C   UNL     1       5.951  17.709  27.039  1.00  0.00     0.000 C 
BRANCH  10  11
ATOM     11  C   UNL     1       7.144  18.167  26.190  1.00  0.00     0.000 C 
BRANCH  11  12
ATOM     12  C   UNL     1       7.018  17.663  24.744  1.00  0.00     0.000 C 
BRANCH  12  13
ATOM     13  C   UNL     1       8.345  17.734  23.974  1.00  0.00     0.006 C 
BRANCH  13  14
ATOM     14  C   UNL     1       9.551  17.979  24.891  1.00  0.00     0.053 C 
BRANCH  14  15
ATOM     15  C   UNL     1      10.795  18.177  24.082  1.00  0.00     0.041 C 
ATOM     16  O   UNL     1      11.034  17.433  23.092  1.00  0.00    -0.550 OA
ATOM     17  O   UNL     1      11.703  19.167  24.437  1.00  0.00    -0.550 OA
ENDBRANCH  14  15
ENDBRANCH  13  14
ENDBRANCH  12  13
ENDBRANCH  11  12
ENDBRANCH  10  11
ENDBRANCH   9  10
ENDBRANCH   8   9
ENDBRANCH   7   8
ENDBRANCH   6   7
ENDBRANCH   5   6
ENDBRANCH   4   5
ENDBRANCH   3   4
ENDBRANCH   2   3
ENDBRANCH   1   2
BRANCH   1  18
ATOM     18  C   UNL     1      11.709  15.062  28.976  1.00  0.00     0.000 C 
BRANCH  18  19
ATOM     19  C   UNL     1      10.652  14.065  29.498  1.00  0.00     0.000 C 
BRANCH  19  20
ATOM     20  C   UNL     1       9.858  13.331  28.401  1.00  0.00     0.000 C 
BRANCH  20  21
ATOM     21  C   UNL     1      10.179  11.831  28.343  1.00  0.00     0.000 C 
BRANCH  21  22
ATOM     22  C   UNL     1       9.198  11.098  27.414  1.00  0.00     0.000 C 
BRANCH  22  23
ATOM     23  C   UNL     1       7.763  11.057  27.971  1.00  0.00     0.000 C 
BRANCH  23  24
ATOM     24  C   UNL     1       6.657  11.453  26.970  1.00  0.00    -0.000 C 
BRANCH  24  25
ATOM     25  C   UNL     1       6.193  12.920  27.048  1.00  0.00    -0.000 C 
BRANCH  25  26
ATOM     26  C   UNL     1       6.234  13.632  25.687  1.00  0.00    -0.000 C 
BRANCH  26  27
ATOM     27  C   UNL     1       7.558  13.390  24.931  1.00  0.00    -0.000 C 
BRANCH  27  28
ATOM     28  C   UNL     1       8.692  14.351  25.336  1.00  0.00    -0.000 C 
BRANCH  28  29
ATOM     29  C   UNL     1       9.968  14.249  24.477  1.00  0.00    -0.000 C 
BRANCH  29  30
ATOM     30  C   UNL     1      10.599  12.842  24.405  1.00  0.00    -0.000 C 
BRANCH  30  31
ATOM     31  C   UNL     1      11.901  12.669  25.208  1.00  0.00    -0.003 C 
ATOM     32  C   UNL     1      12.909  13.791  24.964  1.00  0.00     0.004 C 
ENDBRANCH  30  31
ENDBRANCH  29  30
ENDBRANCH  28  29
ENDBRANCH  27  28
ENDBRANCH  26  27
ENDBRANCH  25  26
ENDBRANCH  24  25
ENDBRANCH  23  24
ENDBRANCH  22  23
ENDBRANCH  21  22
ENDBRANCH  20  21
ENDBRANCH  19  20
ENDBRANCH  18  19
ENDBRANCH   1  18
TORSDOF 28
ENDMDL
MODEL 2
REMARK VINA RESULT:    -0.981     16.066     20.304
REMARK INTER + INTRA:          -9.638
REMARK INTER:                  -2.305
REMARK INTRA:                  -7.333
REMARK UNBOUND:                -7.052
REMARK SMILES CCCCCCCCCCCCCCCCCCCCCCCCCCCCCC(=O)[O-]
REMARK SMILES IDX 16 1 17 2 18 3 19 4 20 5 21 6 22 7 23 8 24 9 25 10 26 11
REMARK SMILES IDX 27 12 28 13 29 14 30 15 31 16 32 17 15 18 14 19 13 20 12 21
REMARK SMILES IDX 11 22 10 23 9 24 8 25 7 26 6 27 5 28 4 29 3 30 2 31 1 32
REMARK H PARENT
REMARK Flexibility Score: inf
ROOT
ATOM      1  C   UNL     1      20.649  22.564  14.748  1.00  0.00     0.000 C 
ENDROOT
BRANCH   1   2
ATOM      2  C   UNL     1      20.960  22.616  16.253  1.00  0.00     0.000 C 
BRANCH   2   3
ATOM      3  C   UNL     1      22.103  23.590  16.596  1.00  0.00     0.000 C 
BRANCH   3   4
ATOM      4  C   UNL     1      21.701  24.764  17.511  1.00  0.00     0.000 C 
BRANCH   4   5
ATOM      5  C   UNL     1      21.793  26.165  16.871  1.00  0.00     0.000 C 
BRANCH   5   6
ATOM      6  C   UNL     1      21.702  27.344  17.856  1.00  0.00     0.000 C 
BRANCH   6   7
ATOM      7  C   UNL     1      20.766  28.464  17.370  1.00  0.00     0.000 C 
BRANCH   7   8
ATOM      8  C   UNL     1      20.308  28.254  15.918  1.00  0.00     0.000 C 
BRANCH   8   9
ATOM      9  C   UNL     1      18.783  28.334  15.756  1.00  0.00     0.000 C 
BRANCH   9  10
ATOM     10  C   UNL     1      18.297  27.387  14.652  1.00  0.00     0.000 C 
BRANCH  10  11
ATOM     11  C   UNL     1      17.438  26.257  15.235  1.00  0.00     0.000 C 
BRANCH  11  12
ATOM     12  C   UNL     1      18.311  25.205  15.934  1.00  0.00     0.000 C 
BRANCH  12  13
ATOM     13  C   UNL     1      17.802  24.852  17.341  1.00  0.00     0.006 C 
BRANCH  13  14
ATOM     14  C   UNL     1      18.314  25.820  18.416  1.00  0.00     0.053 C 
BRANCH  14  15
ATOM     15  C   UNL     1      17.187  26.636  18.968  1.00  0.00     0.041 C 
ATOM     16  O   UNL     1      17.238  27.896  18.933  1.00  0.00    -0.550 OA
ATOM     17  O   UNL     1      16.091  26.005  19.544  1.00  0.00    -0.550 OA
ENDBRANCH  14  15
ENDBRANCH  13  14
ENDBRANCH  12  13
ENDBRANCH  11  12
ENDBRANCH  10  11
ENDBRANCH   9  10
ENDBRANCH   8   9
ENDBRANCH   7   8
ENDBRANCH   6   7
ENDBRANCH   5   6
ENDBRANCH   4   5
ENDBRANCH   3   4
ENDBRANCH   2   3
ENDBRANCH   1   2
BRANCH   1  18
ATOM     18  C   UNL     1      21.909  22.711  13.875  1.00  0.00     0.000 C 
BRANCH  18  19
ATOM     19  C   UNL     1      21.911  23.930  12.928  1.00  0.00     0.000 C 
BRANCH  19  20
ATOM     20  C   UNL     1      20.955  25.068  13.334  1.00  0.00     0.000 C 
BRANCH  20  21
ATOM     21  C   UNL     1      21.483  26.453  12.938  1.00  0.00     0.000 C 
BRANCH  21  22
ATOM     22  C   UNL     1      22.887  26.347  12.321  1.00  0.00     0.000 C 
BRANCH  22  23
ATOM     23  C   UNL     1      23.824  27.483  12.769  1.00  0.00     0.000 C 
BRANCH  23  24
ATOM     24  C   UNL     1      23.416  28.197  14.076  1.00  0.00    -0.000 C 
BRANCH  24  25
ATOM     25  C   UNL     1      24.545  28.967  14.786  1.00  0.00    -0.000 C 
BRANCH  25  26
ATOM     26  C   UNL     1      24.090  29.615  16.103  1.00  0.00    -0.000 C 
BRANCH  26  27
ATOM     27  C   UNL     1      24.871  29.085  17.325  1.00  0.00    -0.000 C 
BRANCH  27  28
ATOM     28  C   UNL     1      25.734  27.845  17.022  1.00  0.00    -0.000 C 
BRANCH  28  29
ATOM     29  C   UNL     1      25.398  26.597  17.865  1.00  0.00    -0.000 C 
BRANCH  29  30
ATOM     30  C   UNL     1      25.429  25.259  17.095  1.00  0.00    -0.000 C 
BRANCH  30  31
ATOM     31  C   UNL     1      25.239  25.378  15.572  1.00  0.00    -0.003 C 
ATOM     32  C   UNL     1      25.247  24.027  14.860  1.00  0.00     0.004 C 
ENDBRANCH  30  31
ENDBRANCH  29  30
ENDBRANCH  28  29
ENDBRANCH  27  28
ENDBRANCH  26  27
ENDBRANCH  25  26
ENDBRANCH  24  25
ENDBRANCH  23  24
ENDBRANCH  22  23
ENDBRANCH  21  22
ENDBRANCH  20  21
ENDBRANCH  19  20
ENDBRANCH  18  19
ENDBRANCH   1  18
TORSDOF 28
ENDMDL
MODEL 3
REMARK VINA RESULT:    -0.963     18.313     21.096
REMARK INTER + INTRA:          -9.591
REMARK INTER:                  -3.006
REMARK INTRA:                  -6.585
REMARK UNBOUND:                -7.052
REMARK SMILES CCCCCCCCCCCCCCCCCCCCCCCCCCCCCC(=O)[O-]
REMARK SMILES IDX 16 1 17 2 18 3 19 4 20 5 21 6 22 7 23 8 24 9 25 10 26 11
REMARK SMILES IDX 27 12 28 13 29 14 30 15 31 16 32 17 15 18 14 19 13 20 12 21
REMARK SMILES IDX 11 22 10 23 9 24 8 25 7 26 6 27 5 28 4 29 3 30 2 31 1 32
REMARK H PARENT
REMARK Flexibility Score: inf
ROOT
ATOM      1  C   UNL     1      22.954  25.121  13.813  1.00  0.00     0.000 C 
ENDROOT
BRANCH   1   2
ATOM      2  C   UNL     1      23.061  25.992  12.551  1.00  0.00     0.000 C 
BRANCH   2   3
ATOM      3  C   UNL     1      22.274  27.310  12.663  1.00  0.00     0.000 C 
BRANCH   3   4
ATOM      4  C   UNL     1      23.144  28.582  12.725  1.00  0.00     0.000 C 
BRANCH   4   5
ATOM      5  C   UNL     1      23.073  29.370  14.049  1.00  0.00     0.000 C 
BRANCH   5   6
ATOM      6  C   UNL     1      24.249  29.138  15.015  1.00  0.00     0.000 C 
BRANCH   6   7
ATOM      7  C   UNL     1      25.366  28.271  14.407  1.00  0.00     0.000 C 
BRANCH   7   8
ATOM      8  C   UNL     1      25.802  27.136  15.347  1.00  0.00     0.000 C 
BRANCH   8   9
ATOM      9  C   UNL     1      25.753  27.538  16.829  1.00  0.00     0.000 C 
BRANCH   9  10
ATOM     10  C   UNL     1      25.297  26.363  17.702  1.00  0.00     0.000 C 
BRANCH  10  11
ATOM     11  C   UNL     1      25.307  25.050  16.908  1.00  0.00     0.000 C 
BRANCH  11  12
ATOM     12  C   UNL     1      24.708  23.902  17.733  1.00  0.00     0.000 C 
BRANCH  12  13
ATOM     13  C   UNL     1      24.837  22.539  17.034  1.00  0.00     0.006 C 
BRANCH  13  14
ATOM     14  C   UNL     1      25.788  22.579  15.829  1.00  0.00     0.053 C 
BRANCH  14  15
ATOM     15  C   UNL     1      25.069  22.174  14.580  1.00  0.00     0.041 C 
ATOM     16  O   UNL     1      23.889  21.733  14.640  1.00  0.00    -0.550 OA
ATOM     17  O   UNL     1      25.712  22.262  13.351  1.00  0.00    -0.550 OA
ENDBRANCH  14  15
ENDBRANCH  13  14
ENDBRANCH  12  13
ENDBRANCH  11  12
ENDBRANCH  10  11
ENDBRANCH   9  10
ENDBRANCH   8   9
ENDBRANCH   7   8
ENDBRANCH   6   7
ENDBRANCH   5   6
ENDBRANCH   4   5
ENDBRANCH   3   4
ENDBRANCH   2   3
ENDBRANCH   1   2
BRANCH   1  18
ATOM     18  C   UNL     1      22.339  25.876  15.006  1.00  0.00     0.000 C 
BRANCH  18  19
ATOM     19  C   UNL     1      21.557  24.996  16.005  1.00  0.00     0.000 C 
BRANCH  19  20
ATOM     20  C   UNL     1      21.436  25.580  17.426  1.00  0.00     0.000 C 
BRANCH  20  21
ATOM     21  C   UNL     1      21.666  27.096  17.462  1.00  0.00     0.000 C 
BRANCH  21  22
ATOM     22  C   UNL     1      20.339  27.854  17.291  1.00  0.00     0.000 C 
BRANCH  22  23
ATOM     23  C   UNL     1      20.366  28.850  16.116  1.00  0.00     0.000 C 
BRANCH  23  24
ATOM     24  C   UNL     1      18.981  29.279  15.586  1.00  0.00    -0.000 C 
BRANCH  24  25
ATOM     25  C   UNL     1      18.631  28.774  14.174  1.00  0.00    -0.000 C 
BRANCH  25  26
ATOM     26  C   UNL     1      17.327  27.962  14.136  1.00  0.00    -0.000 C 
BRANCH  26  27
ATOM     27  C   UNL     1      17.247  26.916  15.268  1.00  0.00    -0.000 C 
BRANCH  27  28
ATOM     28  C   UNL     1      18.183  25.708  15.067  1.00  0.00    -0.000 C 
BRANCH  28  29
ATOM     29  C   UNL     1      18.060  25.011  13.697  1.00  0.00    -0.000 C 
BRANCH  29  30
ATOM     30  C   UNL     1      19.294  25.149  12.779  1.00  0.00    -0.000 C 
BRANCH  30  31
ATOM     31  C   UNL     1      19.897  23.819  12.292  1.00  0.00    -0.003 C 
ATOM     32  C   UNL     1      19.985  22.763  13.393  1.00  0.00     0.004 C 
ENDBRANCH  30  31
ENDBRANCH  29  30
ENDBRANCH  28  29
ENDBRANCH  27  28
ENDBRANCH  26  27
ENDBRANCH  25  26
ENDBRANCH  24  25
ENDBRANCH  23  24
ENDBRANCH  22  23
ENDBRANCH  21  22
ENDBRANCH  20  21
ENDBRANCH  19  20
ENDBRANCH  18  19
ENDBRANCH   1  18
TORSDOF 28
ENDMDL
MODEL 4
REMARK VINA RESULT:    -0.956      2.162      5.984
REMARK INTER + INTRA:          -9.573
REMARK INTER:                  -2.661
REMARK INTRA:                  -6.912
REMARK UNBOUND:                -7.052
REMARK SMILES CCCCCCCCCCCCCCCCCCCCCCCCCCCCCC(=O)[O-]
REMARK SMILES IDX 16 1 17 2 18 3 19 4 20 5 21 6 22 7 23 8 24 9 25 10 26 11
REMARK SMILES IDX 27 12 28 13 29 14 30 15 31 16 32 17 15 18 14 19 13 20 12 21
REMARK SMILES IDX 11 22 10 23 9 24 8 25 7 26 6 27 5 28 4 29 3 30 2 31 1 32
REMARK H PARENT
REMARK Flexibility Score: inf
ROOT
ATOM      1  C   UNL     1       7.669  14.107  25.594  1.00  0.00     0.000 C 
ENDROOT
BRANCH   1   2
ATOM      2  C   UNL     1       6.430  13.281  25.210  1.00  0.00     0.000 C 
BRANCH   2   3
ATOM      3  C   UNL     1       5.875  12.453  26.383  1.00  0.00     0.000 C 
BRANCH   3   4
ATOM      4  C   UNL     1       6.842  12.283  27.572  1.00  0.00     0.000 C 
BRANCH   4   5
ATOM      5  C   UNL     1       7.378  10.854  27.793  1.00  0.00     0.000 C 
BRANCH   5   6
ATOM      6  C   UNL     1       7.419   9.967  26.536  1.00  0.00     0.000 C 
BRANCH   6   7
ATOM      7  C   UNL     1       8.685  10.181  25.688  1.00  0.00     0.000 C 
BRANCH   7   8
ATOM      8  C   UNL     1       9.930  10.442  26.552  1.00  0.00     0.000 C 
BRANCH   8   9
ATOM      9  C   UNL     1      10.493  11.859  26.372  1.00  0.00     0.000 C 
BRANCH   9  10
ATOM     10  C   UNL     1      11.397  11.938  25.136  1.00  0.00     0.000 C 
BRANCH  10  11
ATOM     11  C   UNL     1      10.793  12.862  24.070  1.00  0.00     0.000 C 
BRANCH  11  12
ATOM     12  C   UNL     1      10.236  12.052  22.889  1.00  0.00     0.000 C 
BRANCH  12  13
ATOM     13  C   UNL     1       8.863  12.557  22.419  1.00  0.00     0.006 C 
BRANCH  13  14
ATOM     14  C   UNL     1       8.881  14.039  22.020  1.00  0.00     0.053 C 
BRANCH  14  15
ATOM     15  C   UNL     1       7.524  14.476  21.565  1.00  0.00     0.041 C 
ATOM     16  O   UNL     1       6.831  15.249  22.282  1.00  0.00    -0.550 OA
ATOM     17  O   UNL     1       7.013  14.010  20.359  1.00  0.00    -0.550 OA
ENDBRANCH  14  15
ENDBRANCH  13  14
ENDBRANCH  12  13
ENDBRANCH  11  12
ENDBRANCH  10  11
ENDBRANCH   9  10
ENDBRANCH   8   9
ENDBRANCH   7   8
ENDBRANCH   6   7
ENDBRANCH   5   6
ENDBRANCH   4   5
ENDBRANCH   3   4
ENDBRANCH   2   3
ENDBRANCH   1   2
BRANCH   1  18
ATOM     18  C   UNL     1       7.345  15.597  25.812  1.00  0.00     0.000 C 
BRANCH  18  19
ATOM     19  C   UNL     1       6.929  15.972  27.251  1.00  0.00     0.000 C 
BRANCH  19  20
ATOM     20  C   UNL     1       8.003  16.724  28.060  1.00  0.00     0.000 C 
BRANCH  20  21
ATOM     21  C   UNL     1       8.528  15.905  29.248  1.00  0.00     0.000 C 
BRANCH  21  22
ATOM     22  C   UNL     1       9.382  14.723  28.762  1.00  0.00     0.000 C 
BRANCH  22  23
ATOM     23  C   UNL     1      10.871  14.873  29.123  1.00  0.00     0.000 C 
BRANCH  23  24
ATOM     24  C   UNL     1      11.832  14.982  27.920  1.00  0.00    -0.000 C 
BRANCH  24  25
ATOM     25  C   UNL     1      11.195  15.486  26.612  1.00  0.00    -0.000 C 
BRANCH  25  26
ATOM     26  C   UNL     1      11.346  17.004  26.420  1.00  0.00    -0.000 C 
BRANCH  26  27
ATOM     27  C   UNL     1      10.456  17.549  25.283  1.00  0.00    -0.000 C 
BRANCH  27  28
ATOM     28  C   UNL     1      10.388  16.628  24.050  1.00  0.00    -0.000 C 
BRANCH  28  29
ATOM     29  C   UNL     1      11.386  16.972  22.925  1.00  0.00    -0.000 C 
BRANCH  29  30
ATOM     30  C   UNL     1      12.351  15.831  22.535  1.00  0.00    -0.000 C 
BRANCH  30  31
ATOM     31  C   UNL     1      13.372  15.441  23.619  1.00  0.00    -0.003 C 
ATOM     32  C   UNL     1      14.253  16.609  24.060  1.00  0.00     0.004 C 
ENDBRANCH  30  31
ENDBRANCH  29  30
ENDBRANCH  28  29
ENDBRANCH  27  28
ENDBRANCH  26  27
ENDBRANCH  25  26
ENDBRANCH  24  25
ENDBRANCH  23  24
ENDBRANCH  22  23
ENDBRANCH  21  22
ENDBRANCH  20  21
ENDBRANCH  19  20
ENDBRANCH  18  19
ENDBRANCH   1  18
TORSDOF 28
ENDMDL
MODEL 5
REMARK VINA RESULT:    -0.951     17.615     21.338
REMARK INTER + INTRA:          -9.560
REMARK INTER:                  -3.356
REMARK INTRA:                  -6.205
REMARK UNBOUND:                -7.052
REMARK SMILES CCCCCCCCCCCCCCCCCCCCCCCCCCCCCC(=O)[O-]
REMARK SMILES IDX 16 1 17 2 18 3 19 4 20 5 21 6 22 7 23 8 24 9 25 10 26 11
REMARK SMILES IDX 27 12 28 13 29 14 30 15 31 16 32 17 15 18 14 19 13 20 12 21
REMARK SMILES IDX 11 22 10 23 9 24 8 25 7 26 6 27 5 28 4 29 3 30 2 31 1 32
REMARK H PARENT
REMARK Flexibility Score: inf
ROOT
ATOM      1  C   UNL     1      25.192  22.640  17.952  1.00  0.00     0.000 C 
ENDROOT
BRANCH   1   2
ATOM      2  C   UNL     1      23.682  22.602  18.234  1.00  0.00     0.000 C 
BRANCH   2   3
ATOM      3  C   UNL     1      22.864  22.050  17.052  1.00  0.00     0.000 C 
BRANCH   3   4
ATOM      4  C   UNL     1      22.635  23.049  15.900  1.00  0.00     0.000 C 
BRANCH   4   5
ATOM      5  C   UNL     1      21.962  22.466  14.640  1.00  0.00     0.000 C 
BRANCH   5   6
ATOM      6  C   UNL     1      22.903  22.223  13.447  1.00  0.00     0.000 C 
BRANCH   6   7
ATOM      7  C   UNL     1      24.216  23.020  13.542  1.00  0.00     0.000 C 
BRANCH   7   8
ATOM      8  C   UNL     1      25.456  22.129  13.357  1.00  0.00     0.000 C 
BRANCH   8   9
ATOM      9  C   UNL     1      26.125  21.755  14.687  1.00  0.00     0.000 C 
BRANCH   9  10
ATOM     10  C   UNL     1      25.740  20.333  15.114  1.00  0.00     0.000 C 
BRANCH  10  11
ATOM     11  C   UNL     1      25.550  19.424  13.893  1.00  0.00     0.000 C 
BRANCH  11  12
ATOM     12  C   UNL     1      24.306  18.537  14.054  1.00  0.00     0.000 C 
BRANCH  12  13
ATOM     13  C   UNL     1      23.495  18.877  15.314  1.00  0.00     0.006 C 
BRANCH  13  14
ATOM     14  C   UNL     1      21.980  18.830  15.074  1.00  0.00     0.053 C 
BRANCH  14  15
ATOM     15  C   UNL     1      21.554  17.455  14.666  1.00  0.00     0.041 C 
ATOM     16  O   UNL     1      22.086  16.441  15.196  1.00  0.00    -0.550 OA
ATOM     17  O   UNL     1      20.587  17.291  13.681  1.00  0.00    -0.550 OA
ENDBRANCH  14  15
ENDBRANCH  13  14
ENDBRANCH  12  13
ENDBRANCH  11  12
ENDBRANCH  10  11
ENDBRANCH   9  10
ENDBRANCH   8   9
ENDBRANCH   7   8
ENDBRANCH   6   7
ENDBRANCH   5   6
ENDBRANCH   4   5
ENDBRANCH   3   4
ENDBRANCH   2   3
ENDBRANCH   1   2
BRANCH   1  18
ATOM     18  C   UNL     1      25.706  24.062  17.655  1.00  0.00     0.000 C 
BRANCH  18  19
ATOM     19  C   UNL     1      24.834  25.204  18.218  1.00  0.00     0.000 C 
BRANCH  19  20
ATOM     20  C   UNL     1      24.182  26.106  17.153  1.00  0.00     0.000 C 
BRANCH  20  21
ATOM     21  C   UNL     1      24.855  25.979  15.780  1.00  0.00     0.000 C 
BRANCH  21  22
ATOM     22  C   UNL     1      25.717  27.215  15.477  1.00  0.00     0.000 C 
BRANCH  22  23
ATOM     23  C   UNL     1      25.076  28.527  15.968  1.00  0.00     0.000 C 
BRANCH  23  24
ATOM     24  C   UNL     1      24.189  29.253  14.935  1.00  0.00    -0.000 C 
BRANCH  24  25
ATOM     25  C   UNL     1      24.517  28.956  13.460  1.00  0.00    -0.000 C 
BRANCH  25  26
ATOM     26  C   UNL     1      23.288  28.508  12.653  1.00  0.00    -0.000 C 
BRANCH  26  27
ATOM     27  C   UNL     1      23.526  27.182  11.899  1.00  0.00    -0.000 C 
BRANCH  27  28
ATOM     28  C   UNL     1      22.543  26.060  12.284  1.00  0.00    -0.000 C 
BRANCH  28  29
ATOM     29  C   UNL     1      22.058  26.095  13.748  1.00  0.00    -0.000 C 
BRANCH  29  30
ATOM     30  C   UNL     1      20.539  26.303  13.930  1.00  0.00    -0.000 C 
BRANCH  30  31
ATOM     31  C   UNL     1      20.144  27.548  14.745  1.00  0.00    -0.003 C 
ATOM     32  C   UNL     1      21.013  27.752  15.985  1.00  0.00     0.004 C 
ENDBRANCH  30  31
ENDBRANCH  29  30
ENDBRANCH  28  29
ENDBRANCH  27  28
ENDBRANCH  26  27
ENDBRANCH  25  26
ENDBRANCH  24  25
ENDBRANCH  23  24
ENDBRANCH  22  23
ENDBRANCH  21  22
ENDBRANCH  20  21
ENDBRANCH  19  20
ENDBRANCH  18  19
ENDBRANCH   1  18
TORSDOF 28
ENDMDL
MODEL 6
REMARK VINA RESULT:    -0.948     17.474     20.747
REMARK INTER + INTRA:          -9.551
REMARK INTER:                  -2.705
REMARK INTRA:                  -6.846
REMARK UNBOUND:                -7.052
REMARK SMILES CCCCCCCCCCCCCCCCCCCCCCCCCCCCCC(=O)[O-]
REMARK SMILES IDX 16 1 17 2 18 3 19 4 20 5 21 6 22 7 23 8 24 9 25 10 26 11
REMARK SMILES IDX 27 12 28 13 29 14 30 15 31 16 32 17 15 18 14 19 13 20 12 21
REMARK SMILES IDX 11 22 10 23 9 24 8 25 7 26 6 27 5 28 4 29 3 30 2 31 1 32
REMARK H PARENT
REMARK Flexibility Score: inf
ROOT
ATOM      1  C   UNL     1      23.519  25.214  13.713  1.00  0.00     0.000 C 
ENDROOT
BRANCH   1   2
ATOM      2  C   UNL     1      23.654  26.167  14.911  1.00  0.00     0.000 C 
BRANCH   2   3
ATOM      3  C   UNL     1      25.113  26.570  15.195  1.00  0.00     0.000 C 
BRANCH   3   4
ATOM      4  C   UNL     1      25.439  28.054  14.933  1.00  0.00     0.000 C 
BRANCH   4   5
ATOM      5  C   UNL     1      25.120  28.562  13.511  1.00  0.00     0.000 C 
BRANCH   5   6
ATOM      6  C   UNL     1      23.963  29.573  13.420  1.00  0.00     0.000 C 
BRANCH   6   7
ATOM      7  C   UNL     1      23.534  30.124  14.791  1.00  0.00     0.000 C 
BRANCH   7   8
ATOM      8  C   UNL     1      22.143  29.625  15.212  1.00  0.00     0.000 C 
BRANCH   8   9
ATOM      9  C   UNL     1      22.046  29.331  16.716  1.00  0.00     0.000 C 
BRANCH   9  10
ATOM     10  C   UNL     1      23.345  29.715  17.436  1.00  0.00     0.000 C 
BRANCH  10  11
ATOM     11  C   UNL     1      23.870  28.548  18.283  1.00  0.00     0.000 C 
BRANCH  11  12
ATOM     12  C   UNL     1      22.948  27.325  18.170  1.00  0.00     0.000 C 
BRANCH  12  13
ATOM     13  C   UNL     1      23.185  26.299  19.289  1.00  0.00     0.006 C 
BRANCH  13  14
ATOM     14  C   UNL     1      23.809  24.994  18.775  1.00  0.00     0.053 C 
BRANCH  14  15
ATOM     15  C   UNL     1      25.295  25.016  18.954  1.00  0.00     0.041 C 
ATOM     16  O   UNL     1      25.800  25.455  20.023  1.00  0.00    -0.550 OA
ATOM     17  O   UNL     1      26.124  24.574  17.931  1.00  0.00    -0.550 OA
ENDBRANCH  14  15
ENDBRANCH  13  14
ENDBRANCH  12  13
ENDBRANCH  11  12
ENDBRANCH  10  11
ENDBRANCH   9  10
ENDBRANCH   8   9
ENDBRANCH   7   8
ENDBRANCH   6   7
ENDBRANCH   5   6
ENDBRANCH   4   5
ENDBRANCH   3   4
ENDBRANCH   2   3
ENDBRANCH   1   2
BRANCH   1  18
ATOM     18  C   UNL     1      22.719  25.830  12.550  1.00  0.00     0.000 C 
BRANCH  18  19
ATOM     19  C   UNL     1      21.502  26.681  12.971  1.00  0.00     0.000 C 
BRANCH  19  20
ATOM     20  C   UNL     1      20.132  26.020  12.723  1.00  0.00     0.000 C 
BRANCH  20  21
ATOM     21  C   UNL     1      19.294  25.900  14.003  1.00  0.00     0.000 C 
BRANCH  21  22
ATOM     22  C   UNL     1      19.949  26.671  15.160  1.00  0.00     0.000 C 
BRANCH  22  23
ATOM     23  C   UNL     1      20.269  25.776  16.371  1.00  0.00     0.000 C 
BRANCH  23  24
ATOM     24  C   UNL     1      19.999  24.269  16.165  1.00  0.00    -0.000 C 
BRANCH  24  25
ATOM     25  C   UNL     1      20.893  23.322  16.988  1.00  0.00    -0.000 C 
BRANCH  25  26
ATOM     26  C   UNL     1      22.185  22.933  16.254  1.00  0.00    -0.000 C 
BRANCH  26  27
ATOM     27  C   UNL     1      22.041  21.618  15.458  1.00  0.00    -0.000 C 
BRANCH  27  28
ATOM     28  C   UNL     1      22.204  21.791  13.935  1.00  0.00    -0.000 C 
BRANCH  28  29
ATOM     29  C   UNL     1      21.045  22.530  13.237  1.00  0.00    -0.000 C 
BRANCH  29  30
ATOM     30  C   UNL     1      19.943  21.619  12.654  1.00  0.00    -0.000 C 
BRANCH  30  31
ATOM     31  C   UNL     1      18.605  22.320  12.358  1.00  0.00    -0.003 C 
ATOM     32  C   UNL     1      17.787  22.604  13.617  1.00  0.00     0.004 C 
ENDBRANCH  30  31
ENDBRANCH  29  30
ENDBRANCH  28  29
ENDBRANCH  27  28
ENDBRANCH  26  27
ENDBRANCH  25  26
ENDBRANCH  24  25
ENDBRANCH  23  24
ENDBRANCH  22  23
ENDBRANCH  21  22
ENDBRANCH  20  21
ENDBRANCH  19  20
ENDBRANCH  18  19
ENDBRANCH   1  18
TORSDOF 28
ENDMDL
MODEL 7
REMARK VINA RESULT:    -0.941     16.316     20.503
REMARK INTER + INTRA:          -9.534
REMARK INTER:                  -2.813
REMARK INTRA:                  -6.721
REMARK UNBOUND:                -7.052
REMARK SMILES CCCCCCCCCCCCCCCCCCCCCCCCCCCCCC(=O)[O-]
REMARK SMILES IDX 16 1 17 2 18 3 19 4 20 5 21 6 22 7 23 8 24 9 25 10 26 11
REMARK SMILES IDX 27 12 28 13 29 14 30 15 31 16 32 17 15 18 14 19 13 20 12 21
REMARK SMILES IDX 11 22 10 23 9 24 8 25 7 26 6 27 5 28 4 29 3 30 2 31 1 32
REMARK H PARENT
REMARK Flexibility Score: inf
ROOT
ATOM      1  C   UNL     1      19.438  26.233  16.147  1.00  0.00     0.000 C 
ENDROOT
BRANCH   1   2
ATOM      2  C   UNL     1      20.314  24.996  16.404  1.00  0.00     0.000 C 
BRANCH   2   3
ATOM      3  C   UNL     1      21.811  25.260  16.161  1.00  0.00     0.000 C 
BRANCH   3   4
ATOM      4  C   UNL     1      22.140  25.939  14.817  1.00  0.00     0.000 C 
BRANCH   4   5
ATOM      5  C   UNL     1      23.295  25.303  14.017  1.00  0.00     0.000 C 
BRANCH   5   6
ATOM      6  C   UNL     1      23.194  23.779  13.818  1.00  0.00     0.000 C 
BRANCH   6   7
ATOM      7  C   UNL     1      24.563  23.076  13.847  1.00  0.00     0.000 C 
BRANCH   7   8
ATOM      8  C   UNL     1      25.541  23.742  14.827  1.00  0.00     0.000 C 
BRANCH   8   9
ATOM      9  C   UNL     1      25.518  23.098  16.222  1.00  0.00     0.000 C 
BRANCH   9  10
ATOM     10  C   UNL     1      25.283  24.153  17.310  1.00  0.00     0.000 C 
BRANCH  10  11
ATOM     11  C   UNL     1      25.928  25.492  16.926  1.00  0.00     0.000 C 
BRANCH  11  12
ATOM     12  C   UNL     1      24.956  26.659  17.158  1.00  0.00     0.000 C 
BRANCH  12  13
ATOM     13  C   UNL     1      25.377  27.937  16.417  1.00  0.00     0.006 C 
BRANCH  13  14
ATOM     14  C   UNL     1      25.731  27.680  14.946  1.00  0.00     0.053 C 
BRANCH  14  15
ATOM     15  C   UNL     1      25.029  28.659  14.057  1.00  0.00     0.041 C 
ATOM     16  O   UNL     1      24.103  29.382  14.516  1.00  0.00    -0.550 OA
ATOM     17  O   UNL     1      25.381  28.756  12.717  1.00  0.00    -0.550 OA
ENDBRANCH  14  15
ENDBRANCH  13  14
ENDBRANCH  12  13
ENDBRANCH  11  12
ENDBRANCH  10  11
ENDBRANCH   9  10
ENDBRANCH   8   9
ENDBRANCH   7   8
ENDBRANCH   6   7
ENDBRANCH   5   6
ENDBRANCH   4   5
ENDBRANCH   3   4
ENDBRANCH   2   3
ENDBRANCH   1   2
BRANCH   1  18
ATOM     18  C   UNL     1      19.303  27.135  17.388  1.00  0.00     0.000 C 
BRANCH  18  19
ATOM     19  C   UNL     1      19.391  28.651  17.109  1.00  0.00     0.000 C 
BRANCH  19  20
ATOM     20  C   UNL     1      20.682  29.105  16.402  1.00  0.00     0.000 C 
BRANCH  20  21
ATOM     21  C   UNL     1      21.941  28.822  17.233  1.00  0.00     0.000 C 
BRANCH  21  22
ATOM     22  C   UNL     1      22.058  29.813  18.402  1.00  0.00     0.000 C 
BRANCH  22  23
ATOM     23  C   UNL     1      22.766  29.209  19.630  1.00  0.00     0.000 C 
BRANCH  23  24
ATOM     24  C   UNL     1      22.672  27.674  19.755  1.00  0.00    -0.000 C 
BRANCH  24  25
ATOM     25  C   UNL     1      21.403  27.147  20.452  1.00  0.00    -0.000 C 
BRANCH  25  26
ATOM     26  C   UNL     1      21.150  25.655  20.184  1.00  0.00    -0.000 C 
BRANCH  26  27
ATOM     27  C   UNL     1      22.407  24.924  19.666  1.00  0.00    -0.000 C 
BRANCH  27  28
ATOM     28  C   UNL     1      22.523  23.466  20.147  1.00  0.00    -0.000 C 
BRANCH  28  29
ATOM     29  C   UNL     1      22.611  22.414  19.023  1.00  0.00    -0.000 C 
BRANCH  29  30
ATOM     30  C   UNL     1      21.267  22.062  18.349  1.00  0.00    -0.000 C 
BRANCH  30  31
ATOM     31  C   UNL     1      20.090  21.844  19.317  1.00  0.00    -0.003 C 
ATOM     32  C   UNL     1      18.953  22.844  19.112  1.00  0.00     0.004 C 
ENDBRANCH  30  31
ENDBRANCH  29  30
ENDBRANCH  28  29
ENDBRANCH  27  28
ENDBRANCH  26  27
ENDBRANCH  25  26
ENDBRANCH  24  25
ENDBRANCH  23  24
ENDBRANCH  22  23
ENDBRANCH  21  22
ENDBRANCH  20  21
ENDBRANCH  19  20
ENDBRANCH  18  19
ENDBRANCH   1  18
TORSDOF 28
ENDMDL
MODEL 8
REMARK VINA RESULT:    -0.921     17.487     21.039
REMARK INTER + INTRA:          -9.482
REMARK INTER:                  -2.860
REMARK INTRA:                  -6.622
REMARK UNBOUND:                -7.052
REMARK SMILES CCCCCCCCCCCCCCCCCCCCCCCCCCCCCC(=O)[O-]
REMARK SMILES IDX 16 1 17 2 18 3 19 4 20 5 21 6 22 7 23 8 24 9 25 10 26 11
REMARK SMILES IDX 27 12 28 13 29 14 30 15 31 16 32 17 15 18 14 19 13 20 12 21
REMARK SMILES IDX 11 22 10 23 9 24 8 25 7 26 6 27 5 28 4 29 3 30 2 31 1 32
REMARK H PARENT
REMARK Flexibility Score: inf
ROOT
ATOM      1  C   UNL     1      22.582  25.777  13.764  1.00  0.00     0.000 C 
ENDROOT
BRANCH   1   2
ATOM      2  C   UNL     1      22.308  26.475  12.422  1.00  0.00     0.000 C 
BRANCH   2   3
ATOM      3  C   UNL     1      20.914  27.125  12.358  1.00  0.00     0.000 C 
BRANCH   3   4
ATOM      4  C   UNL     1      19.860  26.494  13.291  1.00  0.00     0.000 C 
BRANCH   4   5
ATOM      5  C   UNL     1      18.900  25.489  12.623  1.00  0.00     0.000 C 
BRANCH   5   6
ATOM      6  C   UNL     1      19.267  24.006  12.812  1.00  0.00     0.000 C 
BRANCH   6   7
ATOM      7  C   UNL     1      19.338  23.587  14.291  1.00  0.00     0.000 C 
BRANCH   7   8
ATOM      8  C   UNL     1      20.473  22.585  14.560  1.00  0.00     0.000 C 
BRANCH   8   9
ATOM      9  C   UNL     1      20.760  22.399  16.057  1.00  0.00     0.000 C 
BRANCH   9  10
ATOM     10  C   UNL     1      22.251  22.596  16.359  1.00  0.00     0.000 C 
BRANCH  10  11
ATOM     11  C   UNL     1      22.543  22.387  17.851  1.00  0.00     0.000 C 
BRANCH  11  12
ATOM     12  C   UNL     1      23.997  22.752  18.185  1.00  0.00     0.000 C 
BRANCH  12  13
ATOM     13  C   UNL     1      24.879  21.516  18.421  1.00  0.00     0.006 C 
BRANCH  13  14
ATOM     14  C   UNL     1      26.068  21.443  17.454  1.00  0.00     0.053 C 
BRANCH  14  15
ATOM     15  C   UNL     1      25.740  20.569  16.283  1.00  0.00     0.041 C 
ATOM     16  O   UNL     1      26.124  19.367  16.260  1.00  0.00    -0.550 OA
ATOM     17  O   UNL     1      25.032  21.088  15.207  1.00  0.00    -0.550 OA
ENDBRANCH  14  15
ENDBRANCH  13  14
ENDBRANCH  12  13
ENDBRANCH  11  12
ENDBRANCH  10  11
ENDBRANCH   9  10
ENDBRANCH   8   9
ENDBRANCH   7   8
ENDBRANCH   6   7
ENDBRANCH   5   6
ENDBRANCH   4   5
ENDBRANCH   3   4
ENDBRANCH   2   3
ENDBRANCH   1   2
BRANCH   1  18
ATOM     18  C   UNL     1      23.472  24.529  13.614  1.00  0.00     0.000 C 
BRANCH  18  19
ATOM     19  C   UNL     1      24.733  24.513  14.504  1.00  0.00     0.000 C 
BRANCH  19  20
ATOM     20  C   UNL     1      24.651  25.401  15.760  1.00  0.00     0.000 C 
BRANCH  20  21
ATOM     21  C   UNL     1      25.804  26.409  15.847  1.00  0.00     0.000 C 
BRANCH  21  22
ATOM     22  C   UNL     1      25.292  27.845  15.650  1.00  0.00     0.000 C 
BRANCH  22  23
ATOM     23  C   UNL     1      25.186  28.244  14.166  1.00  0.00     0.000 C 
BRANCH  23  24
ATOM     24  C   UNL     1      24.191  29.385  13.861  1.00  0.00    -0.000 C 
BRANCH  24  25
ATOM     25  C   UNL     1      23.423  29.931  15.079  1.00  0.00    -0.000 C 
BRANCH  25  26
ATOM     26  C   UNL     1      21.906  29.702  14.981  1.00  0.00    -0.000 C 
BRANCH  26  27
ATOM     27  C   UNL     1      21.430  28.512  15.841  1.00  0.00    -0.000 C 
BRANCH  27  28
ATOM     28  C   UNL     1      22.067  28.463  17.243  1.00  0.00    -0.000 C 
BRANCH  28  29
ATOM     29  C   UNL     1      22.070  27.072  17.909  1.00  0.00    -0.000 C 
BRANCH  29  30
ATOM     30  C   UNL     1      21.338  25.966  17.117  1.00  0.00    -0.000 C 
BRANCH  30  31
ATOM     31  C   UNL     1      19.973  25.546  17.693  1.00  0.00    -0.003 C 
ATOM     32  C   UNL     1      18.792  26.133  16.922  1.00  0.00     0.004 C 
ENDBRANCH  30  31
ENDBRANCH  29  30
ENDBRANCH  28  29
ENDBRANCH  27  28
ENDBRANCH  26  27
ENDBRANCH  25  26
ENDBRANCH  24  25
ENDBRANCH  23  24
ENDBRANCH  22  23
ENDBRANCH  21  22
ENDBRANCH  20  21
ENDBRANCH  19  20
ENDBRANCH  18  19
ENDBRANCH   1  18
TORSDOF 28
ENDMDL
MODEL 9
REMARK VINA RESULT:    -0.921     16.896     20.769
REMARK INTER + INTRA:          -9.481
REMARK INTER:                  -2.509
REMARK INTRA:                  -6.971
REMARK UNBOUND:                -7.052
REMARK SMILES CCCCCCCCCCCCCCCCCCCCCCCCCCCCCC(=O)[O-]
REMARK SMILES IDX 16 1 17 2 18 3 19 4 20 5 21 6 22 7 23 8 24 9 25 10 26 11
REMARK SMILES IDX 27 12 28 13 29 14 30 15 31 16 32 17 15 18 14 19 13 20 12 21
REMARK SMILES IDX 11 22 10 23 9 24 8 25 7 26 6 27 5 28 4 29 3 30 2 31 1 32
REMARK H PARENT
REMARK Flexibility Score: inf
ROOT
ATOM      1  C   UNL     1      22.371  26.241  13.244  1.00  0.00     0.000 C 
ENDROOT
BRANCH   1   2
ATOM      2  C   UNL     1      23.507  27.128  12.710  1.00  0.00     0.000 C 
BRANCH   2   3
ATOM      3  C   UNL     1      23.146  28.625  12.699  1.00  0.00     0.000 C 
BRANCH   3   4
ATOM      4  C   UNL     1      23.790  29.455  13.827  1.00  0.00     0.000 C 
BRANCH   4   5
ATOM      5  C   UNL     1      22.993  29.514  15.146  1.00  0.00     0.000 C 
BRANCH   5   6
ATOM      6  C   UNL     1      23.501  28.584  16.262  1.00  0.00     0.000 C 
BRANCH   6   7
ATOM      7  C   UNL     1      25.000  28.764  16.560  1.00  0.00     0.000 C 
BRANCH   7   8
ATOM      8  C   UNL     1      25.794  27.460  16.372  1.00  0.00     0.000 C 
BRANCH   8   9
ATOM      9  C   UNL     1      24.899  26.265  16.015  1.00  0.00     0.000 C 
BRANCH   9  10
ATOM     10  C   UNL     1      25.741  25.060  15.576  1.00  0.00     0.000 C 
BRANCH  10  11
ATOM     11  C   UNL     1      25.027  23.742  15.901  1.00  0.00     0.000 C 
BRANCH  11  12
ATOM     12  C   UNL     1      23.507  23.945  15.992  1.00  0.00     0.000 C 
BRANCH  12  13
ATOM     13  C   UNL     1      22.730  23.054  15.011  1.00  0.00     0.006 C 
BRANCH  13  14
ATOM     14  C   UNL     1      21.456  22.462  15.629  1.00  0.00     0.053 C 
BRANCH  14  15
ATOM     15  C   UNL     1      20.241  22.991  14.934  1.00  0.00     0.041 C 
ATOM     16  O   UNL     1      20.300  23.332  13.721  1.00  0.00    -0.550 OA
ATOM     17  O   UNL     1      19.048  23.131  15.633  1.00  0.00    -0.550 OA
ENDBRANCH  14  15
ENDBRANCH  13  14
ENDBRANCH  12  13
ENDBRANCH  11  12
ENDBRANCH  10  11
ENDBRANCH   9  10
ENDBRANCH   8   9
ENDBRANCH   7   8
ENDBRANCH   6   7
ENDBRANCH   5   6
ENDBRANCH   4   5
ENDBRANCH   3   4
ENDBRANCH   2   3
ENDBRANCH   1   2
BRANCH   1  18
ATOM     18  C   UNL     1      20.997  26.935  13.182  1.00  0.00     0.000 C 
BRANCH  18  19
ATOM     19  C   UNL     1      20.198  26.923  14.503  1.00  0.00     0.000 C 
BRANCH  19  20
ATOM     20  C   UNL     1      20.959  26.353  15.715  1.00  0.00     0.000 C 
BRANCH  20  21
ATOM     21  C   UNL     1      20.103  26.323  16.989  1.00  0.00     0.000 C 
BRANCH  21  22
ATOM     22  C   UNL     1      20.935  26.729  18.216  1.00  0.00     0.000 C 
BRANCH  22  23
ATOM     23  C   UNL     1      21.001  25.623  19.286  1.00  0.00     0.000 C 
BRANCH  23  24
ATOM     24  C   UNL     1      20.925  24.179  18.745  1.00  0.00    -0.000 C 
BRANCH  24  25
ATOM     25  C   UNL     1      21.991  23.213  19.296  1.00  0.00    -0.000 C 
BRANCH  25  26
ATOM     26  C   UNL     1      23.076  23.926  20.117  1.00  0.00    -0.000 C 
BRANCH  26  27
ATOM     27  C   UNL     1      24.489  23.734  19.525  1.00  0.00    -0.000 C 
BRANCH  27  28
ATOM     28  C   UNL     1      25.338  25.020  19.511  1.00  0.00    -0.000 C 
BRANCH  28  29
ATOM     29  C   UNL     1      24.537  26.330  19.656  1.00  0.00    -0.000 C 
BRANCH  29  30
ATOM     30  C   UNL     1      25.306  27.498  20.311  1.00  0.00    -0.000 C 
BRANCH  30  31
ATOM     31  C   UNL     1      24.575  28.853  20.290  1.00  0.00    -0.003 C 
ATOM     32  C   UNL     1      25.496  30.025  19.957  1.00  0.00     0.004 C 
ENDBRANCH  30  31
ENDBRANCH  29  30
ENDBRANCH  28  29
ENDBRANCH  27  28
ENDBRANCH  26  27
ENDBRANCH  25  26
ENDBRANCH  24  25
ENDBRANCH  23  24
ENDBRANCH  22  23
ENDBRANCH  21  22
ENDBRANCH  20  21
ENDBRANCH  19  20
ENDBRANCH  18  19
ENDBRANCH   1  18
TORSDOF 28
ENDMDL
