MODEL 1
REMARK VINA RESULT:    -4.324      0.000      0.000
REMARK INTER + INTRA:          -6.780
REMARK INTER:                  -6.599
REMARK INTRA:                  -0.181
REMARK UNBOUND:                -0.181
REMARK SMILES CC1=CCC[C@H](C)C(=O)C[C@H](C(C)C)C(=O)C1
REMARK SMILES IDX 8 1 9 2 6 3 7 4 5 5 4 6 3 7 2 8 1 9 10 11 11 12 15 13 16 14
REMARK SMILES IDX 17 15 12 17 13 18 14 19
REMARK H PARENT
REMARK Flexibility Score: 70.00
ROOT
ATOM      1  C   UNL     1      17.541 -12.387  65.829  1.00  0.00     0.136 C 
ATOM      2  O   UNL     1      18.015 -13.496  66.029  1.00  0.00    -0.299 OA
ENDROOT
BRANCH   1   3
ATOM      3  C   UNL     1      17.100 -11.556  67.021  1.00  0.00     0.053 C 
ATOM      4  C   UNL     1      15.650 -11.872  67.408  1.00  0.00     0.016 C 
BRANCH   3   5
ATOM      5  C   UNL     1      18.049 -11.741  68.219  1.00  0.00     0.015 C 
BRANCH   5   6
ATOM      6  C   UNL     1      19.131 -10.647  68.270  1.00  0.00     0.028 C 
BRANCH   6   7
ATOM      7  C   UNL     1      20.365 -11.067  67.513  1.00  0.00    -0.028 C 
ATOM      8  C   UNL     1      20.706 -10.608  66.286  1.00  0.00    -0.070 CG0
ATOM      9  C   UNL     1      21.954 -11.162  65.645  1.00  0.00     0.039 C 
ATOM     10  G   UNL     1      19.894  -9.563  65.536  1.00  0.00     0.000 G0
ENDBRANCH   6   7
ENDBRANCH   5   6
ENDBRANCH   3   5
ENDBRANCH   1   3
BRANCH   1  11
ATOM     11  C   UNL     1      17.448 -11.884  64.405  1.00  0.00     0.087 C 
BRANCH  11  12
ATOM     12  C   UNL     1      17.706 -10.355  64.304  1.00  0.00     0.066 C 
BRANCH  12  13
ATOM     13  C   UNL     1      19.205 -10.097  64.320  1.00  0.00     0.140 C 
ATOM     14  O   UNL     1      19.850 -10.240  63.290  1.00  0.00    -0.299 OA
BRANCH  13  15
ATOM     15  C   UNL     1      19.886  -9.557  65.553  1.00  0.00     0.106 CG0
ATOM     16  G   UNL     1      20.700 -10.622  66.273  1.00  0.00     0.000 G0
ENDBRANCH  13  15
ENDBRANCH  12  13
BRANCH  12  17
ATOM     17  C   UNL     1      17.053  -9.719  63.032  1.00  0.00    -0.006 C 
ATOM     18  C   UNL     1      16.271  -8.436  63.381  1.00  0.00     0.008 C 
ATOM     19  C   UNL     1      16.096 -10.694  62.317  1.00  0.00     0.008 C 
ENDBRANCH  12  17
ENDBRANCH  11  12
ENDBRANCH   1  11
TORSDOF 1
ENDMDL
MODEL 2
REMARK VINA RESULT:    -4.321      1.595      2.088
REMARK INTER + INTRA:          -6.776
REMARK INTER:                  -6.532
REMARK INTRA:                  -0.244
REMARK UNBOUND:                -0.181
REMARK SMILES CC1=CCC[C@H](C)C(=O)C[C@H](C(C)C)C(=O)C1
REMARK SMILES IDX 8 1 9 2 6 3 7 4 5 5 4 6 3 7 2 8 1 9 10 11 11 12 15 13 16 14
REMARK SMILES IDX 17 15 12 17 13 18 14 19
REMARK H PARENT
REMARK Flexibility Score: 70.00
ROOT
ATOM      1  C   UNL     1      17.392 -12.435  65.964  1.00  0.00     0.136 C 
ATOM      2  O   UNL     1      18.431 -12.985  65.630  1.00  0.00    -0.299 OA
ENDROOT
BRANCH   1   3
ATOM      3  C   UNL     1      17.311 -11.807  67.345  1.00  0.00     0.053 C 
ATOM      4  C   UNL     1      17.000 -12.862  68.414  1.00  0.00     0.016 C 
BRANCH   3   5
ATOM      5  C   UNL     1      18.595 -11.030  67.687  1.00  0.00     0.015 C 
BRANCH   5   6
ATOM      6  C   UNL     1      18.665  -9.681  66.949  1.00  0.00     0.028 C 
BRANCH   6   7
ATOM      7  C   UNL     1      19.700  -9.712  65.855  1.00  0.00    -0.028 C 
ATOM      8  C   UNL     1      19.430  -9.554  64.537  1.00  0.00    -0.070 CG0
ATOM      9  C   UNL     1      20.577  -9.655  63.563  1.00  0.00     0.039 C 
ATOM     10  G   UNL     1      18.033  -9.275  64.005  1.00  0.00     0.000 G0
ENDBRANCH   6   7
ENDBRANCH   5   6
ENDBRANCH   3   5
ENDBRANCH   1   3
BRANCH   1  11
ATOM     11  C   UNL     1      16.249 -12.376  64.974  1.00  0.00     0.087 C 
BRANCH  11  12
ATOM     12  C   UNL     1      16.043 -10.948  64.399  1.00  0.00     0.066 C 
BRANCH  12  13
ATOM     13  C   UNL     1      17.286 -10.533  63.627  1.00  0.00     0.140 C 
ATOM     14  O   UNL     1      17.624 -11.177  62.642  1.00  0.00    -0.299 OA
BRANCH  13  15
ATOM     15  C   UNL     1      18.040  -9.277  63.987  1.00  0.00     0.106 CG0
ATOM     16  G   UNL     1      19.429  -9.576  64.529  1.00  0.00     0.000 G0
ENDBRANCH  13  15
ENDBRANCH  12  13
BRANCH  12  17
ATOM     17  C   UNL     1      14.772 -10.845  63.490  1.00  0.00    -0.006 C 
ATOM     18  C   UNL     1      14.438  -9.377  63.154  1.00  0.00     0.008 C 
ATOM     19  C   UNL     1      13.534 -11.491  64.142  1.00  0.00     0.008 C 
ENDBRANCH  12  17
ENDBRANCH  11  12
ENDBRANCH   1  11
TORSDOF 1
ENDMDL
MODEL 3
REMARK VINA RESULT:    -3.849     11.505     14.185
REMARK INTER + INTRA:          -6.055
REMARK INTER:                  -5.751
REMARK INTRA:                  -0.304
REMARK UNBOUND:                -0.181
REMARK SMILES CC1=CCC[C@H](C)C(=O)C[C@H](C(C)C)C(=O)C1
REMARK SMILES IDX 8 1 9 2 6 3 7 4 5 5 4 6 3 7 2 8 1 9 10 11 11 12 15 13 16 14
REMARK SMILES IDX 17 15 12 17 13 18 14 19
REMARK H PARENT
REMARK Flexibility Score: 70.00
ROOT
ATOM      1  C   UNL     1      13.093  -0.239  56.999  1.00  0.00     0.136 C 
ATOM      2  O   UNL     1      12.450  -0.248  58.039  1.00  0.00    -0.299 OA
ENDROOT
BRANCH   1   3
ATOM      3  C   UNL     1      12.373   0.069  55.698  1.00  0.00     0.053 C 
ATOM      4  C   UNL     1      13.313   0.748  54.694  1.00  0.00     0.016 C 
BRANCH   3   5
ATOM      5  C   UNL     1      11.733  -1.196  55.096  1.00  0.00     0.015 C 
BRANCH   5   6
ATOM      6  C   UNL     1      12.673  -1.895  54.097  1.00  0.00     0.028 C 
BRANCH   6   7
ATOM      7  C   UNL     1      12.992  -3.299  54.543  1.00  0.00    -0.028 C 
ATOM      8  C   UNL     1      14.212  -3.714  54.959  1.00  0.00    -0.070 CG0
ATOM      9  C   UNL     1      14.377  -5.166  55.332  1.00  0.00     0.039 C 
ATOM     10  G   UNL     1      15.410  -2.784  55.072  1.00  0.00     0.000 G0
ENDBRANCH   6   7
ENDBRANCH   5   6
ENDBRANCH   3   5
ENDBRANCH   1   3
BRANCH   1  11
ATOM     11  C   UNL     1      14.581  -0.502  57.064  1.00  0.00     0.087 C 
BRANCH  11  12
ATOM     12  C   UNL     1      14.903  -1.948  57.531  1.00  0.00     0.066 C 
BRANCH  12  13
ATOM     13  C   UNL     1      15.845  -2.601  56.531  1.00  0.00     0.140 C 
ATOM     14  O   UNL     1      16.910  -3.060  56.921  1.00  0.00    -0.299 OA
BRANCH  13  15
ATOM     15  C   UNL     1      15.436  -2.794  55.092  1.00  0.00     0.106 CG0
ATOM     16  G   UNL     1      14.225  -3.703  54.955  1.00  0.00     0.000 G0
ENDBRANCH  13  15
ENDBRANCH  12  13
BRANCH  12  17
ATOM     17  C   UNL     1      15.516  -1.992  58.971  1.00  0.00    -0.006 C 
ATOM     18  C   UNL     1      14.481  -2.470  60.010  1.00  0.00     0.008 C 
ATOM     19  C   UNL     1      16.056  -0.619  59.417  1.00  0.00     0.008 C 
ENDBRANCH  12  17
ENDBRANCH  11  12
ENDBRANCH   1  11
TORSDOF 1
ENDMDL
MODEL 4
REMARK VINA RESULT:    -3.824      4.240      6.746
REMARK INTER + INTRA:          -6.017
REMARK INTER:                  -5.758
REMARK INTRA:                  -0.259
REMARK UNBOUND:                -0.181
REMARK SMILES CC1=CCC[C@H](C)C(=O)C[C@H](C(C)C)C(=O)C1
REMARK SMILES IDX 8 1 9 2 6 3 7 4 5 5 4 6 3 7 2 8 1 9 10 11 11 12 15 13 16 14
REMARK SMILES IDX 17 15 12 17 13 18 14 19
REMARK H PARENT
REMARK Flexibility Score: 70.00
ROOT
ATOM      1  C   UNL     1      16.060 -11.378  62.643  1.00  0.00     0.136 C 
ATOM      2  O   UNL     1      17.255 -11.587  62.489  1.00  0.00    -0.299 OA
ENDROOT
BRANCH   1   3
ATOM      3  C   UNL     1      15.609 -10.575  63.850  1.00  0.00     0.053 C 
ATOM      4  C   UNL     1      16.054 -11.245  65.156  1.00  0.00     0.016 C 
BRANCH   3   5
ATOM      5  C   UNL     1      16.104  -9.119  63.775  1.00  0.00     0.015 C 
BRANCH   5   6
ATOM      6  C   UNL     1      15.789  -8.475  62.413  1.00  0.00     0.028 C 
BRANCH   6   7
ATOM      7  C   UNL     1      14.386  -7.926  62.383  1.00  0.00    -0.028 C 
ATOM      8  C   UNL     1      13.426  -8.319  61.512  1.00  0.00    -0.070 CG0
ATOM      9  C   UNL     1      12.082  -7.639  61.586  1.00  0.00     0.039 C 
ATOM     10  G   UNL     1      13.643  -9.413  60.478  1.00  0.00     0.000 G0
ENDBRANCH   6   7
ENDBRANCH   5   6
ENDBRANCH   3   5
ENDBRANCH   1   3
BRANCH   1  11
ATOM     11  C   UNL     1      15.092 -11.902  61.604  1.00  0.00     0.087 C 
BRANCH  11  12
ATOM     12  C   UNL     1      13.615 -11.580  61.963  1.00  0.00     0.066 C 
BRANCH  12  13
ATOM     13  C   UNL     1      13.008 -10.721  60.864  1.00  0.00     0.140 C 
ATOM     14  O   UNL     1      11.945 -11.055  60.359  1.00  0.00    -0.299 OA
BRANCH  13  15
ATOM     15  C   UNL     1      13.637  -9.407  60.470  1.00  0.00     0.106 CG0
ATOM     16  G   UNL     1      13.423  -8.329  61.522  1.00  0.00     0.000 G0
ENDBRANCH  13  15
ENDBRANCH  12  13
BRANCH  12  17
ATOM     17  C   UNL     1      12.757 -12.870  62.187  1.00  0.00    -0.006 C 
ATOM     18  C   UNL     1      11.644 -12.632  63.229  1.00  0.00     0.008 C 
ATOM     19  C   UNL     1      13.612 -14.066  62.650  1.00  0.00     0.008 C 
ENDBRANCH  12  17
ENDBRANCH  11  12
ENDBRANCH   1  11
TORSDOF 1
ENDMDL
MODEL 5
REMARK VINA RESULT:    -3.694      1.814      4.027
REMARK INTER + INTRA:          -5.819
REMARK INTER:                  -6.130
REMARK INTRA:                   0.311
REMARK UNBOUND:                -0.181
REMARK SMILES CC1=CCC[C@H](C)C(=O)C[C@H](C(C)C)C(=O)C1
REMARK SMILES IDX 8 1 9 2 6 3 7 4 5 5 4 6 3 7 2 8 1 9 10 11 11 12 15 13 16 14
REMARK SMILES IDX 17 15 12 17 13 18 14 19
REMARK H PARENT
REMARK Flexibility Score: 70.00
ROOT
ATOM      1  C   UNL     1      16.737 -12.109  65.578  1.00  0.00     0.136 C 
ATOM      2  O   UNL     1      15.786 -11.660  66.201  1.00  0.00    -0.299 OA
ENDROOT
BRANCH   1   3
ATOM      3  C   UNL     1      16.721 -12.025  64.062  1.00  0.00     0.053 C 
ATOM      4  C   UNL     1      15.952 -13.204  63.452  1.00  0.00     0.016 C 
BRANCH   3   5
ATOM      5  C   UNL     1      16.153 -10.679  63.578  1.00  0.00     0.015 C 
BRANCH   5   6
ATOM      6  C   UNL     1      17.068  -9.500  63.955  1.00  0.00     0.028 C 
BRANCH   6   7
ATOM      7  C   UNL     1      18.472  -9.721  63.454  1.00  0.00    -0.028 C 
ATOM      8  C   UNL     1      19.585  -9.622  64.219  1.00  0.00    -0.070 CG0
ATOM      9  C   UNL     1      20.923  -9.832  63.554  1.00  0.00     0.039 C 
ATOM     10  G   UNL     1      19.542  -9.318  65.709  1.00  0.00     0.000 G0
ENDBRANCH   6   7
ENDBRANCH   5   6
ENDBRANCH   3   5
ENDBRANCH   1   3
BRANCH   1  11
ATOM     11  C   UNL     1      17.899 -12.696  66.350  1.00  0.00     0.087 C 
BRANCH  11  12
ATOM     12  C   UNL     1      19.214 -11.899  66.129  1.00  0.00     0.066 C 
BRANCH  12  13
ATOM     13  C   UNL     1      18.997 -10.450  66.538  1.00  0.00     0.140 C 
ATOM     14  O   UNL     1      18.441 -10.203  67.600  1.00  0.00    -0.299 OA
BRANCH  13  15
ATOM     15  C   UNL     1      19.559  -9.318  65.714  1.00  0.00     0.106 CG0
ATOM     16  G   UNL     1      19.580  -9.645  64.228  1.00  0.00     0.000 G0
ENDBRANCH  13  15
ENDBRANCH  12  13
BRANCH  12  17
ATOM     17  C   UNL     1      20.426 -12.513  66.906  1.00  0.00    -0.006 C 
ATOM     18  C   UNL     1      21.658 -12.675  65.992  1.00  0.00     0.008 C 
ATOM     19  C   UNL     1      20.090 -13.887  67.520  1.00  0.00     0.008 C 
ENDBRANCH  12  17
ENDBRANCH  11  12
ENDBRANCH   1  11
TORSDOF 1
ENDMDL
MODEL 6
REMARK VINA RESULT:    -3.676      9.010     10.547
REMARK INTER + INTRA:          -5.791
REMARK INTER:                  -5.485
REMARK INTRA:                  -0.306
REMARK UNBOUND:                -0.181
REMARK SMILES CC1=CCC[C@H](C)C(=O)C[C@H](C(C)C)C(=O)C1
REMARK SMILES IDX 8 1 9 2 6 3 7 4 5 5 4 6 3 7 2 8 1 9 10 11 11 12 15 13 16 14
REMARK SMILES IDX 17 15 12 17 13 18 14 19
REMARK H PARENT
REMARK Flexibility Score: 70.00
ROOT
ATOM      1  C   UNL     1      11.248  -3.990  62.911  1.00  0.00     0.136 C 
ATOM      2  O   UNL     1      11.412  -3.417  63.978  1.00  0.00    -0.299 OA
ENDROOT
BRANCH   1   3
ATOM      3  C   UNL     1      10.475  -3.282  61.813  1.00  0.00     0.053 C 
ATOM      4  C   UNL     1       9.095  -2.832  62.311  1.00  0.00     0.016 C 
BRANCH   3   5
ATOM      5  C   UNL     1      11.272  -2.097  61.237  1.00  0.00     0.015 C 
BRANCH   5   6
ATOM      6  C   UNL     1      11.856  -2.417  59.849  1.00  0.00     0.028 C 
BRANCH   6   7
ATOM      7  C   UNL     1      13.358  -2.305  59.853  1.00  0.00    -0.028 C 
ATOM      8  C   UNL     1      14.207  -3.352  59.719  1.00  0.00    -0.070 CG0
ATOM      9  C   UNL     1      15.688  -3.076  59.787  1.00  0.00     0.039 C 
ATOM     10  G   UNL     1      13.732  -4.780  59.498  1.00  0.00     0.000 G0
ENDBRANCH   6   7
ENDBRANCH   5   6
ENDBRANCH   3   5
ENDBRANCH   1   3
BRANCH   1  11
ATOM     11  C   UNL     1      11.853  -5.365  62.725  1.00  0.00     0.087 C 
BRANCH  11  12
ATOM     12  C   UNL     1      11.990  -5.748  61.225  1.00  0.00     0.066 C 
BRANCH  12  13
ATOM     13  C   UNL     1      13.428  -5.526  60.780  1.00  0.00     0.140 C 
ATOM     14  O   UNL     1      14.340  -6.019  61.429  1.00  0.00    -0.299 OA
BRANCH  13  15
ATOM     15  C   UNL     1      13.738  -4.807  59.491  1.00  0.00     0.106 CG0
ATOM     16  G   UNL     1      14.200  -3.377  59.727  1.00  0.00     0.000 G0
ENDBRANCH  13  15
ENDBRANCH  12  13
BRANCH  12  17
ATOM     17  C   UNL     1      11.549  -7.223  60.940  1.00  0.00    -0.006 C 
ATOM     18  C   UNL     1      10.752  -7.328  59.624  1.00  0.00     0.008 C 
ATOM     19  C   UNL     1      10.689  -7.805  62.079  1.00  0.00     0.008 C 
ENDBRANCH  12  17
ENDBRANCH  11  12
ENDBRANCH   1  11
TORSDOF 1
ENDMDL
MODEL 7
REMARK VINA RESULT:    -3.652     11.653     13.189
REMARK INTER + INTRA:          -5.754
REMARK INTER:                  -5.288
REMARK INTRA:                  -0.466
REMARK UNBOUND:                -0.181
REMARK SMILES CC1=CCC[C@H](C)C(=O)C[C@H](C(C)C)C(=O)C1
REMARK SMILES IDX 8 1 9 2 6 3 7 4 5 5 4 6 3 7 2 8 1 9 10 11 11 12 15 13 16 14
REMARK SMILES IDX 17 15 12 17 13 18 14 19
REMARK H PARENT
REMARK Flexibility Score: 70.00
ROOT
ATOM      1  C   UNL     1       7.370  -9.036  58.030  1.00  0.00     0.136 C 
ATOM      2  O   UNL     1       6.736  -9.598  58.911  1.00  0.00    -0.299 OA
ENDROOT
BRANCH   1   3
ATOM      3  C   UNL     1       7.580  -7.535  58.126  1.00  0.00     0.053 C 
ATOM      4  C   UNL     1       6.240  -6.794  58.210  1.00  0.00     0.016 C 
BRANCH   3   5
ATOM      5  C   UNL     1       8.494  -7.169  59.310  1.00  0.00     0.015 C 
BRANCH   5   6
ATOM      6  C   UNL     1       9.842  -7.908  59.245  1.00  0.00     0.028 C 
BRANCH   6   7
ATOM      7  C   UNL     1      10.778  -7.248  58.266  1.00  0.00    -0.028 C 
ATOM      8  C   UNL     1      11.293  -7.851  57.169  1.00  0.00    -0.070 CG0
ATOM      9  C   UNL     1      12.252  -7.063  56.312  1.00  0.00     0.039 C 
ATOM     10  G   UNL     1      10.943  -9.276  56.766  1.00  0.00     0.000 G0
ENDBRANCH   6   7
ENDBRANCH   5   6
ENDBRANCH   3   5
ENDBRANCH   1   3
BRANCH   1  11
ATOM     11  C   UNL     1       7.943  -9.869  56.905  1.00  0.00     0.087 C 
BRANCH  11  12
ATOM     12  C   UNL     1       8.525  -8.992  55.762  1.00  0.00     0.066 C 
BRANCH  12  13
ATOM     13  C   UNL     1       9.999  -9.321  55.578  1.00  0.00     0.140 C 
ATOM     14  O   UNL     1      10.434  -9.520  54.452  1.00  0.00    -0.299 OA
BRANCH  13  15
ATOM     15  C   UNL     1      10.953  -9.292  56.747  1.00  0.00     0.106 CG0
ATOM     16  G   UNL     1      11.287  -7.873  57.182  1.00  0.00     0.000 G0
ENDBRANCH  13  15
ENDBRANCH  12  13
BRANCH  12  17
ATOM     17  C   UNL     1       7.751  -9.171  54.414  1.00  0.00    -0.006 C 
ATOM     18  C   UNL     1       6.758  -8.014  54.177  1.00  0.00     0.008 C 
ATOM     19  C   UNL     1       6.973 -10.501  54.359  1.00  0.00     0.008 C 
ENDBRANCH  12  17
ENDBRANCH  11  12
ENDBRANCH   1  11
TORSDOF 1
ENDMDL
MODEL 8
REMARK VINA RESULT:    -3.627      3.425      5.475
REMARK INTER + INTRA:          -5.717
REMARK INTER:                  -5.685
REMARK INTRA:                  -0.032
REMARK UNBOUND:                -0.181
REMARK SMILES CC1=CCC[C@H](C)C(=O)C[C@H](C(C)C)C(=O)C1
REMARK SMILES IDX 8 1 9 2 6 3 7 4 5 5 4 6 3 7 2 8 1 9 10 11 11 12 15 13 16 14
REMARK SMILES IDX 17 15 12 17 13 18 14 19
REMARK H PARENT
REMARK Flexibility Score: 70.00
ROOT
ATOM      1  C   UNL     1      17.066  -9.554  64.188  1.00  0.00     0.136 C 
ATOM      2  O   UNL     1      18.073  -9.145  63.628  1.00  0.00    -0.299 OA
ENDROOT
BRANCH   1   3
ATOM      3  C   UNL     1      17.218 -10.503  65.363  1.00  0.00     0.053 C 
ATOM      4  C   UNL     1      17.340  -9.732  66.684  1.00  0.00     0.016 C 
BRANCH   3   5
ATOM      5  C   UNL     1      16.066 -11.522  65.418  1.00  0.00     0.015 C 
BRANCH   5   6
ATOM      6  C   UNL     1      16.233 -12.636  64.368  1.00  0.00     0.028 C 
BRANCH   6   7
ATOM      7  C   UNL     1      14.899 -13.214  63.972  1.00  0.00    -0.028 C 
ATOM      8  C   UNL     1      14.225 -12.888  62.844  1.00  0.00    -0.070 CG0
ATOM      9  C   UNL     1      12.878 -13.527  62.614  1.00  0.00     0.039 C 
ATOM     10  G   UNL     1      14.769 -11.920  61.804  1.00  0.00     0.000 G0
ENDBRANCH   6   7
ENDBRANCH   5   6
ENDBRANCH   3   5
ENDBRANCH   1   3
BRANCH   1  11
ATOM     11  C   UNL     1      15.718  -9.066  63.704  1.00  0.00     0.087 C 
BRANCH  11  12
ATOM     12  C   UNL     1      15.475  -9.401  62.206  1.00  0.00     0.066 C 
BRANCH  12  13
ATOM     13  C   UNL     1      14.400 -10.472  62.099  1.00  0.00     0.140 C 
ATOM     14  O   UNL     1      13.222 -10.149  62.171  1.00  0.00    -0.299 OA
BRANCH  13  15
ATOM     15  C   UNL     1      14.759 -11.904  61.792  1.00  0.00     0.106 CG0
ATOM     16  G   UNL     1      14.226 -12.868  62.841  1.00  0.00     0.000 G0
ENDBRANCH  13  15
ENDBRANCH  12  13
BRANCH  12  17
ATOM     17  C   UNL     1      15.079  -8.141  61.366  1.00  0.00    -0.006 C 
ATOM     18  C   UNL     1      16.277  -7.607  60.553  1.00  0.00     0.008 C 
ATOM     19  C   UNL     1      14.540  -6.997  62.248  1.00  0.00     0.008 C 
ENDBRANCH  12  17
ENDBRANCH  11  12
ENDBRANCH   1  11
TORSDOF 1
ENDMDL
MODEL 9
REMARK VINA RESULT:    -3.554      6.931      9.385
REMARK INTER + INTRA:          -5.604
REMARK INTER:                  -5.210
REMARK INTRA:                  -0.394
REMARK UNBOUND:                -0.181
REMARK SMILES CC1=CCC[C@H](C)C(=O)C[C@H](C(C)C)C(=O)C1
REMARK SMILES IDX 8 1 9 2 6 3 7 4 5 5 4 6 3 7 2 8 1 9 10 11 11 12 15 13 16 14
REMARK SMILES IDX 17 15 12 17 13 18 14 19
REMARK H PARENT
REMARK Flexibility Score: 70.00
ROOT
ATOM      1  C   UNL     1      10.782  -4.798  61.362  1.00  0.00     0.136 C 
ATOM      2  O   UNL     1       9.562  -4.732  61.389  1.00  0.00    -0.299 OA
ENDROOT
BRANCH   1   3
ATOM      3  C   UNL     1      11.542  -4.817  62.676  1.00  0.00     0.053 C 
ATOM      4  C   UNL     1      11.276  -3.542  63.486  1.00  0.00     0.016 C 
BRANCH   3   5
ATOM      5  C   UNL     1      11.214  -6.077  63.498  1.00  0.00     0.015 C 
BRANCH   5   6
ATOM      6  C   UNL     1      11.491  -7.368  62.707  1.00  0.00     0.028 C 
BRANCH   6   7
ATOM      7  C   UNL     1      12.964  -7.684  62.680  1.00  0.00    -0.028 C 
ATOM      8  C   UNL     1      13.712  -7.764  61.554  1.00  0.00    -0.070 CG0
ATOM      9  C   UNL     1      15.167  -8.133  61.696  1.00  0.00     0.039 C 
ATOM     10  G   UNL     1      13.152  -7.492  60.166  1.00  0.00     0.000 G0
ENDBRANCH   6   7
ENDBRANCH   5   6
ENDBRANCH   3   5
ENDBRANCH   1   3
BRANCH   1  11
ATOM     11  C   UNL     1      11.474  -4.893  60.019  1.00  0.00     0.087 C 
BRANCH  11  12
ATOM     12  C   UNL     1      13.022  -4.884  60.154  1.00  0.00     0.066 C 
BRANCH  12  13
ATOM     13  C   UNL     1      13.581  -6.183  59.593  1.00  0.00     0.140 C 
ATOM     14  O   UNL     1      14.455  -6.140  58.737  1.00  0.00    -0.299 OA
BRANCH  13  15
ATOM     15  C   UNL     1      13.160  -7.517  60.157  1.00  0.00     0.106 CG0
ATOM     16  G   UNL     1      13.715  -7.752  61.554  1.00  0.00     0.000 G0
ENDBRANCH  13  15
ENDBRANCH  12  13
BRANCH  12  17
ATOM     17  C   UNL     1      13.679  -3.653  59.445  1.00  0.00    -0.006 C 
ATOM     18  C   UNL     1      13.786  -2.445  60.399  1.00  0.00     0.008 C 
ATOM     19  C   UNL     1      12.897  -3.215  58.191  1.00  0.00     0.008 C 
ENDBRANCH  12  17
ENDBRANCH  11  12
ENDBRANCH   1  11
TORSDOF 1
ENDMDL
