MODEL 1
REMARK VINA RESULT:    -4.010      0.000      0.000
REMARK INTER + INTRA:          -4.361
REMARK INTER:                  -4.361
REMARK INTRA:                   0.000
REMARK UNBOUND:                 0.000
REMARK SMILES Oc1cccc(O)c1O
REMARK SMILES IDX 4 1 5 2 6 3 8 4 2 5 3 6 7 7 1 9 9 11
REMARK H PARENT 7 8 1 10 9 12
REMARK Flexibility Score: inf
ROOT
ATOM      1  C   UNL     1       7.413  23.292  -6.806  1.00  0.00     0.008 A 
ATOM      2  C   UNL     1       6.957  22.011  -7.110  1.00  0.00     0.050 A 
ATOM      3  C   UNL     1       7.738  20.892  -6.806  1.00  0.00     0.161 A 
ATOM      4  C   UNL     1       8.995  21.054  -6.188  1.00  0.00     0.200 A 
ATOM      5  C   UNL     1       9.454  22.360  -5.880  1.00  0.00     0.161 A 
ATOM      6  C   UNL     1       8.655  23.465  -6.194  1.00  0.00     0.050 A 
ENDROOT
BRANCH   3   7
ATOM      7  O   UNL     1       7.250  19.625  -7.125  1.00  0.00    -0.504 OA
ATOM      8  H   UNL     1       7.809  18.787  -7.020  1.00  0.00     0.293 HD
ENDBRANCH   3   7
BRANCH   5   9
ATOM      9  O   UNL     1      10.687  22.602  -5.268  1.00  0.00    -0.504 OA
ATOM     10  H   UNL     1      11.193  21.918  -4.725  1.00  0.00     0.293 HD
ENDBRANCH   5   9
BRANCH   4  11
ATOM     11  O   UNL     1       9.746  19.912  -5.900  1.00  0.00    -0.502 OA
ATOM     12  H   UNL     1       9.441  18.969  -6.090  1.00  0.00     0.293 HD
ENDBRANCH   4  11
TORSDOF 3
ENDMDL
MODEL 2
REMARK VINA RESULT:    -3.952      2.220      3.888
REMARK INTER + INTRA:          -4.299
REMARK INTER:                  -4.299
REMARK INTRA:                   0.000
REMARK UNBOUND:                 0.000
REMARK SMILES Oc1cccc(O)c1O
REMARK SMILES IDX 4 1 5 2 6 3 8 4 2 5 3 6 7 7 1 9 9 11
REMARK H PARENT 7 8 1 10 9 12
REMARK Flexibility Score: inf
ROOT
ATOM      1  C   UNL     1       7.925  24.539  -5.456  1.00  0.00     0.008 A 
ATOM      2  C   UNL     1       8.422  25.090  -4.277  1.00  0.00     0.050 A 
ATOM      3  C   UNL     1       9.343  24.382  -3.500  1.00  0.00     0.161 A 
ATOM      4  C   UNL     1       9.777  23.104  -3.906  1.00  0.00     0.200 A 
ATOM      5  C   UNL     1       9.270  22.548  -5.108  1.00  0.00     0.161 A 
ATOM      6  C   UNL     1       8.348  23.275  -5.869  1.00  0.00     0.050 A 
ENDROOT
BRANCH   3   7
ATOM      7  O   UNL     1       9.819  24.965  -2.324  1.00  0.00    -0.504 OA
ATOM      8  H   UNL     1      10.666  25.519  -2.299  1.00  0.00     0.293 HD
ENDBRANCH   3   7
BRANCH   5   9
ATOM      9  O   UNL     1       9.652  21.289  -5.577  1.00  0.00    -0.504 OA
ATOM     10  H   UNL     1      10.279  20.668  -5.088  1.00  0.00     0.293 HD
ENDBRANCH   5   9
BRANCH   4  11
ATOM     11  O   UNL     1      10.700  22.428  -3.103  1.00  0.00    -0.502 OA
ATOM     12  H   UNL     1      10.719  22.479  -2.095  1.00  0.00     0.293 HD
ENDBRANCH   4  11
TORSDOF 3
ENDMDL
MODEL 3
REMARK VINA RESULT:    -3.838      4.393      4.629
REMARK INTER + INTRA:          -4.174
REMARK INTER:                  -4.174
REMARK INTRA:                   0.000
REMARK UNBOUND:                 0.000
REMARK SMILES Oc1cccc(O)c1O
REMARK SMILES IDX 4 1 5 2 6 3 8 4 2 5 3 6 7 7 1 9 9 11
REMARK H PARENT 7 8 1 10 9 12
REMARK Flexibility Score: inf
ROOT
ATOM      1  C   UNL     1      11.014  24.876  -5.737  1.00  0.00     0.008 A 
ATOM      2  C   UNL     1       9.900  25.079  -4.923  1.00  0.00     0.050 A 
ATOM      3  C   UNL     1       9.837  24.495  -3.655  1.00  0.00     0.161 A 
ATOM      4  C   UNL     1      10.901  23.696  -3.190  1.00  0.00     0.200 A 
ATOM      5  C   UNL     1      12.032  23.493  -4.021  1.00  0.00     0.161 A 
ATOM      6  C   UNL     1      12.073  24.088  -5.288  1.00  0.00     0.050 A 
ENDROOT
BRANCH   3   7
ATOM      7  O   UNL     1       8.707  24.719  -2.867  1.00  0.00    -0.504 OA
ATOM      8  H   UNL     1       8.068  23.976  -2.614  1.00  0.00     0.293 HD
ENDBRANCH   3   7
BRANCH   5   9
ATOM      9  O   UNL     1      13.126  22.716  -3.632  1.00  0.00    -0.504 OA
ATOM     10  H   UNL     1      13.893  23.058  -3.074  1.00  0.00     0.293 HD
ENDBRANCH   5   9
BRANCH   4  11
ATOM     11  O   UNL     1      10.801  23.130  -1.917  1.00  0.00    -0.502 OA
ATOM     12  H   UNL     1      11.442  23.318  -1.160  1.00  0.00     0.293 HD
ENDBRANCH   4  11
TORSDOF 3
ENDMDL
MODEL 4
REMARK VINA RESULT:    -3.817      4.272      4.415
REMARK INTER + INTRA:          -4.152
REMARK INTER:                  -4.152
REMARK INTRA:                   0.000
REMARK UNBOUND:                 0.000
REMARK SMILES Oc1cccc(O)c1O
REMARK SMILES IDX 4 1 5 2 6 3 8 4 2 5 3 6 7 7 1 9 9 11
REMARK H PARENT 7 8 1 10 9 12
REMARK Flexibility Score: inf
ROOT
ATOM      1  C   UNL     1       9.134  25.005  -4.513  1.00  0.00     0.008 A 
ATOM      2  C   UNL     1       9.261  24.318  -3.307  1.00  0.00     0.050 A 
ATOM      3  C   UNL     1      10.434  23.616  -3.015  1.00  0.00     0.161 A 
ATOM      4  C   UNL     1      11.497  23.598  -3.940  1.00  0.00     0.200 A 
ATOM      5  C   UNL     1      11.364  24.298  -5.165  1.00  0.00     0.161 A 
ATOM      6  C   UNL     1      10.180  24.995  -5.436  1.00  0.00     0.050 A 
ENDROOT
BRANCH   3   7
ATOM      7  O   UNL     1      10.526  22.939  -1.798  1.00  0.00    -0.504 OA
ATOM      8  H   UNL     1      10.321  23.386  -0.912  1.00  0.00     0.293 HD
ENDBRANCH   3   7
BRANCH   5   9
ATOM      9  O   UNL     1      12.372  24.329  -6.132  1.00  0.00    -0.504 OA
ATOM     10  H   UNL     1      12.234  24.632  -7.084  1.00  0.00     0.293 HD
ENDBRANCH   5   9
BRANCH   4  11
ATOM     11  O   UNL     1      12.653  22.885  -3.611  1.00  0.00    -0.502 OA
ATOM     12  H   UNL     1      13.517  22.933  -4.131  1.00  0.00     0.293 HD
ENDBRANCH   4  11
TORSDOF 3
ENDMDL
MODEL 5
REMARK VINA RESULT:    -3.798      4.252      4.508
REMARK INTER + INTRA:          -4.132
REMARK INTER:                  -4.132
REMARK INTRA:                   0.000
REMARK UNBOUND:                 0.000
REMARK SMILES Oc1cccc(O)c1O
REMARK SMILES IDX 4 1 5 2 6 3 8 4 2 5 3 6 7 7 1 9 9 11
REMARK H PARENT 7 8 1 10 9 12
REMARK Flexibility Score: inf
ROOT
ATOM      1  C   UNL     1       9.233  24.927  -4.566  1.00  0.00     0.008 A 
ATOM      2  C   UNL     1      10.281  24.896  -5.484  1.00  0.00     0.050 A 
ATOM      3  C   UNL     1      11.460  24.206  -5.186  1.00  0.00     0.161 A 
ATOM      4  C   UNL     1      11.595  23.537  -3.953  1.00  0.00     0.200 A 
ATOM      5  C   UNL     1      10.526  23.571  -3.023  1.00  0.00     0.161 A 
ATOM      6  C   UNL     1       9.355  24.268  -3.343  1.00  0.00     0.050 A 
ENDROOT
BRANCH   3   7
ATOM      7  O   UNL     1      12.489  24.196  -6.128  1.00  0.00    -0.504 OA
ATOM      8  H   UNL     1      13.090  23.392  -6.265  1.00  0.00     0.293 HD
ENDBRANCH   3   7
BRANCH   5   9
ATOM      9  O   UNL     1      10.583  22.932  -1.781  1.00  0.00    -0.504 OA
ATOM     10  H   UNL     1      10.331  23.369  -0.908  1.00  0.00     0.293 HD
ENDBRANCH   5   9
BRANCH   4  11
ATOM     11  O   UNL     1      12.789  22.858  -3.692  1.00  0.00    -0.502 OA
ATOM     12  H   UNL     1      13.357  23.005  -2.870  1.00  0.00     0.293 HD
ENDBRANCH   4  11
TORSDOF 3
ENDMDL
MODEL 6
REMARK VINA RESULT:    -3.775      4.416      4.903
REMARK INTER + INTRA:          -4.106
REMARK INTER:                  -4.106
REMARK INTRA:                   0.000
REMARK UNBOUND:                 0.000
REMARK SMILES Oc1cccc(O)c1O
REMARK SMILES IDX 4 1 5 2 6 3 8 4 2 5 3 6 7 7 1 9 9 11
REMARK H PARENT 7 8 1 10 9 12
REMARK Flexibility Score: inf
ROOT
ATOM      1  C   UNL     1      11.020  24.916  -5.702  1.00  0.00     0.008 A 
ATOM      2  C   UNL     1      12.070  24.111  -5.263  1.00  0.00     0.050 A 
ATOM      3  C   UNL     1      12.013  23.498  -4.009  1.00  0.00     0.161 A 
ATOM      4  C   UNL     1      10.891  23.690  -3.178  1.00  0.00     0.200 A 
ATOM      5  C   UNL     1       9.824  24.509  -3.628  1.00  0.00     0.161 A 
ATOM      6  C   UNL     1       9.904  25.113  -4.888  1.00  0.00     0.050 A 
ENDROOT
BRANCH   3   7
ATOM      7  O   UNL     1      13.082  22.699  -3.602  1.00  0.00    -0.504 OA
ATOM      8  H   UNL     1      13.975  23.089  -3.325  1.00  0.00     0.293 HD
ENDBRANCH   3   7
BRANCH   5   9
ATOM      9  O   UNL     1       8.679  24.747  -2.864  1.00  0.00    -0.504 OA
ATOM     10  H   UNL     1       8.040  24.027  -2.563  1.00  0.00     0.293 HD
ENDBRANCH   5   9
BRANCH   4  11
ATOM     11  O   UNL     1      10.870  23.060  -1.931  1.00  0.00    -0.502 OA
ATOM     12  H   UNL     1      11.646  22.542  -1.544  1.00  0.00     0.293 HD
ENDBRANCH   4  11
TORSDOF 3
ENDMDL
MODEL 7
REMARK VINA RESULT:    -3.649      2.310      3.715
REMARK INTER + INTRA:          -3.968
REMARK INTER:                  -3.968
REMARK INTRA:                   0.000
REMARK UNBOUND:                 0.000
REMARK SMILES Oc1cccc(O)c1O
REMARK SMILES IDX 4 1 5 2 6 3 8 4 2 5 3 6 7 7 1 9 9 11
REMARK H PARENT 7 8 1 10 9 12
REMARK Flexibility Score: inf
ROOT
ATOM      1  C   UNL     1       8.410  25.125  -3.736  1.00  0.00     0.008 A 
ATOM      2  C   UNL     1       9.398  24.376  -3.100  1.00  0.00     0.050 A 
ATOM      3  C   UNL     1       9.899  23.216  -3.698  1.00  0.00     0.161 A 
ATOM      4  C   UNL     1       9.407  22.796  -4.950  1.00  0.00     0.200 A 
ATOM      5  C   UNL     1       8.403  23.562  -5.594  1.00  0.00     0.161 A 
ATOM      6  C   UNL     1       7.915  24.720  -4.976  1.00  0.00     0.050 A 
ENDROOT
BRANCH   3   7
ATOM      7  O   UNL     1      10.888  22.490  -3.032  1.00  0.00    -0.504 OA
ATOM      8  H   UNL     1      11.710  22.931  -2.637  1.00  0.00     0.293 HD
ENDBRANCH   3   7
BRANCH   5   9
ATOM      9  O   UNL     1       7.865  23.213  -6.836  1.00  0.00    -0.504 OA
ATOM     10  H   UNL     1       7.029  22.661  -6.956  1.00  0.00     0.293 HD
ENDBRANCH   5   9
BRANCH   4  11
ATOM     11  O   UNL     1       9.933  21.632  -5.516  1.00  0.00    -0.502 OA
ATOM     12  H   UNL     1      10.606  21.620  -6.269  1.00  0.00     0.293 HD
ENDBRANCH   4  11
TORSDOF 3
ENDMDL
MODEL 8
REMARK VINA RESULT:    -3.522      1.349      2.130
REMARK INTER + INTRA:          -3.830
REMARK INTER:                  -3.830
REMARK INTRA:                   0.000
REMARK UNBOUND:                 0.000
REMARK SMILES Oc1cccc(O)c1O
REMARK SMILES IDX 4 1 5 2 6 3 8 4 2 5 3 6 7 7 1 9 9 11
REMARK H PARENT 7 8 1 10 9 12
REMARK Flexibility Score: inf
ROOT
ATOM      1  C   UNL     1       7.302  22.945  -7.099  1.00  0.00     0.008 A 
ATOM      2  C   UNL     1       8.041  21.765  -7.032  1.00  0.00     0.050 A 
ATOM      3  C   UNL     1       9.005  21.592  -6.036  1.00  0.00     0.161 A 
ATOM      4  C   UNL     1       9.237  22.611  -5.090  1.00  0.00     0.200 A 
ATOM      5  C   UNL     1       8.482  23.809  -5.162  1.00  0.00     0.161 A 
ATOM      6  C   UNL     1       7.521  23.961  -6.168  1.00  0.00     0.050 A 
ENDROOT
BRANCH   3   7
ATOM      7  O   UNL     1       9.727  20.398  -5.999  1.00  0.00    -0.504 OA
ATOM      8  H   UNL     1      10.197  20.024  -6.815  1.00  0.00     0.293 HD
ENDBRANCH   3   7
BRANCH   5   9
ATOM      9  O   UNL     1       8.652  24.864  -4.261  1.00  0.00    -0.504 OA
ATOM     10  H   UNL     1       8.924  24.747  -3.297  1.00  0.00     0.293 HD
ENDBRANCH   5   9
BRANCH   4  11
ATOM     11  O   UNL     1      10.209  22.401  -4.109  1.00  0.00    -0.502 OA
ATOM     12  H   UNL     1      11.200  22.346  -4.295  1.00  0.00     0.293 HD
ENDBRANCH   4  11
TORSDOF 3
ENDMDL
MODEL 9
REMARK VINA RESULT:    -3.493      1.310      2.990
REMARK INTER + INTRA:          -3.799
REMARK INTER:                  -3.799
REMARK INTRA:                   0.000
REMARK UNBOUND:                 0.000
REMARK SMILES Oc1cccc(O)c1O
REMARK SMILES IDX 4 1 5 2 6 3 8 4 2 5 3 6 7 7 1 9 9 11
REMARK H PARENT 7 8 1 10 9 12
REMARK Flexibility Score: inf
ROOT
ATOM      1  C   UNL     1       8.971  24.516  -6.377  1.00  0.00     0.008 A 
ATOM      2  C   UNL     1      10.290  24.066  -6.351  1.00  0.00     0.050 A 
ATOM      3  C   UNL     1      10.568  22.696  -6.341  1.00  0.00     0.161 A 
ATOM      4  C   UNL     1       9.515  21.760  -6.358  1.00  0.00     0.200 A 
ATOM      5  C   UNL     1       8.175  22.222  -6.385  1.00  0.00     0.161 A 
ATOM      6  C   UNL     1       7.920  23.599  -6.395  1.00  0.00     0.050 A 
ENDROOT
BRANCH   3   7
ATOM      7  O   UNL     1      11.900  22.281  -6.314  1.00  0.00    -0.504 OA
ATOM      8  H   UNL     1      12.446  22.158  -7.158  1.00  0.00     0.293 HD
ENDBRANCH   3   7
BRANCH   5   9
ATOM      9  O   UNL     1       7.077  21.358  -6.404  1.00  0.00    -0.504 OA
ATOM     10  H   UNL     1       6.600  21.031  -5.578  1.00  0.00     0.293 HD
ENDBRANCH   5   9
BRANCH   4  11
ATOM     11  O   UNL     1       9.834  20.399  -6.347  1.00  0.00    -0.502 OA
ATOM     12  H   UNL     1      10.696  20.016  -6.705  1.00  0.00     0.293 HD
ENDBRANCH   4  11
TORSDOF 3
ENDMDL
