MODEL 1
REMARK VINA RESULT:    -4.592      0.000      0.000
REMARK INTER + INTRA:          -5.263
REMARK INTER:                  -5.129
REMARK INTRA:                  -0.134
REMARK UNBOUND:                -0.134
REMARK SMILES O=C([O-])C=Cc1ccccc1
REMARK SMILES IDX 4 1 5 2 2 3 1 4 3 5 6 6 7 7 11 8 8 9 10 10 9 11
REMARK H PARENT
REMARK Flexibility Score: inf
ROOT
ATOM      1  C   UNL     1      25.150  31.869 -14.145  1.00  0.00     0.025 C 
ATOM      2  C   UNL     1      25.395  30.843 -13.318  1.00  0.00     0.010 C 
ENDROOT
BRANCH   1   3
ATOM      3  C   UNL     1      23.824  32.084 -14.744  1.00  0.00     0.064 C 
ATOM      4  O   UNL     1      22.792  31.922 -14.042  1.00  0.00    -0.545 OA
ATOM      5  O   UNL     1      23.690  32.463 -16.075  1.00  0.00    -0.545 OA
ENDBRANCH   1   3
BRANCH   2   6
ATOM      6  C   UNL     1      26.718  30.580 -12.698  1.00  0.00    -0.026 A 
ATOM      7  C   UNL     1      27.900  30.452 -13.457  1.00  0.00     0.008 A 
ATOM      8  C   UNL     1      26.799  30.490 -11.297  1.00  0.00     0.008 A 
ATOM      9  C   UNL     1      29.124  30.215 -12.824  1.00  0.00     0.001 A 
ATOM     10  C   UNL     1      28.026  30.253 -10.670  1.00  0.00     0.001 A 
ATOM     11  C   UNL     1      29.187  30.113 -11.432  1.00  0.00     0.000 A 
ENDBRANCH   2   6
TORSDOF 2
ENDMDL
MODEL 2
REMARK VINA RESULT:    -4.165      3.254      5.492
REMARK INTER + INTRA:          -4.786
REMARK INTER:                  -4.653
REMARK INTRA:                  -0.133
REMARK UNBOUND:                -0.134
REMARK SMILES O=C([O-])C=Cc1ccccc1
REMARK SMILES IDX 4 1 5 2 2 3 1 4 3 5 6 6 7 7 11 8 8 9 10 10 9 11
REMARK H PARENT
REMARK Flexibility Score: inf
ROOT
ATOM      1  C   UNL     1      27.293  30.439 -12.732  1.00  0.00     0.025 C 
ATOM      2  C   UNL     1      27.062  30.665 -14.032  1.00  0.00     0.010 C 
ENDROOT
BRANCH   1   3
ATOM      3  C   UNL     1      28.643  30.154 -12.220  1.00  0.00     0.064 C 
ATOM      4  O   UNL     1      29.639  30.314 -12.973  1.00  0.00    -0.545 OA
ATOM      5  O   UNL     1      28.838  29.709 -10.917  1.00  0.00    -0.545 OA
ENDBRANCH   1   3
BRANCH   2   6
ATOM      6  C   UNL     1      25.718  30.946 -14.595  1.00  0.00    -0.026 A 
ATOM      7  C   UNL     1      25.078  32.194 -14.447  1.00  0.00     0.008 A 
ATOM      8  C   UNL     1      25.073  29.937 -15.334  1.00  0.00     0.008 A 
ATOM      9  C   UNL     1      23.814  32.411 -15.006  1.00  0.00     0.001 A 
ATOM     10  C   UNL     1      23.811  30.160 -15.890  1.00  0.00     0.001 A 
ATOM     11  C   UNL     1      23.180  31.394 -15.724  1.00  0.00     0.000 A 
ENDBRANCH   2   6
TORSDOF 2
ENDMDL
MODEL 3
REMARK VINA RESULT:    -4.093      4.175      5.424
REMARK INTER + INTRA:          -4.706
REMARK INTER:                  -4.558
REMARK INTRA:                  -0.148
REMARK UNBOUND:                -0.134
REMARK SMILES O=C([O-])C=Cc1ccccc1
REMARK SMILES IDX 4 1 5 2 2 3 1 4 3 5 6 6 7 7 11 8 8 9 10 10 9 11
REMARK H PARENT
REMARK Flexibility Score: inf
ROOT
ATOM      1  C   UNL     1      26.193  28.699  -9.240  1.00  0.00     0.025 C 
ATOM      2  C   UNL     1      27.394  29.154  -9.622  1.00  0.00     0.010 C 
ENDROOT
BRANCH   1   3
ATOM      3  C   UNL     1      25.947  28.209  -7.874  1.00  0.00     0.064 C 
ATOM      4  O   UNL     1      26.138  26.995  -7.606  1.00  0.00    -0.545 OA
ATOM      5  O   UNL     1      25.504  29.066  -6.872  1.00  0.00    -0.545 OA
ENDBRANCH   1   3
BRANCH   2   6
ATOM      6  C   UNL     1      27.692  29.647 -10.990  1.00  0.00    -0.026 A 
ATOM      7  C   UNL     1      29.007  29.874 -11.446  1.00  0.00     0.008 A 
ATOM      8  C   UNL     1      26.621  29.863 -11.876  1.00  0.00     0.008 A 
ATOM      9  C   UNL     1      29.234  30.329 -12.749  1.00  0.00     0.001 A 
ATOM     10  C   UNL     1      26.855  30.319 -13.176  1.00  0.00     0.001 A 
ATOM     11  C   UNL     1      28.160  30.554 -13.612  1.00  0.00     0.000 A 
ENDBRANCH   2   6
TORSDOF 2
ENDMDL
MODEL 4
REMARK VINA RESULT:    -4.072      3.240      5.406
REMARK INTER + INTRA:          -4.682
REMARK INTER:                  -4.544
REMARK INTRA:                  -0.138
REMARK UNBOUND:                -0.134
REMARK SMILES O=C([O-])C=Cc1ccccc1
REMARK SMILES IDX 4 1 5 2 2 3 1 4 3 5 6 6 7 7 11 8 8 9 10 10 9 11
REMARK H PARENT
REMARK Flexibility Score: inf
ROOT
ATOM      1  C   UNL     1      27.171  30.403 -12.621  1.00  0.00     0.025 C 
ATOM      2  C   UNL     1      27.019  30.563 -13.942  1.00  0.00     0.010 C 
ENDROOT
BRANCH   1   3
ATOM      3  C   UNL     1      28.476  30.088 -12.020  1.00  0.00     0.064 C 
ATOM      4  O   UNL     1      29.521  30.199 -12.713  1.00  0.00    -0.545 OA
ATOM      5  O   UNL     1      28.577  29.667 -10.698  1.00  0.00    -0.545 OA
ENDBRANCH   1   3
BRANCH   2   6
ATOM      6  C   UNL     1      25.721  30.871 -14.593  1.00  0.00    -0.026 A 
ATOM      7  C   UNL     1      25.037  29.940 -15.402  1.00  0.00     0.008 A 
ATOM      8  C   UNL     1      25.136  32.129 -14.365  1.00  0.00     0.008 A 
ATOM      9  C   UNL     1      23.811  30.276 -15.984  1.00  0.00     0.001 A 
ATOM     10  C   UNL     1      23.910  32.459 -14.949  1.00  0.00     0.001 A 
ATOM     11  C   UNL     1      23.249  31.535 -15.760  1.00  0.00     0.000 A 
ENDBRANCH   2   6
TORSDOF 2
ENDMDL
MODEL 5
REMARK VINA RESULT:    -4.032      2.012      2.759
REMARK INTER + INTRA:          -4.638
REMARK INTER:                  -4.503
REMARK INTRA:                  -0.135
REMARK UNBOUND:                -0.134
REMARK SMILES O=C([O-])C=Cc1ccccc1
REMARK SMILES IDX 4 1 5 2 2 3 1 4 3 5 6 6 7 7 11 8 8 9 10 10 9 11
REMARK H PARENT
REMARK Flexibility Score: inf
ROOT
ATOM      1  C   UNL     1      24.384  31.569 -11.630  1.00  0.00     0.025 C 
ATOM      2  C   UNL     1      25.163  30.505 -11.387  1.00  0.00     0.010 C 
ENDROOT
BRANCH   1   3
ATOM      3  C   UNL     1      22.969  31.603 -11.231  1.00  0.00     0.064 C 
ATOM      4  O   UNL     1      22.663  31.945 -10.059  1.00  0.00    -0.545 OA
ATOM      5  O   UNL     1      21.960  31.264 -12.126  1.00  0.00    -0.545 OA
ENDBRANCH   1   3
BRANCH   2   6
ATOM      6  C   UNL     1      26.591  30.421 -11.781  1.00  0.00    -0.026 A 
ATOM      7  C   UNL     1      27.627  30.223 -10.844  1.00  0.00     0.008 A 
ATOM      8  C   UNL     1      26.919  30.508 -13.146  1.00  0.00     0.008 A 
ATOM      9  C   UNL     1      28.957  30.140 -11.269  1.00  0.00     0.001 A 
ATOM     10  C   UNL     1      28.250  30.425 -13.564  1.00  0.00     0.001 A 
ATOM     11  C   UNL     1      29.268  30.243 -12.627  1.00  0.00     0.000 A 
ENDBRANCH   2   6
TORSDOF 2
ENDMDL
MODEL 6
REMARK VINA RESULT:    -3.930      4.405      5.188
REMARK INTER + INTRA:          -4.524
REMARK INTER:                  -4.387
REMARK INTRA:                  -0.137
REMARK UNBOUND:                -0.134
REMARK SMILES O=C([O-])C=Cc1ccccc1
REMARK SMILES IDX 4 1 5 2 2 3 1 4 3 5 6 6 7 7 11 8 8 9 10 10 9 11
REMARK H PARENT
REMARK Flexibility Score: inf
ROOT
ATOM      1  C   UNL     1      26.990  26.045 -12.807  1.00  0.00     0.025 C 
ATOM      2  C   UNL     1      26.978  27.362 -13.054  1.00  0.00     0.010 C 
ENDROOT
BRANCH   1   3
ATOM      3  C   UNL     1      26.581  25.060 -13.821  1.00  0.00     0.064 C 
ATOM      4  O   UNL     1      25.894  25.433 -14.807  1.00  0.00    -0.545 OA
ATOM      5  O   UNL     1      26.941  23.721 -13.708  1.00  0.00    -0.545 OA
ENDBRANCH   1   3
BRANCH   2   6
ATOM      6  C   UNL     1      27.371  28.392 -12.060  1.00  0.00    -0.026 A 
ATOM      7  C   UNL     1      26.957  28.344 -10.713  1.00  0.00     0.008 A 
ATOM      8  C   UNL     1      28.217  29.437 -12.473  1.00  0.00     0.008 A 
ATOM      9  C   UNL     1      27.365  29.334  -9.813  1.00  0.00     0.001 A 
ATOM     10  C   UNL     1      28.620  30.424 -11.569  1.00  0.00     0.001 A 
ATOM     11  C   UNL     1      28.192  30.375 -10.242  1.00  0.00     0.000 A 
ENDBRANCH   2   6
TORSDOF 2
ENDMDL
MODEL 7
REMARK VINA RESULT:    -3.832      5.026      5.881
REMARK INTER + INTRA:          -4.414
REMARK INTER:                  -4.280
REMARK INTRA:                  -0.135
REMARK UNBOUND:                -0.134
REMARK SMILES O=C([O-])C=Cc1ccccc1
REMARK SMILES IDX 4 1 5 2 2 3 1 4 3 5 6 6 7 7 11 8 8 9 10 10 9 11
REMARK H PARENT
REMARK Flexibility Score: inf
ROOT
ATOM      1  C   UNL     1      27.091  25.674 -13.154  1.00  0.00     0.025 C 
ATOM      2  C   UNL     1      27.023  26.838 -12.493  1.00  0.00     0.010 C 
ENDROOT
BRANCH   1   3
ATOM      3  C   UNL     1      27.125  24.382 -12.450  1.00  0.00     0.064 C 
ATOM      4  O   UNL     1      26.480  24.241 -11.379  1.00  0.00    -0.545 OA
ATOM      5  O   UNL     1      27.859  23.312 -12.950  1.00  0.00    -0.545 OA
ENDBRANCH   1   3
BRANCH   2   6
ATOM      6  C   UNL     1      26.997  28.164 -13.158  1.00  0.00    -0.026 A 
ATOM      7  C   UNL     1      26.145  28.453 -14.245  1.00  0.00     0.008 A 
ATOM      8  C   UNL     1      27.831  29.183 -12.661  1.00  0.00     0.008 A 
ATOM      9  C   UNL     1      26.152  29.723 -14.830  1.00  0.00     0.001 A 
ATOM     10  C   UNL     1      27.833  30.450 -13.251  1.00  0.00     0.001 A 
ATOM     11  C   UNL     1      26.996  30.719 -14.335  1.00  0.00     0.000 A 
ENDBRANCH   2   6
TORSDOF 2
ENDMDL
MODEL 8
REMARK VINA RESULT:    -3.821      1.467      2.061
REMARK INTER + INTRA:          -4.402
REMARK INTER:                  -4.265
REMARK INTRA:                  -0.137
REMARK UNBOUND:                -0.134
REMARK SMILES O=C([O-])C=Cc1ccccc1
REMARK SMILES IDX 4 1 5 2 2 3 1 4 3 5 6 6 7 7 11 8 8 9 10 10 9 11
REMARK H PARENT
REMARK Flexibility Score: inf
ROOT
ATOM      1  C   UNL     1      24.703  30.355 -14.165  1.00  0.00     0.025 C 
ATOM      2  C   UNL     1      25.988  29.983 -14.229  1.00  0.00     0.010 C 
ENDROOT
BRANCH   1   3
ATOM      3  C   UNL     1      23.787  30.185 -15.304  1.00  0.00     0.064 C 
ATOM      4  O   UNL     1      22.921  31.066 -15.541  1.00  0.00    -0.545 OA
ATOM      5  O   UNL     1      23.861  29.064 -16.125  1.00  0.00    -0.545 OA
ENDBRANCH   1   3
BRANCH   2   6
ATOM      6  C   UNL     1      26.951  30.145 -13.110  1.00  0.00    -0.026 A 
ATOM      7  C   UNL     1      26.538  30.336 -11.775  1.00  0.00     0.008 A 
ATOM      8  C   UNL     1      28.327  30.070 -13.391  1.00  0.00     0.008 A 
ATOM      9  C   UNL     1      27.486  30.472 -10.756  1.00  0.00     0.001 A 
ATOM     10  C   UNL     1      29.269  30.207 -12.367  1.00  0.00     0.001 A 
ATOM     11  C   UNL     1      28.850  30.411 -11.052  1.00  0.00     0.000 A 
ENDBRANCH   2   6
TORSDOF 2
ENDMDL
MODEL 9
REMARK VINA RESULT:    -3.808      4.832      5.436
REMARK INTER + INTRA:          -4.387
REMARK INTER:                  -4.257
REMARK INTRA:                  -0.130
REMARK UNBOUND:                -0.134
REMARK SMILES O=C([O-])C=Cc1ccccc1
REMARK SMILES IDX 4 1 5 2 2 3 1 4 3 5 6 6 7 7 11 8 8 9 10 10 9 11
REMARK H PARENT
REMARK Flexibility Score: inf
ROOT
ATOM      1  C   UNL     1      27.451  28.663 -12.390  1.00  0.00     0.025 C 
ATOM      2  C   UNL     1      26.923  27.642 -13.079  1.00  0.00     0.010 C 
ENDROOT
BRANCH   1   3
ATOM      3  C   UNL     1      27.484  30.031 -12.930  1.00  0.00     0.064 C 
ATOM      4  O   UNL     1      28.549  30.474 -13.434  1.00  0.00    -0.545 OA
ATOM      5  O   UNL     1      26.358  30.846 -12.894  1.00  0.00    -0.545 OA
ENDBRANCH   1   3
BRANCH   2   6
ATOM      6  C   UNL     1      26.877  26.245 -12.580  1.00  0.00    -0.026 A 
ATOM      7  C   UNL     1      26.204  25.884 -11.393  1.00  0.00     0.008 A 
ATOM      8  C   UNL     1      27.499  25.238 -13.339  1.00  0.00     0.008 A 
ATOM      9  C   UNL     1      26.182  24.551 -10.972  1.00  0.00     0.001 A 
ATOM     10  C   UNL     1      27.473  23.908 -12.912  1.00  0.00     0.001 A 
ATOM     11  C   UNL     1      26.817  23.564 -11.729  1.00  0.00     0.000 A 
ENDBRANCH   2   6
TORSDOF 2
ENDMDL
