MODEL 1
REMARK VINA RESULT:    82.946      0.000      0.000
REMARK INTER + INTRA:          87.795
REMARK INTER:                  87.795
REMARK INTRA:                   0.000
REMARK UNBOUND:                 0.000
REMARK SMILES CC1(C)[C@@H](O)CC[C@@]2(C)[C@H]1CC[C@]1(C)[C@H]2C=CC2=C(O)C(=O)C(=O)[C@]21C
REMARK SMILES IDX 1 1 2 2 10 3 11 4 12 5 13 6 15 7 8 8 7 9 6 10 4 11 9 12
REMARK SMILES IDX 16 13 17 14 18 15 19 16 21 17 22 18 23 19 24 20 25 21 26 22
REMARK SMILES IDX 14 23 3 24 5 25 20 27
REMARK H PARENT 5 26 20 28
REMARK Flexibility Score: inf
ROOT
ATOM      1  C   UNL     1      17.147  15.119  25.926  1.00  0.00     0.014 C 
ATOM      2  C   UNL     1      16.837  15.494  24.452  1.00  0.00    -0.006 C 
ATOM      3  C   UNL     1      17.050  14.298  23.438  1.00  0.00     0.004 C 
ATOM      4  C   UNL     1      16.170  13.045  23.690  1.00  0.00     0.005 C 
ATOM      5  C   UNL     1      16.231  12.038  22.517  1.00  0.00     0.009 C 
ATOM      6  C   UNL     1      17.672  11.544  22.143  1.00  0.00    -0.009 C 
ATOM      7  C   UNL     1      18.553  12.866  21.934  1.00  0.00     0.025 C 
ATOM      8  C   UNL     1      18.548  13.904  23.149  1.00  0.00    -0.022 C 
ATOM      9  C   UNL     1      19.365  15.194  22.780  1.00  0.00     0.010 C 
ATOM     10  C   UNL     1      19.189  16.343  23.787  1.00  0.00     0.033 C 
ATOM     11  C   UNL     1      17.710  16.707  23.992  1.00  0.00     0.120 C 
ATOM     12  C   UNL     1      19.279  13.275  24.383  1.00  0.00     0.012 C 
ATOM     13  C   UNL     1      18.103  13.535  20.620  1.00  0.00    -0.022 C 
ATOM     14  C   UNL     1      18.004  12.835  19.499  1.00  0.00     0.005 C 
ATOM     15  C   UNL     1      18.221  11.407  19.593  1.00  0.00     0.012 C 
ATOM     16  C   UNL     1      19.212  10.789  18.947  1.00  0.00     0.171 C 
ATOM     17  C   UNL     1      19.519   9.553  19.608  1.00  0.00     0.264 C 
ATOM     18  O   UNL     1      20.396   8.720  19.258  1.00  0.00    -0.282 OA
ATOM     19  C   UNL     1      18.654   9.452  20.758  1.00  0.00     0.217 C 
ATOM     20  O   UNL     1      18.599   8.432  21.497  1.00  0.00    -0.289 OA
ATOM     21  C   UNL     1      17.684  10.630  20.789  1.00  0.00     0.069 C 
ATOM     22  C   UNL     1      16.297  10.061  20.404  1.00  0.00     0.026 C 
ATOM     23  C   UNL     1      18.167  10.643  23.310  1.00  0.00     0.013 C 
ATOM     24  C   UNL     1      15.353  15.955  24.407  1.00  0.00     0.014 C 
ENDROOT
BRANCH  11  25
ATOM     25  O   UNL     1      17.617  17.759  24.922  1.00  0.00    -0.393 OA
ATOM     26  H   UNL     1      18.545  18.041  25.135  1.00  0.00     0.210 HD
ENDBRANCH  11  25
BRANCH  16  27
ATOM     27  O   UNL     1      19.930  11.304  17.869  1.00  0.00    -0.504 OA
ATOM     28  H   UNL     1      19.526  11.377  16.943  1.00  0.00     0.293 HD
ENDBRANCH  16  27
TORSDOF 2
ENDMDL
MODEL 2
REMARK VINA RESULT:    85.344      1.532      6.639
REMARK INTER + INTRA:          90.334
REMARK INTER:                  90.334
REMARK INTRA:                   0.000
REMARK UNBOUND:                 0.000
REMARK SMILES CC1(C)[C@@H](O)CC[C@@]2(C)[C@H]1CC[C@]1(C)[C@H]2C=CC2=C(O)C(=O)C(=O)[C@]21C
REMARK SMILES IDX 1 1 2 2 10 3 11 4 12 5 13 6 15 7 8 8 7 9 6 10 4 11 9 12
REMARK SMILES IDX 16 13 17 14 18 15 19 16 21 17 22 18 23 19 24 20 25 21 26 22
REMARK SMILES IDX 14 23 3 24 5 25 20 27
REMARK H PARENT 5 26 20 28
REMARK Flexibility Score: inf
ROOT
ATOM      1  C   UNL     1      17.385   9.739  18.381  1.00  0.00     0.014 C 
ATOM      2  C   UNL     1      18.323   9.874  19.610  1.00  0.00    -0.006 C 
ATOM      3  C   UNL     1      17.787  10.881  20.706  1.00  0.00     0.004 C 
ATOM      4  C   UNL     1      16.414  10.517  21.332  1.00  0.00     0.005 C 
ATOM      5  C   UNL     1      16.085  11.382  22.572  1.00  0.00     0.009 C 
ATOM      6  C   UNL     1      16.104  12.930  22.323  1.00  0.00    -0.009 C 
ATOM      7  C   UNL     1      17.517  13.252  21.641  1.00  0.00     0.025 C 
ATOM      8  C   UNL     1      17.864  12.409  20.329  1.00  0.00    -0.022 C 
ATOM      9  C   UNL     1      19.310  12.747  19.818  1.00  0.00     0.010 C 
ATOM     10  C   UNL     1      19.816  11.792  18.724  1.00  0.00     0.033 C 
ATOM     11  C   UNL     1      19.755  10.323  19.170  1.00  0.00     0.120 C 
ATOM     12  C   UNL     1      16.895  12.815  19.167  1.00  0.00     0.012 C 
ATOM     13  C   UNL     1      18.611  13.098  22.716  1.00  0.00    -0.022 C 
ATOM     14  C   UNL     1      18.494  13.691  23.896  1.00  0.00     0.005 C 
ATOM     15  C   UNL     1      17.252  14.383  24.164  1.00  0.00     0.012 C 
ATOM     16  C   UNL     1      17.200  15.696  24.397  1.00  0.00     0.171 C 
ATOM     17  C   UNL     1      15.883  16.185  24.102  1.00  0.00     0.264 C 
ATOM     18  O   UNL     1      15.487  17.374  24.217  1.00  0.00    -0.282 OA
ATOM     19  C   UNL     1      15.105  15.066  23.626  1.00  0.00     0.217 C 
ATOM     20  O   UNL     1      13.871  15.137  23.376  1.00  0.00    -0.289 OA
ATOM     21  C   UNL     1      15.929  13.784  23.705  1.00  0.00     0.069 C 
ATOM     22  C   UNL     1      15.343  12.963  24.880  1.00  0.00     0.026 C 
ATOM     23  C   UNL     1      14.884  13.265  21.418  1.00  0.00     0.013 C 
ATOM     24  C   UNL     1      18.459   8.454  20.231  1.00  0.00     0.014 C 
ENDROOT
BRANCH  11  25
ATOM     25  O   UNL     1      20.227   9.503  18.128  1.00  0.00    -0.393 OA
ATOM     26  H   UNL     1      19.758   9.786  17.300  1.00  0.00     0.210 HD
ENDBRANCH  11  25
BRANCH  16  27
ATOM     27  O   UNL     1      18.276  16.506  24.755  1.00  0.00    -0.504 OA
ATOM     28  H   UNL     1      18.391  17.441  24.380  1.00  0.00     0.293 HD
ENDBRANCH  16  27
TORSDOF 2
ENDMDL
MODEL 3
REMARK VINA RESULT:    85.408      2.957      4.820
REMARK INTER + INTRA:          90.401
REMARK INTER:                  90.401
REMARK INTRA:                   0.000
REMARK UNBOUND:                 0.000
REMARK SMILES CC1(C)[C@@H](O)CC[C@@]2(C)[C@H]1CC[C@]1(C)[C@H]2C=CC2=C(O)C(=O)C(=O)[C@]21C
REMARK SMILES IDX 1 1 2 2 10 3 11 4 12 5 13 6 15 7 8 8 7 9 6 10 4 11 9 12
REMARK SMILES IDX 16 13 17 14 18 15 19 16 21 17 22 18 23 19 24 20 25 21 26 22
REMARK SMILES IDX 14 23 3 24 5 25 20 27
REMARK H PARENT 5 26 20 28
REMARK Flexibility Score: inf
ROOT
ATOM      1  C   UNL     1      19.495  16.728  17.814  1.00  0.00     0.014 C 
ATOM      2  C   UNL     1      18.381  16.735  18.895  1.00  0.00    -0.006 C 
ATOM      3  C   UNL     1      18.105  15.312  19.527  1.00  0.00     0.004 C 
ATOM      4  C   UNL     1      19.314  14.657  20.249  1.00  0.00     0.005 C 
ATOM      5  C   UNL     1      18.903  13.409  21.067  1.00  0.00     0.009 C 
ATOM      6  C   UNL     1      18.171  12.291  20.247  1.00  0.00    -0.009 C 
ATOM      7  C   UNL     1      16.962  13.018  19.488  1.00  0.00     0.025 C 
ATOM      8  C   UNL     1      17.360  14.282  18.596  1.00  0.00    -0.022 C 
ATOM      9  C   UNL     1      16.080  14.959  17.989  1.00  0.00     0.010 C 
ATOM     10  C   UNL     1      16.355  16.326  17.339  1.00  0.00     0.033 C 
ATOM     11  C   UNL     1      17.043  17.296  18.312  1.00  0.00     0.120 C 
ATOM     12  C   UNL     1      18.217  13.814  17.371  1.00  0.00     0.012 C 
ATOM     13  C   UNL     1      15.893  13.384  20.537  1.00  0.00    -0.022 C 
ATOM     14  C   UNL     1      15.452  12.482  21.403  1.00  0.00     0.005 C 
ATOM     15  C   UNL     1      16.099  11.187  21.392  1.00  0.00     0.012 C 
ATOM     16  C   UNL     1      15.443  10.061  21.107  1.00  0.00     0.171 C 
ATOM     17  C   UNL     1      16.372   9.065  20.652  1.00  0.00     0.264 C 
ATOM     18  O   UNL     1      16.092   7.888  20.308  1.00  0.00    -0.282 OA
ATOM     19  C   UNL     1      17.682   9.671  20.642  1.00  0.00     0.217 C 
ATOM     20  O   UNL     1      18.738   9.032  20.389  1.00  0.00    -0.289 OA
ATOM     21  C   UNL     1      17.607  11.089  21.200  1.00  0.00     0.069 C 
ATOM     22  C   UNL     1      18.264  11.040  22.601  1.00  0.00     0.026 C 
ATOM     23  C   UNL     1      19.221  11.662  19.288  1.00  0.00     0.013 C 
ATOM     24  C   UNL     1      18.842  17.718  20.009  1.00  0.00     0.014 C 
ENDROOT
BRANCH  11  25
ATOM     25  O   UNL     1      17.268  18.522  17.659  1.00  0.00    -0.393 OA
ATOM     26  H   UNL     1      17.683  19.133  18.324  1.00  0.00     0.210 HD
ENDBRANCH  11  25
BRANCH  16  27
ATOM     27  O   UNL     1      14.059   9.894  21.125  1.00  0.00    -0.504 OA
ATOM     28  H   UNL     1      13.540   9.824  21.993  1.00  0.00     0.293 HD
ENDBRANCH  16  27
TORSDOF 2
ENDMDL
MODEL 4
REMARK VINA RESULT:    85.753      2.938      5.766
REMARK INTER + INTRA:          90.766
REMARK INTER:                  90.766
REMARK INTRA:                   0.000
REMARK UNBOUND:                 0.000
REMARK SMILES CC1(C)[C@@H](O)CC[C@@]2(C)[C@H]1CC[C@]1(C)[C@H]2C=CC2=C(O)C(=O)C(=O)[C@]21C
REMARK SMILES IDX 1 1 2 2 10 3 11 4 12 5 13 6 15 7 8 8 7 9 6 10 4 11 9 12
REMARK SMILES IDX 16 13 17 14 18 15 19 16 21 17 22 18 23 19 24 20 25 21 26 22
REMARK SMILES IDX 14 23 3 24 5 25 20 27
REMARK H PARENT 5 26 20 28
REMARK Flexibility Score: inf
ROOT
ATOM      1  C   UNL     1      12.192  10.099  24.174  1.00  0.00     0.014 C 
ATOM      2  C   UNL     1      13.602   9.451  24.206  1.00  0.00    -0.006 C 
ATOM      3  C   UNL     1      14.670  10.218  23.326  1.00  0.00     0.004 C 
ATOM      4  C   UNL     1      14.935  11.693  23.734  1.00  0.00     0.005 C 
ATOM      5  C   UNL     1      16.169  12.289  23.016  1.00  0.00     0.009 C 
ATOM      6  C   UNL     1      16.119  12.226  21.450  1.00  0.00    -0.009 C 
ATOM      7  C   UNL     1      15.803  10.700  21.078  1.00  0.00     0.025 C 
ATOM      8  C   UNL     1      14.506  10.070  21.766  1.00  0.00    -0.022 C 
ATOM      9  C   UNL     1      14.365   8.550  21.399  1.00  0.00     0.010 C 
ATOM     10  C   UNL     1      13.299   7.812  22.226  1.00  0.00     0.033 C 
ATOM     11  C   UNL     1      13.541   7.961  23.737  1.00  0.00     0.120 C 
ATOM     12  C   UNL     1      13.220  10.766  21.204  1.00  0.00     0.012 C 
ATOM     13  C   UNL     1      17.063   9.865  21.382  1.00  0.00    -0.022 C 
ATOM     14  C   UNL     1      18.252  10.240  20.931  1.00  0.00     0.005 C 
ATOM     15  C   UNL     1      18.327  11.514  20.251  1.00  0.00     0.012 C 
ATOM     16  C   UNL     1      18.700  11.624  18.974  1.00  0.00     0.171 C 
ATOM     17  C   UNL     1      18.187  12.848  18.427  1.00  0.00     0.264 C 
ATOM     18  O   UNL     1      18.357  13.267  17.252  1.00  0.00    -0.282 OA
ATOM     19  C   UNL     1      17.423  13.497  19.465  1.00  0.00     0.217 C 
ATOM     20  O   UNL     1      16.922  14.647  19.340  1.00  0.00    -0.289 OA
ATOM     21  C   UNL     1      17.523  12.702  20.763  1.00  0.00     0.069 C 
ATOM     22  C   UNL     1      18.435  13.525  21.707  1.00  0.00     0.026 C 
ATOM     23  C   UNL     1      15.019  13.222  20.985  1.00  0.00     0.013 C 
ATOM     24  C   UNL     1      14.062   9.444  25.692  1.00  0.00     0.014 C 
ENDROOT
BRANCH  11  25
ATOM     25  O   UNL     1      12.535   7.268  24.436  1.00  0.00    -0.393 OA
ATOM     26  H   UNL     1      12.495   7.658  25.349  1.00  0.00     0.210 HD
ENDBRANCH  11  25
BRANCH  16  27
ATOM     27  O   UNL     1      19.378  10.656  18.235  1.00  0.00    -0.504 OA
ATOM     28  H   UNL     1      19.527   9.718  18.589  1.00  0.00     0.293 HD
ENDBRANCH  16  27
TORSDOF 2
ENDMDL
