MODEL 1
REMARK VINA RESULT:    -5.573      0.000      0.000
REMARK INTER + INTRA:          -9.324
REMARK INTER:                  -8.179
REMARK INTRA:                  -1.145
REMARK UNBOUND:                -1.145
REMARK SMILES O=c1c(O[C@@H]2O[C@H](CO)[C@H](O)[C@@H](O)[C@H]2O)c(-c2ccc(O)c(O)c2)oc2cc(O)cc(O)c12
REMARK SMILES IDX 4 1 3 2 16 3 25 4 2 5 26 6 1 7 33 8 27 9 31 10 28 11 30 12
REMARK SMILES IDX 17 13 18 14 19 15 20 16 24 17 22 18 21 19 23 21 32 23 29 25
REMARK SMILES IDX 5 27 14 28 6 29 12 30 7 31 10 32 15 33 13 35 8 37 9 38 11 40
REMARK H PARENT 21 20 23 22 32 24 29 26 15 34 13 36 9 39 11 41
REMARK Flexibility Score: inf
ROOT
ATOM      1  O   UNL     1       5.410   5.864   0.734  1.00  0.00    -0.454 OA
ENDROOT
BRANCH   1   2
ATOM      2  C   UNL     1       4.479   6.453   1.612  1.00  0.00     0.214 A 
ATOM      3  C   UNL     1       4.865   6.675   2.949  1.00  0.00     0.180 A 
ATOM      4  O   UNL     1       3.991   7.164   3.822  1.00  0.00    -0.452 OA
ATOM      5  C   UNL     1       3.182   6.841   1.216  1.00  0.00     0.239 A 
ATOM      6  C   UNL     1       2.747   7.493   3.504  1.00  0.00     0.146 A 
ATOM      7  O   UNL     1       2.843   6.767   0.007  1.00  0.00    -0.285 OA
ATOM      8  C   UNL     1       2.281   7.346   2.177  1.00  0.00     0.111 A 
ATOM      9  C   UNL     1       1.903   8.000   4.495  1.00  0.00     0.094 A 
ATOM     10  C   UNL     1       0.949   7.718   1.870  1.00  0.00     0.134 A 
ATOM     11  C   UNL     1       0.586   8.358   4.187  1.00  0.00     0.123 A 
ATOM     12  C   UNL     1       0.116   8.222   2.880  1.00  0.00     0.093 A 
BRANCH   3  13
ATOM     13  C   UNL     1       6.226   6.350   3.435  1.00  0.00     0.025 A 
ATOM     14  C   UNL     1       7.180   7.374   3.554  1.00  0.00     0.016 A 
ATOM     15  C   UNL     1       8.469   7.089   4.011  1.00  0.00     0.051 A 
ATOM     16  C   UNL     1       8.831   5.778   4.333  1.00  0.00     0.157 A 
ATOM     17  C   UNL     1       6.600   5.028   3.736  1.00  0.00     0.062 A 
ATOM     18  C   UNL     1       7.897   4.740   4.187  1.00  0.00     0.158 A 
BRANCH  16  19
ATOM     19  O   UNL     1      10.123   5.526   4.793  1.00  0.00    -0.504 OA
ATOM     20  H   UNL     1      10.894   5.343   4.164  1.00  0.00     0.293 HD
ENDBRANCH  16  19
BRANCH  18  21
ATOM     21  O   UNL     1       8.257   3.427   4.491  1.00  0.00    -0.504 OA
ATOM     22  H   UNL     1       7.893   2.641   3.965  1.00  0.00     0.293 HD
ENDBRANCH  18  21
ENDBRANCH   3  13
BRANCH  10  23
ATOM     23  O   UNL     1       0.449   7.593   0.572  1.00  0.00    -0.507 OA
ATOM     24  H   UNL     1      -0.416   8.039   0.288  1.00  0.00     0.293 HD
ENDBRANCH  10  23
BRANCH  11  25
ATOM     25  O   UNL     1      -0.265   8.847   5.176  1.00  0.00    -0.508 OA
ATOM     26  H   UNL     1      -0.140   9.772   5.573  1.00  0.00     0.293 HD
ENDBRANCH  11  25
ENDBRANCH   1   2
BRANCH   1  27
ATOM     27  C   UNL     1       6.610   6.446   0.208  1.00  0.00     0.339 C 
ATOM     28  C   UNL     1       7.426   5.422  -0.644  1.00  0.00     0.214 C 
ATOM     29  O   UNL     1       6.309   7.645  -0.487  1.00  0.00    -0.332 OA
ATOM     30  C   UNL     1       7.546   5.897  -2.108  1.00  0.00     0.180 C 
ATOM     31  C   UNL     1       7.494   8.214  -1.013  1.00  0.00     0.179 C 
ATOM     32  C   UNL     1       8.019   7.371  -2.214  1.00  0.00     0.177 C 
BRANCH  28  33
ATOM     33  O   UNL     1       8.709   5.263  -0.095  1.00  0.00    -0.384 OA
ATOM     34  H   UNL     1       9.268   6.000  -0.459  1.00  0.00     0.211 HD
ENDBRANCH  28  33
BRANCH  30  35
ATOM     35  O   UNL     1       8.369   5.040  -2.862  1.00  0.00    -0.387 OA
ATOM     36  H   UNL     1       9.035   4.633  -2.248  1.00  0.00     0.211 HD
ENDBRANCH  30  35
BRANCH  31  37
ATOM     37  C   UNL     1       7.224   9.679  -1.386  1.00  0.00     0.191 C 
BRANCH  37  38
ATOM     38  O   UNL     1       5.931   9.822  -1.907  1.00  0.00    -0.394 OA
ATOM     39  H   UNL     1       5.772  10.795  -2.018  1.00  0.00     0.210 HD
ENDBRANCH  37  38
ENDBRANCH  31  37
BRANCH  32  40
ATOM     40  O   UNL     1       7.576   7.904  -3.440  1.00  0.00    -0.387 OA
ATOM     41  H   UNL     1       7.205   8.803  -3.243  1.00  0.00     0.211 HD
ENDBRANCH  32  40
ENDBRANCH   1  27
TORSDOF 12
ENDMDL
MODEL 2
REMARK VINA RESULT:    -5.326      1.136      2.527
REMARK INTER + INTRA:          -8.962
REMARK INTER:                  -7.628
REMARK INTRA:                  -1.334
REMARK UNBOUND:                -1.145
REMARK SMILES O=c1c(O[C@@H]2O[C@H](CO)[C@H](O)[C@@H](O)[C@H]2O)c(-c2ccc(O)c(O)c2)oc2cc(O)cc(O)c12
REMARK SMILES IDX 4 1 3 2 16 3 25 4 2 5 26 6 1 7 33 8 27 9 31 10 28 11 30 12
REMARK SMILES IDX 17 13 18 14 19 15 20 16 24 17 22 18 21 19 23 21 32 23 29 25
REMARK SMILES IDX 5 27 14 28 6 29 12 30 7 31 10 32 15 33 13 35 8 37 9 38 11 40
REMARK H PARENT 21 20 23 22 32 24 29 26 15 34 13 36 9 39 11 41
REMARK Flexibility Score: inf
ROOT
ATOM      1  O   UNL     1       5.274   5.664   0.781  1.00  0.00    -0.454 OA
ENDROOT
BRANCH   1   2
ATOM      2  C   UNL     1       4.396   6.307   1.676  1.00  0.00     0.214 A 
ATOM      3  C   UNL     1       4.829   6.530   2.999  1.00  0.00     0.180 A 
ATOM      4  O   UNL     1       4.003   7.069   3.888  1.00  0.00    -0.452 OA
ATOM      5  C   UNL     1       3.107   6.746   1.311  1.00  0.00     0.239 A 
ATOM      6  C   UNL     1       2.766   7.449   3.599  1.00  0.00     0.146 A 
ATOM      7  O   UNL     1       2.729   6.671   0.113  1.00  0.00    -0.285 OA
ATOM      8  C   UNL     1       2.257   7.305   2.289  1.00  0.00     0.111 A 
ATOM      9  C   UNL     1       1.974   8.007   4.606  1.00  0.00     0.094 A 
ATOM     10  C   UNL     1       0.934   7.732   2.014  1.00  0.00     0.134 A 
ATOM     11  C   UNL     1       0.667   8.419   4.330  1.00  0.00     0.123 A 
ATOM     12  C   UNL     1       0.153   8.287   3.038  1.00  0.00     0.093 A 
BRANCH   3  13
ATOM     13  C   UNL     1       6.188   6.151   3.451  1.00  0.00     0.025 A 
ATOM     14  C   UNL     1       6.513   4.792   3.597  1.00  0.00     0.016 A 
ATOM     15  C   UNL     1       7.788   4.413   4.021  1.00  0.00     0.051 A 
ATOM     16  C   UNL     1       8.749   5.381   4.329  1.00  0.00     0.157 A 
ATOM     17  C   UNL     1       7.147   7.124   3.784  1.00  0.00     0.062 A 
ATOM     18  C   UNL     1       8.425   6.744   4.220  1.00  0.00     0.158 A 
BRANCH  16  19
ATOM     19  O   UNL     1      10.015   4.971   4.743  1.00  0.00    -0.504 OA
ATOM     20  H   UNL     1      10.202   4.026   5.051  1.00  0.00     0.293 HD
ENDBRANCH  16  19
BRANCH  18  21
ATOM     21  O   UNL     1       9.373   7.715   4.540  1.00  0.00    -0.504 OA
ATOM     22  H   UNL     1      10.095   7.990   3.885  1.00  0.00     0.293 HD
ENDBRANCH  18  21
ENDBRANCH   3  13
BRANCH  10  23
ATOM     23  O   UNL     1       0.392   7.612   0.732  1.00  0.00    -0.507 OA
ATOM     24  H   UNL     1      -0.558   7.292   0.582  1.00  0.00     0.293 HD
ENDBRANCH  10  23
BRANCH  11  25
ATOM     25  O   UNL     1      -0.134   8.960   5.335  1.00  0.00    -0.508 OA
ATOM     26  H   UNL     1      -0.774   9.724   5.148  1.00  0.00     0.293 HD
ENDBRANCH  11  25
ENDBRANCH   1   2
BRANCH   1  27
ATOM     27  C   UNL     1       6.118   6.270  -0.206  1.00  0.00     0.339 C 
ATOM     28  C   UNL     1       6.563   7.708   0.214  1.00  0.00     0.214 C 
ATOM     29  O   UNL     1       7.204   5.412  -0.515  1.00  0.00    -0.332 OA
ATOM     30  C   UNL     1       8.097   7.786   0.368  1.00  0.00     0.180 C 
ATOM     31  C   UNL     1       8.042   6.016  -1.484  1.00  0.00     0.179 C 
ATOM     32  C   UNL     1       8.845   7.193  -0.855  1.00  0.00     0.177 C 
BRANCH  28  33
ATOM     33  O   UNL     1       6.140   8.637  -0.751  1.00  0.00    -0.384 OA
ATOM     34  H   UNL     1       6.957   9.095  -1.083  1.00  0.00     0.211 HD
ENDBRANCH  28  33
BRANCH  30  35
ATOM     35  O   UNL     1       8.521   9.100   0.641  1.00  0.00    -0.387 OA
ATOM     36  H   UNL     1       9.399   9.050   1.103  1.00  0.00     0.211 HD
ENDBRANCH  30  35
BRANCH  31  37
ATOM     37  C   UNL     1       8.948   4.940  -2.103  1.00  0.00     0.191 C 
BRANCH  37  38
ATOM     38  O   UNL     1       9.519   4.144  -1.101  1.00  0.00    -0.394 OA
ATOM     39  H   UNL     1      10.434   4.494  -0.943  1.00  0.00     0.210 HD
ENDBRANCH  37  38
ENDBRANCH  31  37
BRANCH  32  40
ATOM     40  O   UNL     1      10.125   6.774  -0.446  1.00  0.00    -0.387 OA
ATOM     41  H   UNL     1      10.777   7.212  -1.053  1.00  0.00     0.211 HD
ENDBRANCH  32  40
ENDBRANCH   1  27
TORSDOF 12
ENDMDL
MODEL 3
REMARK VINA RESULT:    -5.245      2.570      6.230
REMARK INTER + INTRA:          -8.843
REMARK INTER:                  -7.783
REMARK INTRA:                  -1.060
REMARK UNBOUND:                -1.145
REMARK SMILES O=c1c(O[C@@H]2O[C@H](CO)[C@H](O)[C@@H](O)[C@H]2O)c(-c2ccc(O)c(O)c2)oc2cc(O)cc(O)c12
REMARK SMILES IDX 4 1 3 2 16 3 25 4 2 5 26 6 1 7 33 8 27 9 31 10 28 11 30 12
REMARK SMILES IDX 17 13 18 14 19 15 20 16 24 17 22 18 21 19 23 21 32 23 29 25
REMARK SMILES IDX 5 27 14 28 6 29 12 30 7 31 10 32 15 33 13 35 8 37 9 38 11 40
REMARK H PARENT 21 20 23 22 32 24 29 26 15 34 13 36 9 39 11 41
REMARK Flexibility Score: inf
ROOT
ATOM      1  O   UNL     1       4.800   7.512   4.044  1.00  0.00    -0.454 OA
ENDROOT
BRANCH   1   2
ATOM      2  C   UNL     1       3.744   7.873   4.904  1.00  0.00     0.214 A 
ATOM      3  C   UNL     1       2.426   7.820   4.408  1.00  0.00     0.180 A 
ATOM      4  O   UNL     1       1.412   8.220   5.167  1.00  0.00    -0.452 OA
ATOM      5  C   UNL     1       3.940   8.275   6.242  1.00  0.00     0.239 A 
ATOM      6  C   UNL     1       1.558   8.653   6.412  1.00  0.00     0.146 A 
ATOM      7  O   UNL     1       5.087   8.222   6.755  1.00  0.00    -0.285 OA
ATOM      8  C   UNL     1       2.838   8.701   7.011  1.00  0.00     0.111 A 
ATOM      9  C   UNL     1       0.428   9.051   7.130  1.00  0.00     0.094 A 
ATOM     10  C   UNL     1       2.955   9.160   8.347  1.00  0.00     0.134 A 
ATOM     11  C   UNL     1       0.551   9.510   8.446  1.00  0.00     0.123 A 
ATOM     12  C   UNL     1       1.809   9.558   9.050  1.00  0.00     0.093 A 
BRANCH   3  13
ATOM     13  C   UNL     1       2.125   7.356   3.034  1.00  0.00     0.025 A 
ATOM     14  C   UNL     1       1.413   6.160   2.850  1.00  0.00     0.016 A 
ATOM     15  C   UNL     1       1.118   5.704   1.562  1.00  0.00     0.051 A 
ATOM     16  C   UNL     1       1.549   6.422   0.442  1.00  0.00     0.157 A 
ATOM     17  C   UNL     1       2.579   8.064   1.906  1.00  0.00     0.062 A 
ATOM     18  C   UNL     1       2.291   7.602   0.613  1.00  0.00     0.158 A 
BRANCH  16  19
ATOM     19  O   UNL     1       1.233   5.946  -0.830  1.00  0.00    -0.504 OA
ATOM     20  H   UNL     1       1.324   4.969  -1.078  1.00  0.00     0.293 HD
ENDBRANCH  16  19
BRANCH  18  21
ATOM     21  O   UNL     1       2.738   8.314  -0.500  1.00  0.00    -0.504 OA
ATOM     22  H   UNL     1       2.195   9.070  -0.900  1.00  0.00     0.293 HD
ENDBRANCH  18  21
ENDBRANCH   3  13
BRANCH  10  23
ATOM     23  O   UNL     1       4.198   9.220   8.979  1.00  0.00    -0.507 OA
ATOM     24  H   UNL     1       5.033   8.831   8.555  1.00  0.00     0.293 HD
ENDBRANCH  10  23
BRANCH  11  25
ATOM     25  O   UNL     1      -0.571   9.925   9.160  1.00  0.00    -0.508 OA
ATOM     26  H   UNL     1      -1.368   9.313   9.297  1.00  0.00     0.293 HD
ENDBRANCH  11  25
ENDBRANCH   1   2
BRANCH   1  27
ATOM     27  C   UNL     1       5.181   6.195   3.628  1.00  0.00     0.339 C 
ATOM     28  C   UNL     1       5.742   6.187   2.169  1.00  0.00     0.214 C 
ATOM     29  O   UNL     1       6.065   5.618   4.575  1.00  0.00    -0.332 OA
ATOM     30  C   UNL     1       7.212   5.716   2.148  1.00  0.00     0.180 C 
ATOM     31  C   UNL     1       6.448   4.321   4.157  1.00  0.00     0.179 C 
ATOM     32  C   UNL     1       7.423   4.402   2.944  1.00  0.00     0.177 C 
BRANCH  28  33
ATOM     33  O   UNL     1       4.964   5.336   1.366  1.00  0.00    -0.384 OA
ATOM     34  H   UNL     1       5.141   4.409   1.678  1.00  0.00     0.211 HD
ENDBRANCH  28  33
BRANCH  30  35
ATOM     35  O   UNL     1       7.697   5.601   0.832  1.00  0.00    -0.387 OA
ATOM     36  H   UNL     1       8.161   4.727   0.750  1.00  0.00     0.211 HD
ENDBRANCH  30  35
BRANCH  31  37
ATOM     37  C   UNL     1       7.047   3.566   5.354  1.00  0.00     0.191 C 
BRANCH  37  38
ATOM     38  O   UNL     1       6.474   2.292   5.466  1.00  0.00    -0.394 OA
ATOM     39  H   UNL     1       5.681   2.385   6.055  1.00  0.00     0.210 HD
ENDBRANCH  37  38
ENDBRANCH  31  37
BRANCH  32  40
ATOM     40  O   UNL     1       8.764   4.335   3.366  1.00  0.00    -0.387 OA
ATOM     41  H   UNL     1       9.297   4.856   2.711  1.00  0.00     0.211 HD
ENDBRANCH  32  40
ENDBRANCH   1  27
TORSDOF 12
ENDMDL
MODEL 4
REMARK VINA RESULT:    -5.214      1.962      5.390
REMARK INTER + INTRA:          -8.798
REMARK INTER:                  -7.311
REMARK INTRA:                  -1.487
REMARK UNBOUND:                -1.145
REMARK SMILES O=c1c(O[C@@H]2O[C@H](CO)[C@H](O)[C@@H](O)[C@H]2O)c(-c2ccc(O)c(O)c2)oc2cc(O)cc(O)c12
REMARK SMILES IDX 4 1 3 2 16 3 25 4 2 5 26 6 1 7 33 8 27 9 31 10 28 11 30 12
REMARK SMILES IDX 17 13 18 14 19 15 20 16 24 17 22 18 21 19 23 21 32 23 29 25
REMARK SMILES IDX 5 27 14 28 6 29 12 30 7 31 10 32 15 33 13 35 8 37 9 38 11 40
REMARK H PARENT 21 20 23 22 32 24 29 26 15 34 13 36 9 39 11 41
REMARK Flexibility Score: inf
ROOT
ATOM      1  O   UNL     1       6.691   5.590   0.669  1.00  0.00    -0.454 OA
ENDROOT
BRANCH   1   2
ATOM      2  C   UNL     1       6.637   5.500   2.073  1.00  0.00     0.214 A 
ATOM      3  C   UNL     1       5.634   6.219   2.755  1.00  0.00     0.180 A 
ATOM      4  O   UNL     1       5.595   6.214   4.082  1.00  0.00    -0.452 OA
ATOM      5  C   UNL     1       7.532   4.718   2.833  1.00  0.00     0.239 A 
ATOM      6  C   UNL     1       6.449   5.534   4.835  1.00  0.00     0.146 A 
ATOM      7  O   UNL     1       8.364   3.972   2.256  1.00  0.00    -0.285 OA
ATOM      8  C   UNL     1       7.464   4.749   4.241  1.00  0.00     0.111 A 
ATOM      9  C   UNL     1       6.325   5.593   6.225  1.00  0.00     0.094 A 
ATOM     10  C   UNL     1       8.352   4.026   5.077  1.00  0.00     0.134 A 
ATOM     11  C   UNL     1       7.210   4.883   7.044  1.00  0.00     0.123 A 
ATOM     12  C   UNL     1       8.213   4.100   6.470  1.00  0.00     0.093 A 
BRANCH   3  13
ATOM     13  C   UNL     1       4.619   7.021   2.032  1.00  0.00     0.025 A 
ATOM     14  C   UNL     1       4.679   8.423   2.088  1.00  0.00     0.016 A 
ATOM     15  C   UNL     1       3.732   9.198   1.413  1.00  0.00     0.051 A 
ATOM     16  C   UNL     1       2.700   8.586   0.695  1.00  0.00     0.157 A 
ATOM     17  C   UNL     1       3.566   6.408   1.329  1.00  0.00     0.062 A 
ATOM     18  C   UNL     1       2.609   7.185   0.659  1.00  0.00     0.158 A 
BRANCH  16  19
ATOM     19  O   UNL     1       1.775   9.387   0.026  1.00  0.00    -0.504 OA
ATOM     20  H   UNL     1       2.030   9.953  -0.773  1.00  0.00     0.293 HD
ENDBRANCH  16  19
BRANCH  18  21
ATOM     21  O   UNL     1       1.573   6.569  -0.042  1.00  0.00    -0.504 OA
ATOM     22  H   UNL     1       1.752   5.837  -0.719  1.00  0.00     0.293 HD
ENDBRANCH  18  21
ENDBRANCH   3  13
BRANCH  10  23
ATOM     23  O   UNL     1       9.366   3.235   4.533  1.00  0.00    -0.507 OA
ATOM     24  H   UNL     1       9.960   3.569   3.783  1.00  0.00     0.293 HD
ENDBRANCH  10  23
BRANCH  11  25
ATOM     25  O   UNL     1       7.102   4.953   8.432  1.00  0.00    -0.508 OA
ATOM     26  H   UNL     1       6.744   4.175   8.975  1.00  0.00     0.293 HD
ENDBRANCH  11  25
ENDBRANCH   1   2
BRANCH   1  27
ATOM     27  C   UNL     1       7.583   6.381  -0.125  1.00  0.00     0.339 C 
ATOM     28  C   UNL     1       8.285   5.529  -1.232  1.00  0.00     0.214 C 
ATOM     29  O   UNL     1       6.908   7.520  -0.634  1.00  0.00    -0.332 OA
ATOM     30  C   UNL     1       7.911   6.042  -2.639  1.00  0.00     0.180 C 
ATOM     31  C   UNL     1       7.789   8.295  -1.426  1.00  0.00     0.179 C 
ATOM     32  C   UNL     1       8.087   7.577  -2.776  1.00  0.00     0.177 C 
BRANCH  28  33
ATOM     33  O   UNL     1       9.679   5.589  -1.065  1.00  0.00    -0.384 OA
ATOM     34  H   UNL     1       9.881   5.145  -0.199  1.00  0.00     0.211 HD
ENDBRANCH  28  33
BRANCH  30  35
ATOM     35  O   UNL     1       8.619   5.354  -3.643  1.00  0.00    -0.387 OA
ATOM     36  H   UNL     1       9.272   4.750  -3.200  1.00  0.00     0.211 HD
ENDBRANCH  30  35
BRANCH  31  37
ATOM     37  C   UNL     1       7.189   9.697  -1.616  1.00  0.00     0.191 C 
BRANCH  37  38
ATOM     38  O   UNL     1       5.789   9.637  -1.598  1.00  0.00    -0.394 OA
ATOM     39  H   UNL     1       5.529   8.848  -2.140  1.00  0.00     0.210 HD
ENDBRANCH  37  38
ENDBRANCH  31  37
BRANCH  32  40
ATOM     40  O   UNL     1       7.239   8.044  -3.797  1.00  0.00    -0.387 OA
ATOM     41  H   UNL     1       7.475   7.540  -4.619  1.00  0.00     0.211 HD
ENDBRANCH  32  40
ENDBRANCH   1  27
TORSDOF 12
ENDMDL
MODEL 5
REMARK VINA RESULT:    -5.202      2.689      6.820
REMARK INTER + INTRA:          -8.780
REMARK INTER:                  -7.293
REMARK INTRA:                  -1.486
REMARK UNBOUND:                -1.145
REMARK SMILES O=c1c(O[C@@H]2O[C@H](CO)[C@H](O)[C@@H](O)[C@H]2O)c(-c2ccc(O)c(O)c2)oc2cc(O)cc(O)c12
REMARK SMILES IDX 4 1 3 2 16 3 25 4 2 5 26 6 1 7 33 8 27 9 31 10 28 11 30 12
REMARK SMILES IDX 17 13 18 14 19 15 20 16 24 17 22 18 21 19 23 21 32 23 29 25
REMARK SMILES IDX 5 27 14 28 6 29 12 30 7 31 10 32 15 33 13 35 8 37 9 38 11 40
REMARK H PARENT 21 20 23 22 32 24 29 26 15 34 13 36 9 39 11 41
REMARK Flexibility Score: inf
ROOT
ATOM      1  O   UNL     1       4.211   7.809   4.247  1.00  0.00    -0.454 OA
ENDROOT
BRANCH   1   2
ATOM      2  C   UNL     1       5.058   7.083   5.105  1.00  0.00     0.214 A 
ATOM      3  C   UNL     1       6.053   6.265   4.533  1.00  0.00     0.180 A 
ATOM      4  O   UNL     1       6.825   5.512   5.309  1.00  0.00    -0.452 OA
ATOM      5  C   UNL     1       4.967   7.141   6.511  1.00  0.00     0.239 A 
ATOM      6  C   UNL     1       6.737   5.498   6.632  1.00  0.00     0.146 A 
ATOM      7  O   UNL     1       4.172   7.947   7.060  1.00  0.00    -0.285 OA
ATOM      8  C   UNL     1       5.798   6.318   7.299  1.00  0.00     0.111 A 
ATOM      9  C   UNL     1       7.595   4.671   7.361  1.00  0.00     0.094 A 
ATOM     10  C   UNL     1       5.740   6.285   8.715  1.00  0.00     0.134 A 
ATOM     11  C   UNL     1       7.527   4.638   8.758  1.00  0.00     0.123 A 
ATOM     12  C   UNL     1       6.608   5.446   9.429  1.00  0.00     0.093 A 
BRANCH   3  13
ATOM     13  C   UNL     1       6.255   6.188   3.067  1.00  0.00     0.025 A 
ATOM     14  C   UNL     1       5.685   5.127   2.347  1.00  0.00     0.016 A 
ATOM     15  C   UNL     1       5.862   5.036   0.964  1.00  0.00     0.051 A 
ATOM     16  C   UNL     1       6.629   5.988   0.285  1.00  0.00     0.157 A 
ATOM     17  C   UNL     1       7.046   7.131   2.387  1.00  0.00     0.062 A 
ATOM     18  C   UNL     1       7.232   7.036   0.999  1.00  0.00     0.158 A 
BRANCH  16  19
ATOM     19  O   UNL     1       6.781   5.874  -1.096  1.00  0.00    -0.504 OA
ATOM     20  H   UNL     1       6.569   6.637  -1.727  1.00  0.00     0.293 HD
ENDBRANCH  16  19
BRANCH  18  21
ATOM     21  O   UNL     1       8.012   7.980   0.331  1.00  0.00    -0.504 OA
ATOM     22  H   UNL     1       7.942   8.969   0.538  1.00  0.00     0.293 HD
ENDBRANCH  18  21
ENDBRANCH   3  13
BRANCH  10  23
ATOM     23  O   UNL     1       4.831   7.081   9.415  1.00  0.00    -0.507 OA
ATOM     24  H   UNL     1       4.858   7.160  10.425  1.00  0.00     0.293 HD
ENDBRANCH  10  23
BRANCH  11  25
ATOM     25  O   UNL     1       8.369   3.801   9.489  1.00  0.00    -0.508 OA
ATOM     26  H   UNL     1       8.012   2.986   9.977  1.00  0.00     0.293 HD
ENDBRANCH  11  25
ENDBRANCH   1   2
BRANCH   1  27
ATOM     27  C   UNL     1       2.913   7.431   3.769  1.00  0.00     0.339 C 
ATOM     28  C   UNL     1       1.812   8.447   4.216  1.00  0.00     0.214 C 
ATOM     29  O   UNL     1       2.949   7.219   2.368  1.00  0.00    -0.332 OA
ATOM     30  C   UNL     1       1.151   9.114   2.991  1.00  0.00     0.180 C 
ATOM     31  C   UNL     1       1.665   6.855   1.896  1.00  0.00     0.179 C 
ATOM     32  C   UNL     1       0.704   8.081   1.924  1.00  0.00     0.177 C 
BRANCH  28  33
ATOM     33  O   UNL     1       0.834   7.782   4.974  1.00  0.00    -0.384 OA
ATOM     34  H   UNL     1       1.080   6.819   4.976  1.00  0.00     0.211 HD
ENDBRANCH  28  33
BRANCH  30  35
ATOM     35  O   UNL     1       0.085   9.950   3.373  1.00  0.00    -0.387 OA
ATOM     36  H   UNL     1      -0.738   9.396   3.421  1.00  0.00     0.211 HD
ENDBRANCH  30  35
BRANCH  31  37
ATOM     37  C   UNL     1       1.802   6.236   0.497  1.00  0.00     0.191 C 
BRANCH  37  38
ATOM     38  O   UNL     1       2.558   7.071  -0.336  1.00  0.00    -0.394 OA
ATOM     39  H   UNL     1       2.718   7.910   0.168  1.00  0.00     0.210 HD
ENDBRANCH  37  38
ENDBRANCH  31  37
BRANCH  32  40
ATOM     40  O   UNL     1       0.654   8.715   0.668  1.00  0.00    -0.387 OA
ATOM     41  H   UNL     1       0.303   8.047   0.023  1.00  0.00     0.211 HD
ENDBRANCH  32  40
ENDBRANCH   1  27
TORSDOF 12
ENDMDL
MODEL 6
REMARK VINA RESULT:    -5.191      3.427      6.726
REMARK INTER + INTRA:          -8.763
REMARK INTER:                  -7.776
REMARK INTRA:                  -0.987
REMARK UNBOUND:                -1.145
REMARK SMILES O=c1c(O[C@@H]2O[C@H](CO)[C@H](O)[C@@H](O)[C@H]2O)c(-c2ccc(O)c(O)c2)oc2cc(O)cc(O)c12
REMARK SMILES IDX 4 1 3 2 16 3 25 4 2 5 26 6 1 7 33 8 27 9 31 10 28 11 30 12
REMARK SMILES IDX 17 13 18 14 19 15 20 16 24 17 22 18 21 19 23 21 32 23 29 25
REMARK SMILES IDX 5 27 14 28 6 29 12 30 7 31 10 32 15 33 13 35 8 37 9 38 11 40
REMARK H PARENT 21 20 23 22 32 24 29 26 15 34 13 36 9 39 11 41
REMARK Flexibility Score: inf
ROOT
ATOM      1  O   UNL     1       4.820   8.505   5.460  1.00  0.00    -0.454 OA
ENDROOT
BRANCH   1   2
ATOM      2  C   UNL     1       4.217   7.878   4.353  1.00  0.00     0.214 A 
ATOM      3  C   UNL     1       4.936   6.872   3.677  1.00  0.00     0.180 A 
ATOM      4  O   UNL     1       4.428   6.308   2.587  1.00  0.00    -0.452 OA
ATOM      5  C   UNL     1       2.924   8.201   3.893  1.00  0.00     0.239 A 
ATOM      6  C   UNL     1       3.238   6.619   2.091  1.00  0.00     0.146 A 
ATOM      7  O   UNL     1       2.206   9.007   4.538  1.00  0.00    -0.285 OA
ATOM      8  C   UNL     1       2.425   7.586   2.725  1.00  0.00     0.111 A 
ATOM      9  C   UNL     1       2.792   5.968   0.938  1.00  0.00     0.094 A 
ATOM     10  C   UNL     1       1.154   7.885   2.173  1.00  0.00     0.134 A 
ATOM     11  C   UNL     1       1.540   6.273   0.395  1.00  0.00     0.123 A 
ATOM     12  C   UNL     1       0.725   7.223   1.014  1.00  0.00     0.093 A 
BRANCH   3  13
ATOM     13  C   UNL     1       6.278   6.432   4.127  1.00  0.00     0.025 A 
ATOM     14  C   UNL     1       7.307   7.379   4.255  1.00  0.00     0.016 A 
ATOM     15  C   UNL     1       8.579   6.985   4.679  1.00  0.00     0.051 A 
ATOM     16  C   UNL     1       8.848   5.642   4.957  1.00  0.00     0.157 A 
ATOM     17  C   UNL     1       6.556   5.078   4.384  1.00  0.00     0.062 A 
ATOM     18  C   UNL     1       7.836   4.681   4.801  1.00  0.00     0.158 A 
BRANCH  16  19
ATOM     19  O   UNL     1      10.125   5.282   5.385  1.00  0.00    -0.504 OA
ATOM     20  H   UNL     1      10.961   5.593   4.908  1.00  0.00     0.293 HD
ENDBRANCH  16  19
BRANCH  18  21
ATOM     21  O   UNL     1       8.101   3.337   5.061  1.00  0.00    -0.504 OA
ATOM     22  H   UNL     1       7.799   2.893   5.920  1.00  0.00     0.293 HD
ENDBRANCH  18  21
ENDBRANCH   3  13
BRANCH  10  23
ATOM     23  O   UNL     1       0.317   8.830   2.769  1.00  0.00    -0.507 OA
ATOM     24  H   UNL     1       0.295   8.966   3.773  1.00  0.00     0.293 HD
ENDBRANCH  10  23
BRANCH  11  25
ATOM     25  O   UNL     1       1.097   5.640  -0.766  1.00  0.00    -0.508 OA
ATOM     26  H   UNL     1       0.438   6.087  -1.394  1.00  0.00     0.293 HD
ENDBRANCH  11  25
ENDBRANCH   1   2
BRANCH   1  27
ATOM     27  C   UNL     1       4.667   8.175   6.847  1.00  0.00     0.339 C 
ATOM     28  C   UNL     1       3.301   8.677   7.416  1.00  0.00     0.214 C 
ATOM     29  O   UNL     1       4.887   6.789   7.047  1.00  0.00    -0.332 OA
ATOM     30  C   UNL     1       2.437   7.491   7.896  1.00  0.00     0.180 C 
ATOM     31  C   UNL     1       4.726   6.463   8.416  1.00  0.00     0.179 C 
ATOM     32  C   UNL     1       3.223   6.524   8.821  1.00  0.00     0.177 C 
BRANCH  28  33
ATOM     33  O   UNL     1       3.527   9.558   8.486  1.00  0.00    -0.384 OA
ATOM     34  H   UNL     1       4.305   9.200   8.990  1.00  0.00     0.211 HD
ENDBRANCH  28  33
BRANCH  30  35
ATOM     35  O   UNL     1       1.250   7.934   8.509  1.00  0.00    -0.387 OA
ATOM     36  H   UNL     1       0.724   7.134   8.775  1.00  0.00     0.211 HD
ENDBRANCH  30  35
BRANCH  31  37
ATOM     37  C   UNL     1       5.359   5.088   8.681  1.00  0.00     0.191 C 
BRANCH  37  38
ATOM     38  O   UNL     1       5.111   4.219   7.610  1.00  0.00    -0.394 OA
ATOM     39  H   UNL     1       4.896   4.786   6.825  1.00  0.00     0.210 HD
ENDBRANCH  37  38
ENDBRANCH  31  37
BRANCH  32  40
ATOM     40  O   UNL     1       2.628   5.250   8.757  1.00  0.00    -0.387 OA
ATOM     41  H   UNL     1       1.646   5.392   8.744  1.00  0.00     0.211 HD
ENDBRANCH  32  40
ENDBRANCH   1  27
TORSDOF 12
ENDMDL
MODEL 7
REMARK VINA RESULT:    -5.171      2.680      6.402
REMARK INTER + INTRA:          -8.735
REMARK INTER:                  -7.365
REMARK INTRA:                  -1.369
REMARK UNBOUND:                -1.145
REMARK SMILES O=c1c(O[C@@H]2O[C@H](CO)[C@H](O)[C@@H](O)[C@H]2O)c(-c2ccc(O)c(O)c2)oc2cc(O)cc(O)c12
REMARK SMILES IDX 4 1 3 2 16 3 25 4 2 5 26 6 1 7 33 8 27 9 31 10 28 11 30 12
REMARK SMILES IDX 17 13 18 14 19 15 20 16 24 17 22 18 21 19 23 21 32 23 29 25
REMARK SMILES IDX 5 27 14 28 6 29 12 30 7 31 10 32 15 33 13 35 8 37 9 38 11 40
REMARK H PARENT 21 20 23 22 32 24 29 26 15 34 13 36 9 39 11 41
REMARK Flexibility Score: inf
ROOT
ATOM      1  O   UNL     1       4.647   8.546   3.739  1.00  0.00    -0.454 OA
ENDROOT
BRANCH   1   2
ATOM      2  C   UNL     1       5.107   7.577   4.651  1.00  0.00     0.214 A 
ATOM      3  C   UNL     1       5.830   6.474   4.153  1.00  0.00     0.180 A 
ATOM      4  O   UNL     1       6.219   5.506   4.974  1.00  0.00    -0.452 OA
ATOM      5  C   UNL     1       4.888   7.659   6.042  1.00  0.00     0.239 A 
ATOM      6  C   UNL     1       5.988   5.519   6.280  1.00  0.00     0.146 A 
ATOM      7  O   UNL     1       4.351   8.683   6.537  1.00  0.00    -0.285 OA
ATOM      8  C   UNL     1       5.308   6.604   6.879  1.00  0.00     0.111 A 
ATOM      9  C   UNL     1       6.439   4.452   7.060  1.00  0.00     0.094 A 
ATOM     10  C   UNL     1       5.088   6.590   8.279  1.00  0.00     0.134 A 
ATOM     11  C   UNL     1       6.212   4.441   8.441  1.00  0.00     0.123 A 
ATOM     12  C   UNL     1       5.546   5.508   9.045  1.00  0.00     0.093 A 
BRANCH   3  13
ATOM     13  C   UNL     1       6.154   6.337   2.713  1.00  0.00     0.025 A 
ATOM     14  C   UNL     1       5.564   5.302   1.969  1.00  0.00     0.016 A 
ATOM     15  C   UNL     1       5.855   5.156   0.610  1.00  0.00     0.051 A 
ATOM     16  C   UNL     1       6.753   6.023  -0.018  1.00  0.00     0.157 A 
ATOM     17  C   UNL     1       7.075   7.194   2.085  1.00  0.00     0.062 A 
ATOM     18  C   UNL     1       7.375   7.041   0.723  1.00  0.00     0.158 A 
BRANCH  16  19
ATOM     19  O   UNL     1       7.017   5.856  -1.377  1.00  0.00    -0.504 OA
ATOM     20  H   UNL     1       7.016   6.632  -2.026  1.00  0.00     0.293 HD
ENDBRANCH  16  19
BRANCH  18  21
ATOM     21  O   UNL     1       8.284   7.900   0.106  1.00  0.00    -0.504 OA
ATOM     22  H   UNL     1       8.698   8.681   0.601  1.00  0.00     0.293 HD
ENDBRANCH  18  21
ENDBRANCH   3  13
BRANCH  10  23
ATOM     23  O   UNL     1       4.424   7.642   8.913  1.00  0.00    -0.507 OA
ATOM     24  H   UNL     1       3.797   8.259   8.408  1.00  0.00     0.293 HD
ENDBRANCH  10  23
BRANCH  11  25
ATOM     25  O   UNL     1       6.644   3.369   9.222  1.00  0.00    -0.508 OA
ATOM     26  H   UNL     1       6.023   2.910   9.879  1.00  0.00     0.293 HD
ENDBRANCH  11  25
ENDBRANCH   1   2
BRANCH   1  27
ATOM     27  C   UNL     1       3.347   8.642   3.143  1.00  0.00     0.339 C 
ATOM     28  C   UNL     1       3.408   8.494   1.589  1.00  0.00     0.214 C 
ATOM     29  O   UNL     1       2.455   7.730   3.762  1.00  0.00    -0.332 OA
ATOM     30  C   UNL     1       2.614   7.255   1.124  1.00  0.00     0.180 C 
ATOM     31  C   UNL     1       1.174   7.821   3.166  1.00  0.00     0.179 C 
ATOM     32  C   UNL     1       1.190   7.201   1.737  1.00  0.00     0.177 C 
BRANCH  28  33
ATOM     33  O   UNL     1       2.882   9.645   0.980  1.00  0.00    -0.384 OA
ATOM     34  H   UNL     1       3.521   9.908   0.266  1.00  0.00     0.211 HD
ENDBRANCH  28  33
BRANCH  30  35
ATOM     35  O   UNL     1       2.570   7.168  -0.281  1.00  0.00    -0.387 OA
ATOM     36  H   UNL     1       2.155   6.299  -0.523  1.00  0.00     0.211 HD
ENDBRANCH  30  35
BRANCH  31  37
ATOM     37  C   UNL     1       0.143   7.157   4.092  1.00  0.00     0.191 C 
BRANCH  37  38
ATOM     38  O   UNL     1       0.035   7.868   5.294  1.00  0.00    -0.394 OA
ATOM     39  H   UNL     1       0.809   8.487   5.332  1.00  0.00     0.210 HD
ENDBRANCH  37  38
ENDBRANCH  31  37
BRANCH  32  40
ATOM     40  O   UNL     1       0.754   5.862   1.760  1.00  0.00    -0.387 OA
ATOM     41  H   UNL     1       1.119   5.429   0.945  1.00  0.00     0.211 HD
ENDBRANCH  32  40
ENDBRANCH   1  27
TORSDOF 12
ENDMDL
MODEL 8
REMARK VINA RESULT:    -5.112      1.802      6.334
REMARK INTER + INTRA:          -8.648
REMARK INTER:                  -7.805
REMARK INTRA:                  -0.843
REMARK UNBOUND:                -1.145
REMARK SMILES O=c1c(O[C@@H]2O[C@H](CO)[C@H](O)[C@@H](O)[C@H]2O)c(-c2ccc(O)c(O)c2)oc2cc(O)cc(O)c12
REMARK SMILES IDX 4 1 3 2 16 3 25 4 2 5 26 6 1 7 33 8 27 9 31 10 28 11 30 12
REMARK SMILES IDX 17 13 18 14 19 15 20 16 24 17 22 18 21 19 23 21 32 23 29 25
REMARK SMILES IDX 5 27 14 28 6 29 12 30 7 31 10 32 15 33 13 35 8 37 9 38 11 40
REMARK H PARENT 21 20 23 22 32 24 29 26 15 34 13 36 9 39 11 41
REMARK Flexibility Score: inf
ROOT
ATOM      1  O   UNL     1       4.681   7.538   3.502  1.00  0.00    -0.454 OA
ENDROOT
BRANCH   1   2
ATOM      2  C   UNL     1       5.679   7.277   2.544  1.00  0.00     0.214 A 
ATOM      3  C   UNL     1       6.647   6.293   2.832  1.00  0.00     0.180 A 
ATOM      4  O   UNL     1       7.644   6.070   1.983  1.00  0.00    -0.452 OA
ATOM      5  C   UNL     1       5.754   7.945   1.304  1.00  0.00     0.239 A 
ATOM      6  C   UNL     1       7.779   6.712   0.831  1.00  0.00     0.146 A 
ATOM      7  O   UNL     1       4.844   8.743   0.961  1.00  0.00    -0.285 OA
ATOM      8  C   UNL     1       6.834   7.686   0.435  1.00  0.00     0.111 A 
ATOM      9  C   UNL     1       8.864   6.404   0.006  1.00  0.00     0.094 A 
ATOM     10  C   UNL     1       7.006   8.345  -0.808  1.00  0.00     0.134 A 
ATOM     11  C   UNL     1       9.031   7.064  -1.216  1.00  0.00     0.123 A 
ATOM     12  C   UNL     1       8.102   8.024  -1.621  1.00  0.00     0.093 A 
BRANCH   3  13
ATOM     13  C   UNL     1       6.611   5.505   4.086  1.00  0.00     0.025 A 
ATOM     14  C   UNL     1       6.843   6.148   5.313  1.00  0.00     0.016 A 
ATOM     15  C   UNL     1       6.812   5.423   6.507  1.00  0.00     0.051 A 
ATOM     16  C   UNL     1       6.574   4.045   6.492  1.00  0.00     0.157 A 
ATOM     17  C   UNL     1       6.395   4.115   4.071  1.00  0.00     0.062 A 
ATOM     18  C   UNL     1       6.373   3.385   5.269  1.00  0.00     0.158 A 
BRANCH  16  19
ATOM     19  O   UNL     1       6.542   3.351   7.701  1.00  0.00    -0.504 OA
ATOM     20  H   UNL     1       6.510   3.825   8.594  1.00  0.00     0.293 HD
ENDBRANCH  16  19
BRANCH  18  21
ATOM     21  O   UNL     1       6.151   2.008   5.246  1.00  0.00    -0.504 OA
ATOM     22  H   UNL     1       6.728   1.368   5.778  1.00  0.00     0.293 HD
ENDBRANCH  18  21
ENDBRANCH   3  13
BRANCH  10  23
ATOM     23  O   UNL     1       6.094   9.310  -1.241  1.00  0.00    -0.507 OA
ATOM     24  H   UNL     1       6.254  10.300  -1.092  1.00  0.00     0.293 HD
ENDBRANCH  10  23
BRANCH  11  25
ATOM     25  O   UNL     1      10.121   6.774  -2.036  1.00  0.00    -0.508 OA
ATOM     26  H   UNL     1      10.008   6.618  -3.031  1.00  0.00     0.293 HD
ENDBRANCH  11  25
ENDBRANCH   1   2
BRANCH   1  27
ATOM     27  C   UNL     1       3.279   7.257   3.407  1.00  0.00     0.339 C 
ATOM     28  C   UNL     1       2.410   8.469   3.875  1.00  0.00     0.214 C 
ATOM     29  O   UNL     1       2.957   6.803   2.103  1.00  0.00    -0.332 OA
ATOM     30  C   UNL     1       1.534   8.996   2.718  1.00  0.00     0.180 C 
ATOM     31  C   UNL     1       1.570   6.534   2.008  1.00  0.00     0.179 C 
ATOM     32  C   UNL     1       0.754   7.861   2.002  1.00  0.00     0.177 C 
BRANCH  28  33
ATOM     33  O   UNL     1       1.590   8.080   4.946  1.00  0.00    -0.384 OA
ATOM     34  H   UNL     1       0.693   7.886   4.563  1.00  0.00     0.211 HD
ENDBRANCH  28  33
BRANCH  30  35
ATOM     35  O   UNL     1       0.669  10.018   3.151  1.00  0.00    -0.387 OA
ATOM     36  H   UNL     1       0.391  10.543   2.356  1.00  0.00     0.211 HD
ENDBRANCH  30  35
BRANCH  31  37
ATOM     37  C   UNL     1       1.311   5.670   0.764  1.00  0.00     0.191 C 
BRANCH  37  38
ATOM     38  O   UNL     1       1.902   6.249  -0.366  1.00  0.00    -0.394 OA
ATOM     39  H   UNL     1       1.220   6.844  -0.773  1.00  0.00     0.210 HD
ENDBRANCH  37  38
ENDBRANCH  31  37
BRANCH  32  40
ATOM     40  O   UNL     1       0.459   8.270   0.688  1.00  0.00    -0.387 OA
ATOM     41  H   UNL     1       0.478   9.262   0.686  1.00  0.00     0.211 HD
ENDBRANCH  32  40
ENDBRANCH   1  27
TORSDOF 12
ENDMDL
MODEL 9
REMARK VINA RESULT:    -4.980      2.039      5.589
REMARK INTER + INTRA:          -8.454
REMARK INTER:                  -7.210
REMARK INTRA:                  -1.244
REMARK UNBOUND:                -1.145
REMARK SMILES O=c1c(O[C@@H]2O[C@H](CO)[C@H](O)[C@@H](O)[C@H]2O)c(-c2ccc(O)c(O)c2)oc2cc(O)cc(O)c12
REMARK SMILES IDX 4 1 3 2 16 3 25 4 2 5 26 6 1 7 33 8 27 9 31 10 28 11 30 12
REMARK SMILES IDX 17 13 18 14 19 15 20 16 24 17 22 18 21 19 23 21 32 23 29 25
REMARK SMILES IDX 5 27 14 28 6 29 12 30 7 31 10 32 15 33 13 35 8 37 9 38 11 40
REMARK H PARENT 21 20 23 22 32 24 29 26 15 34 13 36 9 39 11 41
REMARK Flexibility Score: inf
ROOT
ATOM      1  O   UNL     1       5.795   5.708   0.970  1.00  0.00    -0.454 OA
ENDROOT
BRANCH   1   2
ATOM      2  C   UNL     1       5.852   5.813   2.374  1.00  0.00     0.214 A 
ATOM      3  C   UNL     1       4.993   6.730   3.014  1.00  0.00     0.180 A 
ATOM      4  O   UNL     1       5.068   6.906   4.328  1.00  0.00    -0.452 OA
ATOM      5  C   UNL     1       6.720   5.039   3.172  1.00  0.00     0.239 A 
ATOM      6  C   UNL     1       5.906   6.236   5.109  1.00  0.00     0.146 A 
ATOM      7  O   UNL     1       7.415   4.131   2.650  1.00  0.00    -0.285 OA
ATOM      8  C   UNL     1       6.776   5.265   4.563  1.00  0.00     0.111 A 
ATOM      9  C   UNL     1       5.908   6.494   6.482  1.00  0.00     0.094 A 
ATOM     10  C   UNL     1       7.650   4.561   5.429  1.00  0.00     0.134 A 
ATOM     11  C   UNL     1       6.778   5.801   7.329  1.00  0.00     0.123 A 
ATOM     12  C   UNL     1       7.640   4.836   6.804  1.00  0.00     0.093 A 
BRANCH   3  13
ATOM     13  C   UNL     1       4.011   7.541   2.258  1.00  0.00     0.025 A 
ATOM     14  C   UNL     1       4.253   8.911   2.063  1.00  0.00     0.016 A 
ATOM     15  C   UNL     1       3.340   9.695   1.352  1.00  0.00     0.051 A 
ATOM     16  C   UNL     1       2.166   9.129   0.847  1.00  0.00     0.157 A 
ATOM     17  C   UNL     1       2.818   6.980   1.770  1.00  0.00     0.062 A 
ATOM     18  C   UNL     1       1.897   7.768   1.064  1.00  0.00     0.158 A 
BRANCH  16  19
ATOM     19  O   UNL     1       1.278   9.936   0.135  1.00  0.00    -0.504 OA
ATOM     20  H   UNL     1       1.498  10.892  -0.111  1.00  0.00     0.293 HD
ENDBRANCH  16  19
BRANCH  18  21
ATOM     21  O   UNL     1       0.719   7.202   0.577  1.00  0.00    -0.504 OA
ATOM     22  H   UNL     1       0.453   7.284  -0.397  1.00  0.00     0.293 HD
ENDBRANCH  18  21
ENDBRANCH   3  13
BRANCH  10  23
ATOM     23  O   UNL     1       8.523   3.591   4.933  1.00  0.00    -0.507 OA
ATOM     24  H   UNL     1       9.509   3.781   4.794  1.00  0.00     0.293 HD
ENDBRANCH  10  23
BRANCH  11  25
ATOM     25  O   UNL     1       6.798   6.067   8.697  1.00  0.00    -0.508 OA
ATOM     26  H   UNL     1       7.288   5.462   9.348  1.00  0.00     0.293 HD
ENDBRANCH  11  25
ENDBRANCH   1   2
BRANCH   1  27
ATOM     27  C   UNL     1       6.531   6.468   0.003  1.00  0.00     0.339 C 
ATOM     28  C   UNL     1       7.662   7.316   0.670  1.00  0.00     0.214 C 
ATOM     29  O   UNL     1       6.998   5.621  -1.033  1.00  0.00    -0.332 OA
ATOM     30  C   UNL     1       9.050   6.882   0.155  1.00  0.00     0.180 C 
ATOM     31  C   UNL     1       7.732   6.372  -1.983  1.00  0.00     0.179 C 
ATOM     32  C   UNL     1       9.109   6.803  -1.393  1.00  0.00     0.177 C 
BRANCH  28  33
ATOM     33  O   UNL     1       7.461   8.678   0.390  1.00  0.00    -0.384 OA
ATOM     34  H   UNL     1       6.641   8.952   0.881  1.00  0.00     0.211 HD
ENDBRANCH  28  33
BRANCH  30  35
ATOM     35  O   UNL     1      10.070   7.707   0.665  1.00  0.00    -0.387 OA
ATOM     36  H   UNL     1       9.643   8.475   1.126  1.00  0.00     0.211 HD
ENDBRANCH  30  35
BRANCH  31  37
ATOM     37  C   UNL     1       7.868   5.550  -3.274  1.00  0.00     0.191 C 
BRANCH  37  38
ATOM     38  O   UNL     1       6.737   5.720  -4.084  1.00  0.00    -0.394 OA
ATOM     39  H   UNL     1       6.179   6.419  -3.655  1.00  0.00     0.210 HD
ENDBRANCH  37  38
ENDBRANCH  31  37
BRANCH  32  40
ATOM     40  O   UNL     1      10.125   5.903  -1.766  1.00  0.00    -0.387 OA
ATOM     41  H   UNL     1      10.727   6.391  -2.385  1.00  0.00     0.211 HD
ENDBRANCH  32  40
ENDBRANCH   1  27
TORSDOF 12
ENDMDL
