MODEL 1
REMARK VINA RESULT:    -5.348      0.000      0.000
REMARK INTER + INTRA:          -5.881
REMARK INTER:                  -5.817
REMARK INTRA:                  -0.065
REMARK UNBOUND:                -0.065
REMARK SMILES COc1cc2ccc(=O)oc2cc1O
REMARK SMILES IDX 3 1 13 2 12 3 11 4 5 5 4 6 6 7 7 8 8 9 9 10 10 11 2 12 1 13
REMARK SMILES IDX 14 14
REMARK H PARENT 14 15
REMARK Flexibility Score: inf
ROOT
ATOM      1  C   UNL     1      18.949  18.620   7.315  1.00  0.00     0.161 A 
ATOM      2  C   UNL     1      18.362  18.723   8.591  1.00  0.00     0.161 A 
ATOM      3  C   UNL     1      19.151  18.600   9.741  1.00  0.00     0.098 A 
ATOM      4  C   UNL     1      20.525  18.372   9.637  1.00  0.00     0.142 A 
ATOM      5  C   UNL     1      21.121  18.265   8.363  1.00  0.00     0.022 A 
ATOM      6  C   UNL     1      20.336  18.390   7.208  1.00  0.00     0.062 A 
ATOM      7  C   UNL     1      22.500  18.037   8.290  1.00  0.00     0.019 A 
ATOM      8  C   UNL     1      23.237  17.921   9.467  1.00  0.00     0.094 A 
ATOM      9  C   UNL     1      22.577  18.037  10.695  1.00  0.00     0.336 A 
ATOM     10  O   UNL     1      23.225  17.936  11.769  1.00  0.00    -0.246 OA
ATOM     11  O   UNL     1      21.265  18.255  10.736  1.00  0.00    -0.423 OA
ENDROOT
BRANCH   1  12
ATOM     12  O   UNL     1      18.130  18.749   6.182  1.00  0.00    -0.493 OA
ATOM     13  C   UNL     1      17.577  17.656   5.454  1.00  0.00     0.278 C 
ENDBRANCH   1  12
BRANCH   2  14
ATOM     14  O   UNL     1      16.995  18.951   8.737  1.00  0.00    -0.504 OA
ATOM     15  H   UNL     1      16.615  19.491   9.506  1.00  0.00     0.293 HD
ENDBRANCH   2  14
TORSDOF 2
ENDMDL
MODEL 2
REMARK VINA RESULT:    -5.339      1.427      5.367
REMARK INTER + INTRA:          -5.872
REMARK INTER:                  -5.829
REMARK INTRA:                  -0.043
REMARK UNBOUND:                -0.065
REMARK SMILES COc1cc2ccc(=O)oc2cc1O
REMARK SMILES IDX 3 1 13 2 12 3 11 4 5 5 4 6 6 7 7 8 8 9 9 10 10 11 2 12 1 13
REMARK SMILES IDX 14 14
REMARK H PARENT 14 15
REMARK Flexibility Score: inf
ROOT
ATOM      1  C   UNL     1      22.165  17.941   9.480  1.00  0.00     0.161 A 
ATOM      2  C   UNL     1      22.450  17.845   8.104  1.00  0.00     0.161 A 
ATOM      3  C   UNL     1      21.442  18.067   7.158  1.00  0.00     0.098 A 
ATOM      4  C   UNL     1      20.144  18.384   7.567  1.00  0.00     0.142 A 
ATOM      5  C   UNL     1      19.849  18.480   8.943  1.00  0.00     0.022 A 
ATOM      6  C   UNL     1      20.855  18.260   9.894  1.00  0.00     0.062 A 
ATOM      7  C   UNL     1      18.540  18.799   9.322  1.00  0.00     0.019 A 
ATOM      8  C   UNL     1      17.575  19.010   8.339  1.00  0.00     0.094 A 
ATOM      9  C   UNL     1      17.941  18.897   6.994  1.00  0.00     0.336 A 
ATOM     10  O   UNL     1      17.085  19.082   6.091  1.00  0.00    -0.246 OA
ATOM     11  O   UNL     1      19.193  18.592   6.661  1.00  0.00    -0.423 OA
ENDROOT
BRANCH   1  12
ATOM     12  O   UNL     1      23.198  17.712  10.402  1.00  0.00    -0.493 OA
ATOM     13  C   UNL     1      23.088  17.912  11.807  1.00  0.00     0.278 C 
ENDBRANCH   1  12
BRANCH   2  14
ATOM     14  O   UNL     1      23.732  17.532   7.656  1.00  0.00    -0.504 OA
ATOM     15  H   UNL     1      24.245  18.133   7.022  1.00  0.00     0.293 HD
ENDBRANCH   2  14
TORSDOF 2
ENDMDL
MODEL 3
REMARK VINA RESULT:    -5.101      2.172      3.373
REMARK INTER + INTRA:          -5.613
REMARK INTER:                  -5.569
REMARK INTRA:                  -0.045
REMARK UNBOUND:                -0.065
REMARK SMILES COc1cc2ccc(=O)oc2cc1O
REMARK SMILES IDX 3 1 13 2 12 3 11 4 5 5 4 6 6 7 7 8 8 9 9 10 10 11 2 12 1 13
REMARK SMILES IDX 14 14
REMARK H PARENT 14 15
REMARK Flexibility Score: inf
ROOT
ATOM      1  C   UNL     1      21.479  18.051   6.024  1.00  0.00     0.161 A 
ATOM      2  C   UNL     1      22.858  17.772   6.102  1.00  0.00     0.161 A 
ATOM      3  C   UNL     1      23.486  17.671   7.349  1.00  0.00     0.098 A 
ATOM      4  C   UNL     1      22.756  17.846   8.527  1.00  0.00     0.142 A 
ATOM      5  C   UNL     1      21.375  18.126   8.458  1.00  0.00     0.022 A 
ATOM      6  C   UNL     1      20.741  18.227   7.212  1.00  0.00     0.062 A 
ATOM      7  C   UNL     1      20.670  18.296   9.655  1.00  0.00     0.019 A 
ATOM      8  C   UNL     1      21.346  18.185  10.869  1.00  0.00     0.094 A 
ATOM      9  C   UNL     1      22.716  17.905  10.859  1.00  0.00     0.336 A 
ATOM     10  O   UNL     1      23.345  17.801  11.944  1.00  0.00    -0.246 OA
ATOM     11  O   UNL     1      23.363  17.748   9.706  1.00  0.00    -0.423 OA
ENDROOT
BRANCH   1  12
ATOM     12  O   UNL     1      20.880  18.146   4.758  1.00  0.00    -0.493 OA
ATOM     13  C   UNL     1      19.501  17.902   4.495  1.00  0.00     0.278 C 
ENDBRANCH   1  12
BRANCH   2  14
ATOM     14  O   UNL     1      23.621  17.591   4.950  1.00  0.00    -0.504 OA
ATOM     15  H   UNL     1      24.536  18.009   4.836  1.00  0.00     0.293 HD
ENDBRANCH   2  14
TORSDOF 2
ENDMDL
MODEL 4
REMARK VINA RESULT:    -4.977      2.700      4.739
REMARK INTER + INTRA:          -5.478
REMARK INTER:                  -5.421
REMARK INTRA:                  -0.057
REMARK UNBOUND:                -0.065
REMARK SMILES COc1cc2ccc(=O)oc2cc1O
REMARK SMILES IDX 3 1 13 2 12 3 11 4 5 5 4 6 6 7 7 8 8 9 9 10 10 11 2 12 1 13
REMARK SMILES IDX 14 14
REMARK H PARENT 14 15
REMARK Flexibility Score: inf
ROOT
ATOM      1  C   UNL     1      20.980  16.166  10.550  1.00  0.00     0.161 A 
ATOM      2  C   UNL     1      22.196  16.788  10.891  1.00  0.00     0.161 A 
ATOM      3  C   UNL     1      22.826  17.649   9.985  1.00  0.00     0.098 A 
ATOM      4  C   UNL     1      22.258  17.899   8.733  1.00  0.00     0.142 A 
ATOM      5  C   UNL     1      21.040  17.279   8.382  1.00  0.00     0.022 A 
ATOM      6  C   UNL     1      20.405  16.418   9.287  1.00  0.00     0.062 A 
ATOM      7  C   UNL     1      20.495  17.550   7.122  1.00  0.00     0.019 A 
ATOM      8  C   UNL     1      21.165  18.414   6.258  1.00  0.00     0.094 A 
ATOM      9  C   UNL     1      22.369  18.991   6.675  1.00  0.00     0.336 A 
ATOM     10  O   UNL     1      22.989  19.774   5.909  1.00  0.00    -0.246 OA
ATOM     11  O   UNL     1      22.866  18.717   7.879  1.00  0.00    -0.423 OA
ENDROOT
BRANCH   1  12
ATOM     12  O   UNL     1      20.374  15.309  11.482  1.00  0.00    -0.493 OA
ATOM     13  C   UNL     1      20.582  13.901  11.542  1.00  0.00     0.278 C 
ENDBRANCH   1  12
BRANCH   2  14
ATOM     14  O   UNL     1      22.795  16.564  12.130  1.00  0.00    -0.504 OA
ATOM     15  H   UNL     1      23.153  17.319  12.702  1.00  0.00     0.293 HD
ENDBRANCH   2  14
TORSDOF 2
ENDMDL
MODEL 5
REMARK VINA RESULT:    -4.975      1.321      5.041
REMARK INTER + INTRA:          -5.475
REMARK INTER:                  -5.467
REMARK INTRA:                  -0.008
REMARK UNBOUND:                -0.065
REMARK SMILES COc1cc2ccc(=O)oc2cc1O
REMARK SMILES IDX 3 1 13 2 12 3 11 4 5 5 4 6 6 7 7 8 8 9 9 10 10 11 2 12 1 13
REMARK SMILES IDX 14 14
REMARK H PARENT 14 15
REMARK Flexibility Score: inf
ROOT
ATOM      1  C   UNL     1      20.889  17.781   8.658  1.00  0.00     0.161 A 
ATOM      2  C   UNL     1      20.272  18.364   9.782  1.00  0.00     0.161 A 
ATOM      3  C   UNL     1      18.999  18.934   9.669  1.00  0.00     0.098 A 
ATOM      4  C   UNL     1      18.328  18.934   8.444  1.00  0.00     0.142 A 
ATOM      5  C   UNL     1      18.939  18.354   7.313  1.00  0.00     0.022 A 
ATOM      6  C   UNL     1      20.213  17.780   7.421  1.00  0.00     0.062 A 
ATOM      7  C   UNL     1      18.242  18.368   6.100  1.00  0.00     0.019 A 
ATOM      8  C   UNL     1      16.977  18.951   6.044  1.00  0.00     0.094 A 
ATOM      9  C   UNL     1      16.435  19.507   7.206  1.00  0.00     0.336 A 
ATOM     10  O   UNL     1      15.294  20.038   7.177  1.00  0.00    -0.246 OA
ATOM     11  O   UNL     1      17.119  19.480   8.348  1.00  0.00    -0.423 OA
ENDROOT
BRANCH   1  12
ATOM     12  O   UNL     1      22.167  17.217   8.805  1.00  0.00    -0.493 OA
ATOM     13  C   UNL     1      23.383  17.956   8.798  1.00  0.00     0.278 C 
ENDBRANCH   1  12
BRANCH   2  14
ATOM     14  O   UNL     1      20.909  18.384  11.022  1.00  0.00    -0.504 OA
ATOM     15  H   UNL     1      20.819  19.163  11.663  1.00  0.00     0.293 HD
ENDBRANCH   2  14
TORSDOF 2
ENDMDL
MODEL 6
REMARK VINA RESULT:    -4.965      1.903      4.562
REMARK INTER + INTRA:          -5.465
REMARK INTER:                  -5.420
REMARK INTRA:                  -0.045
REMARK UNBOUND:                -0.065
REMARK SMILES COc1cc2ccc(=O)oc2cc1O
REMARK SMILES IDX 3 1 13 2 12 3 11 4 5 5 4 6 6 7 7 8 8 9 9 10 10 11 2 12 1 13
REMARK SMILES IDX 14 14
REMARK H PARENT 14 15
REMARK Flexibility Score: inf
ROOT
ATOM      1  C   UNL     1      21.224  18.211  10.057  1.00  0.00     0.161 A 
ATOM      2  C   UNL     1      19.973  18.614   9.552  1.00  0.00     0.161 A 
ATOM      3  C   UNL     1      19.754  18.664   8.170  1.00  0.00     0.098 A 
ATOM      4  C   UNL     1      20.772  18.316   7.279  1.00  0.00     0.142 A 
ATOM      5  C   UNL     1      22.029  17.912   7.775  1.00  0.00     0.022 A 
ATOM      6  C   UNL     1      22.252  17.859   9.158  1.00  0.00     0.062 A 
ATOM      7  C   UNL     1      23.028  17.570   6.858  1.00  0.00     0.019 A 
ATOM      8  C   UNL     1      22.757  17.638   5.493  1.00  0.00     0.094 A 
ATOM      9  C   UNL     1      21.487  18.048   5.074  1.00  0.00     0.336 A 
ATOM     10  O   UNL     1      21.222  18.117   3.845  1.00  0.00    -0.246 OA
ATOM     11  O   UNL     1      20.554  18.368   5.967  1.00  0.00    -0.423 OA
ENDROOT
BRANCH   1  12
ATOM     12  O   UNL     1      21.410  18.172  11.448  1.00  0.00    -0.493 OA
ATOM     13  C   UNL     1      22.659  18.367  12.103  1.00  0.00     0.278 C 
ENDBRANCH   1  12
BRANCH   2  14
ATOM     14  O   UNL     1      18.932  18.969  10.408  1.00  0.00    -0.504 OA
ATOM     15  H   UNL     1      18.897  18.662  11.373  1.00  0.00     0.293 HD
ENDBRANCH   2  14
TORSDOF 2
ENDMDL
MODEL 7
REMARK VINA RESULT:    -4.946      3.377      4.171
REMARK INTER + INTRA:          -5.444
REMARK INTER:                  -5.380
REMARK INTRA:                  -0.064
REMARK UNBOUND:                -0.065
REMARK SMILES COc1cc2ccc(=O)oc2cc1O
REMARK SMILES IDX 3 1 13 2 12 3 11 4 5 5 4 6 6 7 7 8 8 9 9 10 10 11 2 12 1 13
REMARK SMILES IDX 14 14
REMARK H PARENT 14 15
REMARK Flexibility Score: inf
ROOT
ATOM      1  C   UNL     1      22.600  16.387   6.277  1.00  0.00     0.161 A 
ATOM      2  C   UNL     1      23.238  17.630   6.452  1.00  0.00     0.161 A 
ATOM      3  C   UNL     1      23.259  18.239   7.712  1.00  0.00     0.098 A 
ATOM      4  C   UNL     1      22.649  17.624   8.807  1.00  0.00     0.142 A 
ATOM      5  C   UNL     1      22.006  16.379   8.641  1.00  0.00     0.022 A 
ATOM      6  C   UNL     1      21.983  15.764   7.381  1.00  0.00     0.062 A 
ATOM      7  C   UNL     1      21.403  15.787   9.756  1.00  0.00     0.019 A 
ATOM      8  C   UNL     1      21.454  16.439  10.988  1.00  0.00     0.094 A 
ATOM      9  C   UNL     1      22.108  17.671  11.076  1.00  0.00     0.336 A 
ATOM     10  O   UNL     1      22.165  18.275  12.179  1.00  0.00    -0.246 OA
ATOM     11  O   UNL     1      22.674  18.212  10.000  1.00  0.00    -0.423 OA
ENDROOT
BRANCH   1  12
ATOM     12  O   UNL     1      22.597  15.802   5.000  1.00  0.00    -0.493 OA
ATOM     13  C   UNL     1      23.537  14.832   4.552  1.00  0.00     0.278 C 
ENDBRANCH   1  12
BRANCH   2  14
ATOM     14  O   UNL     1      23.859  18.276   5.384  1.00  0.00    -0.504 OA
ATOM     15  H   UNL     1      24.552  19.002   5.520  1.00  0.00     0.293 HD
ENDBRANCH   2  14
TORSDOF 2
ENDMDL
MODEL 8
REMARK VINA RESULT:    -4.845      1.543      1.883
REMARK INTER + INTRA:          -5.334
REMARK INTER:                  -5.270
REMARK INTRA:                  -0.064
REMARK UNBOUND:                -0.065
REMARK SMILES COc1cc2ccc(=O)oc2cc1O
REMARK SMILES IDX 3 1 13 2 12 3 11 4 5 5 4 6 6 7 7 8 8 9 9 10 10 11 2 12 1 13
REMARK SMILES IDX 14 14
REMARK H PARENT 14 15
REMARK Flexibility Score: inf
ROOT
ATOM      1  C   UNL     1      17.737  18.558   7.703  1.00  0.00     0.161 A 
ATOM      2  C   UNL     1      18.092  19.330   8.826  1.00  0.00     0.161 A 
ATOM      3  C   UNL     1      19.405  19.305   9.311  1.00  0.00     0.098 A 
ATOM      4  C   UNL     1      20.375  18.515   8.689  1.00  0.00     0.142 A 
ATOM      5  C   UNL     1      20.028  17.737   7.565  1.00  0.00     0.022 A 
ATOM      6  C   UNL     1      18.715  17.761   7.074  1.00  0.00     0.062 A 
ATOM      7  C   UNL     1      21.021  16.956   6.963  1.00  0.00     0.019 A 
ATOM      8  C   UNL     1      22.312  16.968   7.488  1.00  0.00     0.094 A 
ATOM      9  C   UNL     1      22.582  17.764   8.606  1.00  0.00     0.336 A 
ATOM     10  O   UNL     1      23.742  17.788   9.095  1.00  0.00    -0.246 OA
ATOM     11  O   UNL     1      21.619  18.497   9.159  1.00  0.00    -0.423 OA
ENDROOT
BRANCH   1  12
ATOM     12  O   UNL     1      16.412  18.607   7.241  1.00  0.00    -0.493 OA
ATOM     13  C   UNL     1      15.399  17.668   7.589  1.00  0.00     0.278 C 
ENDBRANCH   1  12
BRANCH   2  14
ATOM     14  O   UNL     1      17.153  20.132   9.473  1.00  0.00    -0.504 OA
ATOM     15  H   UNL     1      17.323  21.111   9.672  1.00  0.00     0.293 HD
ENDBRANCH   2  14
TORSDOF 2
ENDMDL
MODEL 9
REMARK VINA RESULT:    -4.760      2.462      3.347
REMARK INTER + INTRA:          -5.242
REMARK INTER:                  -5.177
REMARK INTRA:                  -0.065
REMARK UNBOUND:                -0.065
REMARK SMILES COc1cc2ccc(=O)oc2cc1O
REMARK SMILES IDX 3 1 13 2 12 3 11 4 5 5 4 6 6 7 7 8 8 9 9 10 10 11 2 12 1 13
REMARK SMILES IDX 14 14
REMARK H PARENT 14 15
REMARK Flexibility Score: inf
ROOT
ATOM      1  C   UNL     1      17.652  18.692   7.696  1.00  0.00     0.161 A 
ATOM      2  C   UNL     1      18.542  19.095   8.710  1.00  0.00     0.161 A 
ATOM      3  C   UNL     1      19.925  19.032   8.500  1.00  0.00     0.098 A 
ATOM      4  C   UNL     1      20.436  18.568   7.286  1.00  0.00     0.142 A 
ATOM      5  C   UNL     1      19.553  18.161   6.264  1.00  0.00     0.022 A 
ATOM      6  C   UNL     1      18.167  18.224   6.470  1.00  0.00     0.062 A 
ATOM      7  C   UNL     1      20.095  17.701   5.059  1.00  0.00     0.019 A 
ATOM      8  C   UNL     1      21.479  17.658   4.904  1.00  0.00     0.094 A 
ATOM      9  C   UNL     1      22.293  18.078   5.960  1.00  0.00     0.336 A 
ATOM     10  O   UNL     1      23.546  18.047   5.840  1.00  0.00    -0.246 OA
ATOM     11  O   UNL     1      21.752  18.511   7.097  1.00  0.00    -0.423 OA
ENDROOT
BRANCH   1  12
ATOM     12  O   UNL     1      16.271  18.768   7.939  1.00  0.00    -0.493 OA
ATOM     13  C   UNL     1      15.434  19.842   7.522  1.00  0.00     0.278 C 
ENDBRANCH   1  12
BRANCH   2  14
ATOM     14  O   UNL     1      18.071  19.564   9.935  1.00  0.00    -0.504 OA
ATOM     15  H   UNL     1      17.114  19.424  10.236  1.00  0.00     0.293 HD
ENDBRANCH   2  14
TORSDOF 2
ENDMDL
