MODEL 1
REMARK VINA RESULT:    -3.430      0.000      0.000
REMARK INTER + INTRA:          -3.473
REMARK INTER:                  -4.232
REMARK INTRA:                   0.759
REMARK UNBOUND:                 0.759
REMARK SMILES CC1=CC=CC(C)(C)CC1=O
REMARK SMILES IDX 1 1 2 2 3 3 10 4 11 5 9 6 4 8 5 9 6 10 7 11 8 12
REMARK H PARENT
REMARK Flexibility Score: 80.00
ROOT
ATOM      1  C   UNL     1      10.811  32.384 -10.044  1.00  0.00     0.048 C 
ATOM      2  C   UNL     1      10.354  33.436 -11.028  1.00  0.00    -0.008 C 
ATOM      3  C   UNL     1       9.248  34.146 -10.716  1.00  0.00     0.007 C 
ENDROOT
BRANCH   2   4
ATOM      4  C   UNL     1      11.204  33.657 -12.225  1.00  0.00     0.159 C 
ATOM      5  O   UNL     1      12.342  33.115 -12.271  1.00  0.00    -0.295 OA
BRANCH   4   6
ATOM      6  C   UNL     1      10.778  34.485 -13.398  1.00  0.00     0.091 CG0
ATOM      7  G   UNL     1      10.458  35.949 -13.028  1.00  0.00     0.000 G0
ENDBRANCH   4   6
ENDBRANCH   2   4
BRANCH   3   8
ATOM      8  C   UNL     1       8.582  35.243 -11.456  1.00  0.00    -0.003 C 
ATOM      9  C   UNL     1       9.071  36.025 -12.427  1.00  0.00    -0.020 C 
BRANCH   9  10
ATOM     10  C   UNL     1      10.452  35.946 -13.033  1.00  0.00    -0.010 CG0
ATOM     11  C   UNL     1      10.458  36.774 -14.338  1.00  0.00     0.016 C 
ATOM     12  C   UNL     1      11.488  36.567 -12.069  1.00  0.00     0.016 C 
ATOM     13  G   UNL     1      10.779  34.480 -13.393  1.00  0.00     0.000 G0
ENDBRANCH   9  10
ENDBRANCH   3   8
TORSDOF 0
ENDMDL
MODEL 2
REMARK VINA RESULT:    -3.416      1.673      2.874
REMARK INTER + INTRA:          -3.455
REMARK INTER:                  -4.197
REMARK INTRA:                   0.742
REMARK UNBOUND:                 0.759
REMARK SMILES CC1=CC=CC(C)(C)CC1=O
REMARK SMILES IDX 1 1 2 2 3 3 10 4 11 5 9 6 4 8 5 9 6 10 7 11 8 12
REMARK H PARENT
REMARK Flexibility Score: 80.00
ROOT
ATOM      1  C   UNL     1       7.931  34.105 -10.009  1.00  0.00     0.048 C 
ATOM      2  C   UNL     1       9.202  34.123 -10.825  1.00  0.00    -0.008 C 
ATOM      3  C   UNL     1      10.138  33.191 -10.546  1.00  0.00     0.007 C 
ENDROOT
BRANCH   2   4
ATOM      4  C   UNL     1       9.288  35.121 -11.921  1.00  0.00     0.159 C 
ATOM      5  O   UNL     1       8.249  35.761 -12.244  1.00  0.00    -0.295 OA
BRANCH   4   6
ATOM      6  C   UNL     1      10.552  35.425 -12.665  1.00  0.00     0.091 CG0
ATOM      7  G   UNL     1      11.160  34.189 -13.365  1.00  0.00     0.000 G0
ENDBRANCH   4   6
ENDBRANCH   2   4
BRANCH   3   8
ATOM      8  C   UNL     1      11.454  32.944 -11.182  1.00  0.00    -0.003 C 
ATOM      9  C   UNL     1      11.902  33.344 -12.379  1.00  0.00    -0.020 C 
BRANCH   9  10
ATOM     10  C   UNL     1      11.154  34.194 -13.378  1.00  0.00    -0.010 CG0
ATOM     11  C   UNL     1      12.166  34.716 -14.424  1.00  0.00     0.016 C 
ATOM     12  C   UNL     1      10.104  33.335 -14.119  1.00  0.00     0.016 C 
ATOM     13  G   UNL     1      10.530  35.412 -12.663  1.00  0.00     0.000 G0
ENDBRANCH   9  10
ENDBRANCH   3   8
TORSDOF 0
ENDMDL
MODEL 3
REMARK VINA RESULT:    -3.407      1.363      2.071
REMARK INTER + INTRA:          -3.445
REMARK INTER:                  -4.197
REMARK INTRA:                   0.752
REMARK UNBOUND:                 0.759
REMARK SMILES CC1=CC=CC(C)(C)CC1=O
REMARK SMILES IDX 1 1 2 2 3 3 10 4 11 5 9 6 4 8 5 9 6 10 7 11 8 12
REMARK H PARENT
REMARK Flexibility Score: 80.00
ROOT
ATOM      1  C   UNL     1       8.375  34.638 -10.299  1.00  0.00     0.048 C 
ATOM      2  C   UNL     1       9.260  34.849 -11.505  1.00  0.00    -0.008 C 
ATOM      3  C   UNL     1       8.802  35.659 -12.484  1.00  0.00     0.007 C 
ENDROOT
BRANCH   2   4
ATOM      4  C   UNL     1      10.598  34.207 -11.482  1.00  0.00     0.159 C 
ATOM      5  O   UNL     1      10.999  33.674 -10.410  1.00  0.00    -0.295 OA
BRANCH   4   6
ATOM      6  C   UNL     1      11.504  34.142 -12.673  1.00  0.00     0.091 CG0
ATOM      7  G   UNL     1      11.873  35.533 -13.235  1.00  0.00     0.000 G0
ENDBRANCH   4   6
ENDBRANCH   2   4
BRANCH   3   8
ATOM      8  C   UNL     1       9.442  36.072 -13.754  1.00  0.00    -0.003 C 
ATOM      9  C   UNL     1      10.736  36.034 -14.099  1.00  0.00    -0.020 C 
BRANCH   9  10
ATOM     10  C   UNL     1      11.875  35.517 -13.254  1.00  0.00    -0.010 CG0
ATOM     11  C   UNL     1      13.107  35.319 -14.167  1.00  0.00     0.016 C 
ATOM     12  C   UNL     1      12.245  36.558 -12.173  1.00  0.00     0.016 C 
ATOM     13  G   UNL     1      11.497  34.145 -12.654  1.00  0.00     0.000 G0
ENDBRANCH   9  10
ENDBRANCH   3   8
TORSDOF 0
ENDMDL
MODEL 4
REMARK VINA RESULT:    -3.282      2.030      4.080
REMARK INTER + INTRA:          -3.290
REMARK INTER:                  -4.054
REMARK INTRA:                   0.764
REMARK UNBOUND:                 0.759
REMARK SMILES CC1=CC=CC(C)(C)CC1=O
REMARK SMILES IDX 1 1 2 2 3 3 10 4 11 5 9 6 4 8 5 9 6 10 7 11 8 12
REMARK H PARENT
REMARK Flexibility Score: 80.00
ROOT
ATOM      1  C   UNL     1      11.757  37.938 -15.426  1.00  0.00     0.048 C 
ATOM      2  C   UNL     1      11.133  36.764 -14.706  1.00  0.00    -0.008 C 
ATOM      3  C   UNL     1      11.561  35.527 -15.040  1.00  0.00     0.007 C 
ENDROOT
BRANCH   2   4
ATOM      4  C   UNL     1      10.153  37.072 -13.635  1.00  0.00     0.159 C 
ATOM      5  O   UNL     1      10.021  38.268 -13.256  1.00  0.00    -0.295 OA
BRANCH   4   6
ATOM      6  C   UNL     1       9.292  36.035 -12.980  1.00  0.00     0.091 CG0
ATOM      7  G   UNL     1      10.104  34.912 -12.298  1.00  0.00     0.000 G0
ENDBRANCH   4   6
ENDBRANCH   2   4
BRANCH   3   8
ATOM      8  C   UNL     1      11.163  34.206 -14.500  1.00  0.00    -0.003 C 
ATOM      9  C   UNL     1      10.559  33.915 -13.340  1.00  0.00    -0.020 C 
BRANCH   9  10
ATOM     10  C   UNL     1      10.102  34.903 -12.293  1.00  0.00    -0.010 CG0
ATOM     11  C   UNL     1       9.165  34.167 -11.308  1.00  0.00     0.016 C 
ATOM     12  C   UNL     1      11.319  35.425 -11.495  1.00  0.00     0.016 C 
ATOM     13  G   UNL     1       9.299  36.038 -12.964  1.00  0.00     0.000 G0
ENDBRANCH   9  10
ENDBRANCH   3   8
TORSDOF 0
ENDMDL
MODEL 5
REMARK VINA RESULT:    -3.259      2.162      3.980
REMARK INTER + INTRA:          -3.262
REMARK INTER:                  -4.016
REMARK INTRA:                   0.754
REMARK UNBOUND:                 0.759
REMARK SMILES CC1=CC=CC(C)(C)CC1=O
REMARK SMILES IDX 1 1 2 2 3 3 10 4 11 5 9 6 4 8 5 9 6 10 7 11 8 12
REMARK H PARENT
REMARK Flexibility Score: 80.00
ROOT
ATOM      1  C   UNL     1      10.108  39.198 -14.670  1.00  0.00     0.048 C 
ATOM      2  C   UNL     1      10.254  37.873 -13.957  1.00  0.00    -0.008 C 
ATOM      3  C   UNL     1       9.160  37.085 -13.873  1.00  0.00     0.007 C 
ENDROOT
BRANCH   2   4
ATOM      4  C   UNL     1      11.609  37.512 -13.472  1.00  0.00     0.159 C 
ATOM      5  O   UNL     1      12.594  38.208 -13.844  1.00  0.00    -0.295 OA
BRANCH   4   6
ATOM      6  C   UNL     1      11.877  36.365 -12.546  1.00  0.00     0.091 CG0
ATOM      7  G   UNL     1      11.436  35.001 -13.122  1.00  0.00     0.000 G0
ENDBRANCH   4   6
ENDBRANCH   2   4
BRANCH   3   8
ATOM      8  C   UNL     1       9.001  35.742 -13.268  1.00  0.00    -0.003 C 
ATOM      9  C   UNL     1       9.940  34.840 -12.954  1.00  0.00    -0.020 C 
BRANCH   9  10
ATOM     10  C   UNL     1      11.432  35.003 -13.121  1.00  0.00    -0.010 CG0
ATOM     11  C   UNL     1      12.136  33.897 -12.303  1.00  0.00     0.016 C 
ATOM     12  C   UNL     1      11.819  34.817 -14.606  1.00  0.00     0.016 C 
ATOM     13  G   UNL     1      11.873  36.372 -12.558  1.00  0.00     0.000 G0
ENDBRANCH   9  10
ENDBRANCH   3   8
TORSDOF 0
ENDMDL
MODEL 6
REMARK VINA RESULT:    -3.252      2.032      3.931
REMARK INTER + INTRA:          -3.253
REMARK INTER:                  -4.002
REMARK INTRA:                   0.749
REMARK UNBOUND:                 0.759
REMARK SMILES CC1=CC=CC(C)(C)CC1=O
REMARK SMILES IDX 1 1 2 2 3 3 10 4 11 5 9 6 4 8 5 9 6 10 7 11 8 12
REMARK H PARENT
REMARK Flexibility Score: 80.00
ROOT
ATOM      1  C   UNL     1      10.007  38.737 -13.803  1.00  0.00     0.048 C 
ATOM      2  C   UNL     1      10.426  37.318 -13.497  1.00  0.00    -0.008 C 
ATOM      3  C   UNL     1      11.644  37.132 -12.942  1.00  0.00     0.007 C 
ENDROOT
BRANCH   2   4
ATOM      4  C   UNL     1       9.433  36.247 -13.762  1.00  0.00     0.159 C 
ATOM      5  O   UNL     1       8.242  36.573 -14.024  1.00  0.00    -0.295 OA
BRANCH   4   6
ATOM      6  C   UNL     1       9.769  34.788 -13.750  1.00  0.00     0.091 CG0
ATOM      7  G   UNL     1      10.311  34.298 -12.389  1.00  0.00     0.000 G0
ENDBRANCH   4   6
ENDBRANCH   2   4
BRANCH   3   8
ATOM      8  C   UNL     1      12.311  35.880 -12.512  1.00  0.00    -0.003 C 
ATOM      9  C   UNL     1      11.773  34.679 -12.262  1.00  0.00    -0.020 C 
BRANCH   9  10
ATOM     10  C   UNL     1      10.317  34.303 -12.393  1.00  0.00    -0.010 CG0
ATOM     11  C   UNL     1      10.209  32.761 -12.369  1.00  0.00     0.016 C 
ATOM     12  C   UNL     1       9.519  34.855 -11.189  1.00  0.00     0.016 C 
ATOM     13  G   UNL     1       9.770  34.803 -13.749  1.00  0.00     0.000 G0
ENDBRANCH   9  10
ENDBRANCH   3   8
TORSDOF 0
ENDMDL
MODEL 7
REMARK VINA RESULT:    -3.247      1.526      3.534
REMARK INTER + INTRA:          -3.247
REMARK INTER:                  -4.011
REMARK INTRA:                   0.764
REMARK UNBOUND:                 0.759
REMARK SMILES CC1=CC=CC(C)(C)CC1=O
REMARK SMILES IDX 1 1 2 2 3 3 10 4 11 5 9 6 4 8 5 9 6 10 7 11 8 12
REMARK H PARENT
REMARK Flexibility Score: 80.00
ROOT
ATOM      1  C   UNL     1       8.877  36.310 -13.829  1.00  0.00     0.048 C 
ATOM      2  C   UNL     1       9.434  35.386 -12.771  1.00  0.00    -0.008 C 
ATOM      3  C   UNL     1       8.748  35.274 -11.613  1.00  0.00     0.007 C 
ENDROOT
BRANCH   2   4
ATOM      4  C   UNL     1      10.654  34.617 -13.121  1.00  0.00     0.159 C 
ATOM      5  O   UNL     1      11.045  34.608 -14.321  1.00  0.00    -0.295 OA
BRANCH   4   6
ATOM      6  C   UNL     1      11.464  33.852 -12.120  1.00  0.00     0.091 CG0
ATOM      7  G   UNL     1      10.660  32.748 -11.400  1.00  0.00     0.000 G0
ENDBRANCH   4   6
ENDBRANCH   2   4
BRANCH   3   8
ATOM      8  C   UNL     1       9.026  34.442 -10.420  1.00  0.00    -0.003 C 
ATOM      9  C   UNL     1       9.816  33.366 -10.306  1.00  0.00    -0.020 C 
BRANCH   9  10
ATOM     10  C   UNL     1      10.656  32.750 -11.399  1.00  0.00    -0.010 CG0
ATOM     11  C   UNL     1      11.660  31.772 -10.747  1.00  0.00     0.016 C 
ATOM     12  C   UNL     1       9.758  31.939 -12.362  1.00  0.00     0.016 C 
ATOM     13  G   UNL     1      11.460  33.853 -12.122  1.00  0.00     0.000 G0
ENDBRANCH   9  10
ENDBRANCH   3   8
TORSDOF 0
ENDMDL
MODEL 8
REMARK VINA RESULT:    -3.139     16.849     17.927
REMARK INTER + INTRA:          -3.113
REMARK INTER:                  -3.863
REMARK INTRA:                   0.750
REMARK UNBOUND:                 0.759
REMARK SMILES CC1=CC=CC(C)(C)CC1=O
REMARK SMILES IDX 1 1 2 2 3 3 10 4 11 5 9 6 4 8 5 9 6 10 7 11 8 12
REMARK H PARENT
REMARK Flexibility Score: 80.00
ROOT
ATOM      1  C   UNL     1      -4.659  26.701 -16.405  1.00  0.00     0.048 C 
ATOM      2  C   UNL     1      -4.038  25.831 -15.338  1.00  0.00    -0.008 C 
ATOM      3  C   UNL     1      -2.737  26.040 -15.039  1.00  0.00     0.007 C 
ENDROOT
BRANCH   2   4
ATOM      4  C   UNL     1      -4.930  24.865 -14.649  1.00  0.00     0.159 C 
ATOM      5  O   UNL     1      -6.177  24.960 -14.821  1.00  0.00    -0.295 OA
BRANCH   4   6
ATOM      6  C   UNL     1      -4.431  23.766 -13.763  1.00  0.00     0.091 CG0
ATOM      7  G   UNL     1      -3.620  24.279 -12.553  1.00  0.00     0.000 G0
ENDBRANCH   4   6
ENDBRANCH   2   4
BRANCH   3   8
ATOM      8  C   UNL     1      -1.873  25.374 -14.036  1.00  0.00    -0.003 C 
ATOM      9  C   UNL     1      -2.226  24.639 -12.973  1.00  0.00    -0.020 C 
BRANCH   9  10
ATOM     10  C   UNL     1      -3.632  24.283 -12.554  1.00  0.00    -0.010 CG0
ATOM     11  C   UNL     1      -3.555  23.132 -11.525  1.00  0.00     0.016 C 
ATOM     12  C   UNL     1      -4.300  25.495 -11.865  1.00  0.00     0.016 C 
ATOM     13  G   UNL     1      -4.429  23.781 -13.779  1.00  0.00     0.000 G0
ENDBRANCH   9  10
ENDBRANCH   3   8
TORSDOF 0
ENDMDL
MODEL 9
REMARK VINA RESULT:    -3.059      2.799      4.661
REMARK INTER + INTRA:          -3.016
REMARK INTER:                  -3.772
REMARK INTRA:                   0.756
REMARK UNBOUND:                 0.759
REMARK SMILES CC1=CC=CC(C)(C)CC1=O
REMARK SMILES IDX 1 1 2 2 3 3 10 4 11 5 9 6 4 8 5 9 6 10 7 11 8 12
REMARK H PARENT
REMARK Flexibility Score: 80.00
ROOT
ATOM      1  C   UNL     1       8.570  34.934 -10.786  1.00  0.00     0.048 C 
ATOM      2  C   UNL     1       9.113  33.577 -10.405  1.00  0.00    -0.008 C 
ATOM      3  C   UNL     1       8.246  32.679  -9.889  1.00  0.00     0.007 C 
ENDROOT
BRANCH   2   4
ATOM      4  C   UNL     1      10.544  33.314 -10.699  1.00  0.00     0.159 C 
ATOM      5  O   UNL     1      11.172  34.124 -11.436  1.00  0.00    -0.295 OA
BRANCH   4   6
ATOM      6  C   UNL     1      11.297  32.139 -10.156  1.00  0.00     0.091 CG0
ATOM      7  G   UNL     1      10.698  30.781 -10.583  1.00  0.00     0.000 G0
ENDBRANCH   4   6
ENDBRANCH   2   4
BRANCH   3   8
ATOM      8  C   UNL     1       8.472  31.281  -9.452  1.00  0.00    -0.003 C 
ATOM      9  C   UNL     1       9.489  30.459  -9.744  1.00  0.00    -0.020 C 
BRANCH   9  10
ATOM     10  C   UNL     1      10.695  30.789 -10.592  1.00  0.00    -0.010 CG0
ATOM     11  C   UNL     1      11.768  29.703 -10.352  1.00  0.00     0.016 C 
ATOM     12  C   UNL     1      10.312  30.758 -12.089  1.00  0.00     0.016 C 
ATOM     13  G   UNL     1      11.281  32.150 -10.155  1.00  0.00     0.000 G0
ENDBRANCH   9  10
ENDBRANCH   3   8
TORSDOF 0
ENDMDL
