MODEL 1
REMARK VINA RESULT:    -7.107      0.000      0.000
REMARK INTER + INTRA:          -8.447
REMARK INTER:                  -8.769
REMARK INTRA:                   0.321
REMARK UNBOUND:                 0.321
REMARK SMILES O=c1c(O)c(-c2cc(O)c(O)c(O)c2)oc2cc(O)cc(O)c12
REMARK SMILES IDX 5 1 3 2 2 3 1 4 23 5 21 6 20 7 18 8 17 9 16 10 15 11 6 12
REMARK SMILES IDX 7 13 8 14 14 15 10 16 12 17 9 18 11 20 13 22 4 24 22 26
REMARK SMILES IDX 19 28
REMARK H PARENT 9 19 11 21 13 23 4 25 22 27 19 29
REMARK Flexibility Score: inf
ROOT
ATOM      1  C   UNL     1      26.853  13.687  77.944  1.00  0.00     0.180 A 
ATOM      2  C   UNL     1      28.150  13.390  78.398  1.00  0.00     0.208 A 
ATOM      3  C   UNL     1      28.659  14.084  79.507  1.00  0.00     0.238 A 
ATOM      4  O   UNL     1      29.799  13.776  79.942  1.00  0.00    -0.285 OA
ATOM      5  C   UNL     1      27.872  15.077  80.138  1.00  0.00     0.111 A 
ATOM      6  C   UNL     1      28.302  15.871  81.244  1.00  0.00     0.134 A 
ATOM      7  C   UNL     1      27.394  16.733  81.870  1.00  0.00     0.093 A 
ATOM      8  C   UNL     1      26.090  16.878  81.391  1.00  0.00     0.123 A 
ATOM      9  C   UNL     1      25.678  16.152  80.275  1.00  0.00     0.094 A 
ATOM     10  C   UNL     1      26.551  15.257  79.651  1.00  0.00     0.146 A 
ATOM     11  O   UNL     1      26.116  14.578  78.597  1.00  0.00    -0.452 OA
ENDROOT
BRANCH   1  12
ATOM     12  C   UNL     1      26.258  13.016  76.765  1.00  0.00     0.029 A 
ATOM     13  C   UNL     1      25.278  13.681  76.014  1.00  0.00     0.062 A 
ATOM     14  C   UNL     1      24.713  13.080  74.885  1.00  0.00     0.162 A 
ATOM     15  C   UNL     1      26.695  11.748  76.349  1.00  0.00     0.062 A 
ATOM     16  C   UNL     1      25.138  11.802  74.483  1.00  0.00     0.200 A 
ATOM     17  C   UNL     1      26.136  11.138  75.217  1.00  0.00     0.162 A 
BRANCH  14  18
ATOM     18  O   UNL     1      23.731  13.769  74.173  1.00  0.00    -0.504 OA
ATOM     19  H   UNL     1      23.004  13.290  73.656  1.00  0.00     0.293 HD
ENDBRANCH  14  18
BRANCH  16  20
ATOM     20  O   UNL     1      24.567  11.208  73.358  1.00  0.00    -0.502 OA
ATOM     21  H   UNL     1      24.350  10.219  73.321  1.00  0.00     0.293 HD
ENDBRANCH  16  20
BRANCH  17  22
ATOM     22  O   UNL     1      26.572   9.875  74.816  1.00  0.00    -0.504 OA
ATOM     23  H   UNL     1      27.204   9.326  75.386  1.00  0.00     0.293 HD
ENDBRANCH  17  22
ENDBRANCH   1  12
BRANCH   2  24
ATOM     24  O   UNL     1      28.901  12.391  77.774  1.00  0.00    -0.502 OA
ATOM     25  H   UNL     1      29.766  12.035  78.165  1.00  0.00     0.293 HD
ENDBRANCH   2  24
BRANCH   6  26
ATOM     26  O   UNL     1      29.608  15.871  81.744  1.00  0.00    -0.507 OA
ATOM     27  H   UNL     1      30.433  15.673  81.196  1.00  0.00     0.293 HD
ENDBRANCH   6  26
BRANCH   8  28
ATOM     28  O   UNL     1      25.197  17.748  82.011  1.00  0.00    -0.508 OA
ATOM     29  H   UNL     1      25.149  17.828  83.020  1.00  0.00     0.293 HD
ENDBRANCH   8  28
TORSDOF 7
ENDMDL
MODEL 2
REMARK VINA RESULT:    -7.090      0.059      1.756
REMARK INTER + INTRA:          -8.427
REMARK INTER:                  -8.783
REMARK INTRA:                   0.356
REMARK UNBOUND:                 0.321
REMARK SMILES O=c1c(O)c(-c2cc(O)c(O)c(O)c2)oc2cc(O)cc(O)c12
REMARK SMILES IDX 5 1 3 2 2 3 1 4 23 5 21 6 20 7 18 8 17 9 16 10 15 11 6 12
REMARK SMILES IDX 7 13 8 14 14 15 10 16 12 17 9 18 11 20 13 22 4 24 22 26
REMARK SMILES IDX 19 28
REMARK H PARENT 9 19 11 21 13 23 4 25 22 27 19 29
REMARK Flexibility Score: inf
ROOT
ATOM      1  C   UNL     1      26.849  13.729  77.948  1.00  0.00     0.180 A 
ATOM      2  C   UNL     1      28.135  13.402  78.412  1.00  0.00     0.208 A 
ATOM      3  C   UNL     1      28.644  14.072  79.536  1.00  0.00     0.238 A 
ATOM      4  O   UNL     1      29.773  13.737  79.979  1.00  0.00    -0.285 OA
ATOM      5  C   UNL     1      27.869  15.072  80.171  1.00  0.00     0.111 A 
ATOM      6  C   UNL     1      28.301  15.843  81.292  1.00  0.00     0.134 A 
ATOM      7  C   UNL     1      27.401  16.713  81.919  1.00  0.00     0.093 A 
ATOM      8  C   UNL     1      26.106  16.889  81.427  1.00  0.00     0.123 A 
ATOM      9  C   UNL     1      25.693  16.185  80.298  1.00  0.00     0.094 A 
ATOM     10  C   UNL     1      26.556  15.282  79.671  1.00  0.00     0.146 A 
ATOM     11  O   UNL     1      26.121  14.625  78.604  1.00  0.00    -0.452 OA
ENDROOT
BRANCH   1  12
ATOM     12  C   UNL     1      26.255  13.084  76.754  1.00  0.00     0.029 A 
ATOM     13  C   UNL     1      26.669  11.794  76.388  1.00  0.00     0.062 A 
ATOM     14  C   UNL     1      26.112  11.152  75.278  1.00  0.00     0.162 A 
ATOM     15  C   UNL     1      25.241  13.712  76.012  1.00  0.00     0.062 A 
ATOM     16  C   UNL     1      25.113  11.793  74.526  1.00  0.00     0.200 A 
ATOM     17  C   UNL     1      24.675  13.076  74.898  1.00  0.00     0.162 A 
BRANCH  14  18
ATOM     18  O   UNL     1      26.562   9.876  74.939  1.00  0.00    -0.504 OA
ATOM     19  H   UNL     1      27.420   9.490  75.313  1.00  0.00     0.293 HD
ENDBRANCH  14  18
BRANCH  16  20
ATOM     20  O   UNL     1      24.564  11.147  73.418  1.00  0.00    -0.502 OA
ATOM     21  H   UNL     1      23.806  11.550  72.878  1.00  0.00     0.293 HD
ENDBRANCH  16  20
BRANCH  17  22
ATOM     22  O   UNL     1      23.674  13.712  74.164  1.00  0.00    -0.504 OA
ATOM     23  H   UNL     1      22.755  13.882  74.555  1.00  0.00     0.293 HD
ENDBRANCH  17  22
ENDBRANCH   1  12
BRANCH   2  24
ATOM     24  O   UNL     1      28.874  12.397  77.783  1.00  0.00    -0.502 OA
ATOM     25  H   UNL     1      28.452  11.538  77.449  1.00  0.00     0.293 HD
ENDBRANCH   2  24
BRANCH   6  26
ATOM     26  O   UNL     1      29.600  15.812  81.805  1.00  0.00    -0.507 OA
ATOM     27  H   UNL     1      30.418  15.533  81.284  1.00  0.00     0.293 HD
ENDBRANCH   6  26
BRANCH   8  28
ATOM     28  O   UNL     1      25.222  17.768  82.049  1.00  0.00    -0.508 OA
ATOM     29  H   UNL     1      25.520  18.683  82.366  1.00  0.00     0.293 HD
ENDBRANCH   8  28
TORSDOF 7
ENDMDL
MODEL 3
REMARK VINA RESULT:    -6.934      1.492      3.742
REMARK INTER + INTRA:          -8.235
REMARK INTER:                  -8.547
REMARK INTRA:                   0.313
REMARK UNBOUND:                 0.321
REMARK SMILES O=c1c(O)c(-c2cc(O)c(O)c(O)c2)oc2cc(O)cc(O)c12
REMARK SMILES IDX 5 1 3 2 2 3 1 4 23 5 21 6 20 7 18 8 17 9 16 10 15 11 6 12
REMARK SMILES IDX 7 13 8 14 14 15 10 16 12 17 9 18 11 20 13 22 4 24 22 26
REMARK SMILES IDX 19 28
REMARK H PARENT 9 19 11 21 13 23 4 25 22 27 19 29
REMARK Flexibility Score: inf
ROOT
ATOM      1  C   UNL     1      27.027  13.476  77.591  1.00  0.00     0.180 A 
ATOM      2  C   UNL     1      26.581  14.475  78.475  1.00  0.00     0.208 A 
ATOM      3  C   UNL     1      27.419  14.876  79.527  1.00  0.00     0.238 A 
ATOM      4  O   UNL     1      27.036  15.808  80.282  1.00  0.00    -0.285 OA
ATOM      5  C   UNL     1      28.684  14.264  79.693  1.00  0.00     0.111 A 
ATOM      6  C   UNL     1      29.598  14.564  80.749  1.00  0.00     0.134 A 
ATOM      7  C   UNL     1      30.875  13.990  80.740  1.00  0.00     0.093 A 
ATOM      8  C   UNL     1      31.248  13.078  79.751  1.00  0.00     0.123 A 
ATOM      9  C   UNL     1      30.343  12.733  78.750  1.00  0.00     0.094 A 
ATOM     10  C   UNL     1      29.074  13.316  78.711  1.00  0.00     0.146 A 
ATOM     11  O   UNL     1      28.245  12.967  77.735  1.00  0.00    -0.452 OA
ENDROOT
BRANCH   1  12
ATOM     12  C   UNL     1      26.190  12.982  76.473  1.00  0.00     0.029 A 
ATOM     13  C   UNL     1      26.375  11.675  75.998  1.00  0.00     0.062 A 
ATOM     14  C   UNL     1      25.587  11.175  74.957  1.00  0.00     0.162 A 
ATOM     15  C   UNL     1      25.174  13.775  75.915  1.00  0.00     0.062 A 
ATOM     16  C   UNL     1      24.585  11.979  74.387  1.00  0.00     0.200 A 
ATOM     17  C   UNL     1      24.377  13.282  74.873  1.00  0.00     0.162 A 
BRANCH  14  18
ATOM     18  O   UNL     1      25.812   9.875  74.503  1.00  0.00    -0.504 OA
ATOM     19  H   UNL     1      25.064   9.199  74.413  1.00  0.00     0.293 HD
ENDBRANCH  14  18
BRANCH  16  20
ATOM     20  O   UNL     1      23.804  11.474  73.347  1.00  0.00    -0.502 OA
ATOM     21  H   UNL     1      23.296  10.602  73.429  1.00  0.00     0.293 HD
ENDBRANCH  16  20
BRANCH  17  22
ATOM     22  O   UNL     1      23.375  14.081  74.321  1.00  0.00    -0.504 OA
ATOM     23  H   UNL     1      23.443  14.440  73.377  1.00  0.00     0.293 HD
ENDBRANCH  17  22
ENDBRANCH   1  12
BRANCH   2  24
ATOM     24  O   UNL     1      25.337  15.081  78.279  1.00  0.00    -0.502 OA
ATOM     25  H   UNL     1      25.028  15.408  77.371  1.00  0.00     0.293 HD
ENDBRANCH   2  24
BRANCH   6  26
ATOM     26  O   UNL     1      29.292  15.390  81.834  1.00  0.00    -0.507 OA
ATOM     27  H   UNL     1      28.455  15.948  81.914  1.00  0.00     0.293 HD
ENDBRANCH   6  26
BRANCH   8  28
ATOM     28  O   UNL     1      32.516  12.500  79.758  1.00  0.00    -0.508 OA
ATOM     29  H   UNL     1      33.354  13.062  79.666  1.00  0.00     0.293 HD
ENDBRANCH   8  28
TORSDOF 7
ENDMDL
MODEL 4
REMARK VINA RESULT:    -6.896      1.535      3.332
REMARK INTER + INTRA:          -8.187
REMARK INTER:                  -8.552
REMARK INTRA:                   0.365
REMARK UNBOUND:                 0.321
REMARK SMILES O=c1c(O)c(-c2cc(O)c(O)c(O)c2)oc2cc(O)cc(O)c12
REMARK SMILES IDX 5 1 3 2 2 3 1 4 23 5 21 6 20 7 18 8 17 9 16 10 15 11 6 12
REMARK SMILES IDX 7 13 8 14 14 15 10 16 12 17 9 18 11 20 13 22 4 24 22 26
REMARK SMILES IDX 19 28
REMARK H PARENT 9 19 11 21 13 23 4 25 22 27 19 29
REMARK Flexibility Score: inf
ROOT
ATOM      1  C   UNL     1      26.967  13.410  77.504  1.00  0.00     0.180 A 
ATOM      2  C   UNL     1      26.536  14.428  78.372  1.00  0.00     0.208 A 
ATOM      3  C   UNL     1      27.383  14.838  79.414  1.00  0.00     0.238 A 
ATOM      4  O   UNL     1      27.014  15.787  80.154  1.00  0.00    -0.285 OA
ATOM      5  C   UNL     1      28.642  14.215  79.585  1.00  0.00     0.111 A 
ATOM      6  C   UNL     1      29.564  14.522  80.632  1.00  0.00     0.134 A 
ATOM      7  C   UNL     1      30.835  13.935  80.627  1.00  0.00     0.093 A 
ATOM      8  C   UNL     1      31.194  13.002  79.652  1.00  0.00     0.123 A 
ATOM      9  C   UNL     1      30.280  12.650  78.661  1.00  0.00     0.094 A 
ATOM     10  C   UNL     1      29.018  13.246  78.618  1.00  0.00     0.146 A 
ATOM     11  O   UNL     1      28.181  12.890  77.651  1.00  0.00    -0.452 OA
ENDROOT
BRANCH   1  12
ATOM     12  C   UNL     1      26.120  12.906  76.398  1.00  0.00     0.029 A 
ATOM     13  C   UNL     1      25.140  13.743  75.843  1.00  0.00     0.062 A 
ATOM     14  C   UNL     1      24.339  13.302  74.786  1.00  0.00     0.162 A 
ATOM     15  C   UNL     1      26.315  11.626  75.853  1.00  0.00     0.062 A 
ATOM     16  C   UNL     1      24.523  12.012  74.257  1.00  0.00     0.200 A 
ATOM     17  C   UNL     1      25.518  11.176  74.791  1.00  0.00     0.162 A 
BRANCH  14  18
ATOM     18  O   UNL     1      23.367  14.159  74.271  1.00  0.00    -0.504 OA
ATOM     19  H   UNL     1      22.442  14.232  74.679  1.00  0.00     0.293 HD
ENDBRANCH  14  18
BRANCH  16  20
ATOM     20  O   UNL     1      23.718  11.579  73.204  1.00  0.00    -0.502 OA
ATOM     21  H   UNL     1      23.976  11.717  72.234  1.00  0.00     0.293 HD
ENDBRANCH  16  20
BRANCH  17  22
ATOM     22  O   UNL     1      25.715   9.900  74.262  1.00  0.00    -0.504 OA
ATOM     23  H   UNL     1      25.007   9.180  74.335  1.00  0.00     0.293 HD
ENDBRANCH  17  22
ENDBRANCH   1  12
BRANCH   2  24
ATOM     24  O   UNL     1      25.298  15.044  78.172  1.00  0.00    -0.502 OA
ATOM     25  H   UNL     1      24.875  15.652  78.864  1.00  0.00     0.293 HD
ENDBRANCH   2  24
BRANCH   6  26
ATOM     26  O   UNL     1      29.272  15.370  81.704  1.00  0.00    -0.507 OA
ATOM     27  H   UNL     1      28.386  15.834  81.846  1.00  0.00     0.293 HD
ENDBRANCH   6  26
BRANCH   8  28
ATOM     28  O   UNL     1      32.455  12.411  79.664  1.00  0.00    -0.508 OA
ATOM     29  H   UNL     1      32.989  12.318  80.520  1.00  0.00     0.293 HD
ENDBRANCH   8  28
TORSDOF 7
ENDMDL
MODEL 5
REMARK VINA RESULT:    -6.528      2.227      4.032
REMARK INTER + INTRA:          -7.733
REMARK INTER:                  -7.509
REMARK INTRA:                  -0.224
REMARK UNBOUND:                 0.321
REMARK SMILES O=c1c(O)c(-c2cc(O)c(O)c(O)c2)oc2cc(O)cc(O)c12
REMARK SMILES IDX 5 1 3 2 2 3 1 4 23 5 21 6 20 7 18 8 17 9 16 10 15 11 6 12
REMARK SMILES IDX 7 13 8 14 14 15 10 16 12 17 9 18 11 20 13 22 4 24 22 26
REMARK SMILES IDX 19 28
REMARK H PARENT 9 19 11 21 13 23 4 25 22 27 19 29
REMARK Flexibility Score: inf
ROOT
ATOM      1  C   UNL     1      26.291  12.375  76.363  1.00  0.00     0.180 A 
ATOM      2  C   UNL     1      25.995  13.675  76.807  1.00  0.00     0.208 A 
ATOM      3  C   UNL     1      26.706  14.201  77.897  1.00  0.00     0.238 A 
ATOM      4  O   UNL     1      26.475  15.385  78.255  1.00  0.00    -0.285 OA
ATOM      5  C   UNL     1      27.692  13.415  78.540  1.00  0.00     0.111 A 
ATOM      6  C   UNL     1      28.445  13.831  79.679  1.00  0.00     0.134 A 
ATOM      7  C   UNL     1      29.485  13.022  80.152  1.00  0.00     0.093 A 
ATOM      8  C   UNL     1      29.757  11.783  79.569  1.00  0.00     0.123 A 
ATOM      9  C   UNL     1      28.988  11.340  78.494  1.00  0.00     0.094 A 
ATOM     10  C   UNL     1      27.968  12.141  77.976  1.00  0.00     0.146 A 
ATOM     11  O   UNL     1      27.266  11.687  76.945  1.00  0.00    -0.452 OA
ENDROOT
BRANCH   1  12
ATOM     12  C   UNL     1      25.566  11.743  75.236  1.00  0.00     0.029 A 
ATOM     13  C   UNL     1      26.273  11.372  74.082  1.00  0.00     0.062 A 
ATOM     14  C   UNL     1      25.619  10.756  73.011  1.00  0.00     0.162 A 
ATOM     15  C   UNL     1      24.194  11.453  75.320  1.00  0.00     0.062 A 
ATOM     16  C   UNL     1      24.241  10.487  73.090  1.00  0.00     0.200 A 
ATOM     17  C   UNL     1      23.530  10.834  74.252  1.00  0.00     0.162 A 
BRANCH  14  18
ATOM     18  O   UNL     1      26.354  10.416  71.875  1.00  0.00    -0.504 OA
ATOM     19  H   UNL     1      26.202  10.865  70.980  1.00  0.00     0.293 HD
ENDBRANCH  14  18
BRANCH  16  20
ATOM     20  O   UNL     1      23.596   9.875  72.016  1.00  0.00    -0.502 OA
ATOM     21  H   UNL     1      23.307   8.904  72.042  1.00  0.00     0.293 HD
ENDBRANCH  16  20
BRANCH  17  22
ATOM     22  O   UNL     1      22.166  10.557  74.344  1.00  0.00    -0.504 OA
ATOM     23  H   UNL     1      21.826   9.632  74.576  1.00  0.00     0.293 HD
ENDBRANCH  17  22
ENDBRANCH   1  12
BRANCH   2  24
ATOM     24  O   UNL     1      25.033  14.442  76.144  1.00  0.00    -0.502 OA
ATOM     25  H   UNL     1      24.604  15.259  76.564  1.00  0.00     0.293 HD
ENDBRANCH   2  24
BRANCH   6  26
ATOM     26  O   UNL     1      28.196  15.007  80.392  1.00  0.00    -0.507 OA
ATOM     27  H   UNL     1      28.840  15.780  80.470  1.00  0.00     0.293 HD
ENDBRANCH   6  26
BRANCH   8  28
ATOM     28  O   UNL     1      30.784  10.977  80.055  1.00  0.00    -0.508 OA
ATOM     29  H   UNL     1      31.132  11.077  81.002  1.00  0.00     0.293 HD
ENDBRANCH   8  28
TORSDOF 7
ENDMDL
MODEL 6
REMARK VINA RESULT:    -6.482      1.723      2.446
REMARK INTER + INTRA:          -7.676
REMARK INTER:                  -7.443
REMARK INTRA:                  -0.233
REMARK UNBOUND:                 0.321
REMARK SMILES O=c1c(O)c(-c2cc(O)c(O)c(O)c2)oc2cc(O)cc(O)c12
REMARK SMILES IDX 5 1 3 2 2 3 1 4 23 5 21 6 20 7 18 8 17 9 16 10 15 11 6 12
REMARK SMILES IDX 7 13 8 14 14 15 10 16 12 17 9 18 11 20 13 22 4 24 22 26
REMARK SMILES IDX 19 28
REMARK H PARENT 9 19 11 21 13 23 4 25 22 27 19 29
REMARK Flexibility Score: inf
ROOT
ATOM      1  C   UNL     1      26.173  12.218  76.475  1.00  0.00     0.180 A 
ATOM      2  C   UNL     1      27.136  11.559  77.258  1.00  0.00     0.208 A 
ATOM      3  C   UNL     1      27.683  12.223  78.368  1.00  0.00     0.238 A 
ATOM      4  O   UNL     1      28.504  11.607  79.096  1.00  0.00    -0.285 OA
ATOM      5  C   UNL     1      27.272  13.543  78.670  1.00  0.00     0.111 A 
ATOM      6  C   UNL     1      27.789  14.327  79.747  1.00  0.00     0.134 A 
ATOM      7  C   UNL     1      27.217  15.572  80.032  1.00  0.00     0.093 A 
ATOM      8  C   UNL     1      26.190  16.091  79.240  1.00  0.00     0.123 A 
ATOM      9  C   UNL     1      25.718  15.360  78.151  1.00  0.00     0.094 A 
ATOM     10  C   UNL     1      26.245  14.099  77.863  1.00  0.00     0.146 A 
ATOM     11  O   UNL     1      25.761  13.432  76.823  1.00  0.00    -0.452 OA
ENDROOT
BRANCH   1  12
ATOM     12  C   UNL     1      25.570  11.592  75.275  1.00  0.00     0.029 A 
ATOM     13  C   UNL     1      24.191  11.332  75.252  1.00  0.00     0.062 A 
ATOM     14  C   UNL     1      23.591  10.760  74.126  1.00  0.00     0.162 A 
ATOM     15  C   UNL     1      26.339  11.306  74.136  1.00  0.00     0.062 A 
ATOM     16  C   UNL     1      24.369  10.455  72.995  1.00  0.00     0.200 A 
ATOM     17  C   UNL     1      25.746  10.734  73.001  1.00  0.00     0.162 A 
BRANCH  14  18
ATOM     18  O   UNL     1      22.220  10.503  74.148  1.00  0.00    -0.504 OA
ATOM     19  H   UNL     1      21.811   9.720  73.653  1.00  0.00     0.293 HD
ENDBRANCH  14  18
BRANCH  16  20
ATOM     20  O   UNL     1      23.763   9.882  71.877  1.00  0.00    -0.502 OA
ATOM     21  H   UNL     1      23.675   8.879  71.766  1.00  0.00     0.293 HD
ENDBRANCH  16  20
BRANCH  17  22
ATOM     22  O   UNL     1      26.521  10.448  71.877  1.00  0.00    -0.504 OA
ATOM     23  H   UNL     1      27.293  11.041  71.599  1.00  0.00     0.293 HD
ENDBRANCH  17  22
ENDBRANCH   1  12
BRANCH   2  24
ATOM     24  O   UNL     1      27.511  10.247  76.954  1.00  0.00    -0.502 OA
ATOM     25  H   UNL     1      28.345   9.817  77.337  1.00  0.00     0.293 HD
ENDBRANCH   2  24
BRANCH   6  26
ATOM     26  O   UNL     1      28.873  13.942  80.541  1.00  0.00    -0.507 OA
ATOM     27  H   UNL     1      29.819  13.826  80.206  1.00  0.00     0.293 HD
ENDBRANCH   6  26
BRANCH   8  28
ATOM     28  O   UNL     1      25.636  17.337  79.522  1.00  0.00    -0.508 OA
ATOM     29  H   UNL     1      26.204  18.106  79.858  1.00  0.00     0.293 HD
ENDBRANCH   8  28
TORSDOF 7
ENDMDL
MODEL 7
REMARK VINA RESULT:    -6.370      1.453      1.992
REMARK INTER + INTRA:          -7.538
REMARK INTER:                  -7.925
REMARK INTRA:                   0.387
REMARK UNBOUND:                 0.321
REMARK SMILES O=c1c(O)c(-c2cc(O)c(O)c(O)c2)oc2cc(O)cc(O)c12
REMARK SMILES IDX 5 1 3 2 2 3 1 4 23 5 21 6 20 7 18 8 17 9 16 10 15 11 6 12
REMARK SMILES IDX 7 13 8 14 14 15 10 16 12 17 9 18 11 20 13 22 4 24 22 26
REMARK SMILES IDX 19 28
REMARK H PARENT 9 19 11 21 13 23 4 25 22 27 19 29
REMARK Flexibility Score: inf
ROOT
ATOM      1  C   UNL     1      27.139  12.402  77.617  1.00  0.00     0.180 A 
ATOM      2  C   UNL     1      27.946  11.385  78.157  1.00  0.00     0.208 A 
ATOM      3  C   UNL     1      28.675  11.644  79.328  1.00  0.00     0.238 A 
ATOM      4  O   UNL     1      29.353  10.713  79.837  1.00  0.00    -0.285 OA
ATOM      5  C   UNL     1      28.603  12.921  79.934  1.00  0.00     0.111 A 
ATOM      6  C   UNL     1      29.332  13.308  81.100  1.00  0.00     0.134 A 
ATOM      7  C   UNL     1      29.083  14.554  81.688  1.00  0.00     0.093 A 
ATOM      8  C   UNL     1      28.181  15.454  81.116  1.00  0.00     0.123 A 
ATOM      9  C   UNL     1      27.510  15.110  79.945  1.00  0.00     0.094 A 
ATOM     10  C   UNL     1      27.709  13.859  79.355  1.00  0.00     0.146 A 
ATOM     11  O   UNL     1      27.042  13.568  78.245  1.00  0.00    -0.452 OA
ENDROOT
BRANCH   1  12
ATOM     12  C   UNL     1      26.361  12.211  76.371  1.00  0.00     0.029 A 
ATOM     13  C   UNL     1      25.407  13.171  76.000  1.00  0.00     0.062 A 
ATOM     14  C   UNL     1      24.671  13.028  74.820  1.00  0.00     0.162 A 
ATOM     15  C   UNL     1      26.597  11.119  75.521  1.00  0.00     0.062 A 
ATOM     16  C   UNL     1      24.896  11.922  73.982  1.00  0.00     0.200 A 
ATOM     17  C   UNL     1      25.866  10.968  74.334  1.00  0.00     0.162 A 
BRANCH  14  18
ATOM     18  O   UNL     1      23.721  13.997  74.494  1.00  0.00    -0.504 OA
ATOM     19  H   UNL     1      23.051  13.864  73.747  1.00  0.00     0.293 HD
ENDBRANCH  14  18
BRANCH  16  20
ATOM     20  O   UNL     1      24.156  11.785  72.808  1.00  0.00    -0.502 OA
ATOM     21  H   UNL     1      24.079  12.532  72.128  1.00  0.00     0.293 HD
ENDBRANCH  16  20
BRANCH  17  22
ATOM     22  O   UNL     1      26.104   9.875  73.501  1.00  0.00    -0.504 OA
ATOM     23  H   UNL     1      26.730   9.126  73.773  1.00  0.00     0.293 HD
ENDBRANCH  17  22
ENDBRANCH   1  12
BRANCH   2  24
ATOM     24  O   UNL     1      27.986  10.125  77.554  1.00  0.00    -0.502 OA
ATOM     25  H   UNL     1      28.564   9.371  77.907  1.00  0.00     0.293 HD
ENDBRANCH   2  24
BRANCH   6  26
ATOM     26  O   UNL     1      30.321  12.522  81.698  1.00  0.00    -0.507 OA
ATOM     27  H   UNL     1      30.579  11.594  81.395  1.00  0.00     0.293 HD
ENDBRANCH   6  26
BRANCH   8  28
ATOM     28  O   UNL     1      27.951  16.698  81.699  1.00  0.00    -0.508 OA
ATOM     29  H   UNL     1      27.155  16.860  82.304  1.00  0.00     0.293 HD
ENDBRANCH   8  28
TORSDOF 7
ENDMDL
MODEL 8
REMARK VINA RESULT:    -6.358      0.980      6.806
REMARK INTER + INTRA:          -7.523
REMARK INTER:                  -7.714
REMARK INTRA:                   0.191
REMARK UNBOUND:                 0.321
REMARK SMILES O=c1c(O)c(-c2cc(O)c(O)c(O)c2)oc2cc(O)cc(O)c12
REMARK SMILES IDX 5 1 3 2 2 3 1 4 23 5 21 6 20 7 18 8 17 9 16 10 15 11 6 12
REMARK SMILES IDX 7 13 8 14 14 15 10 16 12 17 9 18 11 20 13 22 4 24 22 26
REMARK SMILES IDX 19 28
REMARK H PARENT 9 19 11 21 13 23 4 25 22 27 19 29
REMARK Flexibility Score: inf
ROOT
ATOM      1  C   UNL     1      26.763  13.896  78.523  1.00  0.00     0.180 A 
ATOM      2  C   UNL     1      27.477  12.685  78.540  1.00  0.00     0.208 A 
ATOM      3  C   UNL     1      27.288  11.768  77.493  1.00  0.00     0.238 A 
ATOM      4  O   UNL     1      27.970  10.710  77.486  1.00  0.00    -0.285 OA
ATOM      5  C   UNL     1      26.377  12.066  76.452  1.00  0.00     0.111 A 
ATOM      6  C   UNL     1      26.077  11.193  75.363  1.00  0.00     0.134 A 
ATOM      7  C   UNL     1      25.258  11.646  74.321  1.00  0.00     0.093 A 
ATOM      8  C   UNL     1      24.675  12.914  74.361  1.00  0.00     0.123 A 
ATOM      9  C   UNL     1      24.914  13.751  75.449  1.00  0.00     0.094 A 
ATOM     10  C   UNL     1      25.756  13.343  76.486  1.00  0.00     0.146 A 
ATOM     11  O   UNL     1      25.965  14.174  77.499  1.00  0.00    -0.452 OA
ENDROOT
BRANCH   1  12
ATOM     12  C   UNL     1      26.890  14.900  79.604  1.00  0.00     0.029 A 
ATOM     13  C   UNL     1      25.754  15.609  80.024  1.00  0.00     0.062 A 
ATOM     14  C   UNL     1      25.840  16.549  81.056  1.00  0.00     0.162 A 
ATOM     15  C   UNL     1      28.113  15.118  80.260  1.00  0.00     0.062 A 
ATOM     16  C   UNL     1      27.070  16.779  81.695  1.00  0.00     0.200 A 
ATOM     17  C   UNL     1      28.208  16.057  81.297  1.00  0.00     0.162 A 
BRANCH  14  18
ATOM     18  O   UNL     1      24.691  17.243  81.435  1.00  0.00    -0.504 OA
ATOM     19  H   UNL     1      23.882  17.317  80.830  1.00  0.00     0.293 HD
ENDBRANCH  14  18
BRANCH  16  20
ATOM     20  O   UNL     1      27.148  17.721  82.721  1.00  0.00    -0.502 OA
ATOM     21  H   UNL     1      27.304  18.706  82.540  1.00  0.00     0.293 HD
ENDBRANCH  16  20
BRANCH  17  22
ATOM     22  O   UNL     1      29.430  16.271  81.935  1.00  0.00    -0.504 OA
ATOM     23  H   UNL     1      29.564  16.045  82.914  1.00  0.00     0.293 HD
ENDBRANCH  17  22
ENDBRANCH   1  12
BRANCH   2  24
ATOM     24  O   UNL     1      28.388  12.420  79.567  1.00  0.00    -0.502 OA
ATOM     25  H   UNL     1      28.177  12.602  80.541  1.00  0.00     0.293 HD
ENDBRANCH   2  24
BRANCH   6  26
ATOM     26  O   UNL     1      26.532   9.875  75.271  1.00  0.00    -0.507 OA
ATOM     27  H   UNL     1      26.682   9.263  76.060  1.00  0.00     0.293 HD
ENDBRANCH   6  26
BRANCH   8  28
ATOM     28  O   UNL     1      23.850  13.351  73.328  1.00  0.00    -0.508 OA
ATOM     29  H   UNL     1      23.325  12.698  72.757  1.00  0.00     0.293 HD
ENDBRANCH   8  28
TORSDOF 7
ENDMDL
MODEL 9
REMARK VINA RESULT:    -6.214      1.601      3.254
REMARK INTER + INTRA:          -7.346
REMARK INTER:                  -7.742
REMARK INTRA:                   0.396
REMARK UNBOUND:                 0.321
REMARK SMILES O=c1c(O)c(-c2cc(O)c(O)c(O)c2)oc2cc(O)cc(O)c12
REMARK SMILES IDX 5 1 3 2 2 3 1 4 23 5 21 6 20 7 18 8 17 9 16 10 15 11 6 12
REMARK SMILES IDX 7 13 8 14 14 15 10 16 12 17 9 18 11 20 13 22 4 24 22 26
REMARK SMILES IDX 19 28
REMARK H PARENT 9 19 11 21 13 23 4 25 22 27 19 29
REMARK Flexibility Score: inf
ROOT
ATOM      1  C   UNL     1      26.547  13.762  78.284  1.00  0.00     0.180 A 
ATOM      2  C   UNL     1      26.235  15.111  78.529  1.00  0.00     0.208 A 
ATOM      3  C   UNL     1      26.584  15.676  79.766  1.00  0.00     0.238 A 
ATOM      4  O   UNL     1      26.351  16.898  79.958  1.00  0.00    -0.285 OA
ATOM      5  C   UNL     1      27.224  14.883  80.747  1.00  0.00     0.111 A 
ATOM      6  C   UNL     1      27.586  15.340  82.051  1.00  0.00     0.134 A 
ATOM      7  C   UNL     1      28.332  14.507  82.892  1.00  0.00     0.093 A 
ATOM      8  C   UNL     1      28.673  13.210  82.505  1.00  0.00     0.123 A 
ATOM      9  C   UNL     1      28.273  12.732  81.258  1.00  0.00     0.094 A 
ATOM     10  C   UNL     1      27.559  13.552  80.381  1.00  0.00     0.146 A 
ATOM     11  O   UNL     1      27.206  13.062  79.200  1.00  0.00    -0.452 OA
ENDROOT
BRANCH   1  12
ATOM     12  C   UNL     1      26.188  13.089  77.014  1.00  0.00     0.029 A 
ATOM     13  C   UNL     1      26.695  11.808  76.744  1.00  0.00     0.062 A 
ATOM     14  C   UNL     1      26.358  11.141  75.563  1.00  0.00     0.162 A 
ATOM     15  C   UNL     1      25.304  13.681  76.097  1.00  0.00     0.062 A 
ATOM     16  C   UNL     1      25.490  11.746  74.638  1.00  0.00     0.200 A 
ATOM     17  C   UNL     1      24.959  13.018  74.911  1.00  0.00     0.162 A 
BRANCH  14  18
ATOM     18  O   UNL     1      26.895   9.875  75.326  1.00  0.00    -0.504 OA
ATOM     19  H   UNL     1      26.406   9.026  75.582  1.00  0.00     0.293 HD
ENDBRANCH  14  18
BRANCH  16  20
ATOM     20  O   UNL     1      25.161  11.074  73.461  1.00  0.00    -0.502 OA
ATOM     21  H   UNL     1      24.697  10.173  73.464  1.00  0.00     0.293 HD
ENDBRANCH  16  20
BRANCH  17  22
ATOM     22  O   UNL     1      24.085  13.619  74.004  1.00  0.00    -0.504 OA
ATOM     23  H   UNL     1      23.081  13.584  74.132  1.00  0.00     0.293 HD
ENDBRANCH  17  22
ENDBRANCH   1  12
BRANCH   2  24
ATOM     24  O   UNL     1      25.622  15.881  77.537  1.00  0.00    -0.502 OA
ATOM     25  H   UNL     1      25.277  15.481  76.673  1.00  0.00     0.293 HD
ENDBRANCH   2  24
BRANCH   6  26
ATOM     26  O   UNL     1      27.217  16.584  82.571  1.00  0.00    -0.507 OA
ATOM     27  H   UNL     1      26.586  16.718  83.348  1.00  0.00     0.293 HD
ENDBRANCH   6  26
BRANCH   8  28
ATOM     28  O   UNL     1      29.403  12.382  83.355  1.00  0.00    -0.508 OA
ATOM     29  H   UNL     1      28.953  11.849  84.090  1.00  0.00     0.293 HD
ENDBRANCH   8  28
TORSDOF 7
ENDMDL
