MODEL 1
REMARK VINA RESULT:    -3.762      0.000      0.000
REMARK INTER + INTRA:          -4.321
REMARK INTER:                  -4.312
REMARK INTRA:                  -0.009
REMARK UNBOUND:                -0.009
REMARK SMILES CC(C)[C@H]([NH3+])C(=O)[O-]
REMARK SMILES IDX 4 1 5 2 6 6 7 7 8 8 2 9 1 10 3 11
REMARK H PARENT 5 3 5 4 5 5
REMARK Flexibility Score: inf
ROOT
ATOM      1  C   UNL     1      48.552  13.785  18.367  1.00  0.00     0.230 C 
ENDROOT
BRANCH   1   2
ATOM      2  N   UNL     1      47.693  13.078  19.329  1.00  0.00    -0.350 N 
ATOM      3  H   UNL     1      48.240  12.834  20.187  1.00  0.00     0.345 HD
ATOM      4  H   UNL     1      46.877  13.670  19.603  1.00  0.00     0.345 HD
ATOM      5  H   UNL     1      47.353  12.179  18.917  1.00  0.00     0.345 HD
ENDBRANCH   1   2
BRANCH   1   6
ATOM      6  C   UNL     1      49.507  12.802  17.737  1.00  0.00     0.099 C 
ATOM      7  O   UNL     1      49.864  11.773  18.369  1.00  0.00    -0.544 OA
ATOM      8  O   UNL     1      50.000  13.025  16.457  1.00  0.00    -0.544 OA
ENDBRANCH   1   6
BRANCH   1   9
ATOM      9  C   UNL     1      49.331  14.958  19.037  1.00  0.00     0.047 C 
ATOM     10  C   UNL     1      49.711  16.036  18.007  1.00  0.00     0.014 C 
ATOM     11  C   UNL     1      48.521  15.610  20.172  1.00  0.00     0.014 C 
ENDBRANCH   1   9
TORSDOF 3
ENDMDL
MODEL 2
REMARK VINA RESULT:    -3.648      2.234      2.803
REMARK INTER + INTRA:          -4.190
REMARK INTER:                  -4.144
REMARK INTRA:                  -0.047
REMARK UNBOUND:                -0.009
REMARK SMILES CC(C)[C@H]([NH3+])C(=O)[O-]
REMARK SMILES IDX 4 1 5 2 6 6 7 7 8 8 2 9 1 10 3 11
REMARK H PARENT 5 3 5 4 5 5
REMARK Flexibility Score: inf
ROOT
ATOM      1  C   UNL     1      48.940  14.465  16.314  1.00  0.00     0.230 C 
ENDROOT
BRANCH   1   2
ATOM      2  N   UNL     1      47.775  13.622  16.001  1.00  0.00    -0.350 N 
ATOM      3  H   UNL     1      47.469  13.785  15.014  1.00  0.00     0.345 HD
ATOM      4  H   UNL     1      48.007  12.610  16.123  1.00  0.00     0.345 HD
ATOM      5  H   UNL     1      46.970  13.875  16.618  1.00  0.00     0.345 HD
ENDBRANCH   1   2
BRANCH   1   6
ATOM      6  C   UNL     1      49.968  14.317  15.221  1.00  0.00     0.099 C 
ATOM      7  O   UNL     1      50.319  13.171  14.832  1.00  0.00    -0.544 OA
ATOM      8  O   UNL     1      50.535  15.442  14.634  1.00  0.00    -0.544 OA
ENDBRANCH   1   6
BRANCH   1   9
ATOM      9  C   UNL     1      49.556  14.111  17.702  1.00  0.00     0.047 C 
ATOM     10  C   UNL     1      49.572  15.335  18.634  1.00  0.00     0.014 C 
ATOM     11  C   UNL     1      48.796  12.964  18.391  1.00  0.00     0.014 C 
ENDBRANCH   1   9
TORSDOF 3
ENDMDL
MODEL 3
REMARK VINA RESULT:    -3.636     17.016     17.983
REMARK INTER + INTRA:          -4.177
REMARK INTER:                  -4.130
REMARK INTRA:                  -0.047
REMARK UNBOUND:                -0.009
REMARK SMILES CC(C)[C@H]([NH3+])C(=O)[O-]
REMARK SMILES IDX 4 1 5 2 6 6 7 7 8 8 2 9 1 10 3 11
REMARK H PARENT 5 3 5 4 5 5
REMARK Flexibility Score: inf
ROOT
ATOM      1  C   UNL     1      56.620  -2.715  19.184  1.00  0.00     0.230 C 
ENDROOT
BRANCH   1   2
ATOM      2  N   UNL     1      56.790  -2.036  20.478  1.00  0.00    -0.350 N 
ATOM      3  H   UNL     1      57.633  -2.410  20.972  1.00  0.00     0.345 HD
ATOM      4  H   UNL     1      56.904  -1.005  20.344  1.00  0.00     0.345 HD
ATOM      5  H   UNL     1      55.966  -2.221  21.095  1.00  0.00     0.345 HD
ENDBRANCH   1   2
BRANCH   1   6
ATOM      6  C   UNL     1      57.560  -2.103  18.175  1.00  0.00     0.099 C 
ATOM      7  O   UNL     1      58.231  -2.842  17.407  1.00  0.00    -0.544 OA
ATOM      8  O   UNL     1      57.689  -0.722  18.085  1.00  0.00    -0.544 OA
ENDBRANCH   1   6
BRANCH   1   9
ATOM      9  C   UNL     1      55.146  -2.641  18.680  1.00  0.00     0.047 C 
ATOM     10  C   UNL     1      54.619  -4.034  18.290  1.00  0.00     0.014 C 
ATOM     11  C   UNL     1      54.209  -2.026  19.734  1.00  0.00     0.014 C 
ENDBRANCH   1   9
TORSDOF 3
ENDMDL
MODEL 4
REMARK VINA RESULT:    -3.635      2.366      2.972
REMARK INTER + INTRA:          -4.175
REMARK INTER:                  -4.115
REMARK INTRA:                  -0.060
REMARK UNBOUND:                -0.009
REMARK SMILES CC(C)[C@H]([NH3+])C(=O)[O-]
REMARK SMILES IDX 4 1 5 2 6 6 7 7 8 8 2 9 1 10 3 11
REMARK H PARENT 5 3 5 4 5 5
REMARK Flexibility Score: inf
ROOT
ATOM      1  C   UNL     1      49.500  14.819  17.458  1.00  0.00     0.230 C 
ENDROOT
BRANCH   1   2
ATOM      2  N   UNL     1      49.125  16.068  18.139  1.00  0.00    -0.350 N 
ATOM      3  H   UNL     1      49.578  16.884  17.668  1.00  0.00     0.345 HD
ATOM      4  H   UNL     1      48.088  16.200  18.126  1.00  0.00     0.345 HD
ATOM      5  H   UNL     1      49.465  16.056  19.128  1.00  0.00     0.345 HD
ENDBRANCH   1   2
BRANCH   1   6
ATOM      6  C   UNL     1      49.259  14.970  15.976  1.00  0.00     0.099 C 
ATOM      7  O   UNL     1      48.288  14.383  15.430  1.00  0.00    -0.544 OA
ATOM      8  O   UNL     1      50.106  15.757  15.205  1.00  0.00    -0.544 OA
ENDBRANCH   1   6
BRANCH   1   9
ATOM      9  C   UNL     1      48.717  13.593  18.021  1.00  0.00     0.047 C 
ATOM     10  C   UNL     1      49.615  12.345  18.095  1.00  0.00     0.014 C 
ATOM     11  C   UNL     1      48.135  13.877  19.416  1.00  0.00     0.014 C 
ENDBRANCH   1   9
TORSDOF 3
ENDMDL
MODEL 5
REMARK VINA RESULT:    -3.499      2.528      3.244
REMARK INTER + INTRA:          -4.019
REMARK INTER:                  -3.979
REMARK INTRA:                  -0.041
REMARK UNBOUND:                -0.009
REMARK SMILES CC(C)[C@H]([NH3+])C(=O)[O-]
REMARK SMILES IDX 4 1 5 2 6 6 7 7 8 8 2 9 1 10 3 11
REMARK H PARENT 5 3 5 4 5 5
REMARK Flexibility Score: inf
ROOT
ATOM      1  C   UNL     1      49.187  13.291  16.205  1.00  0.00     0.230 C 
ENDROOT
BRANCH   1   2
ATOM      2  N   UNL     1      47.788  13.697  16.001  1.00  0.00    -0.350 N 
ATOM      3  H   UNL     1      47.476  13.437  15.037  1.00  0.00     0.345 HD
ATOM      4  H   UNL     1      47.162  13.234  16.699  1.00  0.00     0.345 HD
ATOM      5  H   UNL     1      47.698  14.736  16.083  1.00  0.00     0.345 HD
ENDBRANCH   1   2
BRANCH   1   6
ATOM      6  C   UNL     1      49.471  13.212  17.684  1.00  0.00     0.099 C 
ATOM      7  O   UNL     1      49.701  12.099  18.226  1.00  0.00    -0.544 OA
ATOM      8  O   UNL     1      49.482  14.366  18.458  1.00  0.00    -0.544 OA
ENDBRANCH   1   6
BRANCH   1   9
ATOM      9  C   UNL     1      50.182  14.267  15.504  1.00  0.00     0.047 C 
ATOM     10  C   UNL     1      50.764  13.645  14.222  1.00  0.00     0.014 C 
ATOM     11  C   UNL     1      49.518  15.610  15.155  1.00  0.00     0.014 C 
ENDBRANCH   1   9
TORSDOF 3
ENDMDL
MODEL 6
REMARK VINA RESULT:    -3.456     16.719     17.424
REMARK INTER + INTRA:          -3.970
REMARK INTER:                  -3.989
REMARK INTRA:                   0.019
REMARK UNBOUND:                -0.009
REMARK SMILES CC(C)[C@H]([NH3+])C(=O)[O-]
REMARK SMILES IDX 4 1 5 2 6 6 7 7 8 8 2 9 1 10 3 11
REMARK H PARENT 5 3 5 4 5 5
REMARK Flexibility Score: inf
ROOT
ATOM      1  C   UNL     1      54.935  -1.837  18.632  1.00  0.00     0.230 C 
ENDROOT
BRANCH   1   2
ATOM      2  N   UNL     1      54.194  -0.598  18.912  1.00  0.00    -0.350 N 
ATOM      3  H   UNL     1      53.650  -0.698  19.800  1.00  0.00     0.345 HD
ATOM      4  H   UNL     1      54.848   0.213  19.002  1.00  0.00     0.345 HD
ATOM      5  H   UNL     1      53.504  -0.410  18.149  1.00  0.00     0.345 HD
ENDBRANCH   1   2
BRANCH   1   6
ATOM      6  C   UNL     1      54.126  -3.019  19.106  1.00  0.00     0.099 C 
ATOM      7  O   UNL     1      54.040  -4.054  18.394  1.00  0.00    -0.544 OA
ATOM      8  O   UNL     1      53.471  -2.974  20.331  1.00  0.00    -0.544 OA
ENDBRANCH   1   6
BRANCH   1   9
ATOM      9  C   UNL     1      56.345  -1.833  19.298  1.00  0.00     0.047 C 
ATOM     10  C   UNL     1      57.162  -3.070  18.884  1.00  0.00     0.014 C 
ATOM     11  C   UNL     1      57.141  -0.564  18.947  1.00  0.00     0.014 C 
ENDBRANCH   1   9
TORSDOF 3
ENDMDL
MODEL 7
REMARK VINA RESULT:    -3.409     16.768     17.451
REMARK INTER + INTRA:          -3.917
REMARK INTER:                  -3.873
REMARK INTRA:                  -0.044
REMARK UNBOUND:                -0.009
REMARK SMILES CC(C)[C@H]([NH3+])C(=O)[O-]
REMARK SMILES IDX 4 1 5 2 6 6 7 7 8 8 2 9 1 10 3 11
REMARK H PARENT 5 3 5 4 5 5
REMARK Flexibility Score: inf
ROOT
ATOM      1  C   UNL     1      56.634  -1.397  19.142  1.00  0.00     0.230 C 
ENDROOT
BRANCH   1   2
ATOM      2  N   UNL     1      57.292  -2.293  20.105  1.00  0.00    -0.350 N 
ATOM      3  H   UNL     1      57.097  -1.976  21.082  1.00  0.00     0.345 HD
ATOM      4  H   UNL     1      56.949  -3.275  19.991  1.00  0.00     0.345 HD
ATOM      5  H   UNL     1      58.329  -2.266  19.974  1.00  0.00     0.345 HD
ENDBRANCH   1   2
BRANCH   1   6
ATOM      6  C   UNL     1      55.181  -1.782  19.017  1.00  0.00     0.099 C 
ATOM      7  O   UNL     1      54.861  -2.976  18.777  1.00  0.00    -0.544 OA
ATOM      8  O   UNL     1      54.186  -0.823  19.167  1.00  0.00    -0.544 OA
ENDBRANCH   1   6
BRANCH   1   9
ATOM      9  C   UNL     1      57.333  -1.428  17.748  1.00  0.00     0.047 C 
ATOM     10  C   UNL     1      58.219  -0.186  17.541  1.00  0.00     0.014 C 
ATOM     11  C   UNL     1      58.190  -2.693  17.565  1.00  0.00     0.014 C 
ENDBRANCH   1   9
TORSDOF 3
ENDMDL
MODEL 8
REMARK VINA RESULT:    -3.409      4.565      6.056
REMARK INTER + INTRA:          -3.916
REMARK INTER:                  -3.873
REMARK INTRA:                  -0.043
REMARK UNBOUND:                -0.009
REMARK SMILES CC(C)[C@H]([NH3+])C(=O)[O-]
REMARK SMILES IDX 4 1 5 2 6 6 7 7 8 8 2 9 1 10 3 11
REMARK H PARENT 5 3 5 4 5 5
REMARK Flexibility Score: inf
ROOT
ATOM      1  C   UNL     1      49.410   8.617  18.570  1.00  0.00     0.230 C 
ENDROOT
BRANCH   1   2
ATOM      2  N   UNL     1      49.841   8.552  17.165  1.00  0.00    -0.350 N 
ATOM      3  H   UNL     1      50.807   8.156  17.104  1.00  0.00     0.345 HD
ATOM      4  H   UNL     1      49.191   7.954  16.605  1.00  0.00     0.345 HD
ATOM      5  H   UNL     1      49.877   9.513  16.753  1.00  0.00     0.345 HD
ENDBRANCH   1   2
BRANCH   1   6
ATOM      6  C   UNL     1      49.006  10.033  18.900  1.00  0.00     0.099 C 
ATOM      7  O   UNL     1      48.040  10.250  19.678  1.00  0.00    -0.544 OA
ATOM      8  O   UNL     1      49.697  11.106  18.350  1.00  0.00    -0.544 OA
ENDBRANCH   1   6
BRANCH   1   9
ATOM      9  C   UNL     1      50.525   8.122  19.542  1.00  0.00     0.047 C 
ATOM     10  C   UNL     1      49.920   7.474  20.800  1.00  0.00     0.014 C 
ATOM     11  C   UNL     1      51.471   7.115  18.864  1.00  0.00     0.014 C 
ENDBRANCH   1   9
TORSDOF 3
ENDMDL
MODEL 9
REMARK VINA RESULT:    -3.313     11.492     11.999
REMARK INTER + INTRA:          -3.807
REMARK INTER:                  -3.759
REMARK INTRA:                  -0.048
REMARK UNBOUND:                -0.009
REMARK SMILES CC(C)[C@H]([NH3+])C(=O)[O-]
REMARK SMILES IDX 4 1 5 2 6 6 7 7 8 8 2 9 1 10 3 11
REMARK H PARENT 5 3 5 4 5 5
REMARK Flexibility Score: inf
ROOT
ATOM      1  C   UNL     1      51.540   2.091  21.213  1.00  0.00     0.230 C 
ENDROOT
BRANCH   1   2
ATOM      2  N   UNL     1      52.257   2.169  22.495  1.00  0.00    -0.350 N 
ATOM      3  H   UNL     1      52.997   1.430  22.537  1.00  0.00     0.345 HD
ATOM      4  H   UNL     1      52.704   3.106  22.613  1.00  0.00     0.345 HD
ATOM      5  H   UNL     1      51.600   1.991  23.288  1.00  0.00     0.345 HD
ENDBRANCH   1   2
BRANCH   1   6
ATOM      6  C   UNL     1      52.454   2.549  20.103  1.00  0.00     0.099 C 
ATOM      7  O   UNL     1      51.973   2.927  19.002  1.00  0.00    -0.544 OA
ATOM      8  O   UNL     1      53.832   2.559  20.289  1.00  0.00    -0.544 OA
ENDBRANCH   1   6
BRANCH   1   9
ATOM      9  C   UNL     1      50.229   2.936  21.230  1.00  0.00     0.047 C 
ATOM     10  C   UNL     1      49.019   2.096  20.782  1.00  0.00     0.014 C 
ATOM     11  C   UNL     1      49.944   3.525  22.622  1.00  0.00     0.014 C 
ENDBRANCH   1   9
TORSDOF 3
ENDMDL
