MODEL 1
REMARK VINA RESULT:    -2.515      0.000      0.000
REMARK INTER + INTRA:         -13.043
REMARK INTER:                  -6.630
REMARK INTRA:                  -6.413
REMARK UNBOUND:                -6.413
REMARK SMILES CCCCCCCCCCCCCCCCCCCCCCCCCCCCCC(=O)[O-]
REMARK SMILES IDX 16 1 17 2 18 3 19 4 20 5 21 6 22 7 23 8 24 9 25 10 26 11
REMARK SMILES IDX 27 12 28 13 29 14 30 15 31 16 32 17 15 18 14 19 13 20 12 21
REMARK SMILES IDX 11 22 10 23 9 24 8 25 7 26 6 27 5 28 4 29 3 30 2 31 1 32
REMARK H PARENT
REMARK Flexibility Score: inf
ROOT
ATOM      1  C   UNL     1      96.924  52.526 223.240  1.00  0.00     0.000 C 
ENDROOT
BRANCH   1   2
ATOM      2  C   UNL     1      97.403  52.011 221.871  1.00  0.00     0.000 C 
BRANCH   2   3
ATOM      3  C   UNL     1      97.651  53.147 220.865  1.00  0.00     0.000 C 
BRANCH   3   4
ATOM      4  C   UNL     1      97.351  52.727 219.416  1.00  0.00     0.000 C 
BRANCH   4   5
ATOM      5  C   UNL     1      95.852  52.484 219.175  1.00  0.00     0.000 C 
BRANCH   5   6
ATOM      6  C   UNL     1      95.329  53.210 217.922  1.00  0.00     0.000 C 
BRANCH   6   7
ATOM      7  C   UNL     1      95.450  54.741 218.029  1.00  0.00     0.000 C 
BRANCH   7   8
ATOM      8  C   UNL     1      96.454  55.381 217.048  1.00  0.00     0.000 C 
BRANCH   8   9
ATOM      9  C   UNL     1      97.594  56.183 217.708  1.00  0.00     0.000 C 
BRANCH   9  10
ATOM     10  C   UNL     1      97.239  56.836 219.056  1.00  0.00     0.000 C 
BRANCH  10  11
ATOM     11  C   UNL     1      98.471  57.063 219.948  1.00  0.00     0.000 C 
BRANCH  11  12
ATOM     12  C   UNL     1      99.627  56.100 219.631  1.00  0.00     0.000 C 
BRANCH  12  13
ATOM     13  C   UNL     1     100.921  56.765 219.120  1.00  0.00     0.006 C 
BRANCH  13  14
ATOM     14  C   UNL     1     100.684  57.933 218.143  1.00  0.00     0.053 C 
BRANCH  14  15
ATOM     15  C   UNL     1     101.262  59.224 218.642  1.00  0.00     0.041 C 
ATOM     16  O   UNL     1     102.480  59.299 218.948  1.00  0.00    -0.550 OA
ATOM     17  O   UNL     1     100.444  60.336 218.807  1.00  0.00    -0.550 OA
ENDBRANCH  14  15
ENDBRANCH  13  14
ENDBRANCH  12  13
ENDBRANCH  11  12
ENDBRANCH  10  11
ENDBRANCH   9  10
ENDBRANCH   8   9
ENDBRANCH   7   8
ENDBRANCH   6   7
ENDBRANCH   5   6
ENDBRANCH   4   5
ENDBRANCH   3   4
ENDBRANCH   2   3
ENDBRANCH   1   2
BRANCH   1  18
ATOM     18  C   UNL     1      95.423  52.284 223.476  1.00  0.00     0.000 C 
BRANCH  18  19
ATOM     19  C   UNL     1      94.536  53.544 223.395  1.00  0.00     0.000 C 
BRANCH  19  20
ATOM     20  C   UNL     1      94.117  53.955 221.971  1.00  0.00     0.000 C 
BRANCH  20  21
ATOM     21  C   UNL     1      94.607  55.348 221.531  1.00  0.00     0.000 C 
BRANCH  21  22
ATOM     22  C   UNL     1      95.791  55.881 222.367  1.00  0.00     0.000 C 
BRANCH  22  23
ATOM     23  C   UNL     1      95.643  57.373 222.710  1.00  0.00     0.000 C 
BRANCH  23  24
ATOM     24  C   UNL     1      95.249  57.614 224.185  1.00  0.00    -0.000 C 
BRANCH  24  25
ATOM     25  C   UNL     1      95.532  56.415 225.108  1.00  0.00    -0.000 C 
BRANCH  25  26
ATOM     26  C   UNL     1      96.665  56.635 226.127  1.00  0.00    -0.000 C 
BRANCH  26  27
ATOM     27  C   UNL     1      98.050  56.163 225.629  1.00  0.00    -0.000 C 
BRANCH  27  28
ATOM     28  C   UNL     1      98.849  57.284 224.948  1.00  0.00    -0.000 C 
BRANCH  28  29
ATOM     29  C   UNL     1      99.436  56.812 223.611  1.00  0.00    -0.000 C 
BRANCH  29  30
ATOM     30  C   UNL     1      99.255  55.301 223.389  1.00  0.00    -0.000 C 
BRANCH  30  31
ATOM     31  C   UNL     1     100.522  54.628 222.841  1.00  0.00    -0.003 C 
ATOM     32  C   UNL     1     101.679  55.620 222.754  1.00  0.00     0.004 C 
ENDBRANCH  30  31
ENDBRANCH  29  30
ENDBRANCH  28  29
ENDBRANCH  27  28
ENDBRANCH  26  27
ENDBRANCH  25  26
ENDBRANCH  24  25
ENDBRANCH  23  24
ENDBRANCH  22  23
ENDBRANCH  21  22
ENDBRANCH  20  21
ENDBRANCH  19  20
ENDBRANCH  18  19
ENDBRANCH   1  18
TORSDOF 28
ENDMDL
MODEL 2
REMARK VINA RESULT:    -2.308      7.251     10.997
REMARK INTER + INTRA:         -12.499
REMARK INTER:                  -7.379
REMARK INTRA:                  -5.120
REMARK UNBOUND:                -6.413
REMARK SMILES CCCCCCCCCCCCCCCCCCCCCCCCCCCCCC(=O)[O-]
REMARK SMILES IDX 16 1 17 2 18 3 19 4 20 5 21 6 22 7 23 8 24 9 25 10 26 11
REMARK SMILES IDX 27 12 28 13 29 14 30 15 31 16 32 17 15 18 14 19 13 20 12 21
REMARK SMILES IDX 11 22 10 23 9 24 8 25 7 26 6 27 5 28 4 29 3 30 2 31 1 32
REMARK H PARENT
REMARK Flexibility Score: inf
ROOT
ATOM      1  C   UNL     1      96.405  63.996 225.738  1.00  0.00     0.000 C 
ENDROOT
BRANCH   1   2
ATOM      2  C   UNL     1      95.662  65.025 226.609  1.00  0.00     0.000 C 
BRANCH   2   3
ATOM      3  C   UNL     1      96.186  65.064 228.054  1.00  0.00     0.000 C 
BRANCH   3   4
ATOM      4  C   UNL     1      97.570  65.729 228.160  1.00  0.00     0.000 C 
BRANCH   4   5
ATOM      5  C   UNL     1      98.595  64.836 228.879  1.00  0.00     0.000 C 
BRANCH   5   6
ATOM      6  C   UNL     1      99.612  64.206 227.910  1.00  0.00     0.000 C 
BRANCH   6   7
ATOM      7  C   UNL     1      99.349  62.709 227.666  1.00  0.00     0.000 C 
BRANCH   7   8
ATOM      8  C   UNL     1      98.349  62.059 228.644  1.00  0.00     0.000 C 
BRANCH   8   9
ATOM      9  C   UNL     1      97.320  61.111 227.995  1.00  0.00     0.000 C 
BRANCH   9  10
ATOM     10  C   UNL     1      97.874  60.219 226.868  1.00  0.00     0.000 C 
BRANCH  10  11
ATOM     11  C   UNL     1      96.979  59.002 226.580  1.00  0.00     0.000 C 
BRANCH  11  12
ATOM     12  C   UNL     1      97.714  57.662 226.752  1.00  0.00     0.000 C 
BRANCH  12  13
ATOM     13  C   UNL     1      97.364  56.578 225.714  1.00  0.00     0.006 C 
BRANCH  13  14
ATOM     14  C   UNL     1      96.705  57.122 224.433  1.00  0.00     0.053 C 
BRANCH  14  15
ATOM     15  C   UNL     1      95.223  56.887 224.404  1.00  0.00     0.041 C 
ATOM     16  O   UNL     1      94.750  55.771 224.742  1.00  0.00    -0.550 OA
ATOM     17  O   UNL     1      94.367  57.890 223.964  1.00  0.00    -0.550 OA
ENDBRANCH  14  15
ENDBRANCH  13  14
ENDBRANCH  12  13
ENDBRANCH  11  12
ENDBRANCH  10  11
ENDBRANCH   9  10
ENDBRANCH   8   9
ENDBRANCH   7   8
ENDBRANCH   6   7
ENDBRANCH   5   6
ENDBRANCH   4   5
ENDBRANCH   3   4
ENDBRANCH   2   3
ENDBRANCH   1   2
BRANCH   1  18
ATOM     18  C   UNL     1      96.396  64.363 224.243  1.00  0.00     0.000 C 
BRANCH  18  19
ATOM     19  C   UNL     1      95.301  65.366 223.823  1.00  0.00     0.000 C 
BRANCH  19  20
ATOM     20  C   UNL     1      95.818  66.646 223.138  1.00  0.00     0.000 C 
BRANCH  20  21
ATOM     21  C   UNL     1      96.423  67.691 224.094  1.00  0.00     0.000 C 
BRANCH  21  22
ATOM     22  C   UNL     1      97.963  67.773 224.029  1.00  0.00     0.000 C 
BRANCH  22  23
ATOM     23  C   UNL     1      98.634  67.282 225.323  1.00  0.00     0.000 C 
BRANCH  23  24
ATOM     24  C   UNL     1      99.957  66.525 225.066  1.00  0.00    -0.000 C 
BRANCH  24  25
ATOM     25  C   UNL     1      99.892  65.548 223.878  1.00  0.00    -0.000 C 
BRANCH  25  26
ATOM     26  C   UNL     1      99.887  64.057 224.265  1.00  0.00    -0.000 C 
BRANCH  26  27
ATOM     27  C   UNL     1     101.176  63.305 223.861  1.00  0.00    -0.000 C 
BRANCH  27  28
ATOM     28  C   UNL     1     101.273  61.911 224.499  1.00  0.00    -0.000 C 
BRANCH  28  29
ATOM     29  C   UNL     1     102.616  61.724 225.217  1.00  0.00    -0.000 C 
BRANCH  29  30
ATOM     30  C   UNL     1     103.408  63.036 225.337  1.00  0.00    -0.000 C 
BRANCH  30  31
ATOM     31  C   UNL     1     103.283  63.677 226.727  1.00  0.00    -0.003 C 
ATOM     32  C   UNL     1     103.040  65.180 226.620  1.00  0.00     0.004 C 
ENDBRANCH  30  31
ENDBRANCH  29  30
ENDBRANCH  28  29
ENDBRANCH  27  28
ENDBRANCH  26  27
ENDBRANCH  25  26
ENDBRANCH  24  25
ENDBRANCH  23  24
ENDBRANCH  22  23
ENDBRANCH  21  22
ENDBRANCH  20  21
ENDBRANCH  19  20
ENDBRANCH  18  19
ENDBRANCH   1  18
TORSDOF 28
ENDMDL
MODEL 3
REMARK VINA RESULT:    -2.286      9.527     13.308
REMARK INTER + INTRA:         -12.441
REMARK INTER:                  -6.061
REMARK INTRA:                  -6.380
REMARK UNBOUND:                -6.413
REMARK SMILES CCCCCCCCCCCCCCCCCCCCCCCCCCCCCC(=O)[O-]
REMARK SMILES IDX 16 1 17 2 18 3 19 4 20 5 21 6 22 7 23 8 24 9 25 10 26 11
REMARK SMILES IDX 27 12 28 13 29 14 30 15 31 16 32 17 15 18 14 19 13 20 12 21
REMARK SMILES IDX 11 22 10 23 9 24 8 25 7 26 6 27 5 28 4 29 3 30 2 31 1 32
REMARK H PARENT
REMARK Flexibility Score: inf
ROOT
ATOM      1  C   UNL     1      97.823  64.039 227.660  1.00  0.00     0.000 C 
ENDROOT
BRANCH   1   2
ATOM      2  C   UNL     1      96.410  64.536 228.014  1.00  0.00     0.000 C 
BRANCH   2   3
ATOM      3  C   UNL     1      96.078  64.362 229.504  1.00  0.00     0.000 C 
BRANCH   3   4
ATOM      4  C   UNL     1      95.774  65.701 230.200  1.00  0.00     0.000 C 
BRANCH   4   5
ATOM      5  C   UNL     1      95.515  66.836 229.196  1.00  0.00     0.000 C 
BRANCH   5   6
ATOM      6  C   UNL     1      96.284  68.123 229.547  1.00  0.00     0.000 C 
BRANCH   6   7
ATOM      7  C   UNL     1      97.095  67.992 230.849  1.00  0.00     0.000 C 
BRANCH   7   8
ATOM      8  C   UNL     1      98.622  68.123 230.677  1.00  0.00     0.000 C 
BRANCH   8   9
ATOM      9  C   UNL     1      99.200  67.449 229.416  1.00  0.00     0.000 C 
BRANCH   9  10
ATOM     10  C   UNL     1      99.941  66.123 229.665  1.00  0.00     0.000 C 
BRANCH  10  11
ATOM     11  C   UNL     1      99.762  65.604 231.101  1.00  0.00     0.000 C 
BRANCH  11  12
ATOM     12  C   UNL     1      99.183  64.180 231.157  1.00  0.00     0.000 C 
BRANCH  12  13
ATOM     13  C   UNL     1      98.268  63.885 232.362  1.00  0.00     0.006 C 
BRANCH  13  14
ATOM     14  C   UNL     1      98.013  62.386 232.607  1.00  0.00     0.053 C 
BRANCH  14  15
ATOM     15  C   UNL     1      96.636  61.962 232.189  1.00  0.00     0.041 C 
ATOM     16  O   UNL     1      96.475  61.233 231.175  1.00  0.00    -0.550 OA
ATOM     17  O   UNL     1      95.525  62.406 232.897  1.00  0.00    -0.550 OA
ENDBRANCH  14  15
ENDBRANCH  13  14
ENDBRANCH  12  13
ENDBRANCH  11  12
ENDBRANCH  10  11
ENDBRANCH   9  10
ENDBRANCH   8   9
ENDBRANCH   7   8
ENDBRANCH   6   7
ENDBRANCH   5   6
ENDBRANCH   4   5
ENDBRANCH   3   4
ENDBRANCH   2   3
ENDBRANCH   1   2
BRANCH   1  18
ATOM     18  C   UNL     1      97.972  63.675 226.172  1.00  0.00     0.000 C 
BRANCH  18  19
ATOM     19  C   UNL     1      96.654  63.653 225.369  1.00  0.00     0.000 C 
BRANCH  19  20
ATOM     20  C   UNL     1      96.739  64.277 223.962  1.00  0.00     0.000 C 
BRANCH  20  21
ATOM     21  C   UNL     1      95.679  65.356 223.670  1.00  0.00     0.000 C 
BRANCH  21  22
ATOM     22  C   UNL     1      94.649  65.537 224.806  1.00  0.00     0.000 C 
BRANCH  22  23
ATOM     23  C   UNL     1      94.897  66.816 225.626  1.00  0.00     0.000 C 
BRANCH  23  24
ATOM     24  C   UNL     1      96.077  67.656 225.087  1.00  0.00    -0.000 C 
BRANCH  24  25
ATOM     25  C   UNL     1      97.361  67.533 225.926  1.00  0.00    -0.000 C 
BRANCH  25  26
ATOM     26  C   UNL     1      98.639  67.246 225.116  1.00  0.00    -0.000 C 
BRANCH  26  27
ATOM     27  C   UNL     1      99.851  66.845 225.987  1.00  0.00    -0.000 C 
BRANCH  27  28
ATOM     28  C   UNL     1     100.902  66.042 225.206  1.00  0.00    -0.000 C 
BRANCH  28  29
ATOM     29  C   UNL     1     100.327  65.519 223.883  1.00  0.00    -0.000 C 
BRANCH  29  30
ATOM     30  C   UNL     1     100.561  64.011 223.695  1.00  0.00    -0.000 C 
BRANCH  30  31
ATOM     31  C   UNL     1     101.326  63.380 224.868  1.00  0.00    -0.003 C 
ATOM     32  C   UNL     1     101.593  61.899 224.618  1.00  0.00     0.004 C 
ENDBRANCH  30  31
ENDBRANCH  29  30
ENDBRANCH  28  29
ENDBRANCH  27  28
ENDBRANCH  26  27
ENDBRANCH  25  26
ENDBRANCH  24  25
ENDBRANCH  23  24
ENDBRANCH  22  23
ENDBRANCH  21  22
ENDBRANCH  20  21
ENDBRANCH  19  20
ENDBRANCH  18  19
ENDBRANCH   1  18
TORSDOF 28
ENDMDL
MODEL 4
REMARK VINA RESULT:    -2.285      7.539     11.338
REMARK INTER + INTRA:         -12.439
REMARK INTER:                  -6.388
REMARK INTRA:                  -6.051
REMARK UNBOUND:                -6.413
REMARK SMILES CCCCCCCCCCCCCCCCCCCCCCCCCCCCCC(=O)[O-]
REMARK SMILES IDX 16 1 17 2 18 3 19 4 20 5 21 6 22 7 23 8 24 9 25 10 26 11
REMARK SMILES IDX 27 12 28 13 29 14 30 15 31 16 32 17 15 18 14 19 13 20 12 21
REMARK SMILES IDX 11 22 10 23 9 24 8 25 7 26 6 27 5 28 4 29 3 30 2 31 1 32
REMARK H PARENT
REMARK Flexibility Score: inf
ROOT
ATOM      1  C   UNL     1      99.765  64.733 224.237  1.00  0.00     0.000 C 
ENDROOT
BRANCH   1   2
ATOM      2  C   UNL     1     100.154  66.177 224.600  1.00  0.00     0.000 C 
BRANCH   2   3
ATOM      3  C   UNL     1      98.931  67.084 224.811  1.00  0.00     0.000 C 
BRANCH   3   4
ATOM      4  C   UNL     1      97.635  66.463 224.260  1.00  0.00     0.000 C 
BRANCH   4   5
ATOM      5  C   UNL     1      96.387  66.951 225.013  1.00  0.00     0.000 C 
BRANCH   5   6
ATOM      6  C   UNL     1      95.532  65.791 225.556  1.00  0.00     0.000 C 
BRANCH   6   7
ATOM      7  C   UNL     1      96.122  64.411 225.215  1.00  0.00     0.000 C 
BRANCH   7   8
ATOM      8  C   UNL     1      96.603  63.594 226.432  1.00  0.00     0.000 C 
BRANCH   8   9
ATOM      9  C   UNL     1      97.657  62.512 226.119  1.00  0.00     0.000 C 
BRANCH   9  10
ATOM     10  C   UNL     1      97.936  61.521 227.264  1.00  0.00     0.000 C 
BRANCH  10  11
ATOM     11  C   UNL     1      99.022  60.493 226.908  1.00  0.00     0.000 C 
BRANCH  11  12
ATOM     12  C   UNL     1      98.495  59.049 226.875  1.00  0.00     0.000 C 
BRANCH  12  13
ATOM     13  C   UNL     1      97.035  58.889 226.407  1.00  0.00     0.006 C 
BRANCH  13  14
ATOM     14  C   UNL     1      96.670  57.461 225.960  1.00  0.00     0.053 C 
BRANCH  14  15
ATOM     15  C   UNL     1      96.099  57.422 224.573  1.00  0.00     0.041 C 
ATOM     16  O   UNL     1      94.875  57.648 224.383  1.00  0.00    -0.550 OA
ATOM     17  O   UNL     1      96.911  57.094 223.494  1.00  0.00    -0.550 OA
ENDBRANCH  14  15
ENDBRANCH  13  14
ENDBRANCH  12  13
ENDBRANCH  11  12
ENDBRANCH  10  11
ENDBRANCH   9  10
ENDBRANCH   8   9
ENDBRANCH   7   8
ENDBRANCH   6   7
ENDBRANCH   5   6
ENDBRANCH   4   5
ENDBRANCH   3   4
ENDBRANCH   2   3
ENDBRANCH   1   2
BRANCH   1  18
ATOM     18  C   UNL     1     100.975  63.872 223.834  1.00  0.00     0.000 C 
BRANCH  18  19
ATOM     19  C   UNL     1     100.953  62.423 224.364  1.00  0.00     0.000 C 
BRANCH  19  20
ATOM     20  C   UNL     1     102.109  62.058 225.315  1.00  0.00     0.000 C 
BRANCH  20  21
ATOM     21  C   UNL     1     102.463  63.146 226.346  1.00  0.00     0.000 C 
BRANCH  21  22
ATOM     22  C   UNL     1     101.466  63.233 227.522  1.00  0.00     0.000 C 
BRANCH  22  23
ATOM     23  C   UNL     1     101.054  64.682 227.838  1.00  0.00     0.000 C 
BRANCH  23  24
ATOM     24  C   UNL     1      99.529  64.844 228.033  1.00  0.00    -0.000 C 
BRANCH  24  25
ATOM     25  C   UNL     1      99.136  66.100 228.832  1.00  0.00    -0.000 C 
BRANCH  25  26
ATOM     26  C   UNL     1      97.794  66.735 228.421  1.00  0.00    -0.000 C 
BRANCH  26  27
ATOM     27  C   UNL     1      96.564  66.069 229.079  1.00  0.00    -0.000 C 
BRANCH  27  28
ATOM     28  C   UNL     1      96.548  66.233 230.606  1.00  0.00    -0.000 C 
BRANCH  28  29
ATOM     29  C   UNL     1      96.474  64.870 231.308  1.00  0.00    -0.000 C 
BRANCH  29  30
ATOM     30  C   UNL     1      96.612  63.695 230.327  1.00  0.00    -0.000 C 
BRANCH  30  31
ATOM     31  C   UNL     1      97.875  62.858 230.580  1.00  0.00    -0.003 C 
ATOM     32  C   UNL     1      98.789  63.535 231.598  1.00  0.00     0.004 C 
ENDBRANCH  30  31
ENDBRANCH  29  30
ENDBRANCH  28  29
ENDBRANCH  27  28
ENDBRANCH  26  27
ENDBRANCH  25  26
ENDBRANCH  24  25
ENDBRANCH  23  24
ENDBRANCH  22  23
ENDBRANCH  21  22
ENDBRANCH  20  21
ENDBRANCH  19  20
ENDBRANCH  18  19
ENDBRANCH   1  18
TORSDOF 28
ENDMDL
MODEL 5
REMARK VINA RESULT:    -2.284      3.576      7.451
REMARK INTER + INTRA:         -12.435
REMARK INTER:                  -6.265
REMARK INTRA:                  -6.169
REMARK UNBOUND:                -6.413
REMARK SMILES CCCCCCCCCCCCCCCCCCCCCCCCCCCCCC(=O)[O-]
REMARK SMILES IDX 16 1 17 2 18 3 19 4 20 5 21 6 22 7 23 8 24 9 25 10 26 11
REMARK SMILES IDX 27 12 28 13 29 14 30 15 31 16 32 17 15 18 14 19 13 20 12 21
REMARK SMILES IDX 11 22 10 23 9 24 8 25 7 26 6 27 5 28 4 29 3 30 2 31 1 32
REMARK H PARENT
REMARK Flexibility Score: inf
ROOT
ATOM      1  C   UNL     1      99.216  56.094 224.186  1.00  0.00     0.000 C 
ENDROOT
BRANCH   1   2
ATOM      2  C   UNL     1      99.306  57.216 225.237  1.00  0.00     0.000 C 
BRANCH   2   3
ATOM      3  C   UNL     1      97.937  57.580 225.832  1.00  0.00     0.000 C 
BRANCH   3   4
ATOM      4  C   UNL     1      97.027  56.352 226.012  1.00  0.00     0.000 C 
BRANCH   4   5
ATOM      5  C   UNL     1      95.693  56.498 225.263  1.00  0.00     0.000 C 
BRANCH   5   6
ATOM      6  C   UNL     1      95.714  57.642 224.233  1.00  0.00     0.000 C 
BRANCH   6   7
ATOM      7  C   UNL     1      95.284  57.183 222.828  1.00  0.00     0.000 C 
BRANCH   7   8
ATOM      8  C   UNL     1      94.764  55.732 222.752  1.00  0.00     0.000 C 
BRANCH   8   9
ATOM      9  C   UNL     1      95.434  54.851 221.679  1.00  0.00     0.000 C 
BRANCH   9  10
ATOM     10  C   UNL     1      96.392  53.775 222.221  1.00  0.00     0.000 C 
BRANCH  10  11
ATOM     11  C   UNL     1      95.919  53.178 223.557  1.00  0.00     0.000 C 
BRANCH  11  12
ATOM     12  C   UNL     1      97.061  52.994 224.571  1.00  0.00     0.000 C 
BRANCH  12  13
ATOM     13  C   UNL     1      96.626  52.571 225.987  1.00  0.00     0.006 C 
BRANCH  13  14
ATOM     14  C   UNL     1      95.174  52.948 226.340  1.00  0.00     0.053 C 
BRANCH  14  15
ATOM     15  C   UNL     1      95.048  53.519 227.721  1.00  0.00     0.041 C 
ATOM     16  O   UNL     1      95.565  52.925 228.704  1.00  0.00    -0.550 OA
ATOM     17  O   UNL     1      94.324  54.686 227.930  1.00  0.00    -0.550 OA
ENDBRANCH  14  15
ENDBRANCH  13  14
ENDBRANCH  12  13
ENDBRANCH  11  12
ENDBRANCH  10  11
ENDBRANCH   9  10
ENDBRANCH   8   9
ENDBRANCH   7   8
ENDBRANCH   6   7
ENDBRANCH   5   6
ENDBRANCH   4   5
ENDBRANCH   3   4
ENDBRANCH   2   3
ENDBRANCH   1   2
BRANCH   1  18
ATOM     18  C   UNL     1      99.002  56.629 222.759  1.00  0.00     0.000 C 
BRANCH  18  19
ATOM     19  C   UNL     1      99.380  55.649 221.629  1.00  0.00     0.000 C 
BRANCH  19  20
ATOM     20  C   UNL     1     100.582  56.081 220.767  1.00  0.00     0.000 C 
BRANCH  20  21
ATOM     21  C   UNL     1     100.894  55.148 219.582  1.00  0.00     0.000 C 
BRANCH  21  22
ATOM     22  C   UNL     1      99.894  53.981 219.431  1.00  0.00     0.000 C 
BRANCH  22  23
ATOM     23  C   UNL     1      98.963  54.158 218.220  1.00  0.00     0.000 C 
BRANCH  23  24
ATOM     24  C   UNL     1      97.501  54.457 218.624  1.00  0.00    -0.000 C 
BRANCH  24  25
ATOM     25  C   UNL     1      97.008  55.848 218.187  1.00  0.00    -0.000 C 
BRANCH  25  26
ATOM     26  C   UNL     1      97.183  56.959 219.239  1.00  0.00    -0.000 C 
BRANCH  26  27
ATOM     27  C   UNL     1      98.306  57.965 218.900  1.00  0.00    -0.000 C 
BRANCH  27  28
ATOM     28  C   UNL     1      98.831  57.806 217.465  1.00  0.00    -0.000 C 
BRANCH  28  29
ATOM     29  C   UNL     1     100.220  58.441 217.310  1.00  0.00    -0.000 C 
BRANCH  29  30
ATOM     30  C   UNL     1     100.719  59.090 218.611  1.00  0.00    -0.000 C 
BRANCH  30  31
ATOM     31  C   UNL     1     102.224  58.883 218.836  1.00  0.00    -0.003 C 
ATOM     32  C   UNL     1     102.806  57.915 217.809  1.00  0.00     0.004 C 
ENDBRANCH  30  31
ENDBRANCH  29  30
ENDBRANCH  28  29
ENDBRANCH  27  28
ENDBRANCH  26  27
ENDBRANCH  25  26
ENDBRANCH  24  25
ENDBRANCH  23  24
ENDBRANCH  22  23
ENDBRANCH  21  22
ENDBRANCH  20  21
ENDBRANCH  19  20
ENDBRANCH  18  19
ENDBRANCH   1  18
TORSDOF 28
ENDMDL
MODEL 6
REMARK VINA RESULT:    -2.260      7.037     10.289
REMARK INTER + INTRA:         -12.373
REMARK INTER:                  -6.227
REMARK INTRA:                  -6.147
REMARK UNBOUND:                -6.413
REMARK SMILES CCCCCCCCCCCCCCCCCCCCCCCCCCCCCC(=O)[O-]
REMARK SMILES IDX 16 1 17 2 18 3 19 4 20 5 21 6 22 7 23 8 24 9 25 10 26 11
REMARK SMILES IDX 27 12 28 13 29 14 30 15 31 16 32 17 15 18 14 19 13 20 12 21
REMARK SMILES IDX 11 22 10 23 9 24 8 25 7 26 6 27 5 28 4 29 3 30 2 31 1 32
REMARK H PARENT
REMARK Flexibility Score: inf
ROOT
ATOM      1  C   UNL     1      96.697  64.013 225.295  1.00  0.00     0.000 C 
ENDROOT
BRANCH   1   2
ATOM      2  C   UNL     1      96.217  64.406 223.886  1.00  0.00     0.000 C 
BRANCH   2   3
ATOM      3  C   UNL     1      95.252  65.602 223.903  1.00  0.00     0.000 C 
BRANCH   3   4
ATOM      4  C   UNL     1      95.878  66.873 223.302  1.00  0.00     0.000 C 
BRANCH   4   5
ATOM      5  C   UNL     1      96.460  67.803 224.379  1.00  0.00     0.000 C 
BRANCH   5   6
ATOM      6  C   UNL     1      97.999  67.840 224.359  1.00  0.00     0.000 C 
BRANCH   6   7
ATOM      7  C   UNL     1      98.623  67.208 225.617  1.00  0.00     0.000 C 
BRANCH   7   8
ATOM      8  C   UNL     1     100.065  66.691 225.434  1.00  0.00     0.000 C 
BRANCH   8   9
ATOM      9  C   UNL     1     100.381  66.111 224.040  1.00  0.00     0.000 C 
BRANCH   9  10
ATOM     10  C   UNL     1      99.777  64.724 223.757  1.00  0.00     0.000 C 
BRANCH  10  11
ATOM     11  C   UNL     1     100.737  63.575 224.109  1.00  0.00     0.000 C 
BRANCH  11  12
ATOM     12  C   UNL     1     100.392  62.892 225.443  1.00  0.00     0.000 C 
BRANCH  12  13
ATOM     13  C   UNL     1     101.492  62.951 226.521  1.00  0.00     0.006 C 
BRANCH  13  14
ATOM     14  C   UNL     1     102.529  64.069 226.301  1.00  0.00     0.053 C 
BRANCH  14  15
ATOM     15  C   UNL     1     103.907  63.533 226.048  1.00  0.00     0.041 C 
ATOM     16  O   UNL     1     104.246  63.173 224.890  1.00  0.00    -0.550 OA
ATOM     17  O   UNL     1     104.805  63.393 227.099  1.00  0.00    -0.550 OA
ENDBRANCH  14  15
ENDBRANCH  13  14
ENDBRANCH  12  13
ENDBRANCH  11  12
ENDBRANCH  10  11
ENDBRANCH   9  10
ENDBRANCH   8   9
ENDBRANCH   7   8
ENDBRANCH   6   7
ENDBRANCH   5   6
ENDBRANCH   4   5
ENDBRANCH   3   4
ENDBRANCH   2   3
ENDBRANCH   1   2
BRANCH   1  18
ATOM     18  C   UNL     1      95.806  64.588 226.410  1.00  0.00     0.000 C 
BRANCH  18  19
ATOM     19  C   UNL     1      96.543  64.944 227.718  1.00  0.00     0.000 C 
BRANCH  19  20
ATOM     20  C   UNL     1      98.001  64.453 227.798  1.00  0.00     0.000 C 
BRANCH  20  21
ATOM     21  C   UNL     1      98.339  63.638 229.061  1.00  0.00     0.000 C 
BRANCH  21  22
ATOM     22  C   UNL     1      98.591  62.140 228.783  1.00  0.00     0.000 C 
BRANCH  22  23
ATOM     23  C   UNL     1      97.336  61.420 228.258  1.00  0.00     0.000 C 
BRANCH  23  24
ATOM     24  C   UNL     1      97.536  60.811 226.852  1.00  0.00    -0.000 C 
BRANCH  24  25
ATOM     25  C   UNL     1      97.143  59.326 226.756  1.00  0.00    -0.000 C 
BRANCH  25  26
ATOM     26  C   UNL     1      97.104  58.578 228.102  1.00  0.00    -0.000 C 
BRANCH  26  27
ATOM     27  C   UNL     1      98.289  57.607 228.308  1.00  0.00    -0.000 C 
BRANCH  27  28
ATOM     28  C   UNL     1      99.426  58.226 229.134  1.00  0.00    -0.000 C 
BRANCH  28  29
ATOM     29  C   UNL     1     100.737  58.252 228.337  1.00  0.00    -0.000 C 
BRANCH  29  30
ATOM     30  C   UNL     1     100.896  59.536 227.507  1.00  0.00    -0.000 C 
BRANCH  30  31
ATOM     31  C   UNL     1     101.002  59.256 226.000  1.00  0.00    -0.003 C 
ATOM     32  C   UNL     1     100.825  57.770 225.702  1.00  0.00     0.004 C 
ENDBRANCH  30  31
ENDBRANCH  29  30
ENDBRANCH  28  29
ENDBRANCH  27  28
ENDBRANCH  26  27
ENDBRANCH  25  26
ENDBRANCH  24  25
ENDBRANCH  23  24
ENDBRANCH  22  23
ENDBRANCH  21  22
ENDBRANCH  20  21
ENDBRANCH  19  20
ENDBRANCH  18  19
ENDBRANCH   1  18
TORSDOF 28
ENDMDL
MODEL 7
REMARK VINA RESULT:    -2.250      7.688     11.888
REMARK INTER + INTRA:         -12.346
REMARK INTER:                  -6.244
REMARK INTRA:                  -6.103
REMARK UNBOUND:                -6.413
REMARK SMILES CCCCCCCCCCCCCCCCCCCCCCCCCCCCCC(=O)[O-]
REMARK SMILES IDX 16 1 17 2 18 3 19 4 20 5 21 6 22 7 23 8 24 9 25 10 26 11
REMARK SMILES IDX 27 12 28 13 29 14 30 15 31 16 32 17 15 18 14 19 13 20 12 21
REMARK SMILES IDX 11 22 10 23 9 24 8 25 7 26 6 27 5 28 4 29 3 30 2 31 1 32
REMARK H PARENT
REMARK Flexibility Score: inf
ROOT
ATOM      1  C   UNL     1     102.737  61.497 225.371  1.00  0.00     0.000 C 
ENDROOT
BRANCH   1   2
ATOM      2  C   UNL     1     103.663  62.677 225.025  1.00  0.00     0.000 C 
BRANCH   2   3
ATOM      3  C   UNL     1     104.033  63.519 226.256  1.00  0.00     0.000 C 
BRANCH   3   4
ATOM      4  C   UNL     1     103.203  64.811 226.356  1.00  0.00     0.000 C 
BRANCH   4   5
ATOM      5  C   UNL     1     102.281  64.821 227.586  1.00  0.00     0.000 C 
BRANCH   5   6
ATOM      6  C   UNL     1     102.501  63.601 228.499  1.00  0.00     0.000 C 
BRANCH   6   7
ATOM      7  C   UNL     1     101.194  62.847 228.805  1.00  0.00     0.000 C 
BRANCH   7   8
ATOM      8  C   UNL     1      99.948  63.744 228.951  1.00  0.00     0.000 C 
BRANCH   8   9
ATOM      9  C   UNL     1      99.147  63.546 230.254  1.00  0.00     0.000 C 
BRANCH   9  10
ATOM     10  C   UNL     1      98.519  62.151 230.430  1.00  0.00     0.000 C 
BRANCH  10  11
ATOM     11  C   UNL     1      97.063  62.089 229.939  1.00  0.00     0.000 C 
BRANCH  11  12
ATOM     12  C   UNL     1      96.878  61.163 228.725  1.00  0.00     0.000 C 
BRANCH  12  13
ATOM     13  C   UNL     1      98.178  60.609 228.111  1.00  0.00     0.006 C 
BRANCH  13  14
ATOM     14  C   UNL     1      98.420  59.114 228.393  1.00  0.00     0.053 C 
BRANCH  14  15
ATOM     15  C   UNL     1      97.267  58.255 227.966  1.00  0.00     0.041 C 
ATOM     16  O   UNL     1      96.967  58.153 226.748  1.00  0.00    -0.550 OA
ATOM     17  O   UNL     1      96.497  57.598 228.919  1.00  0.00    -0.550 OA
ENDBRANCH  14  15
ENDBRANCH  13  14
ENDBRANCH  12  13
ENDBRANCH  11  12
ENDBRANCH  10  11
ENDBRANCH   9  10
ENDBRANCH   8   9
ENDBRANCH   7   8
ENDBRANCH   6   7
ENDBRANCH   5   6
ENDBRANCH   4   5
ENDBRANCH   3   4
ENDBRANCH   2   3
ENDBRANCH   1   2
BRANCH   1  18
ATOM     18  C   UNL     1     101.401  61.544 224.609  1.00  0.00     0.000 C 
BRANCH  18  19
ATOM     19  C   UNL     1     100.181  61.966 225.455  1.00  0.00     0.000 C 
BRANCH  19  20
ATOM     20  C   UNL     1      99.704  63.414 225.233  1.00  0.00     0.000 C 
BRANCH  20  21
ATOM     21  C   UNL     1     100.363  64.136 224.043  1.00  0.00     0.000 C 
BRANCH  21  22
ATOM     22  C   UNL     1     100.076  65.653 224.002  1.00  0.00     0.000 C 
BRANCH  22  23
ATOM     23  C   UNL     1      99.781  66.233 225.396  1.00  0.00     0.000 C 
BRANCH  23  24
ATOM     24  C   UNL     1      98.648  67.284 225.382  1.00  0.00    -0.000 C 
BRANCH  24  25
ATOM     25  C   UNL     1      97.828  67.297 224.079  1.00  0.00    -0.000 C 
BRANCH  25  26
ATOM     26  C   UNL     1      96.302  67.223 224.273  1.00  0.00    -0.000 C 
BRANCH  26  27
ATOM     27  C   UNL     1      95.688  65.865 223.861  1.00  0.00    -0.000 C 
BRANCH  27  28
ATOM     28  C   UNL     1      94.413  65.528 224.649  1.00  0.00    -0.000 C 
BRANCH  28  29
ATOM     29  C   UNL     1      94.727  64.617 225.844  1.00  0.00    -0.000 C 
BRANCH  29  30
ATOM     30  C   UNL     1      96.208  64.208 225.899  1.00  0.00    -0.000 C 
BRANCH  30  31
ATOM     31  C   UNL     1      96.863  64.539 227.249  1.00  0.00    -0.003 C 
ATOM     32  C   UNL     1      96.289  65.824 227.838  1.00  0.00     0.004 C 
ENDBRANCH  30  31
ENDBRANCH  29  30
ENDBRANCH  28  29
ENDBRANCH  27  28
ENDBRANCH  26  27
ENDBRANCH  25  26
ENDBRANCH  24  25
ENDBRANCH  23  24
ENDBRANCH  22  23
ENDBRANCH  21  22
ENDBRANCH  20  21
ENDBRANCH  19  20
ENDBRANCH  18  19
ENDBRANCH   1  18
TORSDOF 28
ENDMDL
MODEL 8
REMARK VINA RESULT:    -2.218      2.638      6.237
REMARK INTER + INTRA:         -12.262
REMARK INTER:                  -5.939
REMARK INTRA:                  -6.322
REMARK UNBOUND:                -6.413
REMARK SMILES CCCCCCCCCCCCCCCCCCCCCCCCCCCCCC(=O)[O-]
REMARK SMILES IDX 16 1 17 2 18 3 19 4 20 5 21 6 22 7 23 8 24 9 25 10 26 11
REMARK SMILES IDX 27 12 28 13 29 14 30 15 31 16 32 17 15 18 14 19 13 20 12 21
REMARK SMILES IDX 11 22 10 23 9 24 8 25 7 26 6 27 5 28 4 29 3 30 2 31 1 32
REMARK H PARENT
REMARK Flexibility Score: inf
ROOT
ATOM      1  C   UNL     1      95.322  55.958 224.688  1.00  0.00     0.000 C 
ENDROOT
BRANCH   1   2
ATOM      2  C   UNL     1      94.691  57.297 224.268  1.00  0.00     0.000 C 
BRANCH   2   3
ATOM      3  C   UNL     1      95.444  57.969 223.109  1.00  0.00     0.000 C 
BRANCH   3   4
ATOM      4  C   UNL     1      95.662  57.018 221.919  1.00  0.00     0.000 C 
BRANCH   4   5
ATOM      5  C   UNL     1      97.020  57.239 221.234  1.00  0.00     0.000 C 
BRANCH   5   6
ATOM      6  C   UNL     1      98.179  56.559 221.985  1.00  0.00     0.000 C 
BRANCH   6   7
ATOM      7  C   UNL     1      99.517  57.299 221.806  1.00  0.00     0.000 C 
BRANCH   7   8
ATOM      8  C   UNL     1     100.750  56.383 221.669  1.00  0.00     0.000 C 
BRANCH   8   9
ATOM      9  C   UNL     1     101.164  55.645 222.958  1.00  0.00     0.000 C 
BRANCH   9  10
ATOM     10  C   UNL     1     100.607  54.216 223.100  1.00  0.00     0.000 C 
BRANCH  10  11
ATOM     11  C   UNL     1     100.055  53.932 224.507  1.00  0.00     0.000 C 
BRANCH  11  12
ATOM     12  C   UNL     1      98.828  54.791 224.855  1.00  0.00     0.000 C 
BRANCH  12  13
ATOM     13  C   UNL     1      99.036  55.813 225.990  1.00  0.00     0.006 C 
BRANCH  13  14
ATOM     14  C   UNL     1      98.669  57.260 225.610  1.00  0.00     0.053 C 
BRANCH  14  15
ATOM     15  C   UNL     1      97.652  57.857 226.537  1.00  0.00     0.041 C 
ATOM     16  O   UNL     1      97.164  58.992 226.297  1.00  0.00    -0.550 OA
ATOM     17  O   UNL     1      97.273  57.177 227.687  1.00  0.00    -0.550 OA
ENDBRANCH  14  15
ENDBRANCH  13  14
ENDBRANCH  12  13
ENDBRANCH  11  12
ENDBRANCH  10  11
ENDBRANCH   9  10
ENDBRANCH   8   9
ENDBRANCH   7   8
ENDBRANCH   6   7
ENDBRANCH   5   6
ENDBRANCH   4   5
ENDBRANCH   3   4
ENDBRANCH   2   3
ENDBRANCH   1   2
BRANCH   1  18
ATOM     18  C   UNL     1      94.330  54.783 224.618  1.00  0.00     0.000 C 
BRANCH  18  19
ATOM     19  C   UNL     1      94.967  53.406 224.338  1.00  0.00     0.000 C 
BRANCH  19  20
ATOM     20  C   UNL     1      95.334  53.145 222.864  1.00  0.00     0.000 C 
BRANCH  20  21
ATOM     21  C   UNL     1      96.766  52.625 222.638  1.00  0.00     0.000 C 
BRANCH  21  22
ATOM     22  C   UNL     1      97.411  53.135 221.331  1.00  0.00     0.000 C 
BRANCH  22  23
ATOM     23  C   UNL     1      96.375  53.708 220.348  1.00  0.00     0.000 C 
BRANCH  23  24
ATOM     24  C   UNL     1      97.001  54.151 219.006  1.00  0.00    -0.000 C 
BRANCH  24  25
ATOM     25  C   UNL     1      98.535  54.271 219.044  1.00  0.00    -0.000 C 
BRANCH  25  26
ATOM     26  C   UNL     1      99.096  55.587 218.476  1.00  0.00    -0.000 C 
BRANCH  26  27
ATOM     27  C   UNL     1      98.073  56.390 217.640  1.00  0.00    -0.000 C 
BRANCH  27  28
ATOM     28  C   UNL     1      98.610  57.762 217.204  1.00  0.00    -0.000 C 
BRANCH  28  29
ATOM     29  C   UNL     1      98.892  58.656 218.419  1.00  0.00    -0.000 C 
BRANCH  29  30
ATOM     30  C   UNL     1     100.143  59.529 218.230  1.00  0.00    -0.000 C 
BRANCH  30  31
ATOM     31  C   UNL     1     101.371  58.971 218.966  1.00  0.00    -0.003 C 
ATOM     32  C   UNL     1     102.075  57.904 218.132  1.00  0.00     0.004 C 
ENDBRANCH  30  31
ENDBRANCH  29  30
ENDBRANCH  28  29
ENDBRANCH  27  28
ENDBRANCH  26  27
ENDBRANCH  25  26
ENDBRANCH  24  25
ENDBRANCH  23  24
ENDBRANCH  22  23
ENDBRANCH  21  22
ENDBRANCH  20  21
ENDBRANCH  19  20
ENDBRANCH  18  19
ENDBRANCH   1  18
TORSDOF 28
ENDMDL
MODEL 9
REMARK VINA RESULT:    -2.205      2.512      6.274
REMARK INTER + INTRA:         -12.227
REMARK INTER:                  -5.875
REMARK INTRA:                  -6.352
REMARK UNBOUND:                -6.413
REMARK SMILES CCCCCCCCCCCCCCCCCCCCCCCCCCCCCC(=O)[O-]
REMARK SMILES IDX 16 1 17 2 18 3 19 4 20 5 21 6 22 7 23 8 24 9 25 10 26 11
REMARK SMILES IDX 27 12 28 13 29 14 30 15 31 16 32 17 15 18 14 19 13 20 12 21
REMARK SMILES IDX 11 22 10 23 9 24 8 25 7 26 6 27 5 28 4 29 3 30 2 31 1 32
REMARK H PARENT
REMARK Flexibility Score: inf
ROOT
ATOM      1  C   UNL     1      98.870  53.530 220.119  1.00  0.00     0.000 C 
ENDROOT
BRANCH   1   2
ATOM      2  C   UNL     1      97.406  53.105 220.331  1.00  0.00     0.000 C 
BRANCH   2   3
ATOM      3  C   UNL     1      96.776  53.750 221.575  1.00  0.00     0.000 C 
BRANCH   3   4
ATOM      4  C   UNL     1      95.331  54.219 221.329  1.00  0.00     0.000 C 
BRANCH   4   5
ATOM      5  C   UNL     1      94.926  55.377 222.256  1.00  0.00     0.000 C 
BRANCH   5   6
ATOM      6  C   UNL     1      94.308  54.887 223.578  1.00  0.00     0.000 C 
BRANCH   6   7
ATOM      7  C   UNL     1      94.621  55.821 224.761  1.00  0.00     0.000 C 
BRANCH   7   8
ATOM      8  C   UNL     1      95.408  57.095 224.389  1.00  0.00     0.000 C 
BRANCH   8   9
ATOM      9  C   UNL     1      96.752  57.272 225.124  1.00  0.00     0.000 C 
BRANCH   9  10
ATOM     10  C   UNL     1      97.324  55.991 225.759  1.00  0.00     0.000 C 
BRANCH  10  11
ATOM     11  C   UNL     1      98.061  55.103 224.742  1.00  0.00     0.000 C 
BRANCH  11  12
ATOM     12  C   UNL     1      97.968  53.605 225.076  1.00  0.00     0.000 C 
BRANCH  12  13
ATOM     13  C   UNL     1      99.253  52.790 224.825  1.00  0.00     0.006 C 
BRANCH  13  14
ATOM     14  C   UNL     1     100.115  53.317 223.662  1.00  0.00     0.053 C 
BRANCH  14  15
ATOM     15  C   UNL     1     101.576  53.347 223.997  1.00  0.00     0.041 C 
ATOM     16  O   UNL     1     101.992  52.840 225.072  1.00  0.00    -0.550 OA
ATOM     17  O   UNL     1     102.475  53.972 223.141  1.00  0.00    -0.550 OA
ENDBRANCH  14  15
ENDBRANCH  13  14
ENDBRANCH  12  13
ENDBRANCH  11  12
ENDBRANCH  10  11
ENDBRANCH   9  10
ENDBRANCH   8   9
ENDBRANCH   7   8
ENDBRANCH   6   7
ENDBRANCH   5   6
ENDBRANCH   4   5
ENDBRANCH   3   4
ENDBRANCH   2   3
ENDBRANCH   1   2
BRANCH   1  18
ATOM     18  C   UNL     1      99.070  54.368 218.844  1.00  0.00     0.000 C 
BRANCH  18  19
ATOM     19  C   UNL     1      97.772  54.739 218.095  1.00  0.00     0.000 C 
BRANCH  19  20
ATOM     20  C   UNL     1      97.449  56.245 218.059  1.00  0.00     0.000 C 
BRANCH  20  21
ATOM     21  C   UNL     1      96.944  56.829 219.391  1.00  0.00     0.000 C 
BRANCH  21  22
ATOM     22  C   UNL     1      98.015  57.632 220.161  1.00  0.00     0.000 C 
BRANCH  22  23
ATOM     23  C   UNL     1      98.142  57.188 221.628  1.00  0.00     0.000 C 
BRANCH  23  24
ATOM     24  C   UNL     1      99.528  56.587 221.957  1.00  0.00    -0.000 C 
BRANCH  24  25
ATOM     25  C   UNL     1     100.696  57.297 221.250  1.00  0.00    -0.000 C 
BRANCH  25  26
ATOM     26  C   UNL     1     101.750  56.357 220.636  1.00  0.00    -0.000 C 
BRANCH  26  27
ATOM     27  C   UNL     1     102.495  56.964 219.425  1.00  0.00    -0.000 C 
BRANCH  27  28
ATOM     28  C   UNL     1     101.719  56.800 218.110  1.00  0.00    -0.000 C 
BRANCH  28  29
ATOM     29  C   UNL     1     101.052  58.119 217.693  1.00  0.00    -0.000 C 
BRANCH  29  30
ATOM     30  C   UNL     1     100.178  57.966 216.438  1.00  0.00    -0.000 C 
BRANCH  30  31
ATOM     31  C   UNL     1      99.131  59.083 216.307  1.00  0.00    -0.003 C 
ATOM     32  C   UNL     1      99.120  59.975 217.546  1.00  0.00     0.004 C 
ENDBRANCH  30  31
ENDBRANCH  29  30
ENDBRANCH  28  29
ENDBRANCH  27  28
ENDBRANCH  26  27
ENDBRANCH  25  26
ENDBRANCH  24  25
ENDBRANCH  23  24
ENDBRANCH  22  23
ENDBRANCH  21  22
ENDBRANCH  20  21
ENDBRANCH  19  20
ENDBRANCH  18  19
ENDBRANCH   1  18
TORSDOF 28
ENDMDL
