MODEL 1
REMARK VINA RESULT:    -5.830      0.000      0.000
REMARK INTER + INTRA:          -6.204
REMARK INTER:                  -6.171
REMARK INTRA:                  -0.033
REMARK UNBOUND:                -0.033
REMARK SMILES COc1ccc2ccc(=O)oc2c1
REMARK SMILES IDX 3 1 13 2 12 3 6 4 5 5 4 6 7 7 8 8 9 9 10 10 11 11 2 12 1 13
REMARK H PARENT
REMARK Flexibility Score: inf
ROOT
ATOM      1  C   UNL     1     -37.117  -4.424 -13.347  1.00  0.00     0.122 A 
ATOM      2  C   UNL     1     -38.366  -5.077 -13.310  1.00  0.00     0.094 A 
ATOM      3  C   UNL     1     -38.431  -6.474 -13.349  1.00  0.00     0.142 A 
ATOM      4  C   UNL     1     -37.243  -7.232 -13.424  1.00  0.00     0.018 A 
ATOM      5  C   UNL     1     -36.002  -6.583 -13.461  1.00  0.00     0.016 A 
ATOM      6  C   UNL     1     -35.945  -5.186 -13.422  1.00  0.00     0.047 A 
ATOM      7  C   UNL     1     -37.341  -8.626 -13.462  1.00  0.00     0.019 A 
ATOM      8  C   UNL     1     -38.601  -9.224 -13.423  1.00  0.00     0.094 A 
ATOM      9  C   UNL     1     -39.736  -8.410 -13.347  1.00  0.00     0.336 A 
ATOM     10  O   UNL     1     -40.881  -8.931 -13.312  1.00  0.00    -0.246 OA
ATOM     11  O   UNL     1     -39.613  -7.085 -13.314  1.00  0.00    -0.423 OA
ENDROOT
BRANCH   1  12
ATOM     12  O   UNL     1     -37.000  -3.026 -13.311  1.00  0.00    -0.497 OA
ATOM     13  C   UNL     1     -36.866  -2.201 -14.463  1.00  0.00     0.278 C 
ENDBRANCH   1  12
TORSDOF 1
ENDMDL
MODEL 2
REMARK VINA RESULT:    -5.737      6.594      8.189
REMARK INTER + INTRA:          -6.106
REMARK INTER:                  -6.066
REMARK INTRA:                  -0.040
REMARK UNBOUND:                -0.033
REMARK SMILES COc1ccc2ccc(=O)oc2c1
REMARK SMILES IDX 3 1 13 2 12 3 6 4 5 5 4 6 7 7 8 8 9 9 10 10 11 11 2 12 1 13
REMARK H PARENT
REMARK Flexibility Score: inf
ROOT
ATOM      1  C   UNL     1     -31.195  -2.596 -19.698  1.00  0.00     0.122 A 
ATOM      2  C   UNL     1     -32.560  -2.809 -19.416  1.00  0.00     0.094 A 
ATOM      3  C   UNL     1     -32.947  -3.370 -18.194  1.00  0.00     0.142 A 
ATOM      4  C   UNL     1     -31.968  -3.723 -17.240  1.00  0.00     0.018 A 
ATOM      5  C   UNL     1     -30.612  -3.511 -17.521  1.00  0.00     0.016 A 
ATOM      6  C   UNL     1     -30.233  -2.950 -18.744  1.00  0.00     0.047 A 
ATOM      7  C   UNL     1     -32.386  -4.281 -16.028  1.00  0.00     0.019 A 
ATOM      8  C   UNL     1     -33.749  -4.472 -15.798  1.00  0.00     0.094 A 
ATOM      9  C   UNL     1     -34.663  -4.098 -16.789  1.00  0.00     0.336 A 
ATOM     10  O   UNL     1     -35.896  -4.262 -16.600  1.00  0.00    -0.246 OA
ATOM     11  O   UNL     1     -34.237  -3.569 -17.933  1.00  0.00    -0.423 OA
ENDROOT
BRANCH   1  12
ATOM     12  O   UNL     1     -30.757  -2.037 -20.909  1.00  0.00    -0.497 OA
ATOM     13  C   UNL     1     -29.389  -1.867 -21.267  1.00  0.00     0.278 C 
ENDBRANCH   1  12
TORSDOF 1
ENDMDL
MODEL 3
REMARK VINA RESULT:    -5.714      3.094      5.612
REMARK INTER + INTRA:          -6.081
REMARK INTER:                  -6.046
REMARK INTRA:                  -0.035
REMARK UNBOUND:                -0.033
REMARK SMILES COc1ccc2ccc(=O)oc2c1
REMARK SMILES IDX 3 1 13 2 12 3 6 4 5 5 4 6 7 7 8 8 9 9 10 10 11 11 2 12 1 13
REMARK H PARENT
REMARK Flexibility Score: inf
ROOT
ATOM      1  C   UNL     1     -36.892  -7.938 -14.489  1.00  0.00     0.122 A 
ATOM      2  C   UNL     1     -36.451  -7.533 -15.766  1.00  0.00     0.094 A 
ATOM      3  C   UNL     1     -35.658  -6.389 -15.906  1.00  0.00     0.142 A 
ATOM      4  C   UNL     1     -35.297  -5.639 -14.766  1.00  0.00     0.018 A 
ATOM      5  C   UNL     1     -35.735  -6.041 -13.498  1.00  0.00     0.016 A 
ATOM      6  C   UNL     1     -36.528  -7.186 -13.366  1.00  0.00     0.047 A 
ATOM      7  C   UNL     1     -34.503  -4.501 -14.939  1.00  0.00     0.019 A 
ATOM      8  C   UNL     1     -34.093  -4.142 -16.223  1.00  0.00     0.094 A 
ATOM      9  C   UNL     1     -34.489  -4.934 -17.307  1.00  0.00     0.336 A 
ATOM     10  O   UNL     1     -34.129  -4.626 -18.473  1.00  0.00    -0.246 OA
ATOM     11  O   UNL     1     -35.245  -6.011 -17.114  1.00  0.00    -0.423 OA
ENDROOT
BRANCH   1  12
ATOM     12  O   UNL     1     -37.689  -9.077 -14.296  1.00  0.00    -0.497 OA
ATOM     13  C   UNL     1     -38.834  -9.123 -13.451  1.00  0.00     0.278 C 
ENDBRANCH   1  12
TORSDOF 1
ENDMDL
MODEL 4
REMARK VINA RESULT:    -5.692      2.170      2.851
REMARK INTER + INTRA:          -6.058
REMARK INTER:                  -6.027
REMARK INTRA:                  -0.031
REMARK UNBOUND:                -0.033
REMARK SMILES COc1ccc2ccc(=O)oc2c1
REMARK SMILES IDX 3 1 13 2 12 3 6 4 5 5 4 6 7 7 8 8 9 9 10 10 11 11 2 12 1 13
REMARK H PARENT
REMARK Flexibility Score: inf
ROOT
ATOM      1  C   UNL     1     -36.106  -6.647 -15.199  1.00  0.00     0.122 A 
ATOM      2  C   UNL     1     -36.995  -6.032 -14.294  1.00  0.00     0.094 A 
ATOM      3  C   UNL     1     -38.150  -6.702 -13.877  1.00  0.00     0.142 A 
ATOM      4  C   UNL     1     -38.427  -7.998 -14.363  1.00  0.00     0.018 A 
ATOM      5  C   UNL     1     -37.544  -8.608 -15.263  1.00  0.00     0.016 A 
ATOM      6  C   UNL     1     -36.391  -7.933 -15.675  1.00  0.00     0.047 A 
ATOM      7  C   UNL     1     -39.589  -8.640 -13.927  1.00  0.00     0.019 A 
ATOM      8  C   UNL     1     -40.436  -7.988 -13.030  1.00  0.00     0.094 A 
ATOM      9  C   UNL     1     -40.098  -6.704 -12.590  1.00  0.00     0.336 A 
ATOM     10  O   UNL     1     -40.849  -6.100 -11.782  1.00  0.00    -0.246 OA
ATOM     11  O   UNL     1     -38.985  -6.115 -13.022  1.00  0.00    -0.423 OA
ENDROOT
BRANCH   1  12
ATOM     12  O   UNL     1     -34.935  -6.017 -15.648  1.00  0.00    -0.497 OA
ATOM     13  C   UNL     1     -34.725  -5.567 -16.982  1.00  0.00     0.278 C 
ENDBRANCH   1  12
TORSDOF 1
ENDMDL
MODEL 5
REMARK VINA RESULT:    -5.620      1.534      4.807
REMARK INTER + INTRA:          -5.982
REMARK INTER:                  -5.944
REMARK INTRA:                  -0.038
REMARK UNBOUND:                -0.033
REMARK SMILES COc1ccc2ccc(=O)oc2c1
REMARK SMILES IDX 3 1 13 2 12 3 6 4 5 5 4 6 7 7 8 8 9 9 10 10 11 11 2 12 1 13
REMARK H PARENT
REMARK Flexibility Score: inf
ROOT
ATOM      1  C   UNL     1     -38.522  -8.368 -14.190  1.00  0.00     0.122 A 
ATOM      2  C   UNL     1     -38.336  -7.244 -13.359  1.00  0.00     0.094 A 
ATOM      3  C   UNL     1     -37.266  -6.371 -13.584  1.00  0.00     0.142 A 
ATOM      4  C   UNL     1     -36.371  -6.615 -14.647  1.00  0.00     0.018 A 
ATOM      5  C   UNL     1     -36.555  -7.731 -15.473  1.00  0.00     0.016 A 
ATOM      6  C   UNL     1     -37.627  -8.600 -15.242  1.00  0.00     0.047 A 
ATOM      7  C   UNL     1     -35.312  -5.724 -14.847  1.00  0.00     0.019 A 
ATOM      8  C   UNL     1     -35.172  -4.627 -13.996  1.00  0.00     0.094 A 
ATOM      9  C   UNL     1     -36.098  -4.448 -12.963  1.00  0.00     0.336 A 
ATOM     10  O   UNL     1     -35.988  -3.465 -12.185  1.00  0.00    -0.246 OA
ATOM     11  O   UNL     1     -37.096  -5.312 -12.795  1.00  0.00    -0.423 OA
ENDROOT
BRANCH   1  12
ATOM     12  O   UNL     1     -39.578  -9.273 -14.004  1.00  0.00    -0.497 OA
ATOM     13  C   UNL     1     -40.833  -8.935 -13.422  1.00  0.00     0.278 C 
ENDBRANCH   1  12
TORSDOF 1
ENDMDL
MODEL 6
REMARK VINA RESULT:    -5.615      6.284      8.650
REMARK INTER + INTRA:          -5.976
REMARK INTER:                  -5.943
REMARK INTRA:                  -0.033
REMARK UNBOUND:                -0.033
REMARK SMILES COc1ccc2ccc(=O)oc2c1
REMARK SMILES IDX 3 1 13 2 12 3 6 4 5 5 4 6 7 7 8 8 9 9 10 10 11 11 2 12 1 13
REMARK H PARENT
REMARK Flexibility Score: inf
ROOT
ATOM      1  C   UNL     1     -34.583  -4.064 -17.051  1.00  0.00     0.122 A 
ATOM      2  C   UNL     1     -34.107  -3.488 -18.247  1.00  0.00     0.094 A 
ATOM      3  C   UNL     1     -32.734  -3.295 -18.437  1.00  0.00     0.142 A 
ATOM      4  C   UNL     1     -31.823  -3.679 -17.430  1.00  0.00     0.018 A 
ATOM      5  C   UNL     1     -32.296  -4.251 -16.242  1.00  0.00     0.016 A 
ATOM      6  C   UNL     1     -33.669  -4.441 -16.059  1.00  0.00     0.047 A 
ATOM      7  C   UNL     1     -30.458  -3.473 -17.651  1.00  0.00     0.019 A 
ATOM      8  C   UNL     1     -30.038  -2.899 -18.851  1.00  0.00     0.094 A 
ATOM      9  C   UNL     1     -30.998  -2.544 -19.805  1.00  0.00     0.336 A 
ATOM     10  O   UNL     1     -30.639  -2.024 -20.893  1.00  0.00    -0.246 OA
ATOM     11  O   UNL     1     -32.291  -2.750 -19.569  1.00  0.00    -0.423 OA
ENDROOT
BRANCH   1  12
ATOM     12  O   UNL     1     -35.949  -4.278 -16.813  1.00  0.00    -0.497 OA
ATOM     13  C   UNL     1     -36.646  -5.474 -17.146  1.00  0.00     0.278 C 
ENDBRANCH   1  12
TORSDOF 1
ENDMDL
MODEL 7
REMARK VINA RESULT:    -5.587      2.014      2.906
REMARK INTER + INTRA:          -5.947
REMARK INTER:                  -5.914
REMARK INTRA:                  -0.033
REMARK UNBOUND:                -0.033
REMARK SMILES COc1ccc2ccc(=O)oc2c1
REMARK SMILES IDX 3 1 13 2 12 3 6 4 5 5 4 6 7 7 8 8 9 9 10 10 11 11 2 12 1 13
REMARK H PARENT
REMARK Flexibility Score: inf
ROOT
ATOM      1  C   UNL     1     -38.914  -4.360 -12.215  1.00  0.00     0.122 A 
ATOM      2  C   UNL     1     -37.973  -5.128 -12.931  1.00  0.00     0.094 A 
ATOM      3  C   UNL     1     -38.273  -6.445 -13.297  1.00  0.00     0.142 A 
ATOM      4  C   UNL     1     -39.521  -7.005 -12.951  1.00  0.00     0.018 A 
ATOM      5  C   UNL     1     -40.455  -6.242 -12.240  1.00  0.00     0.016 A 
ATOM      6  C   UNL     1     -40.149  -4.926 -11.877  1.00  0.00     0.047 A 
ATOM      7  C   UNL     1     -39.790  -8.323 -13.332  1.00  0.00     0.019 A 
ATOM      8  C   UNL     1     -38.825  -9.041 -14.038  1.00  0.00     0.094 A 
ATOM      9  C   UNL     1     -37.610  -8.421 -14.348  1.00  0.00     0.336 A 
ATOM     10  O   UNL     1     -36.727  -9.053 -14.984  1.00  0.00    -0.246 OA
ATOM     11  O   UNL     1     -37.380  -7.166 -13.973  1.00  0.00    -0.423 OA
ENDROOT
BRANCH   1  12
ATOM     12  O   UNL     1     -38.661  -3.036 -11.824  1.00  0.00    -0.497 OA
ATOM     13  C   UNL     1     -37.866  -2.667 -10.703  1.00  0.00     0.278 C 
ENDBRANCH   1  12
TORSDOF 1
ENDMDL
MODEL 8
REMARK VINA RESULT:    -5.537      5.379      7.900
REMARK INTER + INTRA:          -5.894
REMARK INTER:                  -5.859
REMARK INTRA:                  -0.035
REMARK UNBOUND:                -0.033
REMARK SMILES COc1ccc2ccc(=O)oc2c1
REMARK SMILES IDX 3 1 13 2 12 3 6 4 5 5 4 6 7 7 8 8 9 9 10 10 11 11 2 12 1 13
REMARK H PARENT
REMARK Flexibility Score: inf
ROOT
ATOM      1  C   UNL     1     -35.095  -5.798 -16.769  1.00  0.00     0.122 A 
ATOM      2  C   UNL     1     -33.797  -5.372 -16.422  1.00  0.00     0.094 A 
ATOM      3  C   UNL     1     -33.121  -4.448 -17.227  1.00  0.00     0.142 A 
ATOM      4  C   UNL     1     -33.741  -3.941 -18.389  1.00  0.00     0.018 A 
ATOM      5  C   UNL     1     -35.030  -4.365 -18.733  1.00  0.00     0.016 A 
ATOM      6  C   UNL     1     -35.700  -5.288 -17.924  1.00  0.00     0.047 A 
ATOM      7  C   UNL     1     -33.039  -3.019 -19.172  1.00  0.00     0.019 A 
ATOM      8  C   UNL     1     -31.756  -2.630 -18.785  1.00  0.00     0.094 A 
ATOM      9  C   UNL     1     -31.205  -3.174 -17.620  1.00  0.00     0.336 A 
ATOM     10  O   UNL     1     -30.049  -2.835 -17.255  1.00  0.00    -0.246 OA
ATOM     11  O   UNL     1     -31.895  -4.050 -16.894  1.00  0.00    -0.423 OA
ENDROOT
BRANCH   1  12
ATOM     12  O   UNL     1     -35.814  -6.723 -15.996  1.00  0.00    -0.497 OA
ATOM     13  C   UNL     1     -36.044  -6.594 -14.597  1.00  0.00     0.278 C 
ENDBRANCH   1  12
TORSDOF 1
ENDMDL
MODEL 9
REMARK VINA RESULT:    -5.525      2.508      3.837
REMARK INTER + INTRA:          -5.881
REMARK INTER:                  -5.847
REMARK INTRA:                  -0.034
REMARK UNBOUND:                -0.033
REMARK SMILES COc1ccc2ccc(=O)oc2c1
REMARK SMILES IDX 3 1 13 2 12 3 6 4 5 5 4 6 7 7 8 8 9 9 10 10 11 11 2 12 1 13
REMARK H PARENT
REMARK Flexibility Score: inf
ROOT
ATOM      1  C   UNL     1     -39.836  -5.600 -12.373  1.00  0.00     0.122 A 
ATOM      2  C   UNL     1     -38.676  -5.366 -13.139  1.00  0.00     0.094 A 
ATOM      3  C   UNL     1     -38.179  -6.363 -13.986  1.00  0.00     0.142 A 
ATOM      4  C   UNL     1     -38.841  -7.607 -14.074  1.00  0.00     0.018 A 
ATOM      5  C   UNL     1     -39.993  -7.839 -13.312  1.00  0.00     0.016 A 
ATOM      6  C   UNL     1     -40.484  -6.837 -12.468  1.00  0.00     0.047 A 
ATOM      7  C   UNL     1     -38.320  -8.582 -14.929  1.00  0.00     0.019 A 
ATOM      8  C   UNL     1     -37.169  -8.301 -15.666  1.00  0.00     0.094 A 
ATOM      9  C   UNL     1     -36.566  -7.046 -15.529  1.00  0.00     0.336 A 
ATOM     10  O   UNL     1     -35.527  -6.774 -16.185  1.00  0.00    -0.246 OA
ATOM     11  O   UNL     1     -37.083  -6.137 -14.707  1.00  0.00    -0.423 OA
ENDROOT
BRANCH   1  12
ATOM     12  O   UNL     1     -40.373  -4.633 -11.509  1.00  0.00    -0.497 OA
ATOM     13  C   UNL     1     -40.685  -4.863 -10.139  1.00  0.00     0.278 C 
ENDBRANCH   1  12
TORSDOF 1
ENDMDL
