MODEL 1
REMARK VINA RESULT:    -5.920      0.000      0.000
REMARK INTER + INTRA:          -6.921
REMARK INTER:                  -6.785
REMARK INTRA:                  -0.136
REMARK UNBOUND:                -0.136
REMARK SMILES O=C([O-])C=Cc1ccc(O)cc1
REMARK SMILES IDX 6 1 7 2 12 3 8 4 11 5 9 6 5 7 4 8 2 9 1 10 3 11 10 12
REMARK H PARENT 10 13
REMARK Flexibility Score: inf
ROOT
ATOM      1  C   UNL     1      72.881  41.437  -4.124  1.00  0.00    -0.025 A 
ATOM      2  C   UNL     1      73.719  41.187  -5.229  1.00  0.00     0.012 A 
ATOM      3  C   UNL     1      71.675  40.723  -4.012  1.00  0.00     0.012 A 
ATOM      4  C   UNL     1      73.365  40.227  -6.183  1.00  0.00     0.047 A 
ATOM      5  C   UNL     1      71.326  39.764  -4.968  1.00  0.00     0.047 A 
ATOM      6  C   UNL     1      72.172  39.512  -6.055  1.00  0.00     0.115 A 
ENDROOT
BRANCH   1   7
ATOM      7  C   UNL     1      73.202  42.452  -3.091  1.00  0.00     0.010 C 
ATOM      8  C   UNL     1      73.190  43.774  -3.316  1.00  0.00     0.025 C 
BRANCH   8   9
ATOM      9  C   UNL     1      73.526  44.753  -2.268  1.00  0.00     0.064 C 
ATOM     10  O   UNL     1      73.174  44.575  -1.072  1.00  0.00    -0.545 OA
ATOM     11  O   UNL     1      74.243  45.894  -2.606  1.00  0.00    -0.545 OA
ENDBRANCH   8   9
ENDBRANCH   1   7
BRANCH   6  12
ATOM     12  O   UNL     1      71.834  38.558  -7.012  1.00  0.00    -0.508 OA
ATOM     13  H   UNL     1      70.934  38.570  -7.478  1.00  0.00     0.293 HD
ENDBRANCH   6  12
TORSDOF 3
ENDMDL
MODEL 2
REMARK VINA RESULT:    -5.062      1.161      5.690
REMARK INTER + INTRA:          -5.938
REMARK INTER:                  -5.799
REMARK INTRA:                  -0.139
REMARK UNBOUND:                -0.136
REMARK SMILES O=C([O-])C=Cc1ccc(O)cc1
REMARK SMILES IDX 6 1 7 2 12 3 8 4 11 5 9 6 5 7 4 8 2 9 1 10 3 11 10 12
REMARK H PARENT 10 13
REMARK Flexibility Score: inf
ROOT
ATOM      1  C   UNL     1      73.153  42.646  -3.549  1.00  0.00    -0.025 A 
ATOM      2  C   UNL     1      74.106  43.327  -4.334  1.00  0.00     0.012 A 
ATOM      3  C   UNL     1      72.729  43.228  -2.342  1.00  0.00     0.012 A 
ATOM      4  C   UNL     1      74.599  44.572  -3.926  1.00  0.00     0.047 A 
ATOM      5  C   UNL     1      73.224  44.472  -1.939  1.00  0.00     0.047 A 
ATOM      6  C   UNL     1      74.159  45.147  -2.732  1.00  0.00     0.115 A 
ENDROOT
BRANCH   1   7
ATOM      7  C   UNL     1      72.607  41.320  -3.928  1.00  0.00     0.010 C 
ATOM      8  C   UNL     1      72.607  40.845  -5.182  1.00  0.00     0.025 C 
BRANCH   8   9
ATOM      9  C   UNL     1      72.044  39.527  -5.523  1.00  0.00     0.064 C 
ATOM     10  O   UNL     1      71.330  38.891  -4.703  1.00  0.00    -0.545 OA
ATOM     11  O   UNL     1      72.308  38.975  -6.769  1.00  0.00    -0.545 OA
ENDBRANCH   8   9
ENDBRANCH   1   7
BRANCH   6  12
ATOM     12  O   UNL     1      74.658  46.388  -2.341  1.00  0.00    -0.508 OA
ATOM     13  H   UNL     1      74.562  46.722  -1.389  1.00  0.00     0.293 HD
ENDBRANCH   6  12
TORSDOF 3
ENDMDL
MODEL 3
REMARK VINA RESULT:    -4.980      1.532      5.763
REMARK INTER + INTRA:          -5.844
REMARK INTER:                  -5.694
REMARK INTRA:                  -0.150
REMARK UNBOUND:                -0.136
REMARK SMILES O=C([O-])C=Cc1ccc(O)cc1
REMARK SMILES IDX 6 1 7 2 12 3 8 4 11 5 9 6 5 7 4 8 2 9 1 10 3 11 10 12
REMARK H PARENT 10 13
REMARK Flexibility Score: inf
ROOT
ATOM      1  C   UNL     1      73.990  42.703  -4.561  1.00  0.00    -0.025 A 
ATOM      2  C   UNL     1      74.363  44.060  -4.475  1.00  0.00     0.012 A 
ATOM      3  C   UNL     1      73.282  42.125  -3.492  1.00  0.00     0.012 A 
ATOM      4  C   UNL     1      74.010  44.821  -3.355  1.00  0.00     0.047 A 
ATOM      5  C   UNL     1      72.932  42.891  -2.375  1.00  0.00     0.047 A 
ATOM      6  C   UNL     1      73.294  44.241  -2.306  1.00  0.00     0.115 A 
ENDROOT
BRANCH   1   7
ATOM      7  C   UNL     1      74.348  41.847  -5.719  1.00  0.00     0.010 C 
ATOM      8  C   UNL     1      73.632  40.782  -6.107  1.00  0.00     0.025 C 
BRANCH   8   9
ATOM      9  C   UNL     1      74.025  39.948  -7.255  1.00  0.00     0.064 C 
ATOM     10  O   UNL     1      75.125  40.123  -7.843  1.00  0.00    -0.545 OA
ATOM     11  O   UNL     1      73.165  38.952  -7.701  1.00  0.00    -0.545 OA
ENDBRANCH   8   9
ENDBRANCH   1   7
BRANCH   6  12
ATOM     12  O   UNL     1      72.949  45.013  -1.198  1.00  0.00    -0.508 OA
ATOM     13  H   UNL     1      72.062  44.893  -0.724  1.00  0.00     0.293 HD
ENDBRANCH   6  12
TORSDOF 3
ENDMDL
MODEL 4
REMARK VINA RESULT:    -4.843      2.791      3.800
REMARK INTER + INTRA:          -5.686
REMARK INTER:                  -5.546
REMARK INTRA:                  -0.140
REMARK UNBOUND:                -0.136
REMARK SMILES O=C([O-])C=Cc1ccc(O)cc1
REMARK SMILES IDX 6 1 7 2 12 3 8 4 11 5 9 6 5 7 4 8 2 9 1 10 3 11 10 12
REMARK H PARENT 10 13
REMARK Flexibility Score: inf
ROOT
ATOM      1  C   UNL     1      73.208  44.010  -2.865  1.00  0.00    -0.025 A 
ATOM      2  C   UNL     1      73.094  42.607  -2.806  1.00  0.00     0.012 A 
ATOM      3  C   UNL     1      73.992  44.585  -3.880  1.00  0.00     0.012 A 
ATOM      4  C   UNL     1      73.732  41.804  -3.758  1.00  0.00     0.047 A 
ATOM      5  C   UNL     1      74.628  43.778  -4.830  1.00  0.00     0.047 A 
ATOM      6  C   UNL     1      74.497  42.386  -4.771  1.00  0.00     0.115 A 
ENDROOT
BRANCH   1   7
ATOM      7  C   UNL     1      72.563  44.907  -1.874  1.00  0.00     0.010 C 
ATOM      8  C   UNL     1      71.912  44.470  -0.786  1.00  0.00     0.025 C 
BRANCH   8   9
ATOM      9  C   UNL     1      71.273  45.390   0.169  1.00  0.00     0.064 C 
ATOM     10  O   UNL     1      70.574  46.360  -0.227  1.00  0.00    -0.545 OA
ATOM     11  O   UNL     1      71.445  45.186   1.532  1.00  0.00    -0.545 OA
ENDBRANCH   8   9
ENDBRANCH   1   7
BRANCH   6  12
ATOM     12  O   UNL     1      75.124  41.573  -5.713  1.00  0.00    -0.508 OA
ATOM     13  H   UNL     1      76.043  41.181  -5.546  1.00  0.00     0.293 HD
ENDBRANCH   6  12
TORSDOF 3
ENDMDL
MODEL 5
REMARK VINA RESULT:    -4.403     14.041     14.950
REMARK INTER + INTRA:          -5.182
REMARK INTER:                  -5.033
REMARK INTRA:                  -0.150
REMARK UNBOUND:                -0.136
REMARK SMILES O=C([O-])C=Cc1ccc(O)cc1
REMARK SMILES IDX 6 1 7 2 12 3 8 4 11 5 9 6 5 7 4 8 2 9 1 10 3 11 10 12
REMARK H PARENT 10 13
REMARK Flexibility Score: inf
ROOT
ATOM      1  C   UNL     1      68.498  48.727   8.415  1.00  0.00    -0.025 A 
ATOM      2  C   UNL     1      67.356  48.932   9.215  1.00  0.00     0.012 A 
ATOM      3  C   UNL     1      68.384  47.933   7.261  1.00  0.00     0.012 A 
ATOM      4  C   UNL     1      66.127  48.372   8.849  1.00  0.00     0.047 A 
ATOM      5  C   UNL     1      67.153  47.377   6.899  1.00  0.00     0.047 A 
ATOM      6  C   UNL     1      66.021  47.597   7.693  1.00  0.00     0.115 A 
ENDROOT
BRANCH   1   7
ATOM      7  C   UNL     1      69.828  49.287   8.762  1.00  0.00     0.010 C 
ATOM      8  C   UNL     1      70.847  49.379   7.896  1.00  0.00     0.025 C 
BRANCH   8   9
ATOM      9  C   UNL     1      72.157  49.929   8.280  1.00  0.00     0.064 C 
ATOM     10  O   UNL     1      72.511  51.083   7.920  1.00  0.00    -0.545 OA
ATOM     11  O   UNL     1      73.021  49.160   9.050  1.00  0.00    -0.545 OA
ENDBRANCH   8   9
ENDBRANCH   1   7
BRANCH   6  12
ATOM     12  O   UNL     1      64.790  47.049   7.341  1.00  0.00    -0.508 OA
ATOM     13  H   UNL     1      64.419  47.137   6.402  1.00  0.00     0.293 HD
ENDBRANCH   6  12
TORSDOF 3
ENDMDL
MODEL 6
REMARK VINA RESULT:    -4.335     14.323     15.729
REMARK INTER + INTRA:          -5.105
REMARK INTER:                  -4.968
REMARK INTRA:                  -0.137
REMARK UNBOUND:                -0.136
REMARK SMILES O=C([O-])C=Cc1ccc(O)cc1
REMARK SMILES IDX 6 1 7 2 12 3 8 4 11 5 9 6 5 7 4 8 2 9 1 10 3 11 10 12
REMARK H PARENT 10 13
REMARK Flexibility Score: inf
ROOT
ATOM      1  C   UNL     1      70.633  49.165   9.110  1.00  0.00    -0.025 A 
ATOM      2  C   UNL     1      71.216  49.506   7.873  1.00  0.00     0.012 A 
ATOM      3  C   UNL     1      71.436  48.566  10.097  1.00  0.00     0.012 A 
ATOM      4  C   UNL     1      72.576  49.274   7.645  1.00  0.00     0.047 A 
ATOM      5  C   UNL     1      72.796  48.338   9.863  1.00  0.00     0.047 A 
ATOM      6  C   UNL     1      73.369  48.693   8.636  1.00  0.00     0.115 A 
ENDROOT
BRANCH   1   7
ATOM      7  C   UNL     1      69.193  49.377   9.401  1.00  0.00     0.010 C 
ATOM      8  C   UNL     1      68.211  48.616   8.898  1.00  0.00     0.025 C 
BRANCH   8   9
ATOM      9  C   UNL     1      66.791  48.864   9.199  1.00  0.00     0.064 C 
ATOM     10  O   UNL     1      66.448  49.646  10.125  1.00  0.00    -0.545 OA
ATOM     11  O   UNL     1      65.813  48.223   8.451  1.00  0.00    -0.545 OA
ENDBRANCH   8   9
ENDBRANCH   1   7
BRANCH   6  12
ATOM     12  O   UNL     1      74.723  48.470   8.394  1.00  0.00    -0.508 OA
ATOM     13  H   UNL     1      75.349  49.228   8.149  1.00  0.00     0.293 HD
ENDBRANCH   6  12
TORSDOF 3
ENDMDL
MODEL 7
REMARK VINA RESULT:    -4.321     14.888     15.996
REMARK INTER + INTRA:          -5.089
REMARK INTER:                  -4.935
REMARK INTRA:                  -0.154
REMARK UNBOUND:                -0.136
REMARK SMILES O=C([O-])C=Cc1ccc(O)cc1
REMARK SMILES IDX 6 1 7 2 12 3 8 4 11 5 9 6 5 7 4 8 2 9 1 10 3 11 10 12
REMARK H PARENT 10 13
REMARK Flexibility Score: inf
ROOT
ATOM      1  C   UNL     1      63.584  45.240   8.694  1.00  0.00    -0.025 A 
ATOM      2  C   UNL     1      62.383  45.148   9.427  1.00  0.00     0.012 A 
ATOM      3  C   UNL     1      63.997  44.137   7.927  1.00  0.00     0.012 A 
ATOM      4  C   UNL     1      61.607  43.986   9.369  1.00  0.00     0.047 A 
ATOM      5  C   UNL     1      63.216  42.977   7.872  1.00  0.00     0.047 A 
ATOM      6  C   UNL     1      62.018  42.901   8.592  1.00  0.00     0.115 A 
ENDROOT
BRANCH   1   7
ATOM      7  C   UNL     1      64.451  46.443   8.729  1.00  0.00     0.010 C 
ATOM      8  C   UNL     1      65.560  46.585   7.988  1.00  0.00     0.025 C 
BRANCH   8   9
ATOM      9  C   UNL     1      66.404  47.789   8.058  1.00  0.00     0.064 C 
ATOM     10  O   UNL     1      66.090  48.764   8.791  1.00  0.00    -0.545 OA
ATOM     11  O   UNL     1      67.566  47.853   7.300  1.00  0.00    -0.545 OA
ENDBRANCH   8   9
ENDBRANCH   1   7
BRANCH   6  12
ATOM     12  O   UNL     1      61.232  41.751   8.543  1.00  0.00    -0.508 OA
ATOM     13  H   UNL     1      60.461  41.609   9.184  1.00  0.00     0.293 HD
ENDBRANCH   6  12
TORSDOF 3
ENDMDL
MODEL 8
REMARK VINA RESULT:    -4.279     14.270     15.732
REMARK INTER + INTRA:          -5.040
REMARK INTER:                  -4.904
REMARK INTRA:                  -0.136
REMARK UNBOUND:                -0.136
REMARK SMILES O=C([O-])C=Cc1ccc(O)cc1
REMARK SMILES IDX 6 1 7 2 12 3 8 4 11 5 9 6 5 7 4 8 2 9 1 10 3 11 10 12
REMARK H PARENT 10 13
REMARK Flexibility Score: inf
ROOT
ATOM      1  C   UNL     1      70.562  49.091   9.111  1.00  0.00    -0.025 A 
ATOM      2  C   UNL     1      71.421  48.503  10.062  1.00  0.00     0.012 A 
ATOM      3  C   UNL     1      71.096  49.500   7.877  1.00  0.00     0.012 A 
ATOM      4  C   UNL     1      72.774  48.307   9.767  1.00  0.00     0.047 A 
ATOM      5  C   UNL     1      72.449  49.301   7.587  1.00  0.00     0.047 A 
ATOM      6  C   UNL     1      73.291  48.702   8.531  1.00  0.00     0.115 A 
ENDROOT
BRANCH   1   7
ATOM      7  C   UNL     1      69.122  49.333   9.376  1.00  0.00     0.010 C 
ATOM      8  C   UNL     1      68.142  48.511   8.974  1.00  0.00     0.025 C 
BRANCH   8   9
ATOM      9  C   UNL     1      66.722  48.790   9.245  1.00  0.00     0.064 C 
ATOM     10  O   UNL     1      66.377  49.622  10.125  1.00  0.00    -0.545 OA
ATOM     11  O   UNL     1      65.745  48.121   8.519  1.00  0.00    -0.545 OA
ENDBRANCH   8   9
ENDBRANCH   1   7
BRANCH   6  12
ATOM     12  O   UNL     1      74.641  48.499   8.252  1.00  0.00    -0.508 OA
ATOM     13  H   UNL     1      75.010  47.574   8.065  1.00  0.00     0.293 HD
ENDBRANCH   6  12
TORSDOF 3
ENDMDL
MODEL 9
REMARK VINA RESULT:    -4.110     10.359     13.911
REMARK INTER + INTRA:          -4.847
REMARK INTER:                  -4.706
REMARK INTRA:                  -0.141
REMARK UNBOUND:                -0.136
REMARK SMILES O=C([O-])C=Cc1ccc(O)cc1
REMARK SMILES IDX 6 1 7 2 12 3 8 4 11 5 9 6 5 7 4 8 2 9 1 10 3 11 10 12
REMARK H PARENT 10 13
REMARK Flexibility Score: inf
ROOT
ATOM      1  C   UNL     1      71.135  48.495   7.339  1.00  0.00    -0.025 A 
ATOM      2  C   UNL     1      69.796  48.313   6.939  1.00  0.00     0.012 A 
ATOM      3  C   UNL     1      71.396  49.135   8.563  1.00  0.00     0.012 A 
ATOM      4  C   UNL     1      68.748  48.741   7.761  1.00  0.00     0.047 A 
ATOM      5  C   UNL     1      70.345  49.560   9.381  1.00  0.00     0.047 A 
ATOM      6  C   UNL     1      69.018  49.362   8.982  1.00  0.00     0.115 A 
ENDROOT
BRANCH   1   7
ATOM      7  C   UNL     1      72.284  48.072   6.500  1.00  0.00     0.010 C 
ATOM      8  C   UNL     1      72.173  47.702   5.216  1.00  0.00     0.025 C 
BRANCH   8   9
ATOM      9  C   UNL     1      73.335  47.275   4.418  1.00  0.00     0.064 C 
ATOM     10  O   UNL     1      74.443  47.866   4.512  1.00  0.00    -0.545 OA
ATOM     11  O   UNL     1      73.205  46.204   3.544  1.00  0.00    -0.545 OA
ENDBRANCH   8   9
ENDBRANCH   1   7
BRANCH   6  12
ATOM     12  O   UNL     1      67.963  49.781   9.791  1.00  0.00    -0.508 OA
ATOM     13  H   UNL     1      67.421  50.608   9.568  1.00  0.00     0.293 HD
ENDBRANCH   6  12
TORSDOF 3
ENDMDL
