MODEL 1
REMARK VINA RESULT:    -4.677      0.000      0.000
REMARK INTER + INTRA:          -5.940
REMARK INTER:                  -5.497
REMARK INTRA:                  -0.443
REMARK UNBOUND:                -0.443
REMARK SMILES C=CC(C)=CCC=C(C)C
REMARK SMILES IDX 5 1 3 2 4 3 6 4 7 5 9 6 8 7 10 8 2 9 1 10
REMARK H PARENT
REMARK Flexibility Score: inf
ROOT
ATOM      1  C   UNL     1     142.991 147.392 164.822  1.00  0.00    -0.020 C 
ATOM      2  C   UNL     1     141.838 147.388 164.124  1.00  0.00    -0.055 C 
ATOM      3  C   UNL     1     141.825 147.502 162.617  1.00  0.00     0.044 C 
ENDROOT
BRANCH   1   4
ATOM      4  C   UNL     1     144.352 147.511 164.187  1.00  0.00     0.055 C 
BRANCH   4   5
ATOM      5  C   UNL     1     145.045 148.783 164.608  1.00  0.00    -0.024 C 
ATOM      6  C   UNL     1     146.069 150.998 164.314  1.00  0.00     0.039 C 
ATOM      7  C   UNL     1     145.370 149.784 163.760  1.00  0.00    -0.080 C 
ATOM      8  C   UNL     1     145.045 149.716 162.287  1.00  0.00     0.039 C 
ENDBRANCH   4   5
ENDBRANCH   1   4
BRANCH   2   9
ATOM      9  C   UNL     1     140.571 147.195 164.875  1.00  0.00    -0.005 C 
ATOM     10  C   UNL     1     139.923 146.031 164.940  1.00  0.00     0.009 C 
ENDBRANCH   2   9
TORSDOF 3
ENDMDL
MODEL 2
REMARK VINA RESULT:    -4.676      0.645      5.046
REMARK INTER + INTRA:          -5.939
REMARK INTER:                  -5.585
REMARK INTRA:                  -0.353
REMARK UNBOUND:                -0.443
REMARK SMILES C=CC(C)=CCC=C(C)C
REMARK SMILES IDX 5 1 3 2 4 3 6 4 7 5 9 6 8 7 10 8 2 9 1 10
REMARK H PARENT
REMARK Flexibility Score: inf
ROOT
ATOM      1  C   UNL     1     145.037 148.592 164.518  1.00  0.00    -0.020 C 
ATOM      2  C   UNL     1     145.503 149.671 163.861  1.00  0.00    -0.055 C 
ATOM      3  C   UNL     1     145.128 149.944 162.421  1.00  0.00     0.044 C 
ENDROOT
BRANCH   1   4
ATOM      4  C   UNL     1     144.118 147.569 163.902  1.00  0.00     0.055 C 
BRANCH   4   5
ATOM      5  C   UNL     1     142.804 147.496 164.640  1.00  0.00    -0.024 C 
ATOM      6  C   UNL     1     140.361 147.413 164.895  1.00  0.00     0.039 C 
ATOM      7  C   UNL     1     141.596 147.480 164.035  1.00  0.00    -0.080 C 
ATOM      8  C   UNL     1     141.459 147.519 162.531  1.00  0.00     0.039 C 
ENDBRANCH   4   5
ENDBRANCH   1   4
BRANCH   2   9
ATOM      9  C   UNL     1     146.346 150.635 164.614  1.00  0.00    -0.005 C 
ATOM     10  C   UNL     1     147.606 150.387 164.974  1.00  0.00     0.009 C 
ENDBRANCH   2   9
TORSDOF 3
ENDMDL
MODEL 3
REMARK VINA RESULT:    -4.665      4.588      6.121
REMARK INTER + INTRA:          -5.925
REMARK INTER:                  -5.469
REMARK INTRA:                  -0.456
REMARK UNBOUND:                -0.443
REMARK SMILES C=CC(C)=CCC=C(C)C
REMARK SMILES IDX 5 1 3 2 4 3 6 4 7 5 9 6 8 7 10 8 2 9 1 10
REMARK H PARENT
REMARK Flexibility Score: inf
ROOT
ATOM      1  C   UNL     1     143.337 142.982 164.736  1.00  0.00    -0.020 C 
ATOM      2  C   UNL     1     143.304 141.828 164.043  1.00  0.00    -0.055 C 
ATOM      3  C   UNL     1     143.171 141.812 162.537  1.00  0.00     0.044 C 
ENDROOT
BRANCH   1   4
ATOM      4  C   UNL     1     143.243 144.344 164.097  1.00  0.00     0.055 C 
BRANCH   4   5
ATOM      5  C   UNL     1     141.980 145.058 164.510  1.00  0.00    -0.024 C 
ATOM      6  C   UNL     1     139.769 146.089 164.209  1.00  0.00     0.039 C 
ATOM      7  C   UNL     1     140.972 145.365 163.663  1.00  0.00    -0.080 C 
ATOM      8  C   UNL     1     141.022 144.995 162.200  1.00  0.00     0.039 C 
ENDBRANCH   4   5
ENDBRANCH   1   4
BRANCH   2   9
ATOM      9  C   UNL     1     143.476 140.559 164.796  1.00  0.00    -0.005 C 
ATOM     10  C   UNL     1     144.640 139.918 164.906  1.00  0.00     0.009 C 
ENDBRANCH   2   9
TORSDOF 3
ENDMDL
MODEL 4
REMARK VINA RESULT:    -4.655      6.459      8.677
REMARK INTER + INTRA:          -5.914
REMARK INTER:                  -5.478
REMARK INTRA:                  -0.435
REMARK UNBOUND:                -0.443
REMARK SMILES C=CC(C)=CCC=C(C)C
REMARK SMILES IDX 5 1 3 2 4 3 6 4 7 5 9 6 8 7 10 8 2 9 1 10
REMARK H PARENT
REMARK Flexibility Score: inf
ROOT
ATOM      1  C   UNL     1     147.733 143.359 164.759  1.00  0.00    -0.020 C 
ATOM      2  C   UNL     1     148.894 143.353 164.076  1.00  0.00    -0.055 C 
ATOM      3  C   UNL     1     148.926 143.209 162.570  1.00  0.00     0.044 C 
ENDROOT
BRANCH   1   4
ATOM      4  C   UNL     1     146.380 143.223 164.110  1.00  0.00     0.055 C 
BRANCH   4   5
ATOM      5  C   UNL     1     145.680 141.964 164.558  1.00  0.00    -0.024 C 
ATOM      6  C   UNL     1     144.644 139.748 164.312  1.00  0.00     0.039 C 
ATOM      7  C   UNL     1     145.350 140.947 163.732  1.00  0.00    -0.080 C 
ATOM      8  C   UNL     1     145.677 140.980 162.258  1.00  0.00     0.039 C 
ENDBRANCH   4   5
ENDBRANCH   1   4
BRANCH   2   9
ATOM      9  C   UNL     1     150.152 143.565 164.838  1.00  0.00    -0.005 C 
ATOM     10  C   UNL     1     150.864 144.691 164.785  1.00  0.00     0.009 C 
ENDBRANCH   2   9
TORSDOF 3
ENDMDL
MODEL 5
REMARK VINA RESULT:    -4.655      4.639      6.186
REMARK INTER + INTRA:          -5.914
REMARK INTER:                  -5.484
REMARK INTRA:                  -0.429
REMARK UNBOUND:                -0.443
REMARK SMILES C=CC(C)=CCC=C(C)C
REMARK SMILES IDX 5 1 3 2 4 3 6 4 7 5 9 6 8 7 10 8 2 9 1 10
REMARK H PARENT
REMARK Flexibility Score: inf
ROOT
ATOM      1  C   UNL     1     147.431 147.780 164.735  1.00  0.00    -0.020 C 
ATOM      2  C   UNL     1     147.453 148.960 164.085  1.00  0.00    -0.055 C 
ATOM      3  C   UNL     1     147.612 149.034 162.583  1.00  0.00     0.044 C 
ENDROOT
BRANCH   1   4
ATOM      4  C   UNL     1     147.562 146.445 164.049  1.00  0.00     0.055 C 
BRANCH   4   5
ATOM      5  C   UNL     1     148.799 145.712 164.507  1.00  0.00    -0.024 C 
ATOM      6  C   UNL     1     151.000 144.641 164.284  1.00  0.00     0.039 C 
ATOM      7  C   UNL     1     149.828 145.383 163.696  1.00  0.00    -0.080 C 
ATOM      8  C   UNL     1     149.833 145.746 162.230  1.00  0.00     0.039 C 
ENDBRANCH   4   5
ENDBRANCH   1   4
BRANCH   2   9
ATOM      9  C   UNL     1     147.244 150.197 164.881  1.00  0.00    -0.005 C 
ATOM     10  C   UNL     1     146.100 150.883 164.890  1.00  0.00     0.009 C 
ENDBRANCH   2   9
TORSDOF 3
ENDMDL
MODEL 6
REMARK VINA RESULT:    -4.650      3.955      5.733
REMARK INTER + INTRA:          -5.909
REMARK INTER:                  -5.466
REMARK INTRA:                  -0.443
REMARK UNBOUND:                -0.443
REMARK SMILES C=CC(C)=CCC=C(C)C
REMARK SMILES IDX 5 1 3 2 4 3 6 4 7 5 9 6 8 7 10 8 2 9 1 10
REMARK H PARENT
REMARK Flexibility Score: inf
ROOT
ATOM      1  C   UNL     1     142.303 145.124 164.759  1.00  0.00    -0.020 C 
ATOM      2  C   UNL     1     141.223 145.482 164.040  1.00  0.00    -0.055 C 
ATOM      3  C   UNL     1     141.019 144.998 162.622  1.00  0.00     0.044 C 
ENDROOT
BRANCH   1   4
ATOM      4  C   UNL     1     143.396 144.227 164.236  1.00  0.00     0.055 C 
BRANCH   4   5
ATOM      5  C   UNL     1     143.334 142.860 164.871  1.00  0.00    -0.024 C 
ATOM      6  C   UNL     1     143.186 140.407 164.937  1.00  0.00     0.039 C 
ATOM      7  C   UNL     1     143.249 141.705 164.174  1.00  0.00    -0.080 C 
ATOM      8  C   UNL     1     143.225 141.687 162.664  1.00  0.00     0.039 C 
ENDBRANCH   4   5
ENDBRANCH   1   4
BRANCH   2   9
ATOM      9  C   UNL     1     140.189 146.316 164.705  1.00  0.00    -0.005 C 
ATOM     10  C   UNL     1     140.350 147.611 164.979  1.00  0.00     0.009 C 
ENDBRANCH   2   9
TORSDOF 3
ENDMDL
MODEL 7
REMARK VINA RESULT:    -4.647      6.391      7.106
REMARK INTER + INTRA:          -5.905
REMARK INTER:                  -5.491
REMARK INTRA:                  -0.414
REMARK UNBOUND:                -0.443
REMARK SMILES C=CC(C)=CCC=C(C)C
REMARK SMILES IDX 5 1 3 2 4 3 6 4 7 5 9 6 8 7 10 8 2 9 1 10
REMARK H PARENT
REMARK Flexibility Score: inf
ROOT
ATOM      1  C   UNL     1     145.586 142.226 164.515  1.00  0.00    -0.020 C 
ATOM      2  C   UNL     1     145.232 141.117 163.839  1.00  0.00    -0.055 C 
ATOM      3  C   UNL     1     145.742 140.845 162.441  1.00  0.00     0.044 C 
ENDROOT
BRANCH   1   4
ATOM      4  C   UNL     1     146.503 143.287 163.962  1.00  0.00     0.055 C 
BRANCH   4   5
ATOM      5  C   UNL     1     147.838 143.278 164.663  1.00  0.00    -0.024 C 
ATOM      6  C   UNL     1     150.289 143.233 164.849  1.00  0.00     0.039 C 
ATOM      7  C   UNL     1     149.029 143.247 164.024  1.00  0.00    -0.080 C 
ATOM      8  C   UNL     1     149.122 143.235 162.516  1.00  0.00     0.039 C 
ENDBRANCH   4   5
ENDBRANCH   1   4
BRANCH   2   9
ATOM      9  C   UNL     1     144.376 140.121 164.533  1.00  0.00    -0.005 C 
ATOM     10  C   UNL     1     143.159 140.395 165.004  1.00  0.00     0.009 C 
ENDBRANCH   2   9
TORSDOF 3
ENDMDL
MODEL 8
REMARK VINA RESULT:    -4.625      4.772      6.522
REMARK INTER + INTRA:          -5.879
REMARK INTER:                  -5.467
REMARK INTRA:                  -0.412
REMARK UNBOUND:                -0.443
REMARK SMILES C=CC(C)=CCC=C(C)C
REMARK SMILES IDX 5 1 3 2 4 3 6 4 7 5 9 6 8 7 10 8 2 9 1 10
REMARK H PARENT
REMARK Flexibility Score: inf
ROOT
ATOM      1  C   UNL     1     148.544 145.596 164.444  1.00  0.00    -0.020 C 
ATOM      2  C   UNL     1     149.627 145.246 163.724  1.00  0.00    -0.055 C 
ATOM      3  C   UNL     1     149.856 145.777 162.327  1.00  0.00     0.044 C 
ENDROOT
BRANCH   1   4
ATOM      4  C   UNL     1     147.473 146.530 163.942  1.00  0.00     0.055 C 
BRANCH   4   5
ATOM      5  C   UNL     1     147.513 147.851 164.670  1.00  0.00    -0.024 C 
ATOM      6  C   UNL     1     147.568 150.298 164.905  1.00  0.00     0.039 C 
ATOM      7  C   UNL     1     147.518 149.054 164.055  1.00  0.00    -0.080 C 
ATOM      8  C   UNL     1     147.468 149.179 162.550  1.00  0.00     0.039 C 
ENDBRANCH   4   5
ENDBRANCH   1   4
BRANCH   2   9
ATOM      9  C   UNL     1     150.639 144.370 164.370  1.00  0.00    -0.005 C 
ATOM     10  C   UNL     1     150.339 143.225 164.984  1.00  0.00     0.009 C 
ENDBRANCH   2   9
TORSDOF 3
ENDMDL
MODEL 9
REMARK VINA RESULT:    -4.352      6.692      8.813
REMARK INTER + INTRA:          -5.557
REMARK INTER:                  -5.282
REMARK INTRA:                  -0.276
REMARK UNBOUND:                -0.443
REMARK SMILES C=CC(C)=CCC=C(C)C
REMARK SMILES IDX 5 1 3 2 4 3 6 4 7 5 9 6 8 7 10 8 2 9 1 10
REMARK H PARENT
REMARK Flexibility Score: inf
ROOT
ATOM      1  C   UNL     1     148.280 144.015 163.588  1.00  0.00    -0.020 C 
ATOM      2  C   UNL     1     149.590 143.961 163.897  1.00  0.00    -0.055 C 
ATOM      3  C   UNL     1     150.130 142.952 164.886  1.00  0.00     0.044 C 
ENDROOT
BRANCH   1   4
ATOM      4  C   UNL     1     147.242 143.099 164.183  1.00  0.00     0.055 C 
BRANCH   4   5
ATOM      5  C   UNL     1     146.619 142.217 163.129  1.00  0.00    -0.024 C 
ATOM      6  C   UNL     1     145.132 140.477 162.233  1.00  0.00     0.039 C 
ATOM      7  C   UNL     1     145.661 141.298 163.381  1.00  0.00    -0.080 C 
ATOM      8  C   UNL     1     145.110 141.083 164.770  1.00  0.00     0.039 C 
ENDBRANCH   4   5
ENDBRANCH   1   4
BRANCH   2   9
ATOM      9  C   UNL     1     150.513 144.880 163.182  1.00  0.00    -0.005 C 
ATOM     10  C   UNL     1     150.312 145.301 161.933  1.00  0.00     0.009 C 
ENDBRANCH   2   9
TORSDOF 3
ENDMDL
