MODEL 1
REMARK VINA RESULT:    -6.418      0.000      0.000
REMARK INTER + INTRA:         -12.308
REMARK INTER:                 -11.671
REMARK INTRA:                  -0.637
REMARK UNBOUND:                -0.637
REMARK SMILES CCCCCCCCCCCCCCCC(=O)[O-]
REMARK SMILES IDX 9 1 10 2 11 3 12 4 13 5 14 6 15 7 16 8 17 9 18 10 8 11 7 12
REMARK SMILES IDX 6 13 5 14 4 15 3 16 2 17 1 18
REMARK H PARENT
REMARK Flexibility Score: inf
ROOT
ATOM      1  C   UNL     1     -11.618 -13.371 -37.847  1.00  0.00     0.000 C 
ENDROOT
BRANCH   1   2
ATOM      2  C   UNL     1     -10.479 -14.372 -38.093  1.00  0.00     0.000 C 
BRANCH   2   3
ATOM      3  C   UNL     1      -9.919 -14.230 -39.513  1.00  0.00     0.000 C 
BRANCH   3   4
ATOM      4  C   UNL     1     -10.173 -15.502 -40.335  1.00  0.00     0.000 C 
BRANCH   4   5
ATOM      5  C   UNL     1     -11.617 -16.012 -40.208  1.00  0.00     0.000 C 
BRANCH   5   6
ATOM      6  C   UNL     1     -11.695 -17.423 -39.599  1.00  0.00     0.006 C 
BRANCH   6   7
ATOM      7  C   UNL     1     -10.782 -18.418 -40.327  1.00  0.00     0.053 C 
BRANCH   7   8
ATOM      8  C   UNL     1     -11.158 -19.838 -40.036  1.00  0.00     0.041 C 
ATOM      9  O   UNL     1     -12.209 -20.328 -40.527  1.00  0.00    -0.550 OA
ATOM     10  O   UNL     1     -10.364 -20.612 -39.199  1.00  0.00    -0.550 OA
ENDBRANCH   7   8
ENDBRANCH   6   7
ENDBRANCH   5   6
ENDBRANCH   4   5
ENDBRANCH   3   4
ENDBRANCH   2   3
ENDBRANCH   1   2
BRANCH   1  11
ATOM     11  C   UNL     1     -12.947 -14.058 -37.496  1.00  0.00     0.000 C 
BRANCH  11  12
ATOM     12  C   UNL     1     -13.855 -13.180 -36.621  1.00  0.00    -0.000 C 
BRANCH  12  13
ATOM     13  C   UNL     1     -14.992 -14.011 -36.008  1.00  0.00    -0.000 C 
BRANCH  13  14
ATOM     14  C   UNL     1     -14.736 -14.376 -34.536  1.00  0.00    -0.000 C 
BRANCH  14  15
ATOM     15  C   UNL     1     -16.033 -14.708 -33.776  1.00  0.00    -0.000 C 
BRANCH  15  16
ATOM     16  C   UNL     1     -16.125 -13.982 -32.424  1.00  0.00    -0.000 C 
BRANCH  16  17
ATOM     17  C   UNL     1     -16.586 -14.903 -31.285  1.00  0.00    -0.003 C 
ATOM     18  C   UNL     1     -17.986 -15.448 -31.552  1.00  0.00     0.004 C 
ENDBRANCH  16  17
ENDBRANCH  15  16
ENDBRANCH  14  15
ENDBRANCH  13  14
ENDBRANCH  12  13
ENDBRANCH  11  12
ENDBRANCH   1  11
TORSDOF 14
ENDMDL
MODEL 2
REMARK VINA RESULT:    -6.315      1.088      1.533
REMARK INTER + INTRA:         -12.120
REMARK INTER:                 -11.219
REMARK INTRA:                  -0.900
REMARK UNBOUND:                -0.637
REMARK SMILES CCCCCCCCCCCCCCCC(=O)[O-]
REMARK SMILES IDX 9 1 10 2 11 3 12 4 13 5 14 6 15 7 16 8 17 9 18 10 8 11 7 12
REMARK SMILES IDX 6 13 5 14 4 15 3 16 2 17 1 18
REMARK H PARENT
REMARK Flexibility Score: inf
ROOT
ATOM      1  C   UNL     1     -12.171 -15.309 -36.959  1.00  0.00     0.000 C 
ENDROOT
BRANCH   1   2
ATOM      2  C   UNL     1     -12.181 -14.276 -38.096  1.00  0.00     0.000 C 
BRANCH   2   3
ATOM      3  C   UNL     1     -10.789 -13.663 -38.294  1.00  0.00     0.000 C 
BRANCH   3   4
ATOM      4  C   UNL     1      -9.971 -14.473 -39.311  1.00  0.00     0.000 C 
BRANCH   4   5
ATOM      5  C   UNL     1     -10.850 -15.161 -40.367  1.00  0.00     0.000 C 
BRANCH   5   6
ATOM      6  C   UNL     1     -10.483 -16.641 -40.569  1.00  0.00     0.006 C 
BRANCH   6   7
ATOM      7  C   UNL     1     -11.352 -17.575 -39.715  1.00  0.00     0.053 C 
BRANCH   7   8
ATOM      8  C   UNL     1     -11.069 -19.018 -40.000  1.00  0.00     0.041 C 
ATOM      9  O   UNL     1      -9.930 -19.372 -40.405  1.00  0.00    -0.550 OA
ATOM     10  O   UNL     1     -12.071 -19.968 -39.847  1.00  0.00    -0.550 OA
ENDBRANCH   7   8
ENDBRANCH   6   7
ENDBRANCH   5   6
ENDBRANCH   4   5
ENDBRANCH   3   4
ENDBRANCH   2   3
ENDBRANCH   1   2
BRANCH   1  11
ATOM     11  C   UNL     1     -13.527 -15.417 -36.244  1.00  0.00     0.000 C 
BRANCH  11  12
ATOM     12  C   UNL     1     -14.522 -14.336 -36.692  1.00  0.00    -0.000 C 
BRANCH  12  13
ATOM     13  C   UNL     1     -15.297 -13.774 -35.491  1.00  0.00    -0.000 C 
BRANCH  13  14
ATOM     14  C   UNL     1     -15.348 -14.753 -34.305  1.00  0.00    -0.000 C 
BRANCH  14  15
ATOM     15  C   UNL     1     -16.681 -14.683 -33.540  1.00  0.00    -0.000 C 
BRANCH  15  16
ATOM     16  C   UNL     1     -16.520 -14.088 -32.131  1.00  0.00    -0.000 C 
BRANCH  16  17
ATOM     17  C   UNL     1     -17.378 -14.809 -31.081  1.00  0.00    -0.003 C 
ATOM     18  C   UNL     1     -17.364 -14.058 -29.752  1.00  0.00     0.004 C 
ENDBRANCH  16  17
ENDBRANCH  15  16
ENDBRANCH  14  15
ENDBRANCH  13  14
ENDBRANCH  12  13
ENDBRANCH  11  12
ENDBRANCH   1  11
TORSDOF 14
ENDMDL
MODEL 3
REMARK VINA RESULT:    -6.203      2.632      4.879
REMARK INTER + INTRA:         -11.916
REMARK INTER:                 -11.060
REMARK INTRA:                  -0.856
REMARK UNBOUND:                -0.637
REMARK SMILES CCCCCCCCCCCCCCCC(=O)[O-]
REMARK SMILES IDX 9 1 10 2 11 3 12 4 13 5 14 6 15 7 16 8 17 9 18 10 8 11 7 12
REMARK SMILES IDX 6 13 5 14 4 15 3 16 2 17 1 18
REMARK H PARENT
REMARK Flexibility Score: inf
ROOT
ATOM      1  C   UNL     1     -15.744 -14.406 -34.416  1.00  0.00     0.000 C 
ENDROOT
BRANCH   1   2
ATOM      2  C   UNL     1     -14.356 -14.247 -35.055  1.00  0.00     0.000 C 
BRANCH   2   3
ATOM      3  C   UNL     1     -14.473 -13.876 -36.538  1.00  0.00     0.000 C 
BRANCH   3   4
ATOM      4  C   UNL     1     -13.122 -13.401 -37.094  1.00  0.00     0.000 C 
BRANCH   4   5
ATOM      5  C   UNL     1     -12.494 -14.409 -38.069  1.00  0.00     0.000 C 
BRANCH   5   6
ATOM      6  C   UNL     1     -10.977 -14.565 -37.864  1.00  0.00     0.006 C 
BRANCH   6   7
ATOM      7  C   UNL     1     -10.169 -13.825 -38.939  1.00  0.00     0.053 C 
BRANCH   7   8
ATOM      8  C   UNL     1      -9.709 -14.747 -40.025  1.00  0.00     0.041 C 
ATOM      9  O   UNL     1     -10.546 -15.414 -40.687  1.00  0.00    -0.550 OA
ATOM     10  O   UNL     1      -8.351 -14.892 -40.287  1.00  0.00    -0.550 OA
ENDBRANCH   7   8
ENDBRANCH   6   7
ENDBRANCH   5   6
ENDBRANCH   4   5
ENDBRANCH   3   4
ENDBRANCH   2   3
ENDBRANCH   1   2
BRANCH   1  11
ATOM     11  C   UNL     1     -15.734 -14.145 -32.901  1.00  0.00     0.000 C 
BRANCH  11  12
ATOM     12  C   UNL     1     -17.109 -14.365 -32.253  1.00  0.00    -0.000 C 
BRANCH  12  13
ATOM     13  C   UNL     1     -16.996 -14.368 -30.721  1.00  0.00    -0.000 C 
BRANCH  13  14
ATOM     14  C   UNL     1     -18.021 -15.299 -30.051  1.00  0.00    -0.000 C 
BRANCH  14  15
ATOM     15  C   UNL     1     -18.680 -16.267 -31.049  1.00  0.00    -0.000 C 
BRANCH  15  16
ATOM     16  C   UNL     1     -18.307 -17.733 -30.781  1.00  0.00    -0.000 C 
BRANCH  16  17
ATOM     17  C   UNL     1     -17.656 -18.412 -31.995  1.00  0.00    -0.003 C 
ATOM     18  C   UNL     1     -16.298 -17.790 -32.309  1.00  0.00     0.004 C 
ENDBRANCH  16  17
ENDBRANCH  15  16
ENDBRANCH  14  15
ENDBRANCH  13  14
ENDBRANCH  12  13
ENDBRANCH  11  12
ENDBRANCH   1  11
TORSDOF 14
ENDMDL
MODEL 4
REMARK VINA RESULT:    -6.173      4.146      8.645
REMARK INTER + INTRA:         -11.862
REMARK INTER:                 -11.254
REMARK INTRA:                  -0.608
REMARK UNBOUND:                -0.637
REMARK SMILES CCCCCCCCCCCCCCCC(=O)[O-]
REMARK SMILES IDX 9 1 10 2 11 3 12 4 13 5 14 6 15 7 16 8 17 9 18 10 8 11 7 12
REMARK SMILES IDX 6 13 5 14 4 15 3 16 2 17 1 18
REMARK H PARENT
REMARK Flexibility Score: inf
ROOT
ATOM      1  C   UNL     1     -12.728 -14.216 -37.108  1.00  0.00     0.000 C 
ENDROOT
BRANCH   1   2
ATOM      2  C   UNL     1     -13.867 -13.260 -36.723  1.00  0.00     0.000 C 
BRANCH   2   3
ATOM      3  C   UNL     1     -15.032 -14.023 -36.081  1.00  0.00     0.000 C 
BRANCH   3   4
ATOM      4  C   UNL     1     -14.740 -14.336 -34.606  1.00  0.00     0.000 C 
BRANCH   4   5
ATOM      5  C   UNL     1     -15.724 -15.353 -34.009  1.00  0.00     0.000 C 
BRANCH   5   6
ATOM      6  C   UNL     1     -17.001 -14.691 -33.463  1.00  0.00     0.006 C 
BRANCH   6   7
ATOM      7  C   UNL     1     -16.894 -14.373 -31.966  1.00  0.00     0.053 C 
BRANCH   7   8
ATOM      8  C   UNL     1     -17.681 -15.336 -31.132  1.00  0.00     0.041 C 
ATOM      9  O   UNL     1     -18.079 -16.424 -31.626  1.00  0.00    -0.550 OA
ATOM     10  O   UNL     1     -18.002 -15.020 -29.817  1.00  0.00    -0.550 OA
ENDBRANCH   7   8
ENDBRANCH   6   7
ENDBRANCH   5   6
ENDBRANCH   4   5
ENDBRANCH   3   4
ENDBRANCH   2   3
ENDBRANCH   1   2
BRANCH   1  11
ATOM     11  C   UNL     1     -11.720 -13.578 -38.078  1.00  0.00     0.000 C 
BRANCH  11  12
ATOM     12  C   UNL     1     -10.436 -14.408 -38.228  1.00  0.00    -0.000 C 
BRANCH  12  13
ATOM     13  C   UNL     1      -9.902 -14.332 -39.666  1.00  0.00    -0.000 C 
BRANCH  13  14
ATOM     14  C   UNL     1     -10.095 -15.646 -40.443  1.00  0.00    -0.000 C 
BRANCH  14  15
ATOM     15  C   UNL     1     -11.491 -16.257 -40.230  1.00  0.00    -0.000 C 
BRANCH  15  16
ATOM     16  C   UNL     1     -11.437 -17.606 -39.495  1.00  0.00    -0.000 C 
BRANCH  16  17
ATOM     17  C   UNL     1     -10.792 -18.716 -40.338  1.00  0.00    -0.003 C 
ATOM     18  C   UNL     1     -10.596 -19.987 -39.516  1.00  0.00     0.004 C 
ENDBRANCH  16  17
ENDBRANCH  15  16
ENDBRANCH  14  15
ENDBRANCH  13  14
ENDBRANCH  12  13
ENDBRANCH  11  12
ENDBRANCH   1  11
TORSDOF 14
ENDMDL
MODEL 5
REMARK VINA RESULT:    -6.076      1.869      3.820
REMARK INTER + INTRA:         -11.685
REMARK INTER:                 -10.824
REMARK INTRA:                  -0.862
REMARK UNBOUND:                -0.637
REMARK SMILES CCCCCCCCCCCCCCCC(=O)[O-]
REMARK SMILES IDX 9 1 10 2 11 3 12 4 13 5 14 6 15 7 16 8 17 9 18 10 8 11 7 12
REMARK SMILES IDX 6 13 5 14 4 15 3 16 2 17 1 18
REMARK H PARENT
REMARK Flexibility Score: inf
ROOT
ATOM      1  C   UNL     1     -14.660 -14.890 -35.253  1.00  0.00     0.000 C 
ENDROOT
BRANCH   1   2
ATOM      2  C   UNL     1     -14.568 -14.046 -36.533  1.00  0.00     0.000 C 
BRANCH   2   3
ATOM      3  C   UNL     1     -13.711 -14.748 -37.594  1.00  0.00     0.000 C 
BRANCH   3   4
ATOM      4  C   UNL     1     -12.219 -14.656 -37.244  1.00  0.00     0.000 C 
BRANCH   4   5
ATOM      5  C   UNL     1     -11.455 -13.680 -38.153  1.00  0.00     0.000 C 
BRANCH   5   6
ATOM      6  C   UNL     1     -10.168 -14.294 -38.731  1.00  0.00     0.006 C 
BRANCH   6   7
ATOM      7  C   UNL     1     -10.333 -14.705 -40.201  1.00  0.00     0.053 C 
BRANCH   7   8
ATOM      8  C   UNL     1     -10.700 -16.151 -40.339  1.00  0.00     0.041 C 
ATOM      9  O   UNL     1      -9.832 -16.994 -40.686  1.00  0.00    -0.550 OA
ATOM     10  O   UNL     1     -12.008 -16.563 -40.113  1.00  0.00    -0.550 OA
ENDBRANCH   7   8
ENDBRANCH   6   7
ENDBRANCH   5   6
ENDBRANCH   4   5
ENDBRANCH   3   4
ENDBRANCH   2   3
ENDBRANCH   1   2
BRANCH   1  11
ATOM     11  C   UNL     1     -15.201 -14.093 -34.055  1.00  0.00     0.000 C 
BRANCH  11  12
ATOM     12  C   UNL     1     -16.549 -14.628 -33.547  1.00  0.00    -0.000 C 
BRANCH  12  13
ATOM     13  C   UNL     1     -16.554 -16.164 -33.527  1.00  0.00    -0.000 C 
BRANCH  13  14
ATOM     14  C   UNL     1     -16.904 -16.740 -32.144  1.00  0.00    -0.000 C 
BRANCH  14  15
ATOM     15  C   UNL     1     -16.704 -15.718 -31.012  1.00  0.00    -0.000 C 
BRANCH  15  16
ATOM     16  C   UNL     1     -18.017 -15.380 -30.286  1.00  0.00    -0.000 C 
BRANCH  16  17
ATOM     17  C   UNL     1     -19.009 -16.552 -30.278  1.00  0.00    -0.003 C 
ATOM     18  C   UNL     1     -19.155 -17.140 -28.877  1.00  0.00     0.004 C 
ENDBRANCH  16  17
ENDBRANCH  15  16
ENDBRANCH  14  15
ENDBRANCH  13  14
ENDBRANCH  12  13
ENDBRANCH  11  12
ENDBRANCH   1  11
TORSDOF 14
ENDMDL
MODEL 6
REMARK VINA RESULT:    -6.055      3.313      8.463
REMARK INTER + INTRA:         -11.648
REMARK INTER:                 -10.723
REMARK INTRA:                  -0.925
REMARK UNBOUND:                -0.637
REMARK SMILES CCCCCCCCCCCCCCCC(=O)[O-]
REMARK SMILES IDX 9 1 10 2 11 3 12 4 13 5 14 6 15 7 16 8 17 9 18 10 8 11 7 12
REMARK SMILES IDX 6 13 5 14 4 15 3 16 2 17 1 18
REMARK H PARENT
REMARK Flexibility Score: inf
ROOT
ATOM      1  C   UNL     1     -14.457 -14.797 -34.885  1.00  0.00     0.000 C 
ENDROOT
BRANCH   1   2
ATOM      2  C   UNL     1     -15.640 -15.430 -34.137  1.00  0.00     0.000 C 
BRANCH   2   3
ATOM      3  C   UNL     1     -16.596 -14.353 -33.609  1.00  0.00     0.000 C 
BRANCH   3   4
ATOM      4  C   UNL     1     -16.833 -14.518 -32.100  1.00  0.00     0.000 C 
BRANCH   4   5
ATOM      5  C   UNL     1     -18.044 -15.410 -31.784  1.00  0.00     0.000 C 
BRANCH   5   6
ATOM      6  C   UNL     1     -17.705 -16.538 -30.794  1.00  0.00     0.006 C 
BRANCH   6   7
ATOM      7  C   UNL     1     -18.056 -17.923 -31.354  1.00  0.00     0.053 C 
BRANCH   7   8
ATOM      8  C   UNL     1     -16.990 -18.443 -32.268  1.00  0.00     0.041 C 
ATOM      9  O   UNL     1     -15.799 -18.055 -32.138  1.00  0.00    -0.550 OA
ATOM     10  O   UNL     1     -17.316 -19.334 -33.284  1.00  0.00    -0.550 OA
ENDBRANCH   7   8
ENDBRANCH   6   7
ENDBRANCH   5   6
ENDBRANCH   4   5
ENDBRANCH   3   4
ENDBRANCH   2   3
ENDBRANCH   1   2
BRANCH   1  11
ATOM     11  C   UNL     1     -14.899 -13.974 -36.106  1.00  0.00     0.000 C 
BRANCH  11  12
ATOM     12  C   UNL     1     -13.714 -13.362 -36.869  1.00  0.00    -0.000 C 
BRANCH  12  13
ATOM     13  C   UNL     1     -12.807 -14.462 -37.440  1.00  0.00    -0.000 C 
BRANCH  13  14
ATOM     14  C   UNL     1     -13.568 -15.460 -38.329  1.00  0.00    -0.000 C 
BRANCH  14  15
ATOM     15  C   UNL     1     -12.849 -15.729 -39.663  1.00  0.00    -0.000 C 
BRANCH  15  16
ATOM     16  C   UNL     1     -11.351 -16.015 -39.477  1.00  0.00    -0.000 C 
BRANCH  16  17
ATOM     17  C   UNL     1     -10.461 -15.093 -40.323  1.00  0.00    -0.003 C 
ATOM     18  C   UNL     1      -9.723 -14.085 -39.446  1.00  0.00     0.004 C 
ENDBRANCH  16  17
ENDBRANCH  15  16
ENDBRANCH  14  15
ENDBRANCH  13  14
ENDBRANCH  12  13
ENDBRANCH  11  12
ENDBRANCH   1  11
TORSDOF 14
ENDMDL
MODEL 7
REMARK VINA RESULT:    -6.009      4.728      9.503
REMARK INTER + INTRA:         -11.564
REMARK INTER:                 -10.581
REMARK INTRA:                  -0.983
REMARK UNBOUND:                -0.637
REMARK SMILES CCCCCCCCCCCCCCCC(=O)[O-]
REMARK SMILES IDX 9 1 10 2 11 3 12 4 13 5 14 6 15 7 16 8 17 9 18 10 8 11 7 12
REMARK SMILES IDX 6 13 5 14 4 15 3 16 2 17 1 18
REMARK H PARENT
REMARK Flexibility Score: inf
ROOT
ATOM      1  C   UNL     1     -15.240 -14.261 -33.625  1.00  0.00     0.000 C 
ENDROOT
BRANCH   1   2
ATOM      2  C   UNL     1     -16.607 -14.875 -33.962  1.00  0.00     0.000 C 
BRANCH   2   3
ATOM      3  C   UNL     1     -16.619 -16.381 -33.672  1.00  0.00     0.000 C 
BRANCH   3   4
ATOM      4  C   UNL     1     -16.490 -16.653 -32.166  1.00  0.00     0.000 C 
BRANCH   4   5
ATOM      5  C   UNL     1     -17.826 -17.049 -31.518  1.00  0.00     0.000 C 
BRANCH   5   6
ATOM      6  C   UNL     1     -18.608 -15.835 -30.986  1.00  0.00     0.006 C 
BRANCH   6   7
ATOM      7  C   UNL     1     -18.090 -15.367 -29.620  1.00  0.00     0.053 C 
BRANCH   7   8
ATOM      8  C   UNL     1     -17.438 -14.020 -29.700  1.00  0.00     0.041 C 
ATOM      9  O   UNL     1     -17.072 -13.560 -30.813  1.00  0.00    -0.550 OA
ATOM     10  O   UNL     1     -17.210 -13.287 -28.542  1.00  0.00    -0.550 OA
ENDBRANCH   7   8
ENDBRANCH   6   7
ENDBRANCH   5   6
ENDBRANCH   4   5
ENDBRANCH   3   4
ENDBRANCH   2   3
ENDBRANCH   1   2
BRANCH   1  11
ATOM     11  C   UNL     1     -14.229 -14.398 -34.775  1.00  0.00     0.000 C 
BRANCH  11  12
ATOM     12  C   UNL     1     -14.801 -13.943 -36.126  1.00  0.00    -0.000 C 
BRANCH  12  13
ATOM     13  C   UNL     1     -14.288 -14.835 -37.266  1.00  0.00    -0.000 C 
BRANCH  13  14
ATOM     14  C   UNL     1     -12.759 -15.007 -37.244  1.00  0.00    -0.000 C 
BRANCH  14  15
ATOM     15  C   UNL     1     -12.048 -14.094 -38.259  1.00  0.00    -0.000 C 
BRANCH  15  16
ATOM     16  C   UNL     1     -10.520 -14.106 -38.090  1.00  0.00    -0.000 C 
BRANCH  16  17
ATOM     17  C   UNL     1      -9.776 -14.225 -39.428  1.00  0.00    -0.003 C 
ATOM     18  C   UNL     1     -10.498 -15.181 -40.375  1.00  0.00     0.004 C 
ENDBRANCH  16  17
ENDBRANCH  15  16
ENDBRANCH  14  15
ENDBRANCH  13  14
ENDBRANCH  12  13
ENDBRANCH  11  12
ENDBRANCH   1  11
TORSDOF 14
ENDMDL
MODEL 8
REMARK VINA RESULT:    -6.000      4.495      9.320
REMARK INTER + INTRA:         -11.548
REMARK INTER:                 -10.822
REMARK INTRA:                  -0.726
REMARK UNBOUND:                -0.637
REMARK SMILES CCCCCCCCCCCCCCCC(=O)[O-]
REMARK SMILES IDX 9 1 10 2 11 3 12 4 13 5 14 6 15 7 16 8 17 9 18 10 8 11 7 12
REMARK SMILES IDX 6 13 5 14 4 15 3 16 2 17 1 18
REMARK H PARENT
REMARK Flexibility Score: inf
ROOT
ATOM      1  C   UNL     1     -13.795 -14.531 -35.308  1.00  0.00     0.000 C 
ENDROOT
BRANCH   1   2
ATOM      2  C   UNL     1     -15.025 -15.207 -34.685  1.00  0.00     0.000 C 
BRANCH   2   3
ATOM      3  C   UNL     1     -15.905 -14.183 -33.957  1.00  0.00     0.000 C 
BRANCH   3   4
ATOM      4  C   UNL     1     -16.856 -14.878 -32.971  1.00  0.00     0.000 C 
BRANCH   4   5
ATOM      5  C   UNL     1     -16.970 -14.132 -31.632  1.00  0.00     0.000 C 
BRANCH   5   6
ATOM      6  C   UNL     1     -17.524 -15.022 -30.505  1.00  0.00     0.006 C 
BRANCH   6   7
ATOM      7  C   UNL     1     -18.662 -15.929 -30.992  1.00  0.00     0.053 C 
BRANCH   7   8
ATOM      8  C   UNL     1     -18.882 -17.092 -30.074  1.00  0.00     0.041 C 
ATOM      9  O   UNL     1     -18.471 -18.238 -30.395  1.00  0.00    -0.550 OA
ATOM     10  O   UNL     1     -19.566 -16.916 -28.877  1.00  0.00    -0.550 OA
ENDBRANCH   7   8
ENDBRANCH   6   7
ENDBRANCH   5   6
ENDBRANCH   4   5
ENDBRANCH   3   4
ENDBRANCH   2   3
ENDBRANCH   1   2
BRANCH   1  11
ATOM     11  C   UNL     1     -14.097 -13.892 -36.673  1.00  0.00     0.000 C 
BRANCH  11  12
ATOM     12  C   UNL     1     -13.140 -14.369 -37.776  1.00  0.00    -0.000 C 
BRANCH  12  13
ATOM     13  C   UNL     1     -11.892 -13.475 -37.840  1.00  0.00    -0.000 C 
BRANCH  13  14
ATOM     14  C   UNL     1     -10.583 -14.282 -37.879  1.00  0.00    -0.000 C 
BRANCH  14  15
ATOM     15  C   UNL     1      -9.774 -14.034 -39.164  1.00  0.00    -0.000 C 
BRANCH  15  16
ATOM     16  C   UNL     1     -10.407 -14.701 -40.396  1.00  0.00    -0.000 C 
BRANCH  16  17
ATOM     17  C   UNL     1     -10.302 -16.233 -40.361  1.00  0.00    -0.003 C 
ATOM     18  C   UNL     1     -11.659 -16.870 -40.079  1.00  0.00     0.004 C 
ENDBRANCH  16  17
ENDBRANCH  15  16
ENDBRANCH  14  15
ENDBRANCH  13  14
ENDBRANCH  12  13
ENDBRANCH  11  12
ENDBRANCH   1  11
TORSDOF 14
ENDMDL
MODEL 9
REMARK VINA RESULT:    -5.973      3.604      8.295
REMARK INTER + INTRA:         -11.498
REMARK INTER:                 -10.512
REMARK INTRA:                  -0.985
REMARK UNBOUND:                -0.637
REMARK SMILES CCCCCCCCCCCCCCCC(=O)[O-]
REMARK SMILES IDX 9 1 10 2 11 3 12 4 13 5 14 6 15 7 16 8 17 9 18 10 8 11 7 12
REMARK SMILES IDX 6 13 5 14 4 15 3 16 2 17 1 18
REMARK H PARENT
REMARK Flexibility Score: inf
ROOT
ATOM      1  C   UNL     1     -15.414 -13.944 -32.913  1.00  0.00     0.000 C 
ENDROOT
BRANCH   1   2
ATOM      2  C   UNL     1     -16.614 -14.104 -31.969  1.00  0.00     0.000 C 
BRANCH   2   3
ATOM      3  C   UNL     1     -17.635 -15.097 -32.540  1.00  0.00     0.000 C 
BRANCH   3   4
ATOM      4  C   UNL     1     -18.310 -15.898 -31.417  1.00  0.00     0.000 C 
BRANCH   4   5
ATOM      5  C   UNL     1     -17.825 -17.356 -31.355  1.00  0.00     0.000 C 
BRANCH   5   6
ATOM      6  C   UNL     1     -17.081 -17.787 -32.631  1.00  0.00     0.006 C 
BRANCH   6   7
ATOM      7  C   UNL     1     -17.235 -19.288 -32.910  1.00  0.00     0.053 C 
BRANCH   7   8
ATOM      8  C   UNL     1     -16.222 -20.102 -32.166  1.00  0.00     0.041 C 
ATOM      9  O   UNL     1     -16.588 -20.885 -31.251  1.00  0.00    -0.550 OA
ATOM     10  O   UNL     1     -14.870 -19.973 -32.462  1.00  0.00    -0.550 OA
ENDBRANCH   7   8
ENDBRANCH   6   7
ENDBRANCH   5   6
ENDBRANCH   4   5
ENDBRANCH   3   4
ENDBRANCH   2   3
ENDBRANCH   1   2
BRANCH   1  11
ATOM     11  C   UNL     1     -15.529 -14.817 -34.173  1.00  0.00     0.000 C 
BRANCH  11  12
ATOM     12  C   UNL     1     -14.904 -14.156 -35.411  1.00  0.00    -0.000 C 
BRANCH  12  13
ATOM     13  C   UNL     1     -13.842 -15.070 -36.041  1.00  0.00    -0.000 C 
BRANCH  13  14
ATOM     14  C   UNL     1     -14.137 -15.400 -37.514  1.00  0.00    -0.000 C 
BRANCH  14  15
ATOM     15  C   UNL     1     -12.981 -15.006 -38.450  1.00  0.00    -0.000 C 
BRANCH  15  16
ATOM     16  C   UNL     1     -12.181 -13.804 -37.923  1.00  0.00    -0.000 C 
BRANCH  16  17
ATOM     17  C   UNL     1     -10.678 -13.916 -38.218  1.00  0.00    -0.003 C 
ATOM     18  C   UNL     1     -10.426 -14.719 -39.491  1.00  0.00     0.004 C 
ENDBRANCH  16  17
ENDBRANCH  15  16
ENDBRANCH  14  15
ENDBRANCH  13  14
ENDBRANCH  12  13
ENDBRANCH  11  12
ENDBRANCH   1  11
TORSDOF 14
ENDMDL
