MODEL 1
REMARK VINA RESULT:    -4.996      0.000      0.000
REMARK INTER + INTRA:          -8.464
REMARK INTER:                  -7.916
REMARK INTRA:                  -0.548
REMARK UNBOUND:                -0.548
REMARK SMILES CCCCCCCCCCCC(=O)[O-]
REMARK SMILES IDX 7 1 8 2 9 3 10 4 11 5 12 6 13 7 14 8 6 9 5 10 4 11 3 12 2 13
REMARK SMILES IDX 1 14
REMARK H PARENT
REMARK Flexibility Score: inf
ROOT
ATOM      1  C   UNL     1      -3.051  11.540  -9.166  1.00  0.00     0.000 C 
ENDROOT
BRANCH   1   2
ATOM      2  C   UNL     1      -1.726  11.070  -8.539  1.00  0.00     0.000 C 
BRANCH   2   3
ATOM      3  C   UNL     1      -0.894  12.228  -7.965  1.00  0.00     0.000 C 
BRANCH   3   4
ATOM      4  C   UNL     1       0.596  11.874  -7.833  1.00  0.00     0.006 C 
BRANCH   4   5
ATOM      5  C   UNL     1       0.858  10.366  -7.935  1.00  0.00     0.053 C 
BRANCH   5   6
ATOM      6  C   UNL     1       2.318  10.101  -8.121  1.00  0.00     0.041 C 
ATOM      7  O   UNL     1       3.139  10.419  -7.221  1.00  0.00    -0.550 OA
ATOM      8  O   UNL     1       2.780   9.549  -9.308  1.00  0.00    -0.550 OA
ENDBRANCH   5   6
ENDBRANCH   4   5
ENDBRANCH   3   4
ENDBRANCH   2   3
ENDBRANCH   1   2
BRANCH   1   9
ATOM      9  C   UNL     1      -3.656  10.583 -10.214  1.00  0.00     0.000 C 
BRANCH   9  10
ATOM     10  C   UNL     1      -5.119  10.876 -10.602  1.00  0.00    -0.000 C 
BRANCH  10  11
ATOM     11  C   UNL     1      -6.162   9.948  -9.954  1.00  0.00    -0.000 C 
BRANCH  11  12
ATOM     12  C   UNL     1      -5.527   8.752  -9.231  1.00  0.00    -0.000 C 
BRANCH  12  13
ATOM     13  C   UNL     1      -6.033   7.428  -9.814  1.00  0.00    -0.003 C 
ATOM     14  C   UNL     1      -5.222   7.017 -11.039  1.00  0.00     0.004 C 
ENDBRANCH  12  13
ENDBRANCH  11  12
ENDBRANCH  10  11
ENDBRANCH   9  10
ENDBRANCH   1   9
TORSDOF 10
ENDMDL
MODEL 2
REMARK VINA RESULT:    -4.874      3.117      6.731
REMARK INTER + INTRA:          -8.270
REMARK INTER:                  -7.729
REMARK INTRA:                  -0.541
REMARK UNBOUND:                -0.548
REMARK SMILES CCCCCCCCCCCC(=O)[O-]
REMARK SMILES IDX 7 1 8 2 9 3 10 4 11 5 12 6 13 7 14 8 6 9 5 10 4 11 3 12 2 13
REMARK SMILES IDX 1 14
REMARK H PARENT
REMARK Flexibility Score: inf
ROOT
ATOM      1  C   UNL     1      -3.352  10.854  -9.374  1.00  0.00     0.000 C 
ENDROOT
BRANCH   1   2
ATOM      2  C   UNL     1      -4.373  10.858 -10.526  1.00  0.00     0.000 C 
BRANCH   2   3
ATOM      3  C   UNL     1      -5.768  10.377 -10.089  1.00  0.00     0.000 C 
BRANCH   3   4
ATOM      4  C   UNL     1      -5.716   9.056  -9.306  1.00  0.00     0.006 C 
BRANCH   4   5
ATOM      5  C   UNL     1      -6.230   7.863 -10.123  1.00  0.00     0.053 C 
BRANCH   5   6
ATOM      6  C   UNL     1      -5.088   7.142 -10.768  1.00  0.00     0.041 C 
ATOM      7  O   UNL     1      -5.302   6.315 -11.692  1.00  0.00    -0.550 OA
ATOM      8  O   UNL     1      -3.792   7.348 -10.314  1.00  0.00    -0.550 OA
ENDBRANCH   5   6
ENDBRANCH   4   5
ENDBRANCH   3   4
ENDBRANCH   2   3
ENDBRANCH   1   2
BRANCH   1   9
ATOM      9  C   UNL     1      -3.040  12.239  -8.772  1.00  0.00     0.000 C 
BRANCH   9  10
ATOM     10  C   UNL     1      -1.662  12.362  -8.091  1.00  0.00    -0.000 C 
BRANCH  10  11
ATOM     11  C   UNL     1      -0.828  11.068  -8.075  1.00  0.00    -0.000 C 
BRANCH  11  12
ATOM     12  C   UNL     1       0.681  11.333  -7.962  1.00  0.00    -0.000 C 
BRANCH  12  13
ATOM     13  C   UNL     1       1.447  10.033  -7.696  1.00  0.00    -0.003 C 
ATOM     14  C   UNL     1       2.758   9.994  -8.476  1.00  0.00     0.004 C 
ENDBRANCH  12  13
ENDBRANCH  11  12
ENDBRANCH  10  11
ENDBRANCH   9  10
ENDBRANCH   1   9
TORSDOF 10
ENDMDL
MODEL 3
REMARK VINA RESULT:    -4.814      0.871      2.030
REMARK INTER + INTRA:          -8.176
REMARK INTER:                  -7.456
REMARK INTRA:                  -0.721
REMARK UNBOUND:                -0.548
REMARK SMILES CCCCCCCCCCCC(=O)[O-]
REMARK SMILES IDX 7 1 8 2 9 3 10 4 11 5 12 6 13 7 14 8 6 9 5 10 4 11 3 12 2 13
REMARK SMILES IDX 1 14
REMARK H PARENT
REMARK Flexibility Score: inf
ROOT
ATOM      1  C   UNL     1      -2.079  11.555  -6.860  1.00  0.00     0.000 C 
ENDROOT
BRANCH   1   2
ATOM      2  C   UNL     1      -1.221  12.701  -7.428  1.00  0.00     0.000 C 
BRANCH   2   3
ATOM      3  C   UNL     1       0.195  12.247  -7.821  1.00  0.00     0.000 C 
BRANCH   3   4
ATOM      4  C   UNL     1       0.587  10.912  -7.169  1.00  0.00     0.006 C 
BRANCH   4   5
ATOM      5  C   UNL     1       1.270   9.951  -8.152  1.00  0.00     0.053 C 
BRANCH   5   6
ATOM      6  C   UNL     1       2.745  10.196  -8.182  1.00  0.00     0.041 C 
ATOM      7  O   UNL     1       3.424   9.851  -9.184  1.00  0.00    -0.550 OA
ATOM      8  O   UNL     1       3.378  10.762  -7.083  1.00  0.00    -0.550 OA
ENDBRANCH   5   6
ENDBRANCH   4   5
ENDBRANCH   3   4
ENDBRANCH   2   3
ENDBRANCH   1   2
BRANCH   1   9
ATOM      9  C   UNL     1      -3.058  10.912  -7.864  1.00  0.00     0.000 C 
BRANCH   9  10
ATOM     10  C   UNL     1      -2.841  11.309  -9.337  1.00  0.00    -0.000 C 
BRANCH  10  11
ATOM     11  C   UNL     1      -3.771  10.608 -10.343  1.00  0.00    -0.000 C 
BRANCH  11  12
ATOM     12  C   UNL     1      -5.248  10.983 -10.151  1.00  0.00    -0.000 C 
BRANCH  12  13
ATOM     13  C   UNL     1      -6.129   9.729 -10.100  1.00  0.00    -0.003 C 
ATOM     14  C   UNL     1      -5.320   8.473 -10.412  1.00  0.00     0.004 C 
ENDBRANCH  12  13
ENDBRANCH  11  12
ENDBRANCH  10  11
ENDBRANCH   9  10
ENDBRANCH   1   9
TORSDOF 10
ENDMDL
MODEL 4
REMARK VINA RESULT:    -4.793      3.552      6.990
REMARK INTER + INTRA:          -8.143
REMARK INTER:                  -7.672
REMARK INTRA:                  -0.471
REMARK UNBOUND:                -0.548
REMARK SMILES CCCCCCCCCCCC(=O)[O-]
REMARK SMILES IDX 7 1 8 2 9 3 10 4 11 5 12 6 13 7 14 8 6 9 5 10 4 11 3 12 2 13
REMARK SMILES IDX 1 14
REMARK H PARENT
REMARK Flexibility Score: inf
ROOT
ATOM      1  C   UNL     1      -1.988  11.987  -8.511  1.00  0.00     0.000 C 
ENDROOT
BRANCH   1   2
ATOM      2  C   UNL     1      -2.935  11.384  -9.564  1.00  0.00     0.000 C 
BRANCH   2   3
ATOM      3  C   UNL     1      -4.418  11.635  -9.245  1.00  0.00     0.000 C 
BRANCH   3   4
ATOM      4  C   UNL     1      -5.351  10.650  -9.967  1.00  0.00     0.006 C 
BRANCH   4   5
ATOM      5  C   UNL     1      -4.596   9.472 -10.597  1.00  0.00     0.053 C 
BRANCH   5   6
ATOM      6  C   UNL     1      -5.419   8.225 -10.524  1.00  0.00     0.041 C 
ATOM      7  O   UNL     1      -5.078   7.203 -11.174  1.00  0.00    -0.550 OA
ATOM      8  O   UNL     1      -6.590   8.208  -9.778  1.00  0.00    -0.550 OA
ENDBRANCH   5   6
ENDBRANCH   4   5
ENDBRANCH   3   4
ENDBRANCH   2   3
ENDBRANCH   1   2
BRANCH   1   9
ATOM      9  C   UNL     1      -1.667  11.067  -7.316  1.00  0.00     0.000 C 
BRANCH   9  10
ATOM     10  C   UNL     1      -0.285  11.289  -6.670  1.00  0.00    -0.000 C 
BRANCH  10  11
ATOM     11  C   UNL     1       0.876  11.473  -7.664  1.00  0.00    -0.000 C 
BRANCH  11  12
ATOM     12  C   UNL     1       1.421  10.139  -8.196  1.00  0.00    -0.000 C 
BRANCH  12  13
ATOM     13  C   UNL     1       2.949  10.177  -8.305  1.00  0.00    -0.003 C 
ATOM     14  C   UNL     1       3.425   9.571  -9.622  1.00  0.00     0.004 C 
ENDBRANCH  12  13
ENDBRANCH  11  12
ENDBRANCH  10  11
ENDBRANCH   9  10
ENDBRANCH   1   9
TORSDOF 10
ENDMDL
MODEL 5
REMARK VINA RESULT:    -4.785      1.217      1.695
REMARK INTER + INTRA:          -8.129
REMARK INTER:                  -7.423
REMARK INTRA:                  -0.706
REMARK UNBOUND:                -0.548
REMARK SMILES CCCCCCCCCCCC(=O)[O-]
REMARK SMILES IDX 7 1 8 2 9 3 10 4 11 5 12 6 13 7 14 8 6 9 5 10 4 11 3 12 2 13
REMARK SMILES IDX 1 14
REMARK H PARENT
REMARK Flexibility Score: inf
ROOT
ATOM      1  C   UNL     1      -2.815  12.023  -8.895  1.00  0.00     0.000 C 
ENDROOT
BRANCH   1   2
ATOM      2  C   UNL     1      -1.927  10.917  -8.296  1.00  0.00     0.000 C 
BRANCH   2   3
ATOM      3  C   UNL     1      -0.814  11.472  -7.392  1.00  0.00     0.000 C 
BRANCH   3   4
ATOM      4  C   UNL     1       0.566  11.440  -8.069  1.00  0.00     0.006 C 
BRANCH   4   5
ATOM      5  C   UNL     1       1.248  10.070  -7.959  1.00  0.00     0.053 C 
BRANCH   5   6
ATOM      6  C   UNL     1       2.734  10.220  -8.043  1.00  0.00     0.041 C 
ATOM      7  O   UNL     1       3.374  10.733  -7.088  1.00  0.00    -0.550 OA
ATOM      8  O   UNL     1       3.408   9.838  -9.196  1.00  0.00    -0.550 OA
ENDBRANCH   5   6
ENDBRANCH   4   5
ENDBRANCH   3   4
ENDBRANCH   2   3
ENDBRANCH   1   2
BRANCH   1   9
ATOM      9  C   UNL     1      -4.052  12.397  -8.053  1.00  0.00     0.000 C 
BRANCH   9  10
ATOM     10  C   UNL     1      -5.273  12.881  -8.861  1.00  0.00    -0.000 C 
BRANCH  10  11
ATOM     11  C   UNL     1      -6.379  11.830  -9.060  1.00  0.00    -0.000 C 
BRANCH  11  12
ATOM     12  C   UNL     1      -6.189  10.999 -10.337  1.00  0.00    -0.000 C 
BRANCH  12  13
ATOM     13  C   UNL     1      -5.664   9.598 -10.004  1.00  0.00    -0.003 C 
ATOM     14  C   UNL     1      -4.319   9.338 -10.679  1.00  0.00     0.004 C 
ENDBRANCH  12  13
ENDBRANCH  11  12
ENDBRANCH  10  11
ENDBRANCH   9  10
ENDBRANCH   1   9
TORSDOF 10
ENDMDL
MODEL 6
REMARK VINA RESULT:    -4.768      1.427      2.267
REMARK INTER + INTRA:          -8.103
REMARK INTER:                  -6.967
REMARK INTRA:                  -1.136
REMARK UNBOUND:                -0.548
REMARK SMILES CCCCCCCCCCCC(=O)[O-]
REMARK SMILES IDX 7 1 8 2 9 3 10 4 11 5 12 6 13 7 14 8 6 9 5 10 4 11 3 12 2 13
REMARK SMILES IDX 1 14
REMARK H PARENT
REMARK Flexibility Score: inf
ROOT
ATOM      1  C   UNL     1      -3.780  11.455  -7.069  1.00  0.00     0.000 C 
ENDROOT
BRANCH   1   2
ATOM      2  C   UNL     1      -2.394  10.841  -7.342  1.00  0.00     0.000 C 
BRANCH   2   3
ATOM      3  C   UNL     1      -1.618  11.588  -8.439  1.00  0.00     0.000 C 
BRANCH   3   4
ATOM      4  C   UNL     1      -0.135  11.780  -8.085  1.00  0.00     0.006 C 
BRANCH   4   5
ATOM      5  C   UNL     1       0.451  10.585  -7.319  1.00  0.00     0.053 C 
BRANCH   5   6
ATOM      6  C   UNL     1       1.842  10.297  -7.788  1.00  0.00     0.041 C 
ATOM      7  O   UNL     1       2.031   9.590  -8.812  1.00  0.00    -0.550 OA
ATOM      8  O   UNL     1       2.931  10.767  -7.065  1.00  0.00    -0.550 OA
ENDBRANCH   5   6
ENDBRANCH   4   5
ENDBRANCH   3   4
ENDBRANCH   2   3
ENDBRANCH   1   2
BRANCH   1   9
ATOM      9  C   UNL     1      -4.021  12.837  -7.709  1.00  0.00     0.000 C 
BRANCH   9  10
ATOM     10  C   UNL     1      -5.238  12.919  -8.652  1.00  0.00    -0.000 C 
BRANCH  10  11
ATOM     11  C   UNL     1      -6.022  11.605  -8.818  1.00  0.00    -0.000 C 
BRANCH  11  12
ATOM     12  C   UNL     1      -5.981  11.064 -10.255  1.00  0.00    -0.000 C 
BRANCH  12  13
ATOM     13  C   UNL     1      -4.541  10.769 -10.688  1.00  0.00    -0.003 C 
ATOM     14  C   UNL     1      -4.137   9.343 -10.328  1.00  0.00     0.004 C 
ENDBRANCH  12  13
ENDBRANCH  11  12
ENDBRANCH  10  11
ENDBRANCH   9  10
ENDBRANCH   1   9
TORSDOF 10
ENDMDL
MODEL 7
REMARK VINA RESULT:    -4.764      3.660      6.741
REMARK INTER + INTRA:          -8.097
REMARK INTER:                  -7.441
REMARK INTRA:                  -0.656
REMARK UNBOUND:                -0.548
REMARK SMILES CCCCCCCCCCCC(=O)[O-]
REMARK SMILES IDX 7 1 8 2 9 3 10 4 11 5 12 6 13 7 14 8 6 9 5 10 4 11 3 12 2 13
REMARK SMILES IDX 1 14
REMARK H PARENT
REMARK Flexibility Score: inf
ROOT
ATOM      1  C   UNL     1      -2.786  12.122  -7.302  1.00  0.00     0.000 C 
ENDROOT
BRANCH   1   2
ATOM      2  C   UNL     1      -2.844  10.854  -8.173  1.00  0.00     0.000 C 
BRANCH   2   3
ATOM      3  C   UNL     1      -2.964  11.168  -9.674  1.00  0.00     0.000 C 
BRANCH   3   4
ATOM      4  C   UNL     1      -4.111  10.397 -10.347  1.00  0.00     0.006 C 
BRANCH   4   5
ATOM      5  C   UNL     1      -3.923   8.876 -10.278  1.00  0.00     0.053 C 
BRANCH   5   6
ATOM      6  C   UNL     1      -5.210   8.177 -10.583  1.00  0.00     0.041 C 
ATOM      7  O   UNL     1      -6.299   8.642 -10.158  1.00  0.00    -0.550 OA
ATOM      8  O   UNL     1      -5.201   6.984 -11.295  1.00  0.00    -0.550 OA
ENDBRANCH   5   6
ENDBRANCH   4   5
ENDBRANCH   3   4
ENDBRANCH   2   3
ENDBRANCH   1   2
BRANCH   1   9
ATOM      9  C   UNL     1      -1.561  13.028  -7.546  1.00  0.00     0.000 C 
BRANCH   9  10
ATOM     10  C   UNL     1      -0.261  12.572  -6.854  1.00  0.00    -0.000 C 
BRANCH  10  11
ATOM     11  C   UNL     1       0.757  11.878  -7.776  1.00  0.00    -0.000 C 
BRANCH  11  12
ATOM     12  C   UNL     1       0.803  10.356  -7.574  1.00  0.00    -0.000 C 
BRANCH  12  13
ATOM     13  C   UNL     1       1.876   9.718  -8.463  1.00  0.00    -0.003 C 
ATOM     14  C   UNL     1       3.224  10.412  -8.287  1.00  0.00     0.004 C 
ENDBRANCH  12  13
ENDBRANCH  11  12
ENDBRANCH  10  11
ENDBRANCH   9  10
ENDBRANCH   1   9
TORSDOF 10
ENDMDL
MODEL 8
REMARK VINA RESULT:    -4.665      1.932      3.185
REMARK INTER + INTRA:          -7.940
REMARK INTER:                  -6.959
REMARK INTRA:                  -0.981
REMARK UNBOUND:                -0.548
REMARK SMILES CCCCCCCCCCCC(=O)[O-]
REMARK SMILES IDX 7 1 8 2 9 3 10 4 11 5 12 6 13 7 14 8 6 9 5 10 4 11 3 12 2 13
REMARK SMILES IDX 1 14
REMARK H PARENT
REMARK Flexibility Score: inf
ROOT
ATOM      1  C   UNL     1      -3.392  10.043  -8.947  1.00  0.00     0.000 C 
ENDROOT
BRANCH   1   2
ATOM      2  C   UNL     1      -2.532  11.284  -9.250  1.00  0.00     0.000 C 
BRANCH   2   3
ATOM      3  C   UNL     1      -1.733  11.768  -8.028  1.00  0.00     0.000 C 
BRANCH   3   4
ATOM      4  C   UNL     1      -0.456  10.944  -7.796  1.00  0.00     0.006 C 
BRANCH   4   5
ATOM      5  C   UNL     1       0.817  11.800  -7.834  1.00  0.00     0.053 C 
BRANCH   5   6
ATOM      6  C   UNL     1       1.224  12.192  -6.449  1.00  0.00     0.041 C 
ATOM      7  O   UNL     1       0.723  13.211  -5.906  1.00  0.00    -0.550 OA
ATOM      8  O   UNL     1       2.193  11.460  -5.776  1.00  0.00    -0.550 OA
ENDBRANCH   5   6
ENDBRANCH   4   5
ENDBRANCH   3   4
ENDBRANCH   2   3
ENDBRANCH   1   2
BRANCH   1   9
ATOM      9  C   UNL     1      -4.371   9.636 -10.067  1.00  0.00     0.000 C 
BRANCH   9  10
ATOM     10  C   UNL     1      -5.109  10.806 -10.749  1.00  0.00    -0.000 C 
BRANCH  10  11
ATOM     11  C   UNL     1      -6.580  10.977 -10.333  1.00  0.00    -0.000 C 
BRANCH  11  12
ATOM     12  C   UNL     1      -6.736  11.604  -8.939  1.00  0.00    -0.000 C 
BRANCH  12  13
ATOM     13  C   UNL     1      -5.941  12.910  -8.835  1.00  0.00    -0.003 C 
ATOM     14  C   UNL     1      -5.338  13.080  -7.443  1.00  0.00     0.004 C 
ENDBRANCH  12  13
ENDBRANCH  11  12
ENDBRANCH  10  11
ENDBRANCH   9  10
ENDBRANCH   1   9
TORSDOF 10
ENDMDL
MODEL 9
REMARK VINA RESULT:    -4.620      3.977      7.064
REMARK INTER + INTRA:          -7.868
REMARK INTER:                  -7.166
REMARK INTRA:                  -0.702
REMARK UNBOUND:                -0.548
REMARK SMILES CCCCCCCCCCCC(=O)[O-]
REMARK SMILES IDX 7 1 8 2 9 3 10 4 11 5 12 6 13 7 14 8 6 9 5 10 4 11 3 12 2 13
REMARK SMILES IDX 1 14
REMARK H PARENT
REMARK Flexibility Score: inf
ROOT
ATOM      1  C   UNL     1      -2.902  11.769  -9.228  1.00  0.00     0.000 C 
ENDROOT
BRANCH   1   2
ATOM      2  C   UNL     1      -3.055  10.249  -9.037  1.00  0.00     0.000 C 
BRANCH   2   3
ATOM      3  C   UNL     1      -4.214   9.659  -9.859  1.00  0.00     0.000 C 
BRANCH   3   4
ATOM      4  C   UNL     1      -4.959  10.726 -10.676  1.00  0.00     0.006 C 
BRANCH   4   5
ATOM      5  C   UNL     1      -6.451  10.806 -10.324  1.00  0.00     0.053 C 
BRANCH   5   6
ATOM      6  C   UNL     1      -6.638  11.449  -8.987  1.00  0.00     0.041 C 
ATOM      7  O   UNL     1      -7.071  10.776  -8.015  1.00  0.00    -0.550 OA
ATOM      8  O   UNL     1      -6.382  12.804  -8.825  1.00  0.00    -0.550 OA
ENDBRANCH   5   6
ENDBRANCH   4   5
ENDBRANCH   3   4
ENDBRANCH   2   3
ENDBRANCH   1   2
BRANCH   1   9
ATOM      9  C   UNL     1      -2.026  12.475  -8.173  1.00  0.00     0.000 C 
BRANCH   9  10
ATOM     10  C   UNL     1      -0.550  12.028  -8.141  1.00  0.00    -0.000 C 
BRANCH  10  11
ATOM     11  C   UNL     1       0.003  11.713  -6.740  1.00  0.00    -0.000 C 
BRANCH  11  12
ATOM     12  C   UNL     1       1.330  10.943  -6.782  1.00  0.00    -0.000 C 
BRANCH  12  13
ATOM     13  C   UNL     1       1.399  10.039  -8.018  1.00  0.00    -0.003 C 
ATOM     14  C   UNL     1       2.809  10.007  -8.601  1.00  0.00     0.004 C 
ENDBRANCH  12  13
ENDBRANCH  11  12
ENDBRANCH  10  11
ENDBRANCH   9  10
ENDBRANCH   1   9
TORSDOF 10
ENDMDL
