MODEL 1
REMARK VINA RESULT:    -3.515      0.000      0.000
REMARK INTER + INTRA:          -3.515
REMARK INTER:                  -3.515
REMARK INTRA:                   0.000
REMARK UNBOUND:                 0.000
REMARK SMILES CC1(C)O[C@]2(C)CC[C@H]1CC2
REMARK SMILES IDX 1 1 2 2 9 3 10 4 11 5 5 6 4 7 7 8 8 9 6 10 3 11
REMARK H PARENT
REMARK Flexibility Score: inf
ROOT
ATOM      1  C   UNL     1      45.545 -29.513  11.578  1.00  0.00     0.042 C 
ATOM      2  C   UNL     1      45.030 -30.775  10.855  1.00  0.00     0.066 C 
ATOM      3  C   UNL     1      43.478 -30.951  11.075  1.00  0.00     0.021 C 
ATOM      4  C   UNL     1      43.028 -32.255  10.374  1.00  0.00     0.009 C 
ATOM      5  C   UNL     1      43.935 -33.420  10.835  1.00  0.00     0.035 C 
ATOM      6  C   UNL     1      44.935 -32.913  11.915  1.00  0.00     0.066 C 
ATOM      7  O   UNL     1      45.769 -31.904  11.345  1.00  0.00    -0.369 OA
ATOM      8  C   UNL     1      44.132 -32.305  13.101  1.00  0.00     0.035 C 
ATOM      9  C   UNL     1      43.220 -31.166  12.586  1.00  0.00     0.009 C 
ATOM     10  C   UNL     1      45.818 -34.066  12.406  1.00  0.00     0.042 C 
ATOM     11  C   UNL     1      45.352 -30.608   9.353  1.00  0.00     0.042 C 
ENDROOT
TORSDOF 0
ENDMDL
MODEL 2
REMARK VINA RESULT:    -3.433      1.352      2.155
REMARK INTER + INTRA:          -3.433
REMARK INTER:                  -3.433
REMARK INTRA:                   0.000
REMARK UNBOUND:                 0.000
REMARK SMILES CC1(C)O[C@]2(C)CC[C@H]1CC2
REMARK SMILES IDX 1 1 2 2 9 3 10 4 11 5 5 6 4 7 7 8 8 9 6 10 3 11
REMARK H PARENT
REMARK Flexibility Score: inf
ROOT
ATOM      1  C   UNL     1      44.956 -31.050   9.770  1.00  0.00     0.042 C 
ATOM      2  C   UNL     1      43.822 -31.399  10.758  1.00  0.00     0.066 C 
ATOM      3  C   UNL     1      44.053 -30.686  12.146  1.00  0.00     0.021 C 
ATOM      4  C   UNL     1      42.919 -31.110  13.109  1.00  0.00     0.009 C 
ATOM      5  C   UNL     1      42.815 -32.654  13.125  1.00  0.00     0.035 C 
ATOM      6  C   UNL     1      43.941 -33.267  12.242  1.00  0.00     0.066 C 
ATOM      7  O   UNL     1      43.771 -32.827  10.894  1.00  0.00    -0.369 OA
ATOM      8  C   UNL     1      45.320 -32.777  12.770  1.00  0.00     0.035 C 
ATOM      9  C   UNL     1      45.365 -31.230  12.763  1.00  0.00     0.009 C 
ATOM     10  C   UNL     1      43.871 -34.797  12.276  1.00  0.00     0.042 C 
ATOM     11  C   UNL     1      42.496 -30.931  10.119  1.00  0.00     0.042 C 
ENDROOT
TORSDOF 0
ENDMDL
MODEL 3
REMARK VINA RESULT:    -3.360      0.882      3.323
REMARK INTER + INTRA:          -3.360
REMARK INTER:                  -3.360
REMARK INTRA:                   0.000
REMARK UNBOUND:                 0.000
REMARK SMILES CC1(C)O[C@]2(C)CC[C@H]1CC2
REMARK SMILES IDX 1 1 2 2 9 3 10 4 11 5 5 6 4 7 7 8 8 9 6 10 3 11
REMARK H PARENT
REMARK Flexibility Score: inf
ROOT
ATOM      1  C   UNL     1      43.846 -33.788  11.335  1.00  0.00     0.042 C 
ATOM      2  C   UNL     1      44.661 -32.552  11.770  1.00  0.00     0.066 C 
ATOM      3  C   UNL     1      43.711 -31.426  12.333  1.00  0.00     0.021 C 
ATOM      4  C   UNL     1      44.574 -30.197  12.705  1.00  0.00     0.009 C 
ATOM      5  C   UNL     1      45.466 -29.819  11.498  1.00  0.00     0.035 C 
ATOM      6  C   UNL     1      45.134 -30.740  10.287  1.00  0.00     0.066 C 
ATOM      7  O   UNL     1      45.417 -32.095  10.638  1.00  0.00    -0.369 OA
ATOM      8  C   UNL     1      43.621 -30.603   9.950  1.00  0.00     0.035 C 
ATOM      9  C   UNL     1      42.772 -30.963  11.193  1.00  0.00     0.009 C 
ATOM     10  C   UNL     1      45.987 -30.353   9.075  1.00  0.00     0.042 C 
ATOM     11  C   UNL     1      45.658 -33.018  12.854  1.00  0.00     0.042 C 
ENDROOT
TORSDOF 0
ENDMDL
MODEL 4
REMARK VINA RESULT:    -3.332      1.785      3.207
REMARK INTER + INTRA:          -3.332
REMARK INTER:                  -3.332
REMARK INTRA:                   0.000
REMARK UNBOUND:                 0.000
REMARK SMILES CC1(C)O[C@]2(C)CC[C@H]1CC2
REMARK SMILES IDX 1 1 2 2 9 3 10 4 11 5 5 6 4 7 7 8 8 9 6 10 3 11
REMARK H PARENT
REMARK Flexibility Score: inf
ROOT
ATOM      1  C   UNL     1      41.112 -31.788  10.617  1.00  0.00     0.042 C 
ATOM      2  C   UNL     1      42.110 -31.707  11.792  1.00  0.00     0.066 C 
ATOM      3  C   UNL     1      43.465 -31.045  11.330  1.00  0.00     0.021 C 
ATOM      4  C   UNL     1      44.441 -31.036  12.530  1.00  0.00     0.009 C 
ATOM      5  C   UNL     1      44.528 -32.462  13.125  1.00  0.00     0.035 C 
ATOM      6  C   UNL     1      43.679 -33.445  12.265  1.00  0.00     0.066 C 
ATOM      7  O   UNL     1      42.312 -33.035  12.299  1.00  0.00    -0.369 OA
ATOM      8  C   UNL     1      44.191 -33.401  10.797  1.00  0.00     0.035 C 
ATOM      9  C   UNL     1      44.112 -31.954  10.257  1.00  0.00     0.009 C 
ATOM     10  C   UNL     1      43.784 -34.867  12.824  1.00  0.00     0.042 C 
ATOM     11  C   UNL     1      41.444 -30.867  12.904  1.00  0.00     0.042 C 
ENDROOT
TORSDOF 0
ENDMDL
MODEL 5
REMARK VINA RESULT:    -3.274      1.393      3.099
REMARK INTER + INTRA:          -3.274
REMARK INTER:                  -3.274
REMARK INTRA:                   0.000
REMARK UNBOUND:                 0.000
REMARK SMILES CC1(C)O[C@]2(C)CC[C@H]1CC2
REMARK SMILES IDX 1 1 2 2 9 3 10 4 11 5 5 6 4 7 7 8 8 9 6 10 3 11
REMARK H PARENT
REMARK Flexibility Score: inf
ROOT
ATOM      1  C   UNL     1      46.095 -30.018  12.091  1.00  0.00     0.042 C 
ATOM      2  C   UNL     1      45.021 -31.126  12.031  1.00  0.00     0.066 C 
ATOM      3  C   UNL     1      44.999 -31.806  10.608  1.00  0.00     0.021 C 
ATOM      4  C   UNL     1      43.874 -32.868  10.590  1.00  0.00     0.009 C 
ATOM      5  C   UNL     1      42.555 -32.221  11.075  1.00  0.00     0.035 C 
ATOM      6  C   UNL     1      42.777 -30.701  11.331  1.00  0.00     0.066 C 
ATOM      7  O   UNL     1      43.754 -30.537  12.360  1.00  0.00    -0.369 OA
ATOM      8  C   UNL     1      43.296 -30.040  10.021  1.00  0.00     0.035 C 
ATOM      9  C   UNL     1      44.597 -30.738   9.562  1.00  0.00     0.009 C 
ATOM     10  C   UNL     1      41.470 -30.040  11.779  1.00  0.00     0.042 C 
ATOM     11  C   UNL     1      45.366 -32.160  13.125  1.00  0.00     0.042 C 
ENDROOT
TORSDOF 0
ENDMDL
MODEL 6
REMARK VINA RESULT:    -3.210      1.299      3.213
REMARK INTER + INTRA:          -3.210
REMARK INTER:                  -3.210
REMARK INTRA:                   0.000
REMARK UNBOUND:                 0.000
REMARK SMILES CC1(C)O[C@]2(C)CC[C@H]1CC2
REMARK SMILES IDX 1 1 2 2 9 3 10 4 11 5 5 6 4 7 7 8 8 9 6 10 3 11
REMARK H PARENT
REMARK Flexibility Score: inf
ROOT
ATOM      1  C   UNL     1      45.376 -32.879  13.125  1.00  0.00     0.042 C 
ATOM      2  C   UNL     1      44.552 -32.459  11.889  1.00  0.00     0.066 C 
ATOM      3  C   UNL     1      45.390 -31.499  10.960  1.00  0.00     0.021 C 
ATOM      4  C   UNL     1      44.501 -31.071   9.768  1.00  0.00     0.009 C 
ATOM      5  C   UNL     1      43.157 -30.524  10.307  1.00  0.00     0.035 C 
ATOM      6  C   UNL     1      43.184 -30.502  11.863  1.00  0.00     0.066 C 
ATOM      7  O   UNL     1      43.344 -31.835  12.348  1.00  0.00    -0.369 OA
ATOM      8  C   UNL     1      44.388 -29.636  12.335  1.00  0.00     0.035 C 
ATOM      9  C   UNL     1      45.702 -30.204  11.749  1.00  0.00     0.009 C 
ATOM     10  C   UNL     1      41.871 -29.930  12.410  1.00  0.00     0.042 C 
ATOM     11  C   UNL     1      44.167 -33.750  11.134  1.00  0.00     0.042 C 
ENDROOT
TORSDOF 0
ENDMDL
MODEL 7
REMARK VINA RESULT:    -3.169      1.169      2.874
REMARK INTER + INTRA:          -3.169
REMARK INTER:                  -3.169
REMARK INTRA:                   0.000
REMARK UNBOUND:                 0.000
REMARK SMILES CC1(C)O[C@]2(C)CC[C@H]1CC2
REMARK SMILES IDX 1 1 2 2 9 3 10 4 11 5 5 6 4 7 7 8 8 9 6 10 3 11
REMARK H PARENT
REMARK Flexibility Score: inf
ROOT
ATOM      1  C   UNL     1      45.975 -30.681   9.470  1.00  0.00     0.042 C 
ATOM      2  C   UNL     1      45.017 -30.485  10.665  1.00  0.00     0.066 C 
ATOM      3  C   UNL     1      45.341 -31.516  11.814  1.00  0.00     0.021 C 
ATOM      4  C   UNL     1      44.321 -31.310  12.959  1.00  0.00     0.009 C 
ATOM      5  C   UNL     1      42.888 -31.341  12.376  1.00  0.00     0.035 C 
ATOM      6  C   UNL     1      42.946 -31.660  10.854  1.00  0.00     0.066 C 
ATOM      7  O   UNL     1      43.671 -30.627  10.186  1.00  0.00    -0.369 OA
ATOM      8  C   UNL     1      43.680 -33.016  10.650  1.00  0.00     0.035 C 
ATOM      9  C   UNL     1      45.094 -32.946  11.273  1.00  0.00     0.009 C 
ATOM     10  C   UNL     1      41.531 -31.727  10.270  1.00  0.00     0.042 C 
ATOM     11  C   UNL     1      45.197 -29.036  11.166  1.00  0.00     0.042 C 
ENDROOT
TORSDOF 0
ENDMDL
MODEL 8
REMARK VINA RESULT:    -3.107      1.585      3.270
REMARK INTER + INTRA:          -3.107
REMARK INTER:                  -3.107
REMARK INTRA:                   0.000
REMARK UNBOUND:                 0.000
REMARK SMILES CC1(C)O[C@]2(C)CC[C@H]1CC2
REMARK SMILES IDX 1 1 2 2 9 3 10 4 11 5 5 6 4 7 7 8 8 9 6 10 3 11
REMARK H PARENT
REMARK Flexibility Score: inf
ROOT
ATOM      1  C   UNL     1      42.349 -32.990  12.696  1.00  0.00     0.042 C 
ATOM      2  C   UNL     1      42.886 -31.939  11.701  1.00  0.00     0.066 C 
ATOM      3  C   UNL     1      44.161 -32.483  10.947  1.00  0.00     0.021 C 
ATOM      4  C   UNL     1      44.684 -31.374  10.004  1.00  0.00     0.009 C 
ATOM      5  C   UNL     1      44.854 -30.062  10.808  1.00  0.00     0.035 C 
ATOM      6  C   UNL     1      44.532 -30.318  12.309  1.00  0.00     0.066 C 
ATOM      7  O   UNL     1      43.172 -30.737  12.432  1.00  0.00    -0.369 OA
ATOM      8  C   UNL     1      45.465 -31.444  12.840  1.00  0.00     0.035 C 
ATOM      9  C   UNL     1      45.280 -32.723  11.989  1.00  0.00     0.009 C 
ATOM     10  C   UNL     1      44.730 -29.035  13.122  1.00  0.00     0.042 C 
ATOM     11  C   UNL     1      41.751 -31.632  10.700  1.00  0.00     0.042 C 
ENDROOT
TORSDOF 0
ENDMDL
MODEL 9
REMARK VINA RESULT:    -2.971      1.958      3.456
REMARK INTER + INTRA:          -2.971
REMARK INTER:                  -2.971
REMARK INTRA:                   0.000
REMARK UNBOUND:                 0.000
REMARK SMILES CC1(C)O[C@]2(C)CC[C@H]1CC2
REMARK SMILES IDX 1 1 2 2 9 3 10 4 11 5 5 6 4 7 7 8 8 9 6 10 3 11
REMARK H PARENT
REMARK Flexibility Score: inf
ROOT
ATOM      1  C   UNL     1      44.266 -33.475  11.054  1.00  0.00     0.042 C 
ATOM      2  C   UNL     1      43.639 -32.085  10.812  1.00  0.00     0.066 C 
ATOM      3  C   UNL     1      43.489 -31.297  12.170  1.00  0.00     0.021 C 
ATOM      4  C   UNL     1      42.811 -29.938  11.876  1.00  0.00     0.009 C 
ATOM      5  C   UNL     1      41.517 -30.181  11.063  1.00  0.00     0.035 C 
ATOM      6  C   UNL     1      41.281 -31.710  10.893  1.00  0.00     0.066 C 
ATOM      7  O   UNL     1      42.372 -32.274  10.164  1.00  0.00    -0.369 OA
ATOM      8  C   UNL     1      41.210 -32.370  12.300  1.00  0.00     0.035 C 
ATOM      9  C   UNL     1      42.511 -32.075  13.083  1.00  0.00     0.009 C 
ATOM     10  C   UNL     1      39.984 -31.966  10.119  1.00  0.00     0.042 C 
ATOM     11  C   UNL     1      44.566 -31.325   9.839  1.00  0.00     0.042 C 
ENDROOT
TORSDOF 0
ENDMDL
