MODEL 1
REMARK VINA RESULT:    -3.055      0.000      0.000
REMARK INTER + INTRA:          -3.980
REMARK INTER:                  -3.591
REMARK INTRA:                  -0.389
REMARK UNBOUND:                -0.389
REMARK SMILES CCC=Cc1oc(O)c2c(O)cccc12
REMARK SMILES IDX 7 1 6 2 5 3 15 4 14 5 13 6 12 7 10 8 9 9 8 10 4 12 3 13 2 14
REMARK SMILES IDX 1 15 11 16
REMARK H PARENT 8 11 11 17
REMARK Flexibility Score: inf
ROOT
ATOM      1  C   UNL     1     -46.533 -25.780  43.031  1.00  0.00     0.294 A 
ATOM      2  O   UNL     1     -46.783 -25.060  41.955  1.00  0.00    -0.425 OA
ATOM      3  C   UNL     1     -46.072 -23.948  42.007  1.00  0.00     0.138 A 
ATOM      4  C   UNL     1     -45.330 -23.952  43.176  1.00  0.00     0.035 A 
ATOM      5  C   UNL     1     -44.429 -23.022  43.698  1.00  0.00     0.013 A 
ATOM      6  C   UNL     1     -43.820 -23.315  44.930  1.00  0.00     0.005 A 
ATOM      7  C   UNL     1     -44.118 -24.517  45.608  1.00  0.00     0.047 A 
ATOM      8  C   UNL     1     -45.028 -25.442  45.065  1.00  0.00     0.130 A 
ATOM      9  C   UNL     1     -45.622 -25.123  43.833  1.00  0.00     0.108 A 
ENDROOT
BRANCH   1  10
ATOM     10  O   UNL     1     -47.119 -27.014  43.285  1.00  0.00    -0.480 OA
ATOM     11  H   UNL     1     -47.493 -27.225  44.201  1.00  0.00     0.297 HD
ENDBRANCH   1  10
BRANCH   3  12
ATOM     12  C   UNL     1     -46.082 -22.875  40.988  1.00  0.00     0.043 C 
ATOM     13  C   UNL     1     -45.604 -22.979  39.738  1.00  0.00    -0.023 C 
BRANCH  13  14
ATOM     14  C   UNL     1     -44.931 -24.190  39.154  1.00  0.00     0.024 C 
ATOM     15  C   UNL     1     -45.913 -25.043  38.354  1.00  0.00     0.008 C 
ENDBRANCH  13  14
ENDBRANCH   3  12
BRANCH   8  16
ATOM     16  O   UNL     1     -45.305 -26.622  45.753  1.00  0.00    -0.507 OA
ATOM     17  H   UNL     1     -45.474 -26.646  46.750  1.00  0.00     0.293 HD
ENDBRANCH   8  16
TORSDOF 4
ENDMDL
MODEL 2
REMARK VINA RESULT:    -3.026     16.180     17.269
REMARK INTER + INTRA:          -3.946
REMARK INTER:                  -3.371
REMARK INTRA:                  -0.575
REMARK UNBOUND:                -0.389
REMARK SMILES CCC=Cc1oc(O)c2c(O)cccc12
REMARK SMILES IDX 7 1 6 2 5 3 15 4 14 5 13 6 12 7 10 8 9 9 8 10 4 12 3 13 2 14
REMARK SMILES IDX 1 15 11 16
REMARK H PARENT 8 11 11 17
REMARK Flexibility Score: inf
ROOT
ATOM      1  C   UNL     1     -29.729 -23.483  43.070  1.00  0.00     0.294 A 
ATOM      2  O   UNL     1     -29.056 -23.264  41.957  1.00  0.00    -0.425 OA
ATOM      3  C   UNL     1     -27.953 -23.989  41.973  1.00  0.00     0.138 A 
ATOM      4  C   UNL     1     -27.911 -24.707  43.157  1.00  0.00     0.035 A 
ATOM      5  C   UNL     1     -26.970 -25.609  43.655  1.00  0.00     0.013 A 
ATOM      6  C   UNL     1     -27.214 -26.188  44.912  1.00  0.00     0.005 A 
ATOM      7  C   UNL     1     -28.379 -25.861  45.638  1.00  0.00     0.047 A 
ATOM      8  C   UNL     1     -29.316 -24.950  45.118  1.00  0.00     0.130 A 
ATOM      9  C   UNL     1     -29.047 -24.386  43.861  1.00  0.00     0.108 A 
ENDROOT
BRANCH   1  10
ATOM     10  O   UNL     1     -30.943 -22.875  43.368  1.00  0.00    -0.480 OA
ATOM     11  H   UNL     1     -30.989 -21.879  43.543  1.00  0.00     0.297 HD
ENDBRANCH   1  10
BRANCH   3  12
ATOM     12  C   UNL     1     -26.927 -24.015  40.906  1.00  0.00     0.043 C 
ATOM     13  C   UNL     1     -26.903 -24.861  39.865  1.00  0.00    -0.023 C 
BRANCH  13  14
ATOM     14  C   UNL     1     -27.888 -25.969  39.612  1.00  0.00     0.024 C 
ATOM     15  C   UNL     1     -27.432 -27.278  40.253  1.00  0.00     0.008 C 
ENDBRANCH  13  14
ENDBRANCH   3  12
BRANCH   8  16
ATOM     16  O   UNL     1     -30.460 -24.643  45.854  1.00  0.00    -0.507 OA
ATOM     17  H   UNL     1     -31.107 -25.349  46.179  1.00  0.00     0.293 HD
ENDBRANCH   8  16
TORSDOF 4
ENDMDL
MODEL 3
REMARK VINA RESULT:    -2.930     15.669     17.051
REMARK INTER + INTRA:          -3.833
REMARK INTER:                  -3.254
REMARK INTRA:                  -0.579
REMARK UNBOUND:                -0.389
REMARK SMILES CCC=Cc1oc(O)c2c(O)cccc12
REMARK SMILES IDX 7 1 6 2 5 3 15 4 14 5 13 6 12 7 10 8 9 9 8 10 4 12 3 13 2 14
REMARK SMILES IDX 1 15 11 16
REMARK H PARENT 8 11 11 17
REMARK Flexibility Score: inf
ROOT
ATOM      1  C   UNL     1     -43.936 -42.452  44.040  1.00  0.00     0.294 A 
ATOM      2  O   UNL     1     -44.371 -42.951  42.900  1.00  0.00    -0.425 OA
ATOM      3  C   UNL     1     -45.565 -42.451  42.640  1.00  0.00     0.138 A 
ATOM      4  C   UNL     1     -45.917 -41.588  43.665  1.00  0.00     0.035 A 
ATOM      5  C   UNL     1     -47.061 -40.814  43.866  1.00  0.00     0.013 A 
ATOM      6  C   UNL     1     -47.125 -40.023  45.026  1.00  0.00     0.005 A 
ATOM      7  C   UNL     1     -46.058 -40.019  45.950  1.00  0.00     0.047 A 
ATOM      8  C   UNL     1     -44.913 -40.805  45.728  1.00  0.00     0.130 A 
ATOM      9  C   UNL     1     -44.876 -41.586  44.562  1.00  0.00     0.108 A 
ENDROOT
BRANCH   1  10
ATOM     10  O   UNL     1     -42.706 -42.772  44.601  1.00  0.00    -0.480 OA
ATOM     11  H   UNL     1     -42.480 -42.480  45.544  1.00  0.00     0.297 HD
ENDBRANCH   1  10
BRANCH   3  12
ATOM     12  C   UNL     1     -46.391 -42.772  41.455  1.00  0.00     0.043 C 
ATOM     13  C   UNL     1     -46.423 -42.071  40.310  1.00  0.00    -0.023 C 
BRANCH  13  14
ATOM     14  C   UNL     1     -45.660 -40.805  40.036  1.00  0.00     0.024 C 
ATOM     15  C   UNL     1     -46.489 -39.569  40.376  1.00  0.00     0.008 C 
ENDBRANCH  13  14
ENDBRANCH   3  12
BRANCH   8  16
ATOM     16  O   UNL     1     -43.872 -40.782  46.655  1.00  0.00    -0.507 OA
ATOM     17  H   UNL     1     -43.574 -39.937  47.123  1.00  0.00     0.293 HD
ENDBRANCH   8  16
TORSDOF 4
ENDMDL
MODEL 4
REMARK VINA RESULT:    -2.926      3.255      4.688
REMARK INTER + INTRA:          -3.829
REMARK INTER:                  -3.251
REMARK INTRA:                  -0.578
REMARK UNBOUND:                -0.389
REMARK SMILES CCC=Cc1oc(O)c2c(O)cccc12
REMARK SMILES IDX 7 1 6 2 5 3 15 4 14 5 13 6 12 7 10 8 9 9 8 10 4 12 3 13 2 14
REMARK SMILES IDX 1 15 11 16
REMARK H PARENT 8 11 11 17
REMARK Flexibility Score: inf
ROOT
ATOM      1  C   UNL     1     -45.063 -23.521  47.922  1.00  0.00     0.294 A 
ATOM      2  O   UNL     1     -44.855 -22.877  46.791  1.00  0.00    -0.425 OA
ATOM      3  C   UNL     1     -44.097 -23.621  46.006  1.00  0.00     0.138 A 
ATOM      4  C   UNL     1     -43.801 -24.802  46.667  1.00  0.00     0.035 A 
ATOM      5  C   UNL     1     -43.046 -25.910  46.280  1.00  0.00     0.013 A 
ATOM      6  C   UNL     1     -42.928 -26.977  47.188  1.00  0.00     0.005 A 
ATOM      7  C   UNL     1     -43.560 -26.917  48.449  1.00  0.00     0.047 A 
ATOM      8  C   UNL     1     -44.318 -25.791  48.819  1.00  0.00     0.130 A 
ATOM      9  C   UNL     1     -44.418 -24.741  47.893  1.00  0.00     0.108 A 
ENDROOT
BRANCH   1  10
ATOM     10  O   UNL     1     -45.826 -23.014  48.967  1.00  0.00    -0.480 OA
ATOM     11  H   UNL     1     -46.150 -23.622  49.708  1.00  0.00     0.297 HD
ENDBRANCH   1  10
BRANCH   3  12
ATOM     12  C   UNL     1     -43.634 -23.246  44.652  1.00  0.00     0.043 C 
ATOM     13  C   UNL     1     -44.235 -23.579  43.499  1.00  0.00    -0.023 C 
BRANCH  13  14
ATOM     14  C   UNL     1     -45.466 -24.433  43.367  1.00  0.00     0.024 C 
ATOM     15  C   UNL     1     -45.106 -25.905  43.175  1.00  0.00     0.008 C 
ENDBRANCH  13  14
ENDBRANCH   3  12
BRANCH   8  16
ATOM     16  O   UNL     1     -44.934 -25.757  50.070  1.00  0.00    -0.507 OA
ATOM     17  H   UNL     1     -44.528 -25.286  50.866  1.00  0.00     0.293 HD
ENDBRANCH   8  16
TORSDOF 4
ENDMDL
MODEL 5
REMARK VINA RESULT:    -2.925      1.448      4.277
REMARK INTER + INTRA:          -3.828
REMARK INTER:                  -3.251
REMARK INTRA:                  -0.577
REMARK UNBOUND:                -0.389
REMARK SMILES CCC=Cc1oc(O)c2c(O)cccc12
REMARK SMILES IDX 7 1 6 2 5 3 15 4 14 5 13 6 12 7 10 8 9 9 8 10 4 12 3 13 2 14
REMARK SMILES IDX 1 15 11 16
REMARK H PARENT 8 11 11 17
REMARK Flexibility Score: inf
ROOT
ATOM      1  C   UNL     1     -45.626 -25.771  44.751  1.00  0.00     0.294 A 
ATOM      2  O   UNL     1     -44.874 -25.165  45.648  1.00  0.00    -0.425 OA
ATOM      3  C   UNL     1     -44.436 -24.027  45.143  1.00  0.00     0.138 A 
ATOM      4  C   UNL     1     -44.930 -23.895  43.855  1.00  0.00     0.035 A 
ATOM      5  C   UNL     1     -44.766 -22.886  42.905  1.00  0.00     0.013 A 
ATOM      6  C   UNL     1     -45.408 -23.040  41.664  1.00  0.00     0.005 A 
ATOM      7  C   UNL     1     -46.191 -24.184  41.400  1.00  0.00     0.047 A 
ATOM      8  C   UNL     1     -46.345 -25.189  42.372  1.00  0.00     0.130 A 
ATOM      9  C   UNL     1     -45.692 -25.010  43.602  1.00  0.00     0.108 A 
ENDROOT
BRANCH   1  10
ATOM     10  O   UNL     1     -46.246 -26.996  44.967  1.00  0.00    -0.480 OA
ATOM     11  H   UNL     1     -46.230 -27.425  45.884  1.00  0.00     0.297 HD
ENDBRANCH   1  10
BRANCH   3  12
ATOM     12  C   UNL     1     -43.555 -23.062  45.837  1.00  0.00     0.043 C 
ATOM     13  C   UNL     1     -42.225 -22.963  45.680  1.00  0.00    -0.023 C 
BRANCH  13  14
ATOM     14  C   UNL     1     -41.378 -23.843  44.802  1.00  0.00     0.024 C 
ATOM     15  C   UNL     1     -41.069 -23.167  43.467  1.00  0.00     0.008 C 
ENDBRANCH  13  14
ENDBRANCH   3  12
BRANCH   8  16
ATOM     16  O   UNL     1     -47.125 -26.309  42.087  1.00  0.00    -0.507 OA
ATOM     17  H   UNL     1     -48.097 -26.380  42.355  1.00  0.00     0.293 HD
ENDBRANCH   8  16
TORSDOF 4
ENDMDL
MODEL 6
REMARK VINA RESULT:    -2.915     16.133     17.755
REMARK INTER + INTRA:          -3.815
REMARK INTER:                  -3.236
REMARK INTRA:                  -0.579
REMARK UNBOUND:                -0.389
REMARK SMILES CCC=Cc1oc(O)c2c(O)cccc12
REMARK SMILES IDX 7 1 6 2 5 3 15 4 14 5 13 6 12 7 10 8 9 9 8 10 4 12 3 13 2 14
REMARK SMILES IDX 1 15 11 16
REMARK H PARENT 8 11 11 17
REMARK Flexibility Score: inf
ROOT
ATOM      1  C   UNL     1     -29.802 -24.550  45.013  1.00  0.00     0.294 A 
ATOM      2  O   UNL     1     -29.159 -25.345  45.845  1.00  0.00    -0.425 OA
ATOM      3  C   UNL     1     -28.012 -25.701  45.299  1.00  0.00     0.138 A 
ATOM      4  C   UNL     1     -27.913 -25.108  44.051  1.00  0.00     0.035 A 
ATOM      5  C   UNL     1     -26.909 -25.163  43.082  1.00  0.00     0.013 A 
ATOM      6  C   UNL     1     -27.101 -24.436  41.894  1.00  0.00     0.005 A 
ATOM      7  C   UNL     1     -28.275 -23.677  41.700  1.00  0.00     0.047 A 
ATOM      8  C   UNL     1     -29.274 -23.634  42.690  1.00  0.00     0.130 A 
ATOM      9  C   UNL     1     -29.057 -24.370  43.866  1.00  0.00     0.108 A 
ENDROOT
BRANCH   1  10
ATOM     10  O   UNL     1     -31.046 -23.993  45.286  1.00  0.00    -0.480 OA
ATOM     11  H   UNL     1     -31.350 -23.860  46.242  1.00  0.00     0.297 HD
ENDBRANCH   1  10
BRANCH   3  12
ATOM     12  C   UNL     1     -27.008 -26.596  45.916  1.00  0.00     0.043 C 
ATOM     13  C   UNL     1     -26.875 -27.909  45.672  1.00  0.00    -0.023 C 
BRANCH  13  14
ATOM     14  C   UNL     1     -27.749 -28.725  44.759  1.00  0.00     0.024 C 
ATOM     15  C   UNL     1     -27.106 -28.905  43.386  1.00  0.00     0.008 C 
ENDBRANCH  13  14
ENDBRANCH   3  12
BRANCH   8  16
ATOM     16  O   UNL     1     -30.424 -22.876  42.475  1.00  0.00    -0.507 OA
ATOM     17  H   UNL     1     -31.287 -23.277  42.133  1.00  0.00     0.293 HD
ENDBRANCH   8  16
TORSDOF 4
ENDMDL
MODEL 7
REMARK VINA RESULT:    -2.887      1.856      5.314
REMARK INTER + INTRA:          -3.783
REMARK INTER:                  -3.349
REMARK INTRA:                  -0.433
REMARK UNBOUND:                -0.389
REMARK SMILES CCC=Cc1oc(O)c2c(O)cccc12
REMARK SMILES IDX 7 1 6 2 5 3 15 4 14 5 13 6 12 7 10 8 9 9 8 10 4 12 3 13 2 14
REMARK SMILES IDX 1 15 11 16
REMARK H PARENT 8 11 11 17
REMARK Flexibility Score: inf
ROOT
ATOM      1  C   UNL     1     -45.557 -26.433  45.114  1.00  0.00     0.294 A 
ATOM      2  O   UNL     1     -44.732 -26.356  46.139  1.00  0.00    -0.425 OA
ATOM      3  C   UNL     1     -44.039 -25.236  46.049  1.00  0.00     0.138 A 
ATOM      4  C   UNL     1     -44.435 -24.560  44.907  1.00  0.00     0.035 A 
ATOM      5  C   UNL     1     -44.017 -23.344  44.365  1.00  0.00     0.013 A 
ATOM      6  C   UNL     1     -44.621 -22.913  43.172  1.00  0.00     0.005 A 
ATOM      7  C   UNL     1     -45.620 -23.694  42.551  1.00  0.00     0.047 A 
ATOM      8  C   UNL     1     -46.028 -24.916  43.115  1.00  0.00     0.130 A 
ATOM      9  C   UNL     1     -45.407 -25.323  44.307  1.00  0.00     0.108 A 
ENDROOT
BRANCH   1  10
ATOM     10  O   UNL     1     -46.435 -27.491  44.909  1.00  0.00    -0.480 OA
ATOM     11  H   UNL     1     -47.435 -27.339  44.928  1.00  0.00     0.297 HD
ENDBRANCH   1  10
BRANCH   3  12
ATOM     12  C   UNL     1     -43.002 -24.790  47.006  1.00  0.00     0.043 C 
ATOM     13  C   UNL     1     -43.229 -24.319  48.243  1.00  0.00    -0.023 C 
BRANCH  13  14
ATOM     14  C   UNL     1     -44.581 -24.118  48.870  1.00  0.00     0.024 C 
ATOM     15  C   UNL     1     -45.274 -22.875  48.315  1.00  0.00     0.008 C 
ENDBRANCH  13  14
ENDBRANCH   3  12
BRANCH   8  16
ATOM     16  O   UNL     1     -47.018 -25.669  42.484  1.00  0.00    -0.507 OA
ATOM     17  H   UNL     1     -47.951 -25.769  42.859  1.00  0.00     0.293 HD
ENDBRANCH   8  16
TORSDOF 4
ENDMDL
MODEL 8
REMARK VINA RESULT:    -2.881     23.288     24.132
REMARK INTER + INTRA:          -3.776
REMARK INTER:                  -3.212
REMARK INTRA:                  -0.564
REMARK UNBOUND:                -0.389
REMARK SMILES CCC=Cc1oc(O)c2c(O)cccc12
REMARK SMILES IDX 7 1 6 2 5 3 15 4 14 5 13 6 12 7 10 8 9 9 8 10 4 12 3 13 2 14
REMARK SMILES IDX 1 15 11 16
REMARK H PARENT 8 11 11 17
REMARK Flexibility Score: inf
ROOT
ATOM      1  C   UNL     1     -27.558 -39.910  44.099  1.00  0.00     0.294 A 
ATOM      2  O   UNL     1     -27.077 -40.361  42.958  1.00  0.00    -0.425 OA
ATOM      3  C   UNL     1     -27.558 -41.571  42.736  1.00  0.00     0.138 A 
ATOM      4  C   UNL     1     -28.389 -41.916  43.789  1.00  0.00     0.035 A 
ATOM      5  C   UNL     1     -29.134 -43.071  44.034  1.00  0.00     0.013 A 
ATOM      6  C   UNL     1     -29.896 -43.125  45.214  1.00  0.00     0.005 A 
ATOM      7  C   UNL     1     -29.901 -42.038  46.114  1.00  0.00     0.047 A 
ATOM      8  C   UNL     1     -29.144 -40.882  45.847  1.00  0.00     0.130 A 
ATOM      9  C   UNL     1     -28.391 -40.856  44.663  1.00  0.00     0.108 A 
ENDROOT
BRANCH   1  10
ATOM     10  O   UNL     1     -27.250 -38.662  44.625  1.00  0.00    -0.480 OA
ATOM     11  H   UNL     1     -26.453 -38.546  45.238  1.00  0.00     0.297 HD
ENDBRANCH   1  10
BRANCH   3  12
ATOM     12  C   UNL     1     -27.247 -42.416  41.562  1.00  0.00     0.043 C 
ATOM     13  C   UNL     1     -28.024 -42.565  40.478  1.00  0.00    -0.023 C 
BRANCH  13  14
ATOM     14  C   UNL     1     -29.375 -41.935  40.273  1.00  0.00     0.024 C 
ATOM     15  C   UNL     1     -30.501 -42.935  40.526  1.00  0.00     0.008 C 
ENDBRANCH  13  14
ENDBRANCH   3  12
BRANCH   8  16
ATOM     16  O   UNL     1     -29.167 -39.821  46.752  1.00  0.00    -0.507 OA
ATOM     17  H   UNL     1     -28.327 -39.422  47.147  1.00  0.00     0.293 HD
ENDBRANCH   8  16
TORSDOF 4
ENDMDL
MODEL 9
REMARK VINA RESULT:    -2.784     16.213     17.742
REMARK INTER + INTRA:          -3.661
REMARK INTER:                  -3.222
REMARK INTRA:                  -0.439
REMARK UNBOUND:                -0.389
REMARK SMILES CCC=Cc1oc(O)c2c(O)cccc12
REMARK SMILES IDX 7 1 6 2 5 3 15 4 14 5 13 6 12 7 10 8 9 9 8 10 4 12 3 13 2 14
REMARK SMILES IDX 1 15 11 16
REMARK H PARENT 8 11 11 17
REMARK Flexibility Score: inf
ROOT
ATOM      1  C   UNL     1     -27.491 -25.210  48.093  1.00  0.00     0.294 A 
ATOM      2  O   UNL     1     -26.875 -25.506  46.966  1.00  0.00    -0.425 OA
ATOM      3  C   UNL     1     -27.640 -26.317  46.258  1.00  0.00     0.138 A 
ATOM      4  C   UNL     1     -28.806 -26.557  46.967  1.00  0.00     0.035 A 
ATOM      5  C   UNL     1     -29.925 -27.333  46.664  1.00  0.00     0.013 A 
ATOM      6  C   UNL     1     -30.971 -27.376  47.602  1.00  0.00     0.005 A 
ATOM      7  C   UNL     1     -30.880 -26.651  48.810  1.00  0.00     0.047 A 
ATOM      8  C   UNL     1     -29.743 -25.873  49.096  1.00  0.00     0.130 A 
ATOM      9  C   UNL     1     -28.714 -25.849  48.141  1.00  0.00     0.108 A 
ENDROOT
BRANCH   1  10
ATOM     10  O   UNL     1     -26.957 -24.373  49.065  1.00  0.00    -0.480 OA
ATOM     11  H   UNL     1     -26.722 -24.735  49.981  1.00  0.00     0.297 HD
ENDBRANCH   1  10
BRANCH   3  12
ATOM     12  C   UNL     1     -27.298 -26.883  44.934  1.00  0.00     0.043 C 
ATOM     13  C   UNL     1     -27.312 -26.215  43.770  1.00  0.00    -0.023 C 
BRANCH  13  14
ATOM     14  C   UNL     1     -27.721 -24.779  43.589  1.00  0.00     0.024 C 
ATOM     15  C   UNL     1     -29.236 -24.614  43.680  1.00  0.00     0.008 C 
ENDBRANCH  13  14
ENDBRANCH   3  12
BRANCH   8  16
ATOM     16  O   UNL     1     -29.677 -25.165  50.295  1.00  0.00    -0.507 OA
ATOM     17  H   UNL     1     -29.749 -25.612  51.199  1.00  0.00     0.293 HD
ENDBRANCH   8  16
TORSDOF 4
ENDMDL
