MODEL 1
REMARK VINA RESULT:    -4.513      0.000      0.000
REMARK INTER + INTRA:         -10.658
REMARK INTER:                  -8.470
REMARK INTRA:                  -2.188
REMARK UNBOUND:                -2.188
REMARK SMILES O=C([O-])CCCCCCCCCCCCCCC(=O)[O-]
REMARK SMILES IDX 10 1 9 2 8 3 7 4 6 5 5 6 4 7 2 8 1 9 3 10 11 11 12 12 13 13
REMARK SMILES IDX 14 14 15 15 16 16 17 17 18 18 19 19 20 20
REMARK H PARENT
REMARK Flexibility Score: inf
ROOT
ATOM      1  C   UNL     1      19.288  -6.314 -16.889  1.00  0.00     0.000 C 
ENDROOT
BRANCH   1   2
ATOM      2  C   UNL     1      17.834  -5.996 -17.256  1.00  0.00     0.000 C 
BRANCH   2   3
ATOM      3  C   UNL     1      17.103  -5.333 -16.082  1.00  0.00     0.000 C 
BRANCH   3   4
ATOM      4  C   UNL     1      16.256  -4.147 -16.559  1.00  0.00     0.000 C 
BRANCH   4   5
ATOM      5  C   UNL     1      17.098  -3.172 -17.397  1.00  0.00     0.000 C 
BRANCH   5   6
ATOM      6  C   UNL     1      16.366  -2.695 -18.660  1.00  0.00     0.006 C 
BRANCH   6   7
ATOM      7  C   UNL     1      15.994  -3.849 -19.600  1.00  0.00     0.053 C 
BRANCH   7   8
ATOM      8  C   UNL     1      15.521  -3.320 -20.917  1.00  0.00     0.041 C 
ATOM      9  O   UNL     1      15.977  -3.794 -21.991  1.00  0.00    -0.550 OA
ATOM     10  O   UNL     1      14.540  -2.338 -20.961  1.00  0.00    -0.550 OA
ENDBRANCH   7   8
ENDBRANCH   6   7
ENDBRANCH   5   6
ENDBRANCH   4   5
ENDBRANCH   3   4
ENDBRANCH   2   3
ENDBRANCH   1   2
BRANCH   1  11
ATOM     11  C   UNL     1      20.235  -5.977 -18.048  1.00  0.00     0.000 C 
BRANCH  11  12
ATOM     12  C   UNL     1      21.246  -4.896 -17.635  1.00  0.00     0.000 C 
BRANCH  12  13
ATOM     13  C   UNL     1      20.678  -3.475 -17.768  1.00  0.00     0.000 C 
BRANCH  13  14
ATOM     14  C   UNL     1      21.042  -2.815 -19.110  1.00  0.00     0.000 C 
BRANCH  14  15
ATOM     15  C   UNL     1      19.808  -2.492 -19.967  1.00  0.00     0.000 C 
BRANCH  15  16
ATOM     16  C   UNL     1      19.531  -3.569 -21.031  1.00  0.00     0.006 C 
BRANCH  16  17
ATOM     17  C   UNL     1      20.821  -4.226 -21.538  1.00  0.00     0.053 C 
BRANCH  17  18
ATOM     18  C   UNL     1      20.595  -5.648 -21.951  1.00  0.00     0.041 C 
ATOM     19  O   UNL     1      19.467  -6.014 -22.375  1.00  0.00    -0.550 OA
ATOM     20  O   UNL     1      21.622  -6.577 -21.838  1.00  0.00    -0.550 OA
ENDBRANCH  17  18
ENDBRANCH  16  17
ENDBRANCH  15  16
ENDBRANCH  14  15
ENDBRANCH  13  14
ENDBRANCH  12  13
ENDBRANCH  11  12
ENDBRANCH   1  11
TORSDOF 15
ENDMDL
MODEL 2
REMARK VINA RESULT:    -4.477      1.210      4.822
REMARK INTER + INTRA:         -10.590
REMARK INTER:                  -8.354
REMARK INTRA:                  -2.237
REMARK UNBOUND:                -2.188
REMARK SMILES O=C([O-])CCCCCCCCCCCCCCC(=O)[O-]
REMARK SMILES IDX 10 1 9 2 8 3 7 4 6 5 5 6 4 7 2 8 1 9 3 10 11 11 12 12 13 13
REMARK SMILES IDX 14 14 15 15 16 16 17 17 18 18 19 19 20 20
REMARK H PARENT
REMARK Flexibility Score: inf
ROOT
ATOM      1  C   UNL     1      19.704  -6.407 -16.849  1.00  0.00     0.000 C 
ENDROOT
BRANCH   1   2
ATOM      2  C   UNL     1      20.700  -5.789 -17.838  1.00  0.00     0.000 C 
BRANCH   2   3
ATOM      3  C   UNL     1      21.235  -4.449 -17.316  1.00  0.00     0.000 C 
BRANCH   3   4
ATOM      4  C   UNL     1      20.902  -3.308 -18.285  1.00  0.00     0.000 C 
BRANCH   4   5
ATOM      5  C   UNL     1      20.174  -3.837 -19.529  1.00  0.00     0.000 C 
BRANCH   5   6
ATOM      6  C   UNL     1      20.354  -2.925 -20.752  1.00  0.00     0.006 C 
BRANCH   6   7
ATOM      7  C   UNL     1      20.991  -3.652 -21.943  1.00  0.00     0.053 C 
BRANCH   7   8
ATOM      8  C   UNL     1      20.253  -4.919 -22.239  1.00  0.00     0.041 C 
ATOM      9  O   UNL     1      19.068  -4.878 -22.665  1.00  0.00    -0.550 OA
ATOM     10  O   UNL     1      20.889  -6.146 -22.093  1.00  0.00    -0.550 OA
ENDBRANCH   7   8
ENDBRANCH   6   7
ENDBRANCH   5   6
ENDBRANCH   4   5
ENDBRANCH   3   4
ENDBRANCH   2   3
ENDBRANCH   1   2
BRANCH   1  11
ATOM     11  C   UNL     1      18.265  -6.274 -17.362  1.00  0.00     0.000 C 
BRANCH  11  12
ATOM     12  C   UNL     1      17.278  -6.112 -16.196  1.00  0.00     0.000 C 
BRANCH  12  13
ATOM     13  C   UNL     1      16.712  -4.688 -16.095  1.00  0.00     0.000 C 
BRANCH  13  14
ATOM     14  C   UNL     1      17.452  -3.690 -17.004  1.00  0.00     0.000 C 
BRANCH  14  15
ATOM     15  C   UNL     1      16.519  -2.623 -17.597  1.00  0.00     0.000 C 
BRANCH  15  16
ATOM     16  C   UNL     1      16.565  -2.587 -19.134  1.00  0.00     0.006 C 
BRANCH  16  17
ATOM     17  C   UNL     1      16.450  -3.989 -19.749  1.00  0.00     0.053 C 
BRANCH  17  18
ATOM     18  C   UNL     1      15.078  -4.563 -19.571  1.00  0.00     0.041 C 
ATOM     19  O   UNL     1      14.929  -5.702 -19.057  1.00  0.00    -0.550 OA
ATOM     20  O   UNL     1      13.965  -3.851 -20.002  1.00  0.00    -0.550 OA
ENDBRANCH  17  18
ENDBRANCH  16  17
ENDBRANCH  15  16
ENDBRANCH  14  15
ENDBRANCH  13  14
ENDBRANCH  12  13
ENDBRANCH  11  12
ENDBRANCH   1  11
TORSDOF 15
ENDMDL
MODEL 3
REMARK VINA RESULT:    -4.451      9.120     11.595
REMARK INTER + INTRA:         -10.543
REMARK INTER:                  -8.165
REMARK INTRA:                  -2.377
REMARK UNBOUND:                -2.188
REMARK SMILES O=C([O-])CCCCCCCCCCCCCCC(=O)[O-]
REMARK SMILES IDX 10 1 9 2 8 3 7 4 6 5 5 6 4 7 2 8 1 9 3 10 11 11 12 12 13 13
REMARK SMILES IDX 14 14 15 15 16 16 17 17 18 18 19 19 20 20
REMARK H PARENT
REMARK Flexibility Score: inf
ROOT
ATOM      1  C   UNL     1       7.967  -8.820 -22.540  1.00  0.00     0.000 C 
ENDROOT
BRANCH   1   2
ATOM      2  C   UNL     1       9.232  -8.263 -23.204  1.00  0.00     0.000 C 
BRANCH   2   3
ATOM      3  C   UNL     1       9.133  -8.344 -24.732  1.00  0.00     0.000 C 
BRANCH   3   4
ATOM      4  C   UNL     1       8.662  -7.011 -25.326  1.00  0.00     0.000 C 
BRANCH   4   5
ATOM      5  C   UNL     1       7.177  -7.074 -25.711  1.00  0.00     0.000 C 
BRANCH   5   6
ATOM      6  C   UNL     1       6.374  -5.883 -25.166  1.00  0.00     0.006 C 
BRANCH   6   7
ATOM      7  C   UNL     1       6.023  -4.859 -26.254  1.00  0.00     0.053 C 
BRANCH   7   8
ATOM      8  C   UNL     1       6.299  -3.470 -25.773  1.00  0.00     0.041 C 
ATOM      9  O   UNL     1       5.358  -2.747 -25.350  1.00  0.00    -0.550 OA
ATOM     10  O   UNL     1       7.602  -2.990 -25.744  1.00  0.00    -0.550 OA
ENDBRANCH   7   8
ENDBRANCH   6   7
ENDBRANCH   5   6
ENDBRANCH   4   5
ENDBRANCH   3   4
ENDBRANCH   2   3
ENDBRANCH   1   2
BRANCH   1  11
ATOM     11  C   UNL     1       7.191  -7.713 -21.818  1.00  0.00     0.000 C 
BRANCH  11  12
ATOM     12  C   UNL     1       8.100  -6.513 -21.513  1.00  0.00     0.000 C 
BRANCH  12  13
ATOM     13  C   UNL     1       7.487  -5.178 -21.964  1.00  0.00     0.000 C 
BRANCH  13  14
ATOM     14  C   UNL     1       8.511  -4.258 -22.652  1.00  0.00     0.000 C 
BRANCH  14  15
ATOM     15  C   UNL     1       9.956  -4.553 -22.220  1.00  0.00     0.000 C 
BRANCH  15  16
ATOM     16  C   UNL     1      10.994  -3.966 -23.192  1.00  0.00     0.006 C 
BRANCH  16  17
ATOM     17  C   UNL     1      11.469  -4.998 -24.224  1.00  0.00     0.053 C 
BRANCH  17  18
ATOM     18  C   UNL     1      11.522  -4.420 -25.604  1.00  0.00     0.041 C 
ATOM     19  O   UNL     1      11.846  -5.143 -26.583  1.00  0.00    -0.550 OA
ATOM     20  O   UNL     1      11.241  -3.074 -25.806  1.00  0.00    -0.550 OA
ENDBRANCH  17  18
ENDBRANCH  16  17
ENDBRANCH  15  16
ENDBRANCH  14  15
ENDBRANCH  13  14
ENDBRANCH  12  13
ENDBRANCH  11  12
ENDBRANCH   1  11
TORSDOF 15
ENDMDL
MODEL 4
REMARK VINA RESULT:    -4.434      8.837     11.971
REMARK INTER + INTRA:         -10.510
REMARK INTER:                  -8.042
REMARK INTRA:                  -2.468
REMARK UNBOUND:                -2.188
REMARK SMILES O=C([O-])CCCCCCCCCCCCCCC(=O)[O-]
REMARK SMILES IDX 10 1 9 2 8 3 7 4 6 5 5 6 4 7 2 8 1 9 3 10 11 11 12 12 13 13
REMARK SMILES IDX 14 14 15 15 16 16 17 17 18 18 19 19 20 20
REMARK H PARENT
REMARK Flexibility Score: inf
ROOT
ATOM      1  C   UNL     1       6.630  -7.827 -25.758  1.00  0.00     0.000 C 
ENDROOT
BRANCH   1   2
ATOM      2  C   UNL     1       6.155  -6.448 -26.229  1.00  0.00     0.000 C 
BRANCH   2   3
ATOM      3  C   UNL     1       6.520  -5.362 -25.211  1.00  0.00     0.000 C 
BRANCH   3   4
ATOM      4  C   UNL     1       6.569  -3.979 -25.872  1.00  0.00     0.000 C 
BRANCH   4   5
ATOM      5  C   UNL     1       7.854  -3.231 -25.488  1.00  0.00     0.000 C 
BRANCH   5   6
ATOM      6  C   UNL     1       8.937  -4.166 -24.927  1.00  0.00     0.006 C 
BRANCH   6   7
ATOM      7  C   UNL     1      10.048  -3.408 -24.189  1.00  0.00     0.053 C 
BRANCH   7   8
ATOM      8  C   UNL     1      11.377  -3.689 -24.816  1.00  0.00     0.041 C 
ATOM      9  O   UNL     1      11.473  -3.828 -26.064  1.00  0.00    -0.550 OA
ATOM     10  O   UNL     1      12.520  -3.745 -24.028  1.00  0.00    -0.550 OA
ENDBRANCH   7   8
ENDBRANCH   6   7
ENDBRANCH   5   6
ENDBRANCH   4   5
ENDBRANCH   3   4
ENDBRANCH   2   3
ENDBRANCH   1   2
BRANCH   1  11
ATOM     11  C   UNL     1       8.109  -7.790 -25.352  1.00  0.00     0.000 C 
BRANCH  11  12
ATOM     12  C   UNL     1       8.382  -8.746 -24.181  1.00  0.00     0.000 C 
BRANCH  12  13
ATOM     13  C   UNL     1       7.150  -8.950 -23.286  1.00  0.00     0.000 C 
BRANCH  13  14
ATOM     14  C   UNL     1       7.300  -8.276 -21.910  1.00  0.00     0.000 C 
BRANCH  14  15
ATOM     15  C   UNL     1       6.911  -6.789 -21.933  1.00  0.00     0.000 C 
BRANCH  15  16
ATOM     16  C   UNL     1       8.116  -5.861 -21.700  1.00  0.00     0.006 C 
BRANCH  16  17
ATOM     17  C   UNL     1       9.332  -6.619 -21.150  1.00  0.00     0.053 C 
BRANCH  17  18
ATOM     18  C   UNL     1      10.599  -6.204 -21.832  1.00  0.00     0.041 C 
ATOM     19  O   UNL     1      11.380  -5.386 -21.278  1.00  0.00    -0.550 OA
ATOM     20  O   UNL     1      10.904  -6.697 -23.095  1.00  0.00    -0.550 OA
ENDBRANCH  17  18
ENDBRANCH  16  17
ENDBRANCH  15  16
ENDBRANCH  14  15
ENDBRANCH  13  14
ENDBRANCH  12  13
ENDBRANCH  11  12
ENDBRANCH   1  11
TORSDOF 15
ENDMDL
MODEL 5
REMARK VINA RESULT:    -4.389      1.473      2.736
REMARK INTER + INTRA:         -10.426
REMARK INTER:                  -7.900
REMARK INTRA:                  -2.525
REMARK UNBOUND:                -2.188
REMARK SMILES O=C([O-])CCCCCCCCCCCCCCC(=O)[O-]
REMARK SMILES IDX 10 1 9 2 8 3 7 4 6 5 5 6 4 7 2 8 1 9 3 10 11 11 12 12 13 13
REMARK SMILES IDX 14 14 15 15 16 16 17 17 18 18 19 19 20 20
REMARK H PARENT
REMARK Flexibility Score: inf
ROOT
ATOM      1  C   UNL     1      17.161  -4.736 -16.158  1.00  0.00     0.000 C 
ENDROOT
BRANCH   1   2
ATOM      2  C   UNL     1      17.099  -6.076 -16.901  1.00  0.00     0.000 C 
BRANCH   2   3
ATOM      3  C   UNL     1      18.366  -6.302 -17.735  1.00  0.00     0.000 C 
BRANCH   3   4
ATOM      4  C   UNL     1      18.046  -6.304 -19.235  1.00  0.00     0.000 C 
BRANCH   4   5
ATOM      5  C   UNL     1      16.528  -6.280 -19.473  1.00  0.00     0.000 C 
BRANCH   5   6
ATOM      6  C   UNL     1      16.072  -5.036 -20.252  1.00  0.00     0.006 C 
BRANCH   6   7
ATOM      7  C   UNL     1      14.597  -4.694 -20.007  1.00  0.00     0.053 C 
BRANCH   7   8
ATOM      8  C   UNL     1      14.232  -3.424 -20.708  1.00  0.00     0.041 C 
ATOM      9  O   UNL     1      14.909  -2.379 -20.522  1.00  0.00    -0.550 OA
ATOM     10  O   UNL     1      13.173  -3.405 -21.608  1.00  0.00    -0.550 OA
ENDBRANCH   7   8
ENDBRANCH   6   7
ENDBRANCH   5   6
ENDBRANCH   4   5
ENDBRANCH   3   4
ENDBRANCH   2   3
ENDBRANCH   1   2
BRANCH   1  11
ATOM     11  C   UNL     1      15.946  -3.863 -16.496  1.00  0.00     0.000 C 
BRANCH  11  12
ATOM     12  C   UNL     1      16.353  -2.668 -17.369  1.00  0.00     0.000 C 
BRANCH  12  13
ATOM     13  C   UNL     1      17.854  -2.662 -17.699  1.00  0.00     0.000 C 
BRANCH  13  14
ATOM     14  C   UNL     1      18.137  -2.284 -19.164  1.00  0.00     0.000 C 
BRANCH  14  15
ATOM     15  C   UNL     1      19.561  -2.653 -19.607  1.00  0.00     0.000 C 
BRANCH  15  16
ATOM     16  C   UNL     1      19.582  -3.441 -20.929  1.00  0.00     0.006 C 
BRANCH  16  17
ATOM     17  C   UNL     1      21.011  -3.776 -21.379  1.00  0.00     0.053 C 
BRANCH  17  18
ATOM     18  C   UNL     1      21.452  -5.116 -20.875  1.00  0.00     0.041 C 
ATOM     19  O   UNL     1      21.379  -6.129 -21.618  1.00  0.00    -0.550 OA
ATOM     20  O   UNL     1      21.917  -5.250 -19.572  1.00  0.00    -0.550 OA
ENDBRANCH  17  18
ENDBRANCH  16  17
ENDBRANCH  15  16
ENDBRANCH  14  15
ENDBRANCH  13  14
ENDBRANCH  12  13
ENDBRANCH  11  12
ENDBRANCH   1  11
TORSDOF 15
ENDMDL
MODEL 6
REMARK VINA RESULT:    -4.368      2.308      4.676
REMARK INTER + INTRA:         -10.387
REMARK INTER:                  -8.076
REMARK INTRA:                  -2.310
REMARK UNBOUND:                -2.188
REMARK SMILES O=C([O-])CCCCCCCCCCCCCCC(=O)[O-]
REMARK SMILES IDX 10 1 9 2 8 3 7 4 6 5 5 6 4 7 2 8 1 9 3 10 11 11 12 12 13 13
REMARK SMILES IDX 14 14 15 15 16 16 17 17 18 18 19 19 20 20
REMARK H PARENT
REMARK Flexibility Score: inf
ROOT
ATOM      1  C   UNL     1      20.032  -3.091 -20.498  1.00  0.00     0.000 C 
ENDROOT
BRANCH   1   2
ATOM      2  C   UNL     1      20.780  -3.835 -21.610  1.00  0.00     0.000 C 
BRANCH   2   3
ATOM      3  C   UNL     1      19.860  -4.838 -22.317  1.00  0.00     0.000 C 
BRANCH   3   4
ATOM      4  C   UNL     1      18.467  -4.855 -21.677  1.00  0.00     0.000 C 
BRANCH   4   5
ATOM      5  C   UNL     1      17.374  -4.629 -22.732  1.00  0.00     0.000 C 
BRANCH   5   6
ATOM      6  C   UNL     1      16.138  -3.918 -22.160  1.00  0.00     0.006 C 
BRANCH   6   7
ATOM      7  C   UNL     1      16.190  -3.779 -20.633  1.00  0.00     0.053 C 
BRANCH   7   8
ATOM      8  C   UNL     1      14.862  -4.118 -20.032  1.00  0.00     0.041 C 
ATOM      9  O   UNL     1      13.807  -3.614 -20.500  1.00  0.00    -0.550 OA
ATOM     10  O   UNL     1      14.784  -5.031 -18.988  1.00  0.00    -0.550 OA
ENDBRANCH   7   8
ENDBRANCH   6   7
ENDBRANCH   5   6
ENDBRANCH   4   5
ENDBRANCH   3   4
ENDBRANCH   2   3
ENDBRANCH   1   2
BRANCH   1  11
ATOM     11  C   UNL     1      20.857  -3.057 -19.206  1.00  0.00     0.000 C 
BRANCH  11  12
ATOM     12  C   UNL     1      21.444  -4.441 -18.891  1.00  0.00     0.000 C 
BRANCH  12  13
ATOM     13  C   UNL     1      21.230  -4.854 -17.427  1.00  0.00     0.000 C 
BRANCH  13  14
ATOM     14  C   UNL     1      20.491  -6.197 -17.292  1.00  0.00     0.000 C 
BRANCH  14  15
ATOM     15  C   UNL     1      19.679  -6.556 -18.546  1.00  0.00     0.000 C 
BRANCH  15  16
ATOM     16  C   UNL     1      18.183  -6.232 -18.393  1.00  0.00     0.006 C 
BRANCH  16  17
ATOM     17  C   UNL     1      17.775  -6.063 -16.923  1.00  0.00     0.053 C 
BRANCH  17  18
ATOM     18  C   UNL     1      17.278  -4.679 -16.640  1.00  0.00     0.041 C 
ATOM     19  O   UNL     1      16.399  -4.488 -15.759  1.00  0.00    -0.550 OA
ATOM     20  O   UNL     1      17.764  -3.602 -17.371  1.00  0.00    -0.550 OA
ENDBRANCH  17  18
ENDBRANCH  16  17
ENDBRANCH  15  16
ENDBRANCH  14  15
ENDBRANCH  13  14
ENDBRANCH  12  13
ENDBRANCH  11  12
ENDBRANCH   1  11
TORSDOF 15
ENDMDL
MODEL 7
REMARK VINA RESULT:    -4.364      2.402      5.063
REMARK INTER + INTRA:         -10.379
REMARK INTER:                  -7.721
REMARK INTRA:                  -2.658
REMARK UNBOUND:                -2.188
REMARK SMILES O=C([O-])CCCCCCCCCCCCCCC(=O)[O-]
REMARK SMILES IDX 10 1 9 2 8 3 7 4 6 5 5 6 4 7 2 8 1 9 3 10 11 11 12 12 13 13
REMARK SMILES IDX 14 14 15 15 16 16 17 17 18 18 19 19 20 20
REMARK H PARENT
REMARK Flexibility Score: inf
ROOT
ATOM      1  C   UNL     1      20.118  -2.933 -21.227  1.00  0.00     0.000 C 
ENDROOT
BRANCH   1   2
ATOM      2  C   UNL     1      19.954  -2.779 -19.710  1.00  0.00     0.000 C 
BRANCH   2   3
ATOM      3  C   UNL     1      21.190  -3.302 -18.967  1.00  0.00     0.000 C 
BRANCH   3   4
ATOM      4  C   UNL     1      20.791  -4.032 -17.679  1.00  0.00     0.000 C 
BRANCH   4   5
ATOM      5  C   UNL     1      20.382  -5.483 -17.974  1.00  0.00     0.000 C 
BRANCH   5   6
ATOM      6  C   UNL     1      19.073  -5.882 -17.276  1.00  0.00     0.006 C 
BRANCH   6   7
ATOM      7  C   UNL     1      17.838  -5.250 -17.929  1.00  0.00     0.053 C 
BRANCH   7   8
ATOM      8  C   UNL     1      17.131  -4.358 -16.957  1.00  0.00     0.041 C 
ATOM      9  O   UNL     1      16.725  -4.816 -15.857  1.00  0.00    -0.550 OA
ATOM     10  O   UNL     1      16.966  -3.009 -17.244  1.00  0.00    -0.550 OA
ENDBRANCH   7   8
ENDBRANCH   6   7
ENDBRANCH   5   6
ENDBRANCH   4   5
ENDBRANCH   3   4
ENDBRANCH   2   3
ENDBRANCH   1   2
BRANCH   1  11
ATOM     11  C   UNL     1      20.946  -4.178 -21.567  1.00  0.00     0.000 C 
BRANCH  11  12
ATOM     12  C   UNL     1      20.101  -5.207 -22.334  1.00  0.00     0.000 C 
BRANCH  12  13
ATOM     13  C   UNL     1      19.301  -6.128 -21.400  1.00  0.00     0.000 C 
BRANCH  13  14
ATOM     14  C   UNL     1      17.780  -5.976 -21.580  1.00  0.00     0.000 C 
BRANCH  14  15
ATOM     15  C   UNL     1      17.410  -5.054 -22.752  1.00  0.00     0.000 C 
BRANCH  15  16
ATOM     16  C   UNL     1      16.495  -3.894 -22.325  1.00  0.00     0.006 C 
BRANCH  16  17
ATOM     17  C   UNL     1      16.445  -3.728 -20.800  1.00  0.00     0.053 C 
BRANCH  17  18
ATOM     18  C   UNL     1      15.093  -3.282 -20.334  1.00  0.00     0.041 C 
ATOM     19  O   UNL     1      14.523  -3.874 -19.381  1.00  0.00    -0.550 OA
ATOM     20  O   UNL     1      14.450  -2.229 -20.973  1.00  0.00    -0.550 OA
ENDBRANCH  17  18
ENDBRANCH  16  17
ENDBRANCH  15  16
ENDBRANCH  14  15
ENDBRANCH  13  14
ENDBRANCH  12  13
ENDBRANCH  11  12
ENDBRANCH   1  11
TORSDOF 15
ENDMDL
MODEL 8
REMARK VINA RESULT:    -4.361      2.105      4.439
REMARK INTER + INTRA:         -10.374
REMARK INTER:                  -7.939
REMARK INTRA:                  -2.434
REMARK UNBOUND:                -2.188
REMARK SMILES O=C([O-])CCCCCCCCCCCCCCC(=O)[O-]
REMARK SMILES IDX 10 1 9 2 8 3 7 4 6 5 5 6 4 7 2 8 1 9 3 10 11 11 12 12 13 13
REMARK SMILES IDX 14 14 15 15 16 16 17 17 18 18 19 19 20 20
REMARK H PARENT
REMARK Flexibility Score: inf
ROOT
ATOM      1  C   UNL     1      20.873  -3.323 -21.067  1.00  0.00     0.000 C 
ENDROOT
BRANCH   1   2
ATOM      2  C   UNL     1      21.237  -4.640 -20.371  1.00  0.00     0.000 C 
BRANCH   2   3
ATOM      3  C   UNL     1      20.653  -5.841 -21.125  1.00  0.00     0.000 C 
BRANCH   3   4
ATOM      4  C   UNL     1      19.953  -5.395 -22.415  1.00  0.00     0.000 C 
BRANCH   4   5
ATOM      5  C   UNL     1      18.446  -5.688 -22.351  1.00  0.00     0.000 C 
BRANCH   5   6
ATOM      6  C   UNL     1      17.595  -4.409 -22.344  1.00  0.00     0.006 C 
BRANCH   6   7
ATOM      7  C   UNL     1      16.353  -4.520 -23.238  1.00  0.00     0.053 C 
BRANCH   7   8
ATOM      8  C   UNL     1      15.110  -4.295 -22.437  1.00  0.00     0.041 C 
ATOM      9  O   UNL     1      13.989  -4.237 -23.008  1.00  0.00    -0.550 OA
ATOM     10  O   UNL     1      15.182  -4.201 -21.052  1.00  0.00    -0.550 OA
ENDBRANCH   7   8
ENDBRANCH   6   7
ENDBRANCH   5   6
ENDBRANCH   4   5
ENDBRANCH   3   4
ENDBRANCH   2   3
ENDBRANCH   1   2
BRANCH   1  11
ATOM     11  C   UNL     1      20.075  -2.408 -20.131  1.00  0.00     0.000 C 
BRANCH  11  12
ATOM     12  C   UNL     1      19.985  -3.008 -18.720  1.00  0.00     0.000 C 
BRANCH  12  13
ATOM     13  C   UNL     1      18.632  -2.732 -18.045  1.00  0.00     0.000 C 
BRANCH  13  14
ATOM     14  C   UNL     1      17.945  -4.017 -17.549  1.00  0.00     0.000 C 
BRANCH  14  15
ATOM     15  C   UNL     1      17.802  -5.076 -18.653  1.00  0.00     0.000 C 
BRANCH  15  16
ATOM     16  C   UNL     1      18.375  -6.442 -18.237  1.00  0.00     0.006 C 
BRANCH  16  17
ATOM     17  C   UNL     1      19.185  -6.358 -16.936  1.00  0.00     0.053 C 
BRANCH  17  18
ATOM     18  C   UNL     1      20.635  -6.654 -17.165  1.00  0.00     0.041 C 
ATOM     19  O   UNL     1      21.513  -5.808 -16.851  1.00  0.00    -0.550 OA
ATOM     20  O   UNL     1      21.016  -7.854 -17.752  1.00  0.00    -0.550 OA
ENDBRANCH  17  18
ENDBRANCH  16  17
ENDBRANCH  15  16
ENDBRANCH  14  15
ENDBRANCH  13  14
ENDBRANCH  12  13
ENDBRANCH  11  12
ENDBRANCH   1  11
TORSDOF 15
ENDMDL
MODEL 9
REMARK VINA RESULT:    -4.297      9.311     12.600
REMARK INTER + INTRA:         -10.252
REMARK INTER:                  -8.115
REMARK INTRA:                  -2.138
REMARK UNBOUND:                -2.188
REMARK SMILES O=C([O-])CCCCCCCCCCCCCCC(=O)[O-]
REMARK SMILES IDX 10 1 9 2 8 3 7 4 6 5 5 6 4 7 2 8 1 9 3 10 11 11 12 12 13 13
REMARK SMILES IDX 14 14 15 15 16 16 17 17 18 18 19 19 20 20
REMARK H PARENT
REMARK Flexibility Score: inf
ROOT
ATOM      1  C   UNL     1       7.036  -7.856 -21.994  1.00  0.00     0.000 C 
ENDROOT
BRANCH   1   2
ATOM      2  C   UNL     1       8.255  -8.257 -22.833  1.00  0.00     0.000 C 
BRANCH   2   3
ATOM      3  C   UNL     1       7.936  -8.195 -24.332  1.00  0.00     0.000 C 
BRANCH   3   4
ATOM      4  C   UNL     1       9.219  -8.107 -25.166  1.00  0.00     0.000 C 
BRANCH   4   5
ATOM      5  C   UNL     1       9.775  -6.675 -25.170  1.00  0.00     0.000 C 
BRANCH   5   6
ATOM      6  C   UNL     1      11.105  -6.554 -24.409  1.00  0.00     0.006 C 
BRANCH   6   7
ATOM      7  C   UNL     1      11.643  -5.119 -24.383  1.00  0.00     0.053 C 
BRANCH   7   8
ATOM      8  C   UNL     1      11.454  -4.465 -25.715  1.00  0.00     0.041 C 
ATOM      9  O   UNL     1      10.966  -3.306 -25.789  1.00  0.00    -0.550 OA
ATOM     10  O   UNL     1      11.863  -5.114 -26.874  1.00  0.00    -0.550 OA
ENDBRANCH   7   8
ENDBRANCH   6   7
ENDBRANCH   5   6
ENDBRANCH   4   5
ENDBRANCH   3   4
ENDBRANCH   2   3
ENDBRANCH   1   2
BRANCH   1  11
ATOM     11  C   UNL     1       7.094  -6.370 -21.616  1.00  0.00     0.000 C 
BRANCH  11  12
ATOM     12  C   UNL     1       8.538  -5.849 -21.653  1.00  0.00     0.000 C 
BRANCH  12  13
ATOM     13  C   UNL     1       8.661  -4.501 -22.381  1.00  0.00     0.000 C 
BRANCH  13  14
ATOM     14  C   UNL     1       7.376  -4.117 -23.136  1.00  0.00     0.000 C 
BRANCH  14  15
ATOM     15  C   UNL     1       7.570  -4.085 -24.660  1.00  0.00     0.000 C 
BRANCH  15  16
ATOM     16  C   UNL     1       6.565  -4.984 -25.401  1.00  0.00     0.006 C 
BRANCH  16  17
ATOM     17  C   UNL     1       5.759  -4.207 -26.451  1.00  0.00     0.053 C 
BRANCH  17  18
ATOM     18  C   UNL     1       5.040  -5.125 -27.391  1.00  0.00     0.041 C 
ATOM     19  O   UNL     1       4.377  -6.098 -26.945  1.00  0.00    -0.550 OA
ATOM     20  O   UNL     1       5.127  -4.924 -28.763  1.00  0.00    -0.550 OA
ENDBRANCH  17  18
ENDBRANCH  16  17
ENDBRANCH  15  16
ENDBRANCH  14  15
ENDBRANCH  13  14
ENDBRANCH  12  13
ENDBRANCH  11  12
ENDBRANCH   1  11
TORSDOF 15
ENDMDL
