MODEL 1
REMARK VINA RESULT:    -3.931      0.000      0.000
REMARK INTER + INTRA:          -5.628
REMARK INTER:                  -5.309
REMARK INTRA:                  -0.318
REMARK UNBOUND:                -0.318
REMARK SMILES CCCCCCCC(=O)[O-]
REMARK SMILES IDX 5 1 6 2 7 3 8 4 9 5 10 6 4 7 3 8 2 9 1 10
REMARK H PARENT
REMARK Flexibility Score: inf
ROOT
ATOM      1  C   UNL     1      10.501 -10.969 -44.175  1.00  0.00     0.000 C 
ENDROOT
BRANCH   1   2
ATOM      2  C   UNL     1       9.885 -11.359 -45.530  1.00  0.00     0.006 C 
BRANCH   2   3
ATOM      3  C   UNL     1       8.443 -10.860 -45.676  1.00  0.00     0.053 C 
BRANCH   3   4
ATOM      4  C   UNL     1       7.531 -11.939 -46.175  1.00  0.00     0.041 C 
ATOM      5  O   UNL     1       6.421 -12.142 -45.616  1.00  0.00    -0.550 OA
ATOM      6  O   UNL     1       7.924 -12.743 -47.238  1.00  0.00    -0.550 OA
ENDBRANCH   3   4
ENDBRANCH   2   3
ENDBRANCH   1   2
BRANCH   1   7
ATOM      7  C   UNL     1      11.681  -9.991 -44.315  1.00  0.00     0.000 C 
BRANCH   7   8
ATOM      8  C   UNL     1      11.288  -8.535 -44.637  1.00  0.00    -0.000 C 
BRANCH   8   9
ATOM      9  C   UNL     1      10.088  -7.995 -43.840  1.00  0.00    -0.003 C 
ATOM     10  C   UNL     1      10.343  -7.952 -42.334  1.00  0.00     0.004 C 
ENDBRANCH   8   9
ENDBRANCH   7   8
ENDBRANCH   1   7
TORSDOF 6
ENDMDL
MODEL 2
REMARK VINA RESULT:    -3.850      1.225      1.420
REMARK INTER + INTRA:          -5.519
REMARK INTER:                  -5.028
REMARK INTRA:                  -0.491
REMARK UNBOUND:                -0.318
REMARK SMILES CCCCCCCC(=O)[O-]
REMARK SMILES IDX 5 1 6 2 7 3 8 4 9 5 10 6 4 7 3 8 2 9 1 10
REMARK H PARENT
REMARK Flexibility Score: inf
ROOT
ATOM      1  C   UNL     1      11.016 -11.782 -43.575  1.00  0.00     0.000 C 
ENDROOT
BRANCH   1   2
ATOM      2  C   UNL     1      10.635 -11.940 -45.058  1.00  0.00     0.006 C 
BRANCH   2   3
ATOM      3  C   UNL     1       9.219 -12.501 -45.235  1.00  0.00     0.053 C 
BRANCH   3   4
ATOM      4  C   UNL     1       8.301 -11.499 -45.866  1.00  0.00     0.041 C 
ATOM      5  O   UNL     1       8.255 -10.318 -45.431  1.00  0.00    -0.550 OA
ATOM      6  O   UNL     1       7.471 -11.881 -46.912  1.00  0.00    -0.550 OA
ENDBRANCH   3   4
ENDBRANCH   2   3
ENDBRANCH   1   2
BRANCH   1   7
ATOM      7  C   UNL     1      11.190 -10.311 -43.156  1.00  0.00     0.000 C 
BRANCH   7   8
ATOM      8  C   UNL     1      11.789  -9.391 -44.238  1.00  0.00    -0.000 C 
BRANCH   8   9
ATOM      9  C   UNL     1      10.954  -8.139 -44.562  1.00  0.00    -0.003 C 
ATOM     10  C   UNL     1       9.932  -7.808 -43.476  1.00  0.00     0.004 C 
ENDBRANCH   8   9
ENDBRANCH   7   8
ENDBRANCH   1   7
TORSDOF 6
ENDMDL
MODEL 3
REMARK VINA RESULT:    -3.816      4.237      5.164
REMARK INTER + INTRA:          -5.473
REMARK INTER:                  -5.101
REMARK INTRA:                  -0.372
REMARK UNBOUND:                -0.318
REMARK SMILES CCCCCCCC(=O)[O-]
REMARK SMILES IDX 5 1 6 2 7 3 8 4 9 5 10 6 4 7 3 8 2 9 1 10
REMARK H PARENT
REMARK Flexibility Score: inf
ROOT
ATOM      1  C   UNL     1      11.115 -11.596 -43.330  1.00  0.00     0.000 C 
ENDROOT
BRANCH   1   2
ATOM      2  C   UNL     1      12.609 -11.834 -43.046  1.00  0.00     0.006 C 
BRANCH   2   3
ATOM      3  C   UNL     1      13.507 -11.237 -44.137  1.00  0.00     0.053 C 
BRANCH   3   4
ATOM      4  C   UNL     1      14.941 -11.628 -43.949  1.00  0.00     0.041 C 
ATOM      5  O   UNL     1      15.392 -11.850 -42.795  1.00  0.00    -0.550 OA
ATOM      6  O   UNL     1      15.787 -11.714 -45.048  1.00  0.00    -0.550 OA
ENDBRANCH   3   4
ENDBRANCH   2   3
ENDBRANCH   1   2
BRANCH   1   7
ATOM      7  C   UNL     1      10.854 -11.067 -44.751  1.00  0.00     0.000 C 
BRANCH   7   8
ATOM      8  C   UNL     1      10.060  -9.747 -44.821  1.00  0.00    -0.000 C 
BRANCH   8   9
ATOM      9  C   UNL     1      10.799  -8.514 -44.271  1.00  0.00    -0.003 C 
ATOM     10  C   UNL     1       9.962  -7.712 -43.276  1.00  0.00     0.004 C 
ENDBRANCH   8   9
ENDBRANCH   7   8
ENDBRANCH   1   7
TORSDOF 6
ENDMDL
MODEL 4
REMARK VINA RESULT:    -3.815      3.926      4.818
REMARK INTER + INTRA:          -5.472
REMARK INTER:                  -5.132
REMARK INTRA:                  -0.340
REMARK UNBOUND:                -0.318
REMARK SMILES CCCCCCCC(=O)[O-]
REMARK SMILES IDX 5 1 6 2 7 3 8 4 9 5 10 6 4 7 3 8 2 9 1 10
REMARK H PARENT
REMARK Flexibility Score: inf
ROOT
ATOM      1  C   UNL     1      10.962 -11.176 -44.261  1.00  0.00     0.000 C 
ENDROOT
BRANCH   1   2
ATOM      2  C   UNL     1      12.438 -10.824 -44.006  1.00  0.00     0.006 C 
BRANCH   2   3
ATOM      3  C   UNL     1      13.147 -11.884 -43.155  1.00  0.00     0.053 C 
BRANCH   3   4
ATOM      4  C   UNL     1      14.399 -12.376 -43.814  1.00  0.00     0.041 C 
ATOM      5  O   UNL     1      14.695 -13.600 -43.782  1.00  0.00    -0.550 OA
ATOM      6  O   UNL     1      15.257 -11.477 -44.435  1.00  0.00    -0.550 OA
ENDBRANCH   3   4
ENDBRANCH   2   3
ENDBRANCH   1   2
BRANCH   1   7
ATOM      7  C   UNL     1      10.145  -9.983 -44.786  1.00  0.00     0.000 C 
BRANCH   7   8
ATOM      8  C   UNL     1      10.789  -8.601 -44.561  1.00  0.00    -0.000 C 
BRANCH   8   9
ATOM      9  C   UNL     1      10.050  -7.694 -43.561  1.00  0.00    -0.003 C 
ATOM     10  C   UNL     1      10.339  -8.054 -42.105  1.00  0.00     0.004 C 
ENDBRANCH   8   9
ENDBRANCH   7   8
ENDBRANCH   1   7
TORSDOF 6
ENDMDL
MODEL 5
REMARK VINA RESULT:    -3.808      3.198      4.682
REMARK INTER + INTRA:          -5.463
REMARK INTER:                  -5.034
REMARK INTRA:                  -0.429
REMARK UNBOUND:                -0.318
REMARK SMILES CCCCCCCC(=O)[O-]
REMARK SMILES IDX 5 1 6 2 7 3 8 4 9 5 10 6 4 7 3 8 2 9 1 10
REMARK H PARENT
REMARK Flexibility Score: inf
ROOT
ATOM      1  C   UNL     1      11.942 -10.510 -44.235  1.00  0.00     0.000 C 
ENDROOT
BRANCH   1   2
ATOM      2  C   UNL     1      11.878  -8.975 -44.332  1.00  0.00     0.006 C 
BRANCH   2   3
ATOM      3  C   UNL     1      10.434  -8.458 -44.374  1.00  0.00     0.053 C 
BRANCH   3   4
ATOM      4  C   UNL     1      10.051  -7.781 -43.095  1.00  0.00     0.041 C 
ATOM      5  O   UNL     1       9.292  -6.777 -43.110  1.00  0.00    -0.550 OA
ATOM      6  O   UNL     1      10.562  -8.239 -41.886  1.00  0.00    -0.550 OA
ENDBRANCH   3   4
ENDBRANCH   2   3
ENDBRANCH   1   2
BRANCH   1   7
ATOM      7  C   UNL     1      10.550 -11.163 -44.166  1.00  0.00     0.000 C 
BRANCH   7   8
ATOM      8  C   UNL     1      10.179 -12.039 -45.379  1.00  0.00    -0.000 C 
BRANCH   8   9
ATOM      9  C   UNL     1       9.224 -11.379 -46.389  1.00  0.00    -0.003 C 
ATOM     10  C   UNL     1       7.900 -10.946 -45.762  1.00  0.00     0.004 C 
ENDBRANCH   8   9
ENDBRANCH   7   8
ENDBRANCH   1   7
TORSDOF 6
ENDMDL
MODEL 6
REMARK VINA RESULT:    -3.763      1.966      2.642
REMARK INTER + INTRA:          -5.402
REMARK INTER:                  -4.898
REMARK INTRA:                  -0.504
REMARK UNBOUND:                -0.318
REMARK SMILES CCCCCCCC(=O)[O-]
REMARK SMILES IDX 5 1 6 2 7 3 8 4 9 5 10 6 4 7 3 8 2 9 1 10
REMARK H PARENT
REMARK Flexibility Score: inf
ROOT
ATOM      1  C   UNL     1      12.406 -10.250 -44.177  1.00  0.00     0.000 C 
ENDROOT
BRANCH   1   2
ATOM      2  C   UNL     1      11.537 -11.145 -43.277  1.00  0.00     0.006 C 
BRANCH   2   3
ATOM      3  C   UNL     1      11.331 -12.542 -43.875  1.00  0.00     0.053 C 
BRANCH   3   4
ATOM      4  C   UNL     1      10.528 -12.491 -45.138  1.00  0.00     0.041 C 
ATOM      5  O   UNL     1      11.031 -12.876 -46.226  1.00  0.00    -0.550 OA
ATOM      6  O   UNL     1       9.234 -11.984 -45.119  1.00  0.00    -0.550 OA
ENDBRANCH   3   4
ENDBRANCH   2   3
ENDBRANCH   1   2
BRANCH   1   7
ATOM      7  C   UNL     1      11.731  -8.909 -44.517  1.00  0.00     0.000 C 
BRANCH   7   8
ATOM      8  C   UNL     1      10.267  -8.780 -44.053  1.00  0.00    -0.000 C 
BRANCH   8   9
ATOM      9  C   UNL     1      10.012  -7.683 -43.003  1.00  0.00    -0.003 C 
ATOM     10  C   UNL     1      10.264  -8.157 -41.573  1.00  0.00     0.004 C 
ENDBRANCH   8   9
ENDBRANCH   7   8
ENDBRANCH   1   7
TORSDOF 6
ENDMDL
MODEL 7
REMARK VINA RESULT:    -3.722      3.578      4.891
REMARK INTER + INTRA:          -5.346
REMARK INTER:                  -5.030
REMARK INTRA:                  -0.316
REMARK UNBOUND:                -0.318
REMARK SMILES CCCCCCCC(=O)[O-]
REMARK SMILES IDX 5 1 6 2 7 3 8 4 9 5 10 6 4 7 3 8 2 9 1 10
REMARK H PARENT
REMARK Flexibility Score: inf
ROOT
ATOM      1  C   UNL     1      11.060 -11.487 -44.384  1.00  0.00     0.000 C 
ENDROOT
BRANCH   1   2
ATOM      2  C   UNL     1      10.376 -10.141 -44.682  1.00  0.00     0.006 C 
BRANCH   2   3
ATOM      3  C   UNL     1      11.180  -8.952 -44.143  1.00  0.00     0.053 C 
BRANCH   3   4
ATOM      4  C   UNL     1      10.391  -8.152 -43.153  1.00  0.00     0.041 C 
ATOM      5  O   UNL     1       9.630  -7.229 -43.544  1.00  0.00    -0.550 OA
ATOM      6  O   UNL     1      10.524  -8.404 -41.793  1.00  0.00    -0.550 OA
ENDBRANCH   3   4
ENDBRANCH   2   3
ENDBRANCH   1   2
BRANCH   1   7
ATOM      7  C   UNL     1      11.971 -11.433 -43.145  1.00  0.00     0.000 C 
BRANCH   7   8
ATOM      8  C   UNL     1      13.320 -12.165 -43.294  1.00  0.00    -0.000 C 
BRANCH   8   9
ATOM      9  C   UNL     1      14.385 -11.405 -44.105  1.00  0.00    -0.003 C 
ATOM     10  C   UNL     1      15.794 -11.570 -43.538  1.00  0.00     0.004 C 
ENDBRANCH   8   9
ENDBRANCH   7   8
ENDBRANCH   1   7
TORSDOF 6
ENDMDL
MODEL 8
REMARK VINA RESULT:    -3.555      3.135      5.096
REMARK INTER + INTRA:          -5.120
REMARK INTER:                  -4.904
REMARK INTRA:                  -0.216
REMARK UNBOUND:                -0.318
REMARK SMILES CCCCCCCC(=O)[O-]
REMARK SMILES IDX 5 1 6 2 7 3 8 4 9 5 10 6 4 7 3 8 2 9 1 10
REMARK H PARENT
REMARK Flexibility Score: inf
ROOT
ATOM      1  C   UNL     1      10.057 -11.048 -44.958  1.00  0.00     0.000 C 
ENDROOT
BRANCH   1   2
ATOM      2  C   UNL     1      11.061 -10.183 -44.175  1.00  0.00     0.006 C 
BRANCH   2   3
ATOM      3  C   UNL     1      10.806  -8.683 -44.369  1.00  0.00     0.053 C 
BRANCH   3   4
ATOM      4  C   UNL     1      10.281  -8.045 -43.120  1.00  0.00     0.041 C 
ATOM      5  O   UNL     1      10.589  -8.510 -41.991  1.00  0.00    -0.550 OA
ATOM      6  O   UNL     1       9.423  -6.955 -43.204  1.00  0.00    -0.550 OA
ENDBRANCH   3   4
ENDBRANCH   2   3
ENDBRANCH   1   2
BRANCH   1   7
ATOM      7  C   UNL     1       8.786 -10.277 -45.355  1.00  0.00     0.000 C 
BRANCH   7   8
ATOM      8  C   UNL     1       7.834 -11.032 -46.304  1.00  0.00    -0.000 C 
BRANCH   8   9
ATOM      9  C   UNL     1       8.082 -12.548 -46.402  1.00  0.00    -0.003 C 
ATOM     10  C   UNL     1       6.962 -13.376 -45.772  1.00  0.00     0.004 C 
ENDBRANCH   8   9
ENDBRANCH   7   8
ENDBRANCH   1   7
TORSDOF 6
ENDMDL
MODEL 9
REMARK VINA RESULT:    -3.380      1.368      2.696
REMARK INTER + INTRA:          -4.884
REMARK INTER:                  -4.591
REMARK INTRA:                  -0.293
REMARK UNBOUND:                -0.318
REMARK SMILES CCCCCCCC(=O)[O-]
REMARK SMILES IDX 5 1 6 2 7 3 8 4 9 5 10 6 4 7 3 8 2 9 1 10
REMARK H PARENT
REMARK Flexibility Score: inf
ROOT
ATOM      1  C   UNL     1      10.034  -9.720 -44.675  1.00  0.00     0.000 C 
ENDROOT
BRANCH   1   2
ATOM      2  C   UNL     1       9.455 -10.987 -45.329  1.00  0.00     0.006 C 
BRANCH   2   3
ATOM      3  C   UNL     1       7.994 -10.803 -45.754  1.00  0.00     0.053 C 
BRANCH   3   4
ATOM      4  C   UNL     1       7.416 -12.067 -46.312  1.00  0.00     0.041 C 
ATOM      5  O   UNL     1       7.527 -12.329 -47.539  1.00  0.00    -0.550 OA
ATOM      6  O   UNL     1       6.723 -12.940 -45.482  1.00  0.00    -0.550 OA
ENDBRANCH   3   4
ENDBRANCH   2   3
ENDBRANCH   1   2
BRANCH   1   7
ATOM      7  C   UNL     1      11.185 -10.023 -43.700  1.00  0.00     0.000 C 
BRANCH   7   8
ATOM      8  C   UNL     1      11.202 -11.458 -43.135  1.00  0.00    -0.000 C 
BRANCH   8   9
ATOM      9  C   UNL     1      12.571 -12.158 -43.180  1.00  0.00    -0.003 C 
ATOM     10  C   UNL     1      13.613 -11.378 -43.981  1.00  0.00     0.004 C 
ENDBRANCH   8   9
ENDBRANCH   7   8
ENDBRANCH   1   7
TORSDOF 6
ENDMDL
