MODEL 1
REMARK VINA RESULT:    -4.664      0.000      0.000
REMARK INTER + INTRA:          -6.704
REMARK INTER:                  -6.300
REMARK INTRA:                  -0.405
REMARK UNBOUND:                -0.405
REMARK SMILES CC(=O)CCC=C(C)CCC=C(C)C
REMARK SMILES IDX 7 1 6 2 8 3 9 4 10 5 11 6 13 7 12 8 14 9 5 10 4 11 2 12 3 13
REMARK SMILES IDX 1 14
REMARK H PARENT
REMARK Flexibility Score: inf
ROOT
ATOM      1  C   UNL     1      28.123  28.922  25.512  1.00  0.00    -0.077 C 
ATOM      2  C   UNL     1      27.749  27.648  25.252  1.00  0.00    -0.028 C 
ATOM      3  C   UNL     1      28.767  29.313  26.821  1.00  0.00     0.039 C 
ENDROOT
BRANCH   1   4
ATOM      4  C   UNL     1      27.871  29.985  24.465  1.00  0.00     0.034 C 
BRANCH   4   5
ATOM      5  C   UNL     1      29.029  30.989  24.425  1.00  0.00     0.032 C 
BRANCH   5   6
ATOM      6  C   UNL     1      28.988  31.803  23.155  1.00  0.00    -0.028 C 
ATOM      7  C   UNL     1      29.125  33.992  24.365  1.00  0.00     0.039 C 
ATOM      8  C   UNL     1      29.004  33.153  23.114  1.00  0.00    -0.080 C 
ATOM      9  C   UNL     1      28.918  33.832  21.770  1.00  0.00     0.039 C 
ENDBRANCH   5   6
ENDBRANCH   4   5
ENDBRANCH   1   4
BRANCH   2  10
ATOM     10  C   UNL     1      28.017  26.474  26.163  1.00  0.00     0.035 C 
BRANCH  10  11
ATOM     11  C   UNL     1      28.125  25.162  25.374  1.00  0.00     0.079 C 
BRANCH  11  12
ATOM     12  C   UNL     1      26.795  24.455  25.289  1.00  0.00     0.130 C 
ATOM     13  O   UNL     1      26.017  24.521  26.229  1.00  0.00    -0.300 OA
ATOM     14  C   UNL     1      26.407  23.672  24.070  1.00  0.00     0.087 C 
ENDBRANCH  11  12
ENDBRANCH  10  11
ENDBRANCH   2  10
TORSDOF 6
ENDMDL
MODEL 2
REMARK VINA RESULT:    -3.644      2.485      4.509
REMARK INTER + INTRA:          -5.327
REMARK INTER:                  -4.754
REMARK INTRA:                  -0.573
REMARK UNBOUND:                -0.405
REMARK SMILES CC(=O)CCC=C(C)CCC=C(C)C
REMARK SMILES IDX 7 1 6 2 8 3 9 4 10 5 11 6 13 7 12 8 14 9 5 10 4 11 2 12 3 13
REMARK SMILES IDX 1 14
REMARK H PARENT
REMARK Flexibility Score: inf
ROOT
ATOM      1  C   UNL     1      27.710  24.287  25.717  1.00  0.00    -0.077 C 
ATOM      2  C   UNL     1      27.237  24.009  26.954  1.00  0.00    -0.028 C 
ATOM      3  C   UNL     1      27.410  23.403  24.530  1.00  0.00     0.039 C 
ENDROOT
BRANCH   1   4
ATOM      4  C   UNL     1      28.578  25.512  25.525  1.00  0.00     0.034 C 
BRANCH   4   5
ATOM      5  C   UNL     1      27.714  26.754  25.275  1.00  0.00     0.032 C 
BRANCH   5   6
ATOM      6  C   UNL     1      28.443  28.006  25.690  1.00  0.00    -0.028 C 
ATOM      7  C   UNL     1      27.030  29.496  24.257  1.00  0.00     0.039 C 
ATOM      8  C   UNL     1      28.164  29.243  25.222  1.00  0.00    -0.080 C 
ATOM      9  C   UNL     1      29.006  30.399  25.698  1.00  0.00     0.039 C 
ENDBRANCH   5   6
ENDBRANCH   4   5
ENDBRANCH   1   4
BRANCH   2  10
ATOM     10  C   UNL     1      26.293  22.875  27.275  1.00  0.00     0.035 C 
BRANCH  10  11
ATOM     11  C   UNL     1      24.998  23.387  27.921  1.00  0.00     0.079 C 
BRANCH  11  12
ATOM     12  C   UNL     1      23.864  23.436  26.928  1.00  0.00     0.130 C 
ATOM     13  O   UNL     1      22.800  23.941  27.253  1.00  0.00    -0.300 OA
ATOM     14  C   UNL     1      24.018  22.877  25.544  1.00  0.00     0.087 C 
ENDBRANCH  11  12
ENDBRANCH  10  11
ENDBRANCH   2  10
TORSDOF 6
ENDMDL
MODEL 3
REMARK VINA RESULT:    -3.409      3.571      7.398
REMARK INTER + INTRA:          -5.010
REMARK INTER:                  -4.574
REMARK INTRA:                  -0.436
REMARK UNBOUND:                -0.405
REMARK SMILES CC(=O)CCC=C(C)CCC=C(C)C
REMARK SMILES IDX 7 1 6 2 8 3 9 4 10 5 11 6 13 7 12 8 14 9 5 10 4 11 2 12 3 13
REMARK SMILES IDX 1 14
REMARK H PARENT
REMARK Flexibility Score: inf
ROOT
ATOM      1  C   UNL     1      25.898  23.907  26.369  1.00  0.00    -0.077 C 
ATOM      2  C   UNL     1      26.834  24.867  26.543  1.00  0.00    -0.028 C 
ATOM      3  C   UNL     1      25.623  23.296  25.016  1.00  0.00     0.039 C 
ENDROOT
BRANCH   1   4
ATOM      4  C   UNL     1      25.093  23.446  27.565  1.00  0.00     0.034 C 
BRANCH   4   5
ATOM      5  C   UNL     1      23.701  24.089  27.562  1.00  0.00     0.032 C 
BRANCH   5   6
ATOM      6  C   UNL     1      23.783  25.545  27.946  1.00  0.00    -0.028 C 
ATOM      7  C   UNL     1      21.297  25.850  27.944  1.00  0.00     0.039 C 
ATOM      8  C   UNL     1      22.713  26.356  28.096  1.00  0.00    -0.080 C 
ATOM      9  C   UNL     1      22.950  27.803  28.444  1.00  0.00     0.039 C 
ENDBRANCH   5   6
ENDBRANCH   4   5
ENDBRANCH   1   4
BRANCH   2  10
ATOM     10  C   UNL     1      27.768  25.359  25.463  1.00  0.00     0.035 C 
BRANCH  10  11
ATOM     11  C   UNL     1      28.779  26.375  26.012  1.00  0.00     0.079 C 
BRANCH  11  12
ATOM     12  C   UNL     1      28.234  27.780  25.969  1.00  0.00     0.130 C 
ATOM     13  O   UNL     1      27.331  28.051  25.192  1.00  0.00    -0.300 OA
ATOM     14  C   UNL     1      28.776  28.852  26.866  1.00  0.00     0.087 C 
ENDBRANCH  11  12
ENDBRANCH  10  11
ENDBRANCH   2  10
TORSDOF 6
ENDMDL
MODEL 4
REMARK VINA RESULT:    -2.953      4.158      7.499
REMARK INTER + INTRA:          -4.393
REMARK INTER:                  -4.068
REMARK INTRA:                  -0.325
REMARK UNBOUND:                -0.405
REMARK SMILES CC(=O)CCC=C(C)CCC=C(C)C
REMARK SMILES IDX 7 1 6 2 8 3 9 4 10 5 11 6 13 7 12 8 14 9 5 10 4 11 2 12 3 13
REMARK SMILES IDX 1 14
REMARK H PARENT
REMARK Flexibility Score: inf
ROOT
ATOM      1  C   UNL     1      25.401  23.271  26.653  1.00  0.00    -0.077 C 
ATOM      2  C   UNL     1      26.286  23.350  25.633  1.00  0.00    -0.028 C 
ATOM      3  C   UNL     1      25.849  23.150  28.090  1.00  0.00     0.039 C 
ENDROOT
BRANCH   1   4
ATOM      4  C   UNL     1      23.921  23.289  26.339  1.00  0.00     0.034 C 
BRANCH   4   5
ATOM      5  C   UNL     1      23.117  23.773  27.551  1.00  0.00     0.032 C 
BRANCH   5   6
ATOM      6  C   UNL     1      23.446  25.209  27.874  1.00  0.00    -0.028 C 
ATOM      7  C   UNL     1      21.043  25.877  28.101  1.00  0.00     0.039 C 
ATOM      8  C   UNL     1      22.525  26.172  28.098  1.00  0.00    -0.080 C 
ATOM      9  C   UNL     1      23.003  27.575  28.370  1.00  0.00     0.039 C 
ENDBRANCH   5   6
ENDBRANCH   4   5
ENDBRANCH   1   4
BRANCH   2  10
ATOM     10  C   UNL     1      27.785  23.432  25.803  1.00  0.00     0.035 C 
BRANCH  10  11
ATOM     11  C   UNL     1      28.377  24.612  25.019  1.00  0.00     0.079 C 
BRANCH  11  12
ATOM     12  C   UNL     1      28.435  25.862  25.861  1.00  0.00     0.130 C 
ATOM     13  O   UNL     1      29.125  25.877  26.869  1.00  0.00    -0.300 OA
ATOM     14  C   UNL     1      27.663  27.091  25.482  1.00  0.00     0.087 C 
ENDBRANCH  11  12
ENDBRANCH  10  11
ENDBRANCH   2  10
TORSDOF 6
ENDMDL
MODEL 5
REMARK VINA RESULT:    -2.910      4.393      6.604
REMARK INTER + INTRA:          -4.336
REMARK INTER:                  -3.427
REMARK INTRA:                  -0.908
REMARK UNBOUND:                -0.405
REMARK SMILES CC(=O)CCC=C(C)CCC=C(C)C
REMARK SMILES IDX 7 1 6 2 8 3 9 4 10 5 11 6 13 7 12 8 14 9 5 10 4 11 2 12 3 13
REMARK SMILES IDX 1 14
REMARK H PARENT
REMARK Flexibility Score: inf
ROOT
ATOM      1  C   UNL     1      25.749  23.369  26.197  1.00  0.00    -0.077 C 
ATOM      2  C   UNL     1      25.272  23.809  27.384  1.00  0.00    -0.028 C 
ATOM      3  C   UNL     1      24.870  23.265  24.973  1.00  0.00     0.039 C 
ENDROOT
BRANCH   1   4
ATOM      4  C   UNL     1      27.202  22.956  26.101  1.00  0.00     0.034 C 
BRANCH   4   5
ATOM      5  C   UNL     1      27.942  23.816  25.070  1.00  0.00     0.032 C 
BRANCH   5   6
ATOM      6  C   UNL     1      28.696  24.934  25.747  1.00  0.00    -0.028 C 
ATOM      7  C   UNL     1      26.875  26.610  25.359  1.00  0.00     0.039 C 
ATOM      8  C   UNL     1      28.240  26.201  25.862  1.00  0.00    -0.080 C 
ATOM      9  C   UNL     1      29.122  27.224  26.530  1.00  0.00     0.039 C 
ENDBRANCH   5   6
ENDBRANCH   4   5
ENDBRANCH   1   4
BRANCH   2  10
ATOM     10  C   UNL     1      23.873  24.334  27.604  1.00  0.00     0.035 C 
BRANCH  10  11
ATOM     11  C   UNL     1      23.890  25.720  28.263  1.00  0.00     0.079 C 
BRANCH  11  12
ATOM     12  C   UNL     1      22.576  26.437  28.079  1.00  0.00     0.130 C 
ATOM     13  O   UNL     1      22.556  27.659  28.046  1.00  0.00    -0.300 OA
ATOM     14  C   UNL     1      21.290  25.679  27.934  1.00  0.00     0.087 C 
ENDBRANCH  11  12
ENDBRANCH  10  11
ENDBRANCH   2  10
TORSDOF 6
ENDMDL
MODEL 6
REMARK VINA RESULT:    -2.298      1.450      2.338
REMARK INTER + INTRA:          -3.509
REMARK INTER:                  -3.078
REMARK INTRA:                  -0.431
REMARK UNBOUND:                -0.405
REMARK SMILES CC(=O)CCC=C(C)CCC=C(C)C
REMARK SMILES IDX 7 1 6 2 8 3 9 4 10 5 11 6 13 7 12 8 14 9 5 10 4 11 2 12 3 13
REMARK SMILES IDX 1 14
REMARK H PARENT
REMARK Flexibility Score: inf
ROOT
ATOM      1  C   UNL     1      27.557  27.089  25.679  1.00  0.00    -0.077 C 
ATOM      2  C   UNL     1      27.307  25.836  25.235  1.00  0.00    -0.028 C 
ATOM      3  C   UNL     1      28.413  27.349  26.896  1.00  0.00     0.039 C 
ENDROOT
BRANCH   1   4
ATOM      4  C   UNL     1      26.945  28.261  24.942  1.00  0.00     0.034 C 
BRANCH   4   5
ATOM      5  C   UNL     1      28.015  29.019  24.147  1.00  0.00     0.032 C 
BRANCH   5   6
ATOM      6  C   UNL     1      28.319  30.349  24.790  1.00  0.00    -0.028 C 
ATOM      7  C   UNL     1      29.111  31.382  22.651  1.00  0.00     0.039 C 
ATOM      8  C   UNL     1      28.836  31.412  24.137  1.00  0.00    -0.080 C 
ATOM      9  C   UNL     1      29.125  32.667  24.920  1.00  0.00     0.039 C 
ENDBRANCH   5   6
ENDBRANCH   4   5
ENDBRANCH   1   4
BRANCH   2  10
ATOM     10  C   UNL     1      27.919  24.583  25.816  1.00  0.00     0.035 C 
BRANCH  10  11
ATOM     11  C   UNL     1      27.074  23.343  25.494  1.00  0.00     0.079 C 
BRANCH  11  12
ATOM     12  C   UNL     1      25.608  23.590  25.746  1.00  0.00     0.130 C 
ATOM     13  O   UNL     1      24.829  23.598  24.805  1.00  0.00    -0.300 OA
ATOM     14  C   UNL     1      25.086  23.824  27.132  1.00  0.00     0.087 C 
ENDBRANCH  11  12
ENDBRANCH  10  11
ENDBRANCH   2  10
TORSDOF 6
ENDMDL
MODEL 7
REMARK VINA RESULT:    -2.228      4.371      7.358
REMARK INTER + INTRA:          -3.414
REMARK INTER:                  -2.927
REMARK INTRA:                  -0.487
REMARK UNBOUND:                -0.405
REMARK SMILES CC(=O)CCC=C(C)CCC=C(C)C
REMARK SMILES IDX 7 1 6 2 8 3 9 4 10 5 11 6 13 7 12 8 14 9 5 10 4 11 2 12 3 13
REMARK SMILES IDX 1 14
REMARK H PARENT
REMARK Flexibility Score: inf
ROOT
ATOM      1  C   UNL     1      24.156  24.026  27.558  1.00  0.00    -0.077 C 
ATOM      2  C   UNL     1      23.793  25.251  28.002  1.00  0.00    -0.028 C 
ATOM      3  C   UNL     1      23.170  23.094  26.895  1.00  0.00     0.039 C 
ENDROOT
BRANCH   1   4
ATOM      4  C   UNL     1      25.588  23.574  27.748  1.00  0.00     0.034 C 
BRANCH   4   5
ATOM      5  C   UNL     1      26.368  23.683  26.433  1.00  0.00     0.032 C 
BRANCH   5   6
ATOM      6  C   UNL     1      26.877  25.088  26.227  1.00  0.00    -0.028 C 
ATOM      7  C   UNL     1      28.904  24.339  24.961  1.00  0.00     0.039 C 
ATOM      8  C   UNL     1      28.028  25.397  25.590  1.00  0.00    -0.080 C 
ATOM      9  C   UNL     1      28.429  26.847  25.494  1.00  0.00     0.039 C 
ENDBRANCH   5   6
ENDBRANCH   4   5
ENDBRANCH   1   4
BRANCH   2  10
ATOM     10  C   UNL     1      22.428  25.866  27.803  1.00  0.00     0.035 C 
BRANCH  10  11
ATOM     11  C   UNL     1      22.193  27.038  28.765  1.00  0.00     0.079 C 
BRANCH  11  12
ATOM     12  C   UNL     1      23.143  28.177  28.493  1.00  0.00     0.130 C 
ATOM     13  O   UNL     1      23.338  28.537  27.342  1.00  0.00    -0.300 OA
ATOM     14  C   UNL     1      23.853  28.881  29.611  1.00  0.00     0.087 C 
ENDBRANCH  11  12
ENDBRANCH  10  11
ENDBRANCH   2  10
TORSDOF 6
ENDMDL
MODEL 8
REMARK VINA RESULT:    -1.876      1.523      2.886
REMARK INTER + INTRA:          -2.939
REMARK INTER:                  -2.608
REMARK INTRA:                  -0.331
REMARK UNBOUND:                -0.405
REMARK SMILES CC(=O)CCC=C(C)CCC=C(C)C
REMARK SMILES IDX 7 1 6 2 8 3 9 4 10 5 11 6 13 7 12 8 14 9 5 10 4 11 2 12 3 13
REMARK SMILES IDX 1 14
REMARK H PARENT
REMARK Flexibility Score: inf
ROOT
ATOM      1  C   UNL     1      28.822  31.062  23.889  1.00  0.00    -0.077 C 
ATOM      2  C   UNL     1      28.730  29.717  23.997  1.00  0.00    -0.028 C 
ATOM      3  C   UNL     1      28.615  31.974  25.075  1.00  0.00     0.039 C 
ENDROOT
BRANCH   1   4
ATOM      4  C   UNL     1      29.125  31.667  22.535  1.00  0.00     0.034 C 
BRANCH   4   5
ATOM      5  C   UNL     1      28.828  33.171  22.536  1.00  0.00     0.032 C 
BRANCH   5   6
ATOM      6  C   UNL     1      29.125  33.777  21.187  1.00  0.00    -0.028 C 
ATOM      7  C   UNL     1      27.508  35.663  21.500  1.00  0.00     0.039 C 
ATOM      8  C   UNL     1      28.520  34.881  20.697  1.00  0.00    -0.080 C 
ATOM      9  C   UNL     1      28.891  35.349  19.312  1.00  0.00     0.039 C 
ENDBRANCH   5   6
ENDBRANCH   4   5
ENDBRANCH   1   4
BRANCH   2  10
ATOM     10  C   UNL     1      28.521  28.974  25.295  1.00  0.00     0.035 C 
BRANCH  10  11
ATOM     11  C   UNL     1      28.743  27.465  25.123  1.00  0.00     0.079 C 
BRANCH  11  12
ATOM     12  C   UNL     1      27.690  26.664  25.846  1.00  0.00     0.130 C 
ATOM     13  O   UNL     1      26.578  27.143  26.013  1.00  0.00    -0.300 OA
ATOM     14  C   UNL     1      27.980  25.287  26.365  1.00  0.00     0.087 C 
ENDBRANCH  11  12
ENDBRANCH  10  11
ENDBRANCH   2  10
TORSDOF 6
ENDMDL
