MODEL 1
REMARK VINA RESULT:    -6.981      0.000      0.000
REMARK INTER + INTRA:          -9.298
REMARK INTER:                  -8.817
REMARK INTRA:                  -0.481
REMARK UNBOUND:                -0.481
REMARK SMILES Oc1ccc(CCc2cc(O)cc(O)c2)cc1
REMARK SMILES IDX 6 1 5 2 4 3 3 4 2 5 16 6 17 7 1 8 7 10 8 11 15 12 9 13 13 14
REMARK SMILES IDX 10 15 12 16 14 17 11 19
REMARK H PARENT 1 9 14 18 11 20
REMARK Flexibility Score: inf
ROOT
ATOM      1  C   UNL     1      70.980   2.617  -2.999  1.00  0.00     0.040 C 
ENDROOT
BRANCH   1   2
ATOM      2  C   UNL     1      70.489   1.286  -3.502  1.00  0.00    -0.047 A 
ATOM      3  C   UNL     1      71.191   0.109  -3.195  1.00  0.00     0.007 A 
ATOM      4  C   UNL     1      70.752  -1.123  -3.690  1.00  0.00     0.046 A 
ATOM      5  C   UNL     1      69.616  -1.191  -4.503  1.00  0.00     0.115 A 
ATOM      6  C   UNL     1      69.356   1.215  -4.329  1.00  0.00     0.007 A 
ATOM      7  C   UNL     1      68.919  -0.018  -4.823  1.00  0.00     0.046 A 
BRANCH   5   8
ATOM      8  O   UNL     1      69.191  -2.426  -4.989  1.00  0.00    -0.508 OA
ATOM      9  H   UNL     1      69.342  -3.280  -4.465  1.00  0.00     0.293 HD
ENDBRANCH   5   8
ENDBRANCH   1   2
BRANCH   1  10
ATOM     10  C   UNL     1      70.560   2.830  -1.542  1.00  0.00     0.040 C 
BRANCH  10  11
ATOM     11  C   UNL     1      71.457   2.056  -0.615  1.00  0.00    -0.040 A 
ATOM     12  C   UNL     1      70.906   1.198   0.351  1.00  0.00     0.050 A 
ATOM     13  C   UNL     1      72.853   2.141  -0.745  1.00  0.00     0.050 A 
ATOM     14  C   UNL     1      71.743   0.451   1.194  1.00  0.00     0.119 A 
ATOM     15  C   UNL     1      73.689   1.398   0.093  1.00  0.00     0.119 A 
ATOM     16  C   UNL     1      73.131   0.555   1.065  1.00  0.00     0.092 A 
BRANCH  14  17
ATOM     17  O   UNL     1      71.204  -0.397   2.158  1.00  0.00    -0.508 OA
ATOM     18  H   UNL     1      71.278  -0.190   3.147  1.00  0.00     0.293 HD
ENDBRANCH  14  17
BRANCH  15  19
ATOM     19  O   UNL     1      75.071   1.501  -0.047  1.00  0.00    -0.508 OA
ATOM     20  H   UNL     1      75.696   1.362   0.739  1.00  0.00     0.293 HD
ENDBRANCH  15  19
ENDBRANCH  10  11
ENDBRANCH   1  10
TORSDOF 6
ENDMDL
MODEL 2
REMARK VINA RESULT:    -6.950      1.599      5.599
REMARK INTER + INTRA:          -9.260
REMARK INTER:                  -8.528
REMARK INTRA:                  -0.732
REMARK UNBOUND:                -0.481
REMARK SMILES Oc1ccc(CCc2cc(O)cc(O)c2)cc1
REMARK SMILES IDX 6 1 5 2 4 3 3 4 2 5 16 6 17 7 1 8 7 10 8 11 15 12 9 13 13 14
REMARK SMILES IDX 10 15 12 16 14 17 11 19
REMARK H PARENT 1 9 14 18 11 20
REMARK Flexibility Score: inf
ROOT
ATOM      1  C   UNL     1      71.098   2.476  -1.417  1.00  0.00     0.040 C 
ENDROOT
BRANCH   1   2
ATOM      2  C   UNL     1      71.243   1.575  -0.220  1.00  0.00    -0.047 A 
ATOM      3  C   UNL     1      72.501   1.384   0.375  1.00  0.00     0.007 A 
ATOM      4  C   UNL     1      72.640   0.520   1.467  1.00  0.00     0.046 A 
ATOM      5  C   UNL     1      71.529  -0.168   1.966  1.00  0.00     0.115 A 
ATOM      6  C   UNL     1      70.133   0.872   0.276  1.00  0.00     0.007 A 
ATOM      7  C   UNL     1      70.274   0.009   1.367  1.00  0.00     0.046 A 
BRANCH   5   8
ATOM      8  O   UNL     1      71.683  -1.024   3.055  1.00  0.00    -0.508 OA
ATOM      9  H   UNL     1      70.890  -1.499   3.470  1.00  0.00     0.293 HD
ENDBRANCH   5   8
ENDBRANCH   1   2
BRANCH   1  10
ATOM     10  C   UNL     1      71.835   1.889  -2.624  1.00  0.00     0.040 C 
BRANCH  10  11
ATOM     11  C   UNL     1      71.008   0.814  -3.277  1.00  0.00    -0.040 A 
ATOM     12  C   UNL     1      69.909   1.156  -4.081  1.00  0.00     0.050 A 
ATOM     13  C   UNL     1      71.364  -0.537  -3.135  1.00  0.00     0.050 A 
ATOM     14  C   UNL     1      69.158   0.156  -4.717  1.00  0.00     0.119 A 
ATOM     15  C   UNL     1      70.618  -1.536  -3.767  1.00  0.00     0.119 A 
ATOM     16  C   UNL     1      69.512  -1.186  -4.556  1.00  0.00     0.092 A 
BRANCH  14  17
ATOM     17  O   UNL     1      68.063   0.488  -5.509  1.00  0.00    -0.508 OA
ATOM     18  H   UNL     1      67.723  -0.135  -6.233  1.00  0.00     0.293 HD
ENDBRANCH  14  17
BRANCH  15  19
ATOM     19  O   UNL     1      70.982  -2.871  -3.608  1.00  0.00    -0.508 OA
ATOM     20  H   UNL     1      71.923  -3.136  -3.342  1.00  0.00     0.293 HD
ENDBRANCH  15  19
ENDBRANCH  10  11
ENDBRANCH   1  10
TORSDOF 6
ENDMDL
MODEL 3
REMARK VINA RESULT:    -6.936      0.115      2.037
REMARK INTER + INTRA:          -9.242
REMARK INTER:                  -8.785
REMARK INTRA:                  -0.457
REMARK UNBOUND:                -0.481
REMARK SMILES Oc1ccc(CCc2cc(O)cc(O)c2)cc1
REMARK SMILES IDX 6 1 5 2 4 3 3 4 2 5 16 6 17 7 1 8 7 10 8 11 15 12 9 13 13 14
REMARK SMILES IDX 10 15 12 16 14 17 11 19
REMARK H PARENT 1 9 14 18 11 20
REMARK Flexibility Score: inf
ROOT
ATOM      1  C   UNL     1      70.978   2.523  -3.003  1.00  0.00     0.040 C 
ENDROOT
BRANCH   1   2
ATOM      2  C   UNL     1      70.477   1.201  -3.518  1.00  0.00    -0.047 A 
ATOM      3  C   UNL     1      71.155   0.013  -3.199  1.00  0.00     0.007 A 
ATOM      4  C   UNL     1      70.707  -1.211  -3.706  1.00  0.00     0.046 A 
ATOM      5  C   UNL     1      69.587  -1.260  -4.543  1.00  0.00     0.115 A 
ATOM      6  C   UNL     1      69.360   1.149  -4.369  1.00  0.00     0.007 A 
ATOM      7  C   UNL     1      68.915  -0.075  -4.874  1.00  0.00     0.046 A 
BRANCH   5   8
ATOM      8  O   UNL     1      69.153  -2.487  -5.039  1.00  0.00    -0.508 OA
ATOM      9  H   UNL     1      68.716  -3.176  -4.438  1.00  0.00     0.293 HD
ENDBRANCH   5   8
ENDBRANCH   1   2
BRANCH   1  10
ATOM     10  C   UNL     1      70.590   2.710  -1.533  1.00  0.00     0.040 C 
BRANCH  10  11
ATOM     11  C   UNL     1      71.524   1.942  -0.638  1.00  0.00    -0.040 A 
ATOM     12  C   UNL     1      72.914   2.065  -0.792  1.00  0.00     0.050 A 
ATOM     13  C   UNL     1      71.013   1.140   0.396  1.00  0.00     0.050 A 
ATOM     14  C   UNL     1      73.785   1.375   0.064  1.00  0.00     0.119 A 
ATOM     15  C   UNL     1      71.879   0.451   1.251  1.00  0.00     0.119 A 
ATOM     16  C   UNL     1      73.266   0.568   1.081  1.00  0.00     0.092 A 
BRANCH  14  17
ATOM     17  O   UNL     1      75.165   1.488  -0.087  1.00  0.00    -0.508 OA
ATOM     18  H   UNL     1      75.792   0.742   0.193  1.00  0.00     0.293 HD
ENDBRANCH  14  17
BRANCH  15  19
ATOM     19  O   UNL     1      71.354  -0.345   2.266  1.00  0.00    -0.508 OA
ATOM     20  H   UNL     1      70.875  -1.215   2.064  1.00  0.00     0.293 HD
ENDBRANCH  15  19
ENDBRANCH  10  11
ENDBRANCH   1  10
TORSDOF 6
ENDMDL
MODEL 4
REMARK VINA RESULT:    -6.903      1.582      5.596
REMARK INTER + INTRA:          -9.200
REMARK INTER:                  -8.457
REMARK INTRA:                  -0.743
REMARK UNBOUND:                -0.481
REMARK SMILES Oc1ccc(CCc2cc(O)cc(O)c2)cc1
REMARK SMILES IDX 6 1 5 2 4 3 3 4 2 5 16 6 17 7 1 8 7 10 8 11 15 12 9 13 13 14
REMARK SMILES IDX 10 15 12 16 14 17 11 19
REMARK H PARENT 1 9 14 18 11 20
REMARK Flexibility Score: inf
ROOT
ATOM      1  C   UNL     1      71.028   2.477  -1.421  1.00  0.00     0.040 C 
ENDROOT
BRANCH   1   2
ATOM      2  C   UNL     1      71.209   1.574  -0.231  1.00  0.00    -0.047 A 
ATOM      3  C   UNL     1      72.484   1.377   0.323  1.00  0.00     0.007 A 
ATOM      4  C   UNL     1      72.656   0.511   1.408  1.00  0.00     0.046 A 
ATOM      5  C   UNL     1      71.560  -0.173   1.942  1.00  0.00     0.115 A 
ATOM      6  C   UNL     1      70.113   0.874   0.301  1.00  0.00     0.007 A 
ATOM      7  C   UNL     1      70.287   0.009   1.385  1.00  0.00     0.046 A 
BRANCH   5   8
ATOM      8  O   UNL     1      71.746  -1.032   3.023  1.00  0.00    -0.508 OA
ATOM      9  H   UNL     1      71.098  -1.050   3.802  1.00  0.00     0.293 HD
ENDBRANCH   5   8
ENDBRANCH   1   2
BRANCH   1  10
ATOM     10  C   UNL     1      71.797   1.936  -2.629  1.00  0.00     0.040 C 
BRANCH  10  11
ATOM     11  C   UNL     1      71.015   0.843  -3.307  1.00  0.00    -0.040 A 
ATOM     12  C   UNL     1      71.376  -0.502  -3.127  1.00  0.00     0.050 A 
ATOM     13  C   UNL     1      69.885   1.156  -4.079  1.00  0.00     0.050 A 
ATOM     14  C   UNL     1      70.628  -1.523  -3.731  1.00  0.00     0.119 A 
ATOM     15  C   UNL     1      69.136   0.140  -4.682  1.00  0.00     0.119 A 
ATOM     16  C   UNL     1      69.512  -1.199  -4.509  1.00  0.00     0.092 A 
BRANCH  14  17
ATOM     17  O   UNL     1      70.984  -2.858  -3.562  1.00  0.00    -0.508 OA
ATOM     18  H   UNL     1      71.780  -3.260  -4.043  1.00  0.00     0.293 HD
ENDBRANCH  14  17
BRANCH  15  19
ATOM     19  O   UNL     1      68.022   0.470  -5.450  1.00  0.00    -0.508 OA
ATOM     20  H   UNL     1      67.363  -0.235  -5.760  1.00  0.00     0.293 HD
ENDBRANCH  15  19
ENDBRANCH  10  11
ENDBRANCH   1  10
TORSDOF 6
ENDMDL
MODEL 5
REMARK VINA RESULT:    -6.707      1.375      2.394
REMARK INTER + INTRA:          -8.953
REMARK INTER:                  -8.264
REMARK INTRA:                  -0.689
REMARK UNBOUND:                -0.481
REMARK SMILES Oc1ccc(CCc2cc(O)cc(O)c2)cc1
REMARK SMILES IDX 6 1 5 2 4 3 3 4 2 5 16 6 17 7 1 8 7 10 8 11 15 12 9 13 13 14
REMARK SMILES IDX 10 15 12 16 14 17 11 19
REMARK H PARENT 1 9 14 18 11 20
REMARK Flexibility Score: inf
ROOT
ATOM      1  C   UNL     1      72.463   1.537  -2.639  1.00  0.00     0.040 C 
ENDROOT
BRANCH   1   2
ATOM      2  C   UNL     1      71.288   0.870  -3.302  1.00  0.00    -0.047 A 
ATOM      3  C   UNL     1      71.278  -0.521  -3.495  1.00  0.00     0.007 A 
ATOM      4  C   UNL     1      70.200  -1.135  -4.141  1.00  0.00     0.046 A 
ATOM      5  C   UNL     1      69.129  -0.367  -4.608  1.00  0.00     0.115 A 
ATOM      6  C   UNL     1      70.216   1.639  -3.785  1.00  0.00     0.007 A 
ATOM      7  C   UNL     1      69.140   1.023  -4.430  1.00  0.00     0.046 A 
BRANCH   5   8
ATOM      8  O   UNL     1      68.062  -0.993  -5.250  1.00  0.00    -0.508 OA
ATOM      9  H   UNL     1      67.244  -1.301  -4.737  1.00  0.00     0.293 HD
ENDBRANCH   5   8
ENDBRANCH   1   2
BRANCH   1  10
ATOM     10  C   UNL     1      71.995   2.427  -1.484  1.00  0.00     0.040 C 
BRANCH  10  11
ATOM     11  C   UNL     1      71.646   1.594  -0.281  1.00  0.00    -0.040 A 
ATOM     12  C   UNL     1      72.653   1.164   0.599  1.00  0.00     0.050 A 
ATOM     13  C   UNL     1      70.306   1.287   0.004  1.00  0.00     0.050 A 
ATOM     14  C   UNL     1      72.326   0.416   1.739  1.00  0.00     0.119 A 
ATOM     15  C   UNL     1      69.976   0.541   1.140  1.00  0.00     0.119 A 
ATOM     16  C   UNL     1      70.989   0.104   2.005  1.00  0.00     0.092 A 
BRANCH  14  17
ATOM     17  O   UNL     1      73.320  -0.019   2.612  1.00  0.00    -0.508 OA
ATOM     18  H   UNL     1      73.821   0.628   3.209  1.00  0.00     0.293 HD
ENDBRANCH  14  17
BRANCH  15  19
ATOM     19  O   UNL     1      68.641   0.241   1.401  1.00  0.00    -0.508 OA
ATOM     20  H   UNL     1      68.306  -0.715   1.419  1.00  0.00     0.293 HD
ENDBRANCH  15  19
ENDBRANCH  10  11
ENDBRANCH   1  10
TORSDOF 6
ENDMDL
MODEL 6
REMARK VINA RESULT:    -6.640      1.389      2.029
REMARK INTER + INTRA:          -8.868
REMARK INTER:                  -8.180
REMARK INTRA:                  -0.687
REMARK UNBOUND:                -0.481
REMARK SMILES Oc1ccc(CCc2cc(O)cc(O)c2)cc1
REMARK SMILES IDX 6 1 5 2 4 3 3 4 2 5 16 6 17 7 1 8 7 10 8 11 15 12 9 13 13 14
REMARK SMILES IDX 10 15 12 16 14 17 11 19
REMARK H PARENT 1 9 14 18 11 20
REMARK Flexibility Score: inf
ROOT
ATOM      1  C   UNL     1      72.476   1.399  -2.601  1.00  0.00     0.040 C 
ENDROOT
BRANCH   1   2
ATOM      2  C   UNL     1      71.322   0.764  -3.329  1.00  0.00    -0.047 A 
ATOM      3  C   UNL     1      70.262   1.554  -3.804  1.00  0.00     0.007 A 
ATOM      4  C   UNL     1      69.174   0.959  -4.451  1.00  0.00     0.046 A 
ATOM      5  C   UNL     1      69.129  -0.428  -4.620  1.00  0.00     0.115 A 
ATOM      6  C   UNL     1      71.266  -0.630  -3.489  1.00  0.00     0.007 A 
ATOM      7  C   UNL     1      70.177  -1.222  -4.136  1.00  0.00     0.046 A 
BRANCH   5   8
ATOM      8  O   UNL     1      68.039  -1.007  -5.267  1.00  0.00    -0.508 OA
ATOM      9  H   UNL     1      68.154  -1.549  -6.116  1.00  0.00     0.293 HD
ENDBRANCH   5   8
ENDBRANCH   1   2
BRANCH   1  10
ATOM     10  C   UNL     1      71.968   2.358  -1.521  1.00  0.00     0.040 C 
BRANCH  10  11
ATOM     11  C   UNL     1      71.636   1.606  -0.260  1.00  0.00    -0.040 A 
ATOM     12  C   UNL     1      70.321   1.179  -0.016  1.00  0.00     0.050 A 
ATOM     13  C   UNL     1      72.649   1.276   0.655  1.00  0.00     0.050 A 
ATOM     14  C   UNL     1      70.017   0.449   1.143  1.00  0.00     0.119 A 
ATOM     15  C   UNL     1      72.349   0.548   1.811  1.00  0.00     0.119 A 
ATOM     16  C   UNL     1      71.031   0.138   2.054  1.00  0.00     0.092 A 
BRANCH  14  17
ATOM     17  O   UNL     1      68.714   0.028   1.394  1.00  0.00    -0.508 OA
ATOM     18  H   UNL     1      67.915   0.603   1.154  1.00  0.00     0.293 HD
ENDBRANCH  14  17
BRANCH  15  19
ATOM     19  O   UNL     1      73.366   0.236   2.710  1.00  0.00    -0.508 OA
ATOM     20  H   UNL     1      73.300   0.481   3.691  1.00  0.00     0.293 HD
ENDBRANCH  15  19
ENDBRANCH  10  11
ENDBRANCH   1  10
TORSDOF 6
ENDMDL
MODEL 7
REMARK VINA RESULT:    -6.621      9.282     11.922
REMARK INTER + INTRA:          -8.844
REMARK INTER:                  -8.474
REMARK INTRA:                  -0.370
REMARK UNBOUND:                -0.481
REMARK SMILES Oc1ccc(CCc2cc(O)cc(O)c2)cc1
REMARK SMILES IDX 6 1 5 2 4 3 3 4 2 5 16 6 17 7 1 8 7 10 8 11 15 12 9 13 13 14
REMARK SMILES IDX 10 15 12 16 14 17 11 19
REMARK H PARENT 1 9 14 18 11 20
REMARK Flexibility Score: inf
ROOT
ATOM      1  C   UNL     1      81.858   0.878   0.070  1.00  0.00     0.040 C 
ENDROOT
BRANCH   1   2
ATOM      2  C   UNL     1      80.370   1.094  -0.005  1.00  0.00    -0.047 A 
ATOM      3  C   UNL     1      79.812   2.326   0.373  1.00  0.00     0.007 A 
ATOM      4  C   UNL     1      78.427   2.514   0.334  1.00  0.00     0.046 A 
ATOM      5  C   UNL     1      77.586   1.472  -0.071  1.00  0.00     0.115 A 
ATOM      6  C   UNL     1      79.521   0.046  -0.400  1.00  0.00     0.007 A 
ATOM      7  C   UNL     1      78.137   0.236  -0.437  1.00  0.00     0.046 A 
BRANCH   5   8
ATOM      8  O   UNL     1      76.208   1.674  -0.105  1.00  0.00    -0.508 OA
ATOM      9  H   UNL     1      75.809   2.548  -0.430  1.00  0.00     0.293 HD
ENDBRANCH   5   8
ENDBRANCH   1   2
BRANCH   1  10
ATOM     10  C   UNL     1      82.607   2.136  -0.379  1.00  0.00     0.040 C 
BRANCH  10  11
ATOM     11  C   UNL     1      84.094   1.915  -0.320  1.00  0.00    -0.040 A 
ATOM     12  C   UNL     1      84.698   1.479   0.870  1.00  0.00     0.050 A 
ATOM     13  C   UNL     1      84.881   2.088  -1.470  1.00  0.00     0.050 A 
ATOM     14  C   UNL     1      86.080   1.240   0.916  1.00  0.00     0.119 A 
ATOM     15  C   UNL     1      86.259   1.851  -1.427  1.00  0.00     0.119 A 
ATOM     16  C   UNL     1      86.857   1.429  -0.230  1.00  0.00     0.092 A 
BRANCH  14  17
ATOM     17  O   UNL     1      86.687   0.814   2.095  1.00  0.00    -0.508 OA
ATOM     18  H   UNL     1      87.679   0.941   2.257  1.00  0.00     0.293 HD
ENDBRANCH  14  17
BRANCH  15  19
ATOM     19  O   UNL     1      87.025   2.034  -2.576  1.00  0.00    -0.508 OA
ATOM     20  H   UNL     1      87.765   1.391  -2.828  1.00  0.00     0.293 HD
ENDBRANCH  15  19
ENDBRANCH  10  11
ENDBRANCH   1  10
TORSDOF 6
ENDMDL
MODEL 8
REMARK VINA RESULT:    -6.603      9.340     12.083
REMARK INTER + INTRA:          -8.821
REMARK INTER:                  -8.454
REMARK INTRA:                  -0.368
REMARK UNBOUND:                -0.481
REMARK SMILES Oc1ccc(CCc2cc(O)cc(O)c2)cc1
REMARK SMILES IDX 6 1 5 2 4 3 3 4 2 5 16 6 17 7 1 8 7 10 8 11 15 12 9 13 13 14
REMARK SMILES IDX 10 15 12 16 14 17 11 19
REMARK H PARENT 1 9 14 18 11 20
REMARK Flexibility Score: inf
ROOT
ATOM      1  C   UNL     1      81.908   0.812   0.047  1.00  0.00     0.040 C 
ENDROOT
BRANCH   1   2
ATOM      2  C   UNL     1      80.425   1.058  -0.022  1.00  0.00    -0.047 A 
ATOM      3  C   UNL     1      79.893   2.300   0.360  1.00  0.00     0.007 A 
ATOM      4  C   UNL     1      78.512   2.516   0.327  1.00  0.00     0.046 A 
ATOM      5  C   UNL     1      77.649   1.492  -0.078  1.00  0.00     0.115 A 
ATOM      6  C   UNL     1      79.554   0.028  -0.416  1.00  0.00     0.007 A 
ATOM      7  C   UNL     1      78.174   0.246  -0.448  1.00  0.00     0.046 A 
BRANCH   5   8
ATOM      8  O   UNL     1      76.275   1.722  -0.106  1.00  0.00    -0.508 OA
ATOM      9  H   UNL     1      75.736   1.807   0.747  1.00  0.00     0.293 HD
ENDBRANCH   5   8
ENDBRANCH   1   2
BRANCH   1  10
ATOM     10  C   UNL     1      82.679   2.128  -0.099  1.00  0.00     0.040 C 
BRANCH  10  11
ATOM     11  C   UNL     1      84.153   1.864  -0.243  1.00  0.00    -0.040 A 
ATOM     12  C   UNL     1      84.796   2.085  -1.472  1.00  0.00     0.050 A 
ATOM     13  C   UNL     1      84.910   1.450   0.865  1.00  0.00     0.050 A 
ATOM     14  C   UNL     1      86.176   1.871  -1.598  1.00  0.00     0.119 A 
ATOM     15  C   UNL     1      86.287   1.236   0.743  1.00  0.00     0.119 A 
ATOM     16  C   UNL     1      86.917   1.445  -0.492  1.00  0.00     0.092 A 
BRANCH  14  17
ATOM     17  O   UNL     1      86.818   2.082  -2.816  1.00  0.00    -0.508 OA
ATOM     18  H   UNL     1      86.696   1.447  -3.597  1.00  0.00     0.293 HD
ENDBRANCH  14  17
BRANCH  15  19
ATOM     19  O   UNL     1      87.019   0.819   1.852  1.00  0.00    -0.508 OA
ATOM     20  H   UNL     1      86.820   1.169   2.781  1.00  0.00     0.293 HD
ENDBRANCH  15  19
ENDBRANCH  10  11
ENDBRANCH   1  10
TORSDOF 6
ENDMDL
MODEL 9
REMARK VINA RESULT:    -6.558      1.740      2.500
REMARK INTER + INTRA:          -8.764
REMARK INTER:                  -8.124
REMARK INTRA:                  -0.640
REMARK UNBOUND:                -0.481
REMARK SMILES Oc1ccc(CCc2cc(O)cc(O)c2)cc1
REMARK SMILES IDX 6 1 5 2 4 3 3 4 2 5 16 6 17 7 1 8 7 10 8 11 15 12 9 13 13 14
REMARK SMILES IDX 10 15 12 16 14 17 11 19
REMARK H PARENT 1 9 14 18 11 20
REMARK Flexibility Score: inf
ROOT
ATOM      1  C   UNL     1      72.245   2.397  -1.866  1.00  0.00     0.040 C 
ENDROOT
BRANCH   1   2
ATOM      2  C   UNL     1      71.361   1.560  -2.750  1.00  0.00    -0.047 A 
ATOM      3  C   UNL     1      70.091   2.025  -3.128  1.00  0.00     0.007 A 
ATOM      4  C   UNL     1      69.258   1.231  -3.922  1.00  0.00     0.046 A 
ATOM      5  C   UNL     1      69.678  -0.036  -4.337  1.00  0.00     0.115 A 
ATOM      6  C   UNL     1      71.775   0.280  -3.158  1.00  0.00     0.007 A 
ATOM      7  C   UNL     1      70.939  -0.511  -3.951  1.00  0.00     0.046 A 
BRANCH   5   8
ATOM      8  O   UNL     1      68.837  -0.816  -5.129  1.00  0.00    -0.508 OA
ATOM      9  H   UNL     1      68.987  -0.910  -6.126  1.00  0.00     0.293 HD
ENDBRANCH   5   8
ENDBRANCH   1   2
BRANCH   1  10
ATOM     10  C   UNL     1      72.984   1.517  -0.854  1.00  0.00     0.040 C 
BRANCH  10  11
ATOM     11  C   UNL     1      72.121   1.260   0.352  1.00  0.00    -0.040 A 
ATOM     12  C   UNL     1      71.386   0.068   0.457  1.00  0.00     0.050 A 
ATOM     13  C   UNL     1      72.089   2.184   1.409  1.00  0.00     0.050 A 
ATOM     14  C   UNL     1      70.608  -0.186   1.596  1.00  0.00     0.119 A 
ATOM     15  C   UNL     1      71.315   1.933   2.546  1.00  0.00     0.119 A 
ATOM     16  C   UNL     1      70.572   0.748   2.636  1.00  0.00     0.092 A 
BRANCH  14  17
ATOM     17  O   UNL     1      69.871  -1.363   1.703  1.00  0.00    -0.508 OA
ATOM     18  H   UNL     1      69.407  -1.773   0.901  1.00  0.00     0.293 HD
ENDBRANCH  14  17
BRANCH  15  19
ATOM     19  O   UNL     1      71.290   2.865   3.581  1.00  0.00    -0.508 OA
ATOM     20  H   UNL     1      71.716   3.779   3.482  1.00  0.00     0.293 HD
ENDBRANCH  15  19
ENDBRANCH  10  11
ENDBRANCH   1  10
TORSDOF 6
ENDMDL
