MODEL 1
REMARK VINA RESULT:    -4.703      0.000      0.000
REMARK INTER + INTRA:          -6.479
REMARK INTER:                  -6.353
REMARK INTRA:                  -0.127
REMARK UNBOUND:                -0.127
REMARK SMILES CCCCCCCC(=O)[O-]
REMARK SMILES IDX 5 1 6 2 7 3 8 4 9 5 10 6 4 7 3 8 2 9 1 10
REMARK H PARENT
REMARK Flexibility Score: inf
ROOT
ATOM      1  C   UNL     1      96.122 124.487 124.027  1.00  0.00     0.000 C 
ENDROOT
BRANCH   1   2
ATOM      2  C   UNL     1      97.028 124.154 125.218  1.00  0.00     0.006 C 
BRANCH   2   3
ATOM      3  C   UNL     1      97.969 125.319 125.536  1.00  0.00     0.053 C 
BRANCH   3   4
ATOM      4  C   UNL     1      98.808 125.003 126.733  1.00  0.00     0.041 C 
ATOM      5  O   UNL     1      98.766 125.742 127.751  1.00  0.00    -0.550 OA
ATOM      6  O   UNL     1      99.603 123.863 126.744  1.00  0.00    -0.550 OA
ENDBRANCH   3   4
ENDBRANCH   2   3
ENDBRANCH   1   2
BRANCH   1   7
ATOM      7  C   UNL     1      95.572 123.211 123.378  1.00  0.00     0.000 C 
BRANCH   7   8
ATOM      8  C   UNL     1      94.086 123.024 123.703  1.00  0.00    -0.000 C 
BRANCH   8   9
ATOM      9  C   UNL     1      93.492 121.856 122.907  1.00  0.00    -0.003 C 
ATOM     10  C   UNL     1      93.190 122.266 121.469  1.00  0.00     0.004 C 
ENDBRANCH   8   9
ENDBRANCH   7   8
ENDBRANCH   1   7
TORSDOF 6
ENDMDL
MODEL 2
REMARK VINA RESULT:    -4.342      2.322      2.879
REMARK INTER + INTRA:          -5.992
REMARK INTER:                  -5.783
REMARK INTRA:                  -0.209
REMARK UNBOUND:                -0.127
REMARK SMILES CCCCCCCC(=O)[O-]
REMARK SMILES IDX 5 1 6 2 7 3 8 4 9 5 10 6 4 7 3 8 2 9 1 10
REMARK H PARENT
REMARK Flexibility Score: inf
ROOT
ATOM      1  C   UNL     1      97.198 124.044 125.165  1.00  0.00     0.000 C 
ENDROOT
BRANCH   1   2
ATOM      2  C   UNL     1      97.718 122.602 125.210  1.00  0.00     0.006 C 
BRANCH   2   3
ATOM      3  C   UNL     1      98.834 122.452 126.248  1.00  0.00     0.053 C 
BRANCH   3   4
ATOM      4  C   UNL     1      99.238 121.018 126.378  1.00  0.00     0.041 C 
ATOM      5  O   UNL     1     100.210 120.698 127.112  1.00  0.00    -0.550 OA
ATOM      6  O   UNL     1      98.513 120.029 125.727  1.00  0.00    -0.550 OA
ENDBRANCH   3   4
ENDBRANCH   2   3
ENDBRANCH   1   2
BRANCH   1   7
ATOM      7  C   UNL     1      96.129 124.211 124.079  1.00  0.00     0.000 C 
BRANCH   7   8
ATOM      8  C   UNL     1      95.632 122.850 123.581  1.00  0.00    -0.000 C 
BRANCH   8   9
ATOM      9  C   UNL     1      94.101 122.772 123.629  1.00  0.00    -0.003 C 
ATOM     10  C   UNL     1      93.539 122.177 122.342  1.00  0.00     0.004 C 
ENDBRANCH   8   9
ENDBRANCH   7   8
ENDBRANCH   1   7
TORSDOF 6
ENDMDL
MODEL 3
REMARK VINA RESULT:    -4.225     10.147     10.934
REMARK INTER + INTRA:          -5.834
REMARK INTER:                  -5.561
REMARK INTRA:                  -0.273
REMARK UNBOUND:                -0.127
REMARK SMILES CCCCCCCC(=O)[O-]
REMARK SMILES IDX 5 1 6 2 7 3 8 4 9 5 10 6 4 7 3 8 2 9 1 10
REMARK H PARENT
REMARK Flexibility Score: inf
ROOT
ATOM      1  C   UNL     1      86.372 124.671 130.218  1.00  0.00     0.000 C 
ENDROOT
BRANCH   1   2
ATOM      2  C   UNL     1      87.420 123.727 130.820  1.00  0.00     0.006 C 
BRANCH   2   3
ATOM      3  C   UNL     1      88.190 122.988 129.722  1.00  0.00     0.053 C 
BRANCH   3   4
ATOM      4  C   UNL     1      88.532 121.601 130.165  1.00  0.00     0.041 C 
ATOM      5  O   UNL     1      89.271 121.420 131.167  1.00  0.00    -0.550 OA
ATOM      6  O   UNL     1      87.996 120.507 129.498  1.00  0.00    -0.550 OA
ENDBRANCH   3   4
ENDBRANCH   2   3
ENDBRANCH   1   2
BRANCH   1   7
ATOM      7  C   UNL     1      86.705 125.006 128.760  1.00  0.00     0.000 C 
BRANCH   7   8
ATOM      8  C   UNL     1      85.430 125.257 127.947  1.00  0.00    -0.000 C 
BRANCH   8   9
ATOM      9  C   UNL     1      84.933 123.964 127.291  1.00  0.00    -0.003 C 
ATOM     10  C   UNL     1      83.967 124.262 126.148  1.00  0.00     0.004 C 
ENDBRANCH   8   9
ENDBRANCH   7   8
ENDBRANCH   1   7
TORSDOF 6
ENDMDL
MODEL 4
REMARK VINA RESULT:    -4.215     10.340     11.304
REMARK INTER + INTRA:          -5.820
REMARK INTER:                  -5.400
REMARK INTRA:                  -0.419
REMARK UNBOUND:                -0.127
REMARK SMILES CCCCCCCC(=O)[O-]
REMARK SMILES IDX 5 1 6 2 7 3 8 4 9 5 10 6 4 7 3 8 2 9 1 10
REMARK H PARENT
REMARK Flexibility Score: inf
ROOT
ATOM      1  C   UNL     1      86.906 124.394 131.542  1.00  0.00     0.000 C 
ENDROOT
BRANCH   1   2
ATOM      2  C   UNL     1      88.220 123.776 131.049  1.00  0.00     0.006 C 
BRANCH   2   3
ATOM      3  C   UNL     1      87.978 122.850 129.853  1.00  0.00     0.053 C 
BRANCH   3   4
ATOM      4  C   UNL     1      88.491 121.475 130.143  1.00  0.00     0.041 C 
ATOM      5  O   UNL     1      89.324 121.291 131.069  1.00  0.00    -0.550 OA
ATOM      6  O   UNL     1      88.015 120.388 129.421  1.00  0.00    -0.550 OA
ENDBRANCH   3   4
ENDBRANCH   2   3
ENDBRANCH   1   2
BRANCH   1   7
ATOM      7  C   UNL     1      85.746 124.042 130.604  1.00  0.00     0.000 C 
BRANCH   7   8
ATOM      8  C   UNL     1      85.083 125.308 130.049  1.00  0.00    -0.000 C 
BRANCH   8   9
ATOM      9  C   UNL     1      85.681 125.690 128.690  1.00  0.00    -0.003 C 
ATOM     10  C   UNL     1      85.016 124.914 127.557  1.00  0.00     0.004 C 
ENDBRANCH   8   9
ENDBRANCH   7   8
ENDBRANCH   1   7
TORSDOF 6
ENDMDL
MODEL 5
REMARK VINA RESULT:    -4.180      3.854      5.633
REMARK INTER + INTRA:          -5.772
REMARK INTER:                  -5.547
REMARK INTRA:                  -0.225
REMARK UNBOUND:                -0.127
REMARK SMILES CCCCCCCC(=O)[O-]
REMARK SMILES IDX 5 1 6 2 7 3 8 4 9 5 10 6 4 7 3 8 2 9 1 10
REMARK H PARENT
REMARK Flexibility Score: inf
ROOT
ATOM      1  C   UNL     1      97.105 124.030 125.052  1.00  0.00     0.000 C 
ENDROOT
BRANCH   1   2
ATOM      2  C   UNL     1      95.926 124.219 124.088  1.00  0.00     0.006 C 
BRANCH   2   3
ATOM      3  C   UNL     1      95.666 122.943 123.282  1.00  0.00     0.053 C 
BRANCH   3   4
ATOM      4  C   UNL     1      94.263 122.469 123.491  1.00  0.00     0.041 C 
ATOM      5  O   UNL     1      93.653 122.745 124.557  1.00  0.00    -0.550 OA
ATOM      6  O   UNL     1      93.612 121.761 122.489  1.00  0.00    -0.550 OA
ENDBRANCH   3   4
ENDBRANCH   2   3
ENDBRANCH   1   2
BRANCH   1   7
ATOM      7  C   UNL     1      97.580 122.573 125.063  1.00  0.00     0.000 C 
BRANCH   7   8
ATOM      8  C   UNL     1      98.694 122.365 126.096  1.00  0.00    -0.000 C 
BRANCH   8   9
ATOM      9  C   UNL     1      98.974 120.873 126.309  1.00  0.00    -0.003 C 
ATOM     10  C   UNL     1     100.463 120.568 126.177  1.00  0.00     0.004 C 
ENDBRANCH   8   9
ENDBRANCH   7   8
ENDBRANCH   1   7
TORSDOF 6
ENDMDL
MODEL 6
REMARK VINA RESULT:    -4.033     10.750     11.760
REMARK INTER + INTRA:          -5.574
REMARK INTER:                  -5.153
REMARK INTRA:                  -0.420
REMARK UNBOUND:                -0.127
REMARK SMILES CCCCCCCC(=O)[O-]
REMARK SMILES IDX 5 1 6 2 7 3 8 4 9 5 10 6 4 7 3 8 2 9 1 10
REMARK H PARENT
REMARK Flexibility Score: inf
ROOT
ATOM      1  C   UNL     1      87.759 123.898 130.819  1.00  0.00     0.000 C 
ENDROOT
BRANCH   1   2
ATOM      2  C   UNL     1      86.410 124.333 130.234  1.00  0.00     0.006 C 
BRANCH   2   3
ATOM      3  C   UNL     1      86.307 123.959 128.752  1.00  0.00     0.053 C 
BRANCH   3   4
ATOM      4  C   UNL     1      85.797 125.117 127.954  1.00  0.00     0.041 C 
ATOM      5  O   UNL     1      84.900 124.944 127.089  1.00  0.00    -0.550 OA
ATOM      6  O   UNL     1      86.280 126.396 128.200  1.00  0.00    -0.550 OA
ENDBRANCH   3   4
ENDBRANCH   2   3
ENDBRANCH   1   2
BRANCH   1   7
ATOM      7  C   UNL     1      88.263 122.614 130.149  1.00  0.00     0.000 C 
BRANCH   7   8
ATOM      8  C   UNL     1      88.566 121.531 131.191  1.00  0.00    -0.000 C 
BRANCH   8   9
ATOM      9  C   UNL     1      87.290 120.778 131.586  1.00  0.00    -0.003 C 
ATOM     10  C   UNL     1      86.745 119.965 130.415  1.00  0.00     0.004 C 
ENDBRANCH   8   9
ENDBRANCH   7   8
ENDBRANCH   1   7
TORSDOF 6
ENDMDL
MODEL 7
REMARK VINA RESULT:    -3.933     10.736     11.592
REMARK INTER + INTRA:          -5.439
REMARK INTER:                  -5.076
REMARK INTRA:                  -0.363
REMARK UNBOUND:                -0.127
REMARK SMILES CCCCCCCC(=O)[O-]
REMARK SMILES IDX 5 1 6 2 7 3 8 4 9 5 10 6 4 7 3 8 2 9 1 10
REMARK H PARENT
REMARK Flexibility Score: inf
ROOT
ATOM      1  C   UNL     1      87.921 123.776 131.160  1.00  0.00     0.000 C 
ENDROOT
BRANCH   1   2
ATOM      2  C   UNL     1      87.684 122.266 131.279  1.00  0.00     0.006 C 
BRANCH   2   3
ATOM      3  C   UNL     1      88.391 121.508 130.152  1.00  0.00     0.053 C 
BRANCH   3   4
ATOM      4  C   UNL     1      87.402 120.734 129.340  1.00  0.00     0.041 C 
ATOM      5  O   UNL     1      86.290 121.242 129.042  1.00  0.00    -0.550 OA
ATOM      6  O   UNL     1      87.726 119.467 128.872  1.00  0.00    -0.550 OA
ENDBRANCH   3   4
ENDBRANCH   2   3
ENDBRANCH   1   2
BRANCH   1   7
ATOM      7  C   UNL     1      86.695 124.482 130.571  1.00  0.00     0.000 C 
BRANCH   7   8
ATOM      8  C   UNL     1      86.900 124.797 129.086  1.00  0.00    -0.000 C 
BRANCH   8   9
ATOM      9  C   UNL     1      85.818 125.753 128.571  1.00  0.00    -0.003 C 
ATOM     10  C   UNL     1      84.593 125.740 129.481  1.00  0.00     0.004 C 
ENDBRANCH   8   9
ENDBRANCH   7   8
ENDBRANCH   1   7
TORSDOF 6
ENDMDL
MODEL 8
REMARK VINA RESULT:    -3.928     11.615     12.319
REMARK INTER + INTRA:          -5.432
REMARK INTER:                  -5.127
REMARK INTRA:                  -0.306
REMARK UNBOUND:                -0.127
REMARK SMILES CCCCCCCC(=O)[O-]
REMARK SMILES IDX 5 1 6 2 7 3 8 4 9 5 10 6 4 7 3 8 2 9 1 10
REMARK H PARENT
REMARK Flexibility Score: inf
ROOT
ATOM      1  C   UNL     1      83.134 123.725 126.423  1.00  0.00     0.000 C 
ENDROOT
BRANCH   1   2
ATOM      2  C   UNL     1      83.626 124.211 127.792  1.00  0.00     0.006 C 
BRANCH   2   3
ATOM      3  C   UNL     1      85.156 124.267 127.837  1.00  0.00     0.053 C 
BRANCH   3   4
ATOM      4  C   UNL     1      85.613 125.444 128.640  1.00  0.00     0.041 C 
ATOM      5  O   UNL     1      85.545 125.419 129.896  1.00  0.00    -0.550 OA
ATOM      6  O   UNL     1      86.159 126.551 128.002  1.00  0.00    -0.550 OA
ENDBRANCH   3   4
ENDBRANCH   2   3
ENDBRANCH   1   2
BRANCH   1   7
ATOM      7  C   UNL     1      84.133 124.086 125.318  1.00  0.00     0.000 C 
BRANCH   7   8
ATOM      8  C   UNL     1      84.536 122.845 124.513  1.00  0.00    -0.000 C 
BRANCH   8   9
ATOM      9  C   UNL     1      83.381 121.840 124.437  1.00  0.00    -0.003 C 
ATOM     10  C   UNL     1      82.990 121.560 122.989  1.00  0.00     0.004 C 
ENDBRANCH   8   9
ENDBRANCH   7   8
ENDBRANCH   1   7
TORSDOF 6
ENDMDL
MODEL 9
REMARK VINA RESULT:    -3.633     11.015     12.355
REMARK INTER + INTRA:          -5.034
REMARK INTER:                  -4.811
REMARK INTRA:                  -0.223
REMARK UNBOUND:                -0.127
REMARK SMILES CCCCCCCC(=O)[O-]
REMARK SMILES IDX 5 1 6 2 7 3 8 4 9 5 10 6 4 7 3 8 2 9 1 10
REMARK H PARENT
REMARK Flexibility Score: inf
ROOT
ATOM      1  C   UNL     1      86.173 125.208 129.698  1.00  0.00     0.000 C 
ENDROOT
BRANCH   1   2
ATOM      2  C   UNL     1      85.709 125.515 128.268  1.00  0.00     0.006 C 
BRANCH   2   3
ATOM      3  C   UNL     1      84.404 124.782 127.944  1.00  0.00     0.053 C 
BRANCH   3   4
ATOM      4  C   UNL     1      84.525 124.046 126.648  1.00  0.00     0.041 C 
ATOM      5  O   UNL     1      85.270 123.035 126.559  1.00  0.00    -0.550 OA
ATOM      6  O   UNL     1      83.778 124.448 125.548  1.00  0.00    -0.550 OA
ENDBRANCH   3   4
ENDBRANCH   2   3
ENDBRANCH   1   2
BRANCH   1   7
ATOM      7  C   UNL     1      86.625 123.749 129.830  1.00  0.00     0.000 C 
BRANCH   7   8
ATOM      8  C   UNL     1      87.893 123.640 130.684  1.00  0.00    -0.000 C 
BRANCH   8   9
ATOM      9  C   UNL     1      88.574 122.281 130.486  1.00  0.00    -0.003 C 
ATOM     10  C   UNL     1      87.892 121.197 131.314  1.00  0.00     0.004 C 
ENDBRANCH   8   9
ENDBRANCH   7   8
ENDBRANCH   1   7
TORSDOF 6
ENDMDL
