MODEL 1
REMARK VINA RESULT:    -4.928      0.000      0.000
REMARK INTER + INTRA:         -13.764
REMARK INTER:                 -10.689
REMARK INTRA:                  -3.075
REMARK UNBOUND:                -3.075
REMARK SMILES CCCCCCCCCCCCCCCCCCCCCC(=O)[O-]
REMARK SMILES IDX 12 1 11 2 10 3 9 4 8 5 7 6 6 7 5 8 4 9 3 10 2 11 1 12 13 13
REMARK SMILES IDX 14 14 15 15 16 16 17 17 18 18 19 19 20 20 21 21 22 22 23 23
REMARK SMILES IDX 24 24
REMARK H PARENT
REMARK Flexibility Score: inf
ROOT
ATOM      1  C   UNL     1      -2.237  10.982  -7.835  1.00  0.00     0.000 C 
ENDROOT
BRANCH   1   2
ATOM      2  C   UNL     1      -3.131  10.752  -6.605  1.00  0.00     0.000 C 
BRANCH   2   3
ATOM      3  C   UNL     1      -4.486  10.121  -6.968  1.00  0.00     0.000 C 
BRANCH   3   4
ATOM      4  C   UNL     1      -5.631  11.149  -7.001  1.00  0.00    -0.000 C 
BRANCH   4   5
ATOM      5  C   UNL     1      -5.735  11.919  -8.334  1.00  0.00    -0.000 C 
BRANCH   5   6
ATOM      6  C   UNL     1      -6.818  11.336  -9.259  1.00  0.00    -0.000 C 
BRANCH   6   7
ATOM      7  C   UNL     1      -6.235  10.717 -10.539  1.00  0.00    -0.000 C 
BRANCH   7   8
ATOM      8  C   UNL     1      -4.699  10.735 -10.559  1.00  0.00    -0.000 C 
BRANCH   8   9
ATOM      9  C   UNL     1      -4.138   9.312 -10.699  1.00  0.00    -0.000 C 
BRANCH   9  10
ATOM     10  C   UNL     1      -5.079   8.243 -10.123  1.00  0.00    -0.000 C 
BRANCH  10  11
ATOM     11  C   UNL     1      -5.227   7.025 -11.046  1.00  0.00    -0.003 C 
ATOM     12  C   UNL     1      -6.365   6.120 -10.583  1.00  0.00     0.004 C 
ENDBRANCH  10  11
ENDBRANCH   9  10
ENDBRANCH   8   9
ENDBRANCH   7   8
ENDBRANCH   6   7
ENDBRANCH   5   6
ENDBRANCH   4   5
ENDBRANCH   3   4
ENDBRANCH   2   3
ENDBRANCH   1   2
BRANCH   1  13
ATOM     13  C   UNL     1      -2.005  12.472  -8.131  1.00  0.00     0.000 C 
BRANCH  13  14
ATOM     14  C   UNL     1      -2.672  13.353  -7.067  1.00  0.00     0.000 C 
BRANCH  14  15
ATOM     15  C   UNL     1      -1.622  14.071  -6.207  1.00  0.00     0.000 C 
BRANCH  15  16
ATOM     16  C   UNL     1      -1.699  13.672  -4.725  1.00  0.00     0.000 C 
BRANCH  16  17
ATOM     17  C   UNL     1      -0.404  13.012  -4.219  1.00  0.00     0.000 C 
BRANCH  17  18
ATOM     18  C   UNL     1       0.836  13.892  -4.480  1.00  0.00     0.000 C 
BRANCH  18  19
ATOM     19  C   UNL     1       2.004  13.132  -5.131  1.00  0.00     0.000 C 
BRANCH  19  20
ATOM     20  C   UNL     1       1.602  11.742  -5.643  1.00  0.00     0.006 C 
BRANCH  20  21
ATOM     21  C   UNL     1       1.356  11.766  -7.153  1.00  0.00     0.053 C 
BRANCH  21  22
ATOM     22  C   UNL     1       2.078  10.638  -7.819  1.00  0.00     0.041 C 
ATOM     23  O   UNL     1       3.331  10.545  -7.729  1.00  0.00    -0.550 OA
ATOM     24  O   UNL     1       1.363   9.659  -8.498  1.00  0.00    -0.550 OA
ENDBRANCH  21  22
ENDBRANCH  20  21
ENDBRANCH  19  20
ENDBRANCH  18  19
ENDBRANCH  17  18
ENDBRANCH  16  17
ENDBRANCH  15  16
ENDBRANCH  14  15
ENDBRANCH  13  14
ENDBRANCH   1  13
TORSDOF 20
ENDMDL
MODEL 2
REMARK VINA RESULT:    -4.914      2.469      7.379
REMARK INTER + INTRA:         -13.734
REMARK INTER:                 -10.838
REMARK INTRA:                  -2.896
REMARK UNBOUND:                -3.075
REMARK SMILES CCCCCCCCCCCCCCCCCCCCCC(=O)[O-]
REMARK SMILES IDX 12 1 11 2 10 3 9 4 8 5 7 6 6 7 5 8 4 9 3 10 2 11 1 12 13 13
REMARK SMILES IDX 14 14 15 15 16 16 17 17 18 18 19 19 20 20 21 21 22 22 23 23
REMARK SMILES IDX 24 24
REMARK H PARENT
REMARK Flexibility Score: inf
ROOT
ATOM      1  C   UNL     1      -3.030  11.450  -6.903  1.00  0.00     0.000 C 
ENDROOT
BRANCH   1   2
ATOM      2  C   UNL     1      -2.938  10.308  -5.878  1.00  0.00     0.000 C 
BRANCH   2   3
ATOM      3  C   UNL     1      -2.082  10.677  -4.655  1.00  0.00     0.000 C 
BRANCH   3   4
ATOM      4  C   UNL     1      -1.921  12.198  -4.477  1.00  0.00    -0.000 C 
BRANCH   4   5
ATOM      5  C   UNL     1      -0.627  12.602  -3.740  1.00  0.00    -0.000 C 
BRANCH   5   6
ATOM      6  C   UNL     1       0.620  11.939  -4.350  1.00  0.00    -0.000 C 
BRANCH   6   7
ATOM      7  C   UNL     1       1.232  12.765  -5.492  1.00  0.00    -0.000 C 
BRANCH   7   8
ATOM      8  C   UNL     1       0.933  12.174  -6.878  1.00  0.00    -0.000 C 
BRANCH   8   9
ATOM      9  C   UNL     1       1.028  10.641  -6.849  1.00  0.00    -0.000 C 
BRANCH   9  10
ATOM     10  C   UNL     1       1.509  10.050  -8.184  1.00  0.00    -0.000 C 
BRANCH  10  11
ATOM     11  C   UNL     1       3.032  10.135  -8.354  1.00  0.00    -0.003 C 
ATOM     12  C   UNL     1       3.470   9.529  -9.684  1.00  0.00     0.004 C 
ENDBRANCH  10  11
ENDBRANCH   9  10
ENDBRANCH   8   9
ENDBRANCH   7   8
ENDBRANCH   6   7
ENDBRANCH   5   6
ENDBRANCH   4   5
ENDBRANCH   3   4
ENDBRANCH   2   3
ENDBRANCH   1   2
BRANCH   1  13
ATOM     13  C   UNL     1      -2.307  11.127  -8.220  1.00  0.00     0.000 C 
BRANCH  13  14
ATOM     14  C   UNL     1      -3.059  11.720  -9.417  1.00  0.00     0.000 C 
BRANCH  14  15
ATOM     15  C   UNL     1      -3.755  10.619 -10.232  1.00  0.00     0.000 C 
BRANCH  15  16
ATOM     16  C   UNL     1      -5.162  11.028 -10.696  1.00  0.00     0.000 C 
BRANCH  16  17
ATOM     17  C   UNL     1      -6.075  11.445  -9.530  1.00  0.00     0.000 C 
BRANCH  17  18
ATOM     18  C   UNL     1      -6.886  10.257  -8.972  1.00  0.00     0.000 C 
BRANCH  18  19
ATOM     19  C   UNL     1      -6.150   9.472  -7.873  1.00  0.00     0.000 C 
BRANCH  19  20
ATOM     20  C   UNL     1      -5.826   8.030  -8.282  1.00  0.00     0.006 C 
BRANCH  20  21
ATOM     21  C   UNL     1      -6.354   7.729  -9.688  1.00  0.00     0.053 C 
BRANCH  21  22
ATOM     22  C   UNL     1      -5.308   7.035 -10.502  1.00  0.00     0.041 C 
ATOM     23  O   UNL     1      -5.643   6.252 -11.430  1.00  0.00    -0.550 OA
ATOM     24  O   UNL     1      -3.962   7.292 -10.271  1.00  0.00    -0.550 OA
ENDBRANCH  21  22
ENDBRANCH  20  21
ENDBRANCH  19  20
ENDBRANCH  18  19
ENDBRANCH  17  18
ENDBRANCH  16  17
ENDBRANCH  15  16
ENDBRANCH  14  15
ENDBRANCH  13  14
ENDBRANCH   1  13
TORSDOF 20
ENDMDL
MODEL 3
REMARK VINA RESULT:    -4.842      1.600      2.785
REMARK INTER + INTRA:         -13.577
REMARK INTER:                 -10.062
REMARK INTRA:                  -3.515
REMARK UNBOUND:                -3.075
REMARK SMILES CCCCCCCCCCCCCCCCCCCCCC(=O)[O-]
REMARK SMILES IDX 12 1 11 2 10 3 9 4 8 5 7 6 6 7 5 8 4 9 3 10 2 11 1 12 13 13
REMARK SMILES IDX 14 14 15 15 16 16 17 17 18 18 19 19 20 20 21 21 22 22 23 23
REMARK SMILES IDX 24 24
REMARK H PARENT
REMARK Flexibility Score: inf
ROOT
ATOM      1  C   UNL     1      -2.394  10.410  -5.051  1.00  0.00     0.000 C 
ENDROOT
BRANCH   1   2
ATOM      2  C   UNL     1      -3.366  10.669  -6.214  1.00  0.00     0.000 C 
BRANCH   2   3
ATOM      3  C   UNL     1      -4.821  10.834  -5.744  1.00  0.00     0.000 C 
BRANCH   3   4
ATOM      4  C   UNL     1      -5.409  12.211  -6.102  1.00  0.00    -0.000 C 
BRANCH   4   5
ATOM      5  C   UNL     1      -4.562  13.001  -7.122  1.00  0.00    -0.000 C 
BRANCH   5   6
ATOM      6  C   UNL     1      -5.309  13.224  -8.449  1.00  0.00    -0.000 C 
BRANCH   6   7
ATOM      7  C   UNL     1      -6.674  12.518  -8.486  1.00  0.00    -0.000 C 
BRANCH   7   8
ATOM      8  C   UNL     1      -6.756  11.446  -9.583  1.00  0.00    -0.000 C 
BRANCH   8   9
ATOM      9  C   UNL     1      -6.291  10.083  -9.050  1.00  0.00    -0.000 C 
BRANCH   9  10
ATOM     10  C   UNL     1      -5.191   9.450  -9.916  1.00  0.00    -0.000 C 
BRANCH  10  11
ATOM     11  C   UNL     1      -4.332  10.496 -10.640  1.00  0.00    -0.003 C 
ATOM     12  C   UNL     1      -3.062  10.804  -9.853  1.00  0.00     0.004 C 
ENDBRANCH  10  11
ENDBRANCH   9  10
ENDBRANCH   8   9
ENDBRANCH   7   8
ENDBRANCH   6   7
ENDBRANCH   5   6
ENDBRANCH   4   5
ENDBRANCH   3   4
ENDBRANCH   2   3
ENDBRANCH   1   2
BRANCH   1  13
ATOM     13  C   UNL     1      -2.692  11.282  -3.821  1.00  0.00     0.000 C 
BRANCH  13  14
ATOM     14  C   UNL     1      -1.968  12.630  -3.916  1.00  0.00     0.000 C 
BRANCH  14  15
ATOM     15  C   UNL     1      -0.481  12.435  -4.248  1.00  0.00     0.000 C 
BRANCH  15  16
ATOM     16  C   UNL     1       0.006  13.381  -5.357  1.00  0.00     0.000 C 
BRANCH  16  17
ATOM     17  C   UNL     1      -1.055  13.616  -6.446  1.00  0.00     0.000 C 
BRANCH  17  18
ATOM     18  C   UNL     1      -0.818  12.733  -7.688  1.00  0.00     0.000 C 
BRANCH  18  19
ATOM     19  C   UNL     1       0.573  12.078  -7.721  1.00  0.00     0.000 C 
BRANCH  19  20
ATOM     20  C   UNL     1       0.538  10.582  -7.379  1.00  0.00     0.006 C 
BRANCH  20  21
ATOM     21  C   UNL     1       1.387   9.776  -8.365  1.00  0.00     0.053 C 
BRANCH  21  22
ATOM     22  C   UNL     1       2.833  10.130  -8.222  1.00  0.00     0.041 C 
ATOM     23  O   UNL     1       3.626   9.961  -9.186  1.00  0.00    -0.550 OA
ATOM     24  O   UNL     1       3.298  10.696  -7.041  1.00  0.00    -0.550 OA
ENDBRANCH  21  22
ENDBRANCH  20  21
ENDBRANCH  19  20
ENDBRANCH  18  19
ENDBRANCH  17  18
ENDBRANCH  16  17
ENDBRANCH  15  16
ENDBRANCH  14  15
ENDBRANCH  13  14
ENDBRANCH   1  13
TORSDOF 20
ENDMDL
MODEL 4
REMARK VINA RESULT:    -4.818      1.360      3.051
REMARK INTER + INTRA:         -13.527
REMARK INTER:                 -10.289
REMARK INTRA:                  -3.238
REMARK UNBOUND:                -3.075
REMARK SMILES CCCCCCCCCCCCCCCCCCCCCC(=O)[O-]
REMARK SMILES IDX 12 1 11 2 10 3 9 4 8 5 7 6 6 7 5 8 4 9 3 10 2 11 1 12 13 13
REMARK SMILES IDX 14 14 15 15 16 16 17 17 18 18 19 19 20 20 21 21 22 22 23 23
REMARK SMILES IDX 24 24
REMARK H PARENT
REMARK Flexibility Score: inf
ROOT
ATOM      1  C   UNL     1      -2.928  10.741  -9.025  1.00  0.00     0.000 C 
ENDROOT
BRANCH   1   2
ATOM      2  C   UNL     1      -3.776  10.624 -10.301  1.00  0.00     0.000 C 
BRANCH   2   3
ATOM      3  C   UNL     1      -4.613   9.335 -10.341  1.00  0.00     0.000 C 
BRANCH   3   4
ATOM      4  C   UNL     1      -6.105   9.584 -10.056  1.00  0.00    -0.000 C 
BRANCH   4   5
ATOM      5  C   UNL     1      -6.534  11.054 -10.243  1.00  0.00    -0.000 C 
BRANCH   5   6
ATOM      6  C   UNL     1      -7.019  11.689  -8.927  1.00  0.00    -0.000 C 
BRANCH   6   7
ATOM      7  C   UNL     1      -6.321  13.024  -8.621  1.00  0.00    -0.000 C 
BRANCH   7   8
ATOM      8  C   UNL     1      -5.540  12.994  -7.299  1.00  0.00    -0.000 C 
BRANCH   8   9
ATOM      9  C   UNL     1      -5.650  11.616  -6.630  1.00  0.00    -0.000 C 
BRANCH   9  10
ATOM     10  C   UNL     1      -4.524  11.355  -5.618  1.00  0.00    -0.000 C 
BRANCH  10  11
ATOM     11  C   UNL     1      -4.392   9.870  -5.250  1.00  0.00    -0.003 C 
ATOM     12  C   UNL     1      -5.294   9.005  -6.126  1.00  0.00     0.004 C 
ENDBRANCH  10  11
ENDBRANCH   9  10
ENDBRANCH   8   9
ENDBRANCH   7   8
ENDBRANCH   6   7
ENDBRANCH   5   6
ENDBRANCH   4   5
ENDBRANCH   3   4
ENDBRANCH   2   3
ENDBRANCH   1   2
BRANCH   1  13
ATOM     13  C   UNL     1      -2.276  12.124  -8.867  1.00  0.00     0.000 C 
BRANCH  13  14
ATOM     14  C   UNL     1      -1.530  12.228  -7.531  1.00  0.00     0.000 C 
BRANCH  14  15
ATOM     15  C   UNL     1      -1.904  13.520  -6.790  1.00  0.00     0.000 C 
BRANCH  15  16
ATOM     16  C   UNL     1      -0.933  13.846  -5.644  1.00  0.00     0.000 C 
BRANCH  16  17
ATOM     17  C   UNL     1      -0.449  12.590  -4.899  1.00  0.00     0.000 C 
BRANCH  17  18
ATOM     18  C   UNL     1       1.028  12.703  -4.468  1.00  0.00     0.000 C 
BRANCH  18  19
ATOM     19  C   UNL     1       1.934  11.625  -5.086  1.00  0.00     0.000 C 
BRANCH  19  20
ATOM     20  C   UNL     1       1.895  11.618  -6.619  1.00  0.00     0.006 C 
BRANCH  20  21
ATOM     21  C   UNL     1       3.056  10.801  -7.192  1.00  0.00     0.053 C 
BRANCH  21  22
ATOM     22  C   UNL     1       2.602  10.004  -8.374  1.00  0.00     0.041 C 
ATOM     23  O   UNL     1       1.398   9.651  -8.476  1.00  0.00    -0.550 OA
ATOM     24  O   UNL     1       3.498   9.694  -9.390  1.00  0.00    -0.550 OA
ENDBRANCH  21  22
ENDBRANCH  20  21
ENDBRANCH  19  20
ENDBRANCH  18  19
ENDBRANCH  17  18
ENDBRANCH  16  17
ENDBRANCH  15  16
ENDBRANCH  14  15
ENDBRANCH  13  14
ENDBRANCH   1  13
TORSDOF 20
ENDMDL
MODEL 5
REMARK VINA RESULT:    -4.808      1.292      2.435
REMARK INTER + INTRA:         -13.504
REMARK INTER:                 -10.191
REMARK INTRA:                  -3.313
REMARK UNBOUND:                -3.075
REMARK SMILES CCCCCCCCCCCCCCCCCCCCCC(=O)[O-]
REMARK SMILES IDX 12 1 11 2 10 3 9 4 8 5 7 6 6 7 5 8 4 9 3 10 2 11 1 12 13 13
REMARK SMILES IDX 14 14 15 15 16 16 17 17 18 18 19 19 20 20 21 21 22 22 23 23
REMARK SMILES IDX 24 24
REMARK H PARENT
REMARK Flexibility Score: inf
ROOT
ATOM      1  C   UNL     1      -3.330  10.384  -9.600  1.00  0.00     0.000 C 
ENDROOT
BRANCH   1   2
ATOM      2  C   UNL     1      -4.302  11.237 -10.431  1.00  0.00     0.000 C 
BRANCH   2   3
ATOM      3  C   UNL     1      -5.758  10.757 -10.316  1.00  0.00     0.000 C 
BRANCH   3   4
ATOM      4  C   UNL     1      -6.661  11.764  -9.582  1.00  0.00    -0.000 C 
BRANCH   4   5
ATOM      5  C   UNL     1      -7.123  11.282  -8.190  1.00  0.00    -0.000 C 
BRANCH   5   6
ATOM      6  C   UNL     1      -5.980  11.302  -7.159  1.00  0.00    -0.000 C 
BRANCH   6   7
ATOM      7  C   UNL     1      -5.573   9.894  -6.699  1.00  0.00    -0.000 C 
BRANCH   7   8
ATOM      8  C   UNL     1      -6.574   8.814  -7.137  1.00  0.00    -0.000 C 
BRANCH   8   9
ATOM      9  C   UNL     1      -5.923   7.834  -8.124  1.00  0.00    -0.000 C 
BRANCH   9  10
ATOM     10  C   UNL     1      -6.766   7.619  -9.391  1.00  0.00    -0.000 C 
BRANCH  10  11
ATOM     11  C   UNL     1      -6.096   6.668 -10.393  1.00  0.00    -0.003 C 
ATOM     12  C   UNL     1      -4.780   7.247 -10.903  1.00  0.00     0.004 C 
ENDBRANCH  10  11
ENDBRANCH   9  10
ENDBRANCH   8   9
ENDBRANCH   7   8
ENDBRANCH   6   7
ENDBRANCH   5   6
ENDBRANCH   4   5
ENDBRANCH   3   4
ENDBRANCH   2   3
ENDBRANCH   1   2
BRANCH   1  13
ATOM     13  C   UNL     1      -2.301  11.230  -8.832  1.00  0.00     0.000 C 
BRANCH  13  14
ATOM     14  C   UNL     1      -2.900  12.580  -8.423  1.00  0.00     0.000 C 
BRANCH  14  15
ATOM     15  C   UNL     1      -2.368  13.027  -7.053  1.00  0.00     0.000 C 
BRANCH  15  16
ATOM     16  C   UNL     1      -2.549  11.952  -5.969  1.00  0.00     0.000 C 
BRANCH  16  17
ATOM     17  C   UNL     1      -1.210  11.453  -5.398  1.00  0.00     0.000 C 
BRANCH  17  18
ATOM     18  C   UNL     1      -0.088  12.501  -5.547  1.00  0.00     0.000 C 
BRANCH  18  19
ATOM     19  C   UNL     1       1.181  11.953  -6.221  1.00  0.00     0.000 C 
BRANCH  19  20
ATOM     20  C   UNL     1       1.008  11.730  -7.729  1.00  0.00     0.006 C 
BRANCH  20  21
ATOM     21  C   UNL     1       1.200  10.254  -8.088  1.00  0.00     0.053 C 
BRANCH  21  22
ATOM     22  C   UNL     1       2.588  10.013  -8.591  1.00  0.00     0.041 C 
ATOM     23  O   UNL     1       3.575  10.518  -7.994  1.00  0.00    -0.550 OA
ATOM     24  O   UNL     1       2.796   9.189  -9.690  1.00  0.00    -0.550 OA
ENDBRANCH  21  22
ENDBRANCH  20  21
ENDBRANCH  19  20
ENDBRANCH  18  19
ENDBRANCH  17  18
ENDBRANCH  16  17
ENDBRANCH  15  16
ENDBRANCH  14  15
ENDBRANCH  13  14
ENDBRANCH   1  13
TORSDOF 20
ENDMDL
MODEL 6
REMARK VINA RESULT:    -4.785      1.540      2.377
REMARK INTER + INTRA:         -13.455
REMARK INTER:                  -9.971
REMARK INTRA:                  -3.484
REMARK UNBOUND:                -3.075
REMARK SMILES CCCCCCCCCCCCCCCCCCCCCC(=O)[O-]
REMARK SMILES IDX 12 1 11 2 10 3 9 4 8 5 7 6 6 7 5 8 4 9 3 10 2 11 1 12 13 13
REMARK SMILES IDX 14 14 15 15 16 16 17 17 18 18 19 19 20 20 21 21 22 22 23 23
REMARK SMILES IDX 24 24
REMARK H PARENT
REMARK Flexibility Score: inf
ROOT
ATOM      1  C   UNL     1      -4.163  10.237  -6.034  1.00  0.00     0.000 C 
ENDROOT
BRANCH   1   2
ATOM      2  C   UNL     1      -5.351  11.022  -5.455  1.00  0.00     0.000 C 
BRANCH   2   3
ATOM      3  C   UNL     1      -6.165  11.749  -6.538  1.00  0.00     0.000 C 
BRANCH   3   4
ATOM      4  C   UNL     1      -5.458  13.009  -7.069  1.00  0.00    -0.000 C 
BRANCH   4   5
ATOM      5  C   UNL     1      -5.225  12.992  -8.594  1.00  0.00    -0.000 C 
BRANCH   5   6
ATOM      6  C   UNL     1      -6.171  12.015  -9.316  1.00  0.00    -0.000 C 
BRANCH   6   7
ATOM      7  C   UNL     1      -5.431  11.082 -10.287  1.00  0.00    -0.000 C 
BRANCH   7   8
ATOM      8  C   UNL     1      -4.052  10.653  -9.762  1.00  0.00    -0.000 C 
BRANCH   8   9
ATOM      9  C   UNL     1      -3.812   9.157 -10.017  1.00  0.00    -0.000 C 
BRANCH   9  10
ATOM     10  C   UNL     1      -5.094   8.408 -10.412  1.00  0.00    -0.000 C 
BRANCH  10  11
ATOM     11  C   UNL     1      -5.584   7.455  -9.313  1.00  0.00    -0.003 C 
ATOM     12  C   UNL     1      -6.298   8.219  -8.202  1.00  0.00     0.004 C 
ENDBRANCH  10  11
ENDBRANCH   9  10
ENDBRANCH   8   9
ENDBRANCH   7   8
ENDBRANCH   6   7
ENDBRANCH   5   6
ENDBRANCH   4   5
ENDBRANCH   3   4
ENDBRANCH   2   3
ENDBRANCH   1   2
BRANCH   1  13
ATOM     13  C   UNL     1      -2.861  10.462  -5.247  1.00  0.00     0.000 C 
BRANCH  13  14
ATOM     14  C   UNL     1      -3.016  11.618  -4.252  1.00  0.00     0.000 C 
BRANCH  14  15
ATOM     15  C   UNL     1      -1.993  12.729  -4.534  1.00  0.00     0.000 C 
BRANCH  15  16
ATOM     16  C   UNL     1      -2.106  13.288  -5.961  1.00  0.00     0.000 C 
BRANCH  16  17
ATOM     17  C   UNL     1      -0.785  13.190  -6.744  1.00  0.00     0.000 C 
BRANCH  17  18
ATOM     18  C   UNL     1      -0.967  12.484  -8.104  1.00  0.00     0.000 C 
BRANCH  18  19
ATOM     19  C   UNL     1      -0.756  10.962  -8.039  1.00  0.00     0.000 C 
BRANCH  19  20
ATOM     20  C   UNL     1       0.527  10.566  -7.297  1.00  0.00     0.006 C 
BRANCH  20  21
ATOM     21  C   UNL     1       1.416   9.682  -8.176  1.00  0.00     0.053 C 
BRANCH  21  22
ATOM     22  C   UNL     1       2.827  10.181  -8.162  1.00  0.00     0.041 C 
ATOM     23  O   UNL     1       3.283  10.764  -7.143  1.00  0.00    -0.550 OA
ATOM     24  O   UNL     1       3.654   9.958  -9.255  1.00  0.00    -0.550 OA
ENDBRANCH  21  22
ENDBRANCH  20  21
ENDBRANCH  19  20
ENDBRANCH  18  19
ENDBRANCH  17  18
ENDBRANCH  16  17
ENDBRANCH  15  16
ENDBRANCH  14  15
ENDBRANCH  13  14
ENDBRANCH   1  13
TORSDOF 20
ENDMDL
MODEL 7
REMARK VINA RESULT:    -4.781      1.316      2.142
REMARK INTER + INTRA:         -13.447
REMARK INTER:                 -10.729
REMARK INTRA:                  -2.718
REMARK UNBOUND:                -3.075
REMARK SMILES CCCCCCCCCCCCCCCCCCCCCC(=O)[O-]
REMARK SMILES IDX 12 1 11 2 10 3 9 4 8 5 7 6 6 7 5 8 4 9 3 10 2 11 1 12 13 13
REMARK SMILES IDX 14 14 15 15 16 16 17 17 18 18 19 19 20 20 21 21 22 22 23 23
REMARK SMILES IDX 24 24
REMARK H PARENT
REMARK Flexibility Score: inf
ROOT
ATOM      1  C   UNL     1      -2.856  10.805  -7.189  1.00  0.00     0.000 C 
ENDROOT
BRANCH   1   2
ATOM      2  C   UNL     1      -3.019  12.208  -7.795  1.00  0.00     0.000 C 
BRANCH   2   3
ATOM      3  C   UNL     1      -3.957  12.222  -9.014  1.00  0.00     0.000 C 
BRANCH   3   4
ATOM      4  C   UNL     1      -5.323  12.861  -8.706  1.00  0.00    -0.000 C 
BRANCH   4   5
ATOM      5  C   UNL     1      -6.517  11.912  -8.942  1.00  0.00    -0.000 C 
BRANCH   5   6
ATOM      6  C   UNL     1      -6.193  10.814  -9.971  1.00  0.00    -0.000 C 
BRANCH   6   7
ATOM      7  C   UNL     1      -6.627   9.417  -9.503  1.00  0.00    -0.000 C 
BRANCH   7   8
ATOM      8  C   UNL     1      -5.560   8.721  -8.644  1.00  0.00    -0.000 C 
BRANCH   8   9
ATOM      9  C   UNL     1      -5.226   7.332  -9.207  1.00  0.00    -0.000 C 
BRANCH   9  10
ATOM     10  C   UNL     1      -4.796   7.376 -10.682  1.00  0.00    -0.000 C 
BRANCH  10  11
ATOM     11  C   UNL     1      -5.463   6.280 -11.525  1.00  0.00    -0.003 C 
ATOM     12  C   UNL     1      -6.649   5.665 -10.787  1.00  0.00     0.004 C 
ENDBRANCH  10  11
ENDBRANCH   9  10
ENDBRANCH   8   9
ENDBRANCH   7   8
ENDBRANCH   6   7
ENDBRANCH   5   6
ENDBRANCH   4   5
ENDBRANCH   3   4
ENDBRANCH   2   3
ENDBRANCH   1   2
BRANCH   1  13
ATOM     13  C   UNL     1      -3.554  10.658  -5.828  1.00  0.00     0.000 C 
BRANCH  13  14
ATOM     14  C   UNL     1      -2.565  10.198  -4.752  1.00  0.00     0.000 C 
BRANCH  14  15
ATOM     15  C   UNL     1      -2.287  11.321  -3.742  1.00  0.00     0.000 C 
BRANCH  15  16
ATOM     16  C   UNL     1      -0.911  11.975  -3.948  1.00  0.00     0.000 C 
BRANCH  16  17
ATOM     17  C   UNL     1      -0.966  13.191  -4.889  1.00  0.00     0.000 C 
BRANCH  17  18
ATOM     18  C   UNL     1       0.183  13.182  -5.918  1.00  0.00     0.000 C 
BRANCH  18  19
ATOM     19  C   UNL     1       0.672  11.770  -6.282  1.00  0.00     0.000 C 
BRANCH  19  20
ATOM     20  C   UNL     1       0.651  11.501  -7.792  1.00  0.00     0.006 C 
BRANCH  20  21
ATOM     21  C   UNL     1       1.149  10.087  -8.102  1.00  0.00     0.053 C 
BRANCH  21  22
ATOM     22  C   UNL     1       2.624  10.093  -8.349  1.00  0.00     0.041 C 
ATOM     23  O   UNL     1       3.412  10.537  -7.472  1.00  0.00    -0.550 OA
ATOM     24  O   UNL     1       3.135   9.562  -9.527  1.00  0.00    -0.550 OA
ENDBRANCH  21  22
ENDBRANCH  20  21
ENDBRANCH  19  20
ENDBRANCH  18  19
ENDBRANCH  17  18
ENDBRANCH  16  17
ENDBRANCH  15  16
ENDBRANCH  14  15
ENDBRANCH  13  14
ENDBRANCH   1  13
TORSDOF 20
ENDMDL
MODEL 8
REMARK VINA RESULT:    -4.755      2.589      7.144
REMARK INTER + INTRA:         -13.388
REMARK INTER:                 -10.199
REMARK INTRA:                  -3.190
REMARK UNBOUND:                -3.075
REMARK SMILES CCCCCCCCCCCCCCCCCCCCCC(=O)[O-]
REMARK SMILES IDX 12 1 11 2 10 3 9 4 8 5 7 6 6 7 5 8 4 9 3 10 2 11 1 12 13 13
REMARK SMILES IDX 14 14 15 15 16 16 17 17 18 18 19 19 20 20 21 21 22 22 23 23
REMARK SMILES IDX 24 24
REMARK H PARENT
REMARK Flexibility Score: inf
ROOT
ATOM      1  C   UNL     1      -3.391  11.127  -9.812  1.00  0.00     0.000 C 
ENDROOT
BRANCH   1   2
ATOM      2  C   UNL     1      -2.874  10.485  -8.514  1.00  0.00     0.000 C 
BRANCH   2   3
ATOM      3  C   UNL     1      -1.488  11.011  -8.105  1.00  0.00     0.000 C 
BRANCH   3   4
ATOM      4  C   UNL     1      -1.402  12.548  -8.135  1.00  0.00    -0.000 C 
BRANCH   4   5
ATOM      5  C   UNL     1      -1.843  13.219  -6.817  1.00  0.00    -0.000 C 
BRANCH   5   6
ATOM      6  C   UNL     1      -0.974  12.783  -5.624  1.00  0.00    -0.000 C 
BRANCH   6   7
ATOM      7  C   UNL     1       0.276  13.659  -5.450  1.00  0.00    -0.000 C 
BRANCH   7   8
ATOM      8  C   UNL     1       1.530  12.841  -5.106  1.00  0.00    -0.000 C 
BRANCH   8   9
ATOM      9  C   UNL     1       1.414  11.410  -5.649  1.00  0.00    -0.000 C 
BRANCH   9  10
ATOM     10  C   UNL     1       2.395  11.129  -6.799  1.00  0.00    -0.000 C 
BRANCH  10  11
ATOM     11  C   UNL     1       1.931   9.980  -7.705  1.00  0.00    -0.003 C 
ATOM     12  C   UNL     1       2.880   9.796  -8.886  1.00  0.00     0.004 C 
ENDBRANCH  10  11
ENDBRANCH   9  10
ENDBRANCH   8   9
ENDBRANCH   7   8
ENDBRANCH   6   7
ENDBRANCH   5   6
ENDBRANCH   4   5
ENDBRANCH   3   4
ENDBRANCH   2   3
ENDBRANCH   1   2
BRANCH   1  13
ATOM     13  C   UNL     1      -4.856  11.580  -9.709  1.00  0.00     0.000 C 
BRANCH  13  14
ATOM     14  C   UNL     1      -5.002  12.743  -8.721  1.00  0.00     0.000 C 
BRANCH  14  15
ATOM     15  C   UNL     1      -6.441  12.841  -8.193  1.00  0.00     0.000 C 
BRANCH  15  16
ATOM     16  C   UNL     1      -6.821  11.659  -7.288  1.00  0.00     0.000 C 
BRANCH  16  17
ATOM     17  C   UNL     1      -5.699  11.279  -6.304  1.00  0.00     0.000 C 
BRANCH  17  18
ATOM     18  C   UNL     1      -5.632   9.758  -6.059  1.00  0.00     0.000 C 
BRANCH  18  19
ATOM     19  C   UNL     1      -6.540   8.943  -6.996  1.00  0.00     0.000 C 
BRANCH  19  20
ATOM     20  C   UNL     1      -5.757   8.187  -8.078  1.00  0.00     0.006 C 
BRANCH  20  21
ATOM     21  C   UNL     1      -6.408   8.368  -9.451  1.00  0.00     0.053 C 
BRANCH  21  22
ATOM     22  C   UNL     1      -5.680   7.570 -10.485  1.00  0.00     0.041 C 
ATOM     23  O   UNL     1      -4.601   7.999 -10.974  1.00  0.00    -0.550 OA
ATOM     24  O   UNL     1      -6.164   6.327 -10.874  1.00  0.00    -0.550 OA
ENDBRANCH  21  22
ENDBRANCH  20  21
ENDBRANCH  19  20
ENDBRANCH  18  19
ENDBRANCH  17  18
ENDBRANCH  16  17
ENDBRANCH  15  16
ENDBRANCH  14  15
ENDBRANCH  13  14
ENDBRANCH   1  13
TORSDOF 20
ENDMDL
MODEL 9
REMARK VINA RESULT:    -4.750      2.950      6.772
REMARK INTER + INTRA:         -13.379
REMARK INTER:                 -10.227
REMARK INTRA:                  -3.152
REMARK UNBOUND:                -3.075
REMARK SMILES CCCCCCCCCCCCCCCCCCCCCC(=O)[O-]
REMARK SMILES IDX 12 1 11 2 10 3 9 4 8 5 7 6 6 7 5 8 4 9 3 10 2 11 1 12 13 13
REMARK SMILES IDX 14 14 15 15 16 16 17 17 18 18 19 19 20 20 21 21 22 22 23 23
REMARK SMILES IDX 24 24
REMARK H PARENT
REMARK Flexibility Score: inf
ROOT
ATOM      1  C   UNL     1      -3.494  10.752  -6.207  1.00  0.00     0.000 C 
ENDROOT
BRANCH   1   2
ATOM      2  C   UNL     1      -2.587  10.307  -5.048  1.00  0.00     0.000 C 
BRANCH   2   3
ATOM      3  C   UNL     1      -2.699  11.227  -3.821  1.00  0.00     0.000 C 
BRANCH   3   4
ATOM      4  C   UNL     1      -2.644  12.720  -4.189  1.00  0.00    -0.000 C 
BRANCH   4   5
ATOM      5  C   UNL     1      -1.249  13.354  -3.998  1.00  0.00    -0.000 C 
BRANCH   5   6
ATOM      6  C   UNL     1      -0.460  13.429  -5.317  1.00  0.00    -0.000 C 
BRANCH   6   7
ATOM      7  C   UNL     1      -1.348  13.786  -6.520  1.00  0.00    -0.000 C 
BRANCH   7   8
ATOM      8  C   UNL     1      -1.097  12.878  -7.732  1.00  0.00    -0.000 C 
BRANCH   8   9
ATOM      9  C   UNL     1       0.264  12.175  -7.616  1.00  0.00    -0.000 C 
BRANCH   9  10
ATOM     10  C   UNL     1       0.204  10.693  -8.018  1.00  0.00    -0.000 C 
BRANCH  10  11
ATOM     11  C   UNL     1       1.389   9.884  -7.472  1.00  0.00    -0.003 C 
ATOM     12  C   UNL     1       2.646  10.122  -8.304  1.00  0.00     0.004 C 
ENDBRANCH  10  11
ENDBRANCH   9  10
ENDBRANCH   8   9
ENDBRANCH   7   8
ENDBRANCH   6   7
ENDBRANCH   5   6
ENDBRANCH   4   5
ENDBRANCH   3   4
ENDBRANCH   2   3
ENDBRANCH   1   2
BRANCH   1  13
ATOM     13  C   UNL     1      -4.988  10.699  -5.848  1.00  0.00     0.000 C 
BRANCH  13  14
ATOM     14  C   UNL     1      -5.687  12.012  -6.219  1.00  0.00     0.000 C 
BRANCH  14  15
ATOM     15  C   UNL     1      -4.885  12.784  -7.277  1.00  0.00     0.000 C 
BRANCH  15  16
ATOM     16  C   UNL     1      -5.635  12.906  -8.614  1.00  0.00     0.000 C 
BRANCH  16  17
ATOM     17  C   UNL     1      -6.220  11.565  -9.091  1.00  0.00     0.000 C 
BRANCH  17  18
ATOM     18  C   UNL     1      -5.643  11.132 -10.455  1.00  0.00     0.000 C 
BRANCH  18  19
ATOM     19  C   UNL     1      -4.232  10.526 -10.362  1.00  0.00     0.000 C 
BRANCH  19  20
ATOM     20  C   UNL     1      -4.178   9.271  -9.481  1.00  0.00     0.006 C 
BRANCH  20  21
ATOM     21  C   UNL     1      -3.930   8.019 -10.327  1.00  0.00     0.053 C 
BRANCH  21  22
ATOM     22  C   UNL     1      -5.224   7.350 -10.663  1.00  0.00     0.041 C 
ATOM     23  O   UNL     1      -6.286   7.694 -10.079  1.00  0.00    -0.550 OA
ATOM     24  O   UNL     1      -5.269   6.382 -11.658  1.00  0.00    -0.550 OA
ENDBRANCH  21  22
ENDBRANCH  20  21
ENDBRANCH  19  20
ENDBRANCH  18  19
ENDBRANCH  17  18
ENDBRANCH  16  17
ENDBRANCH  15  16
ENDBRANCH  14  15
ENDBRANCH  13  14
ENDBRANCH   1  13
TORSDOF 20
ENDMDL
