MODEL 1
REMARK VINA RESULT:    10.828      0.000      0.000
REMARK INTER + INTRA:          10.828
REMARK INTER:                  10.828
REMARK INTRA:                   0.000
REMARK UNBOUND:                 0.000
REMARK SMILES C=C1CCCC(C)(C)[C@@]12CC=C(C)CC2
REMARK SMILES IDX 13 1 12 2 11 3 10 4 9 5 15 6 14 7 2 8 1 9 3 10 4 11 5 12
REMARK SMILES IDX 6 13 7 14 8 15
REMARK H PARENT
REMARK Flexibility Score: inf
ROOT
ATOM      1  C   UNL     1     136.195 134.875 161.252  1.00  0.00     0.039 C 
ATOM      2  C   UNL     1     136.192 136.355 161.524  1.00  0.00    -0.077 C 
ATOM      3  C   UNL     1     137.343 136.960 161.860  1.00  0.00    -0.027 C 
ATOM      4  C   UNL     1     137.415 138.444 162.078  1.00  0.00     0.039 C 
ATOM      5  C   UNL     1     136.134 138.989 162.784  1.00  0.00    -0.000 C 
ATOM      6  C   UNL     1     134.960 138.616 161.812  1.00  0.00     0.017 C 
ATOM      7  C   UNL     1     134.880 137.111 161.443  1.00  0.00     0.031 C 
ATOM      8  C   UNL     1     136.007 138.330 164.182  1.00  0.00    -0.070 C 
ATOM      9  C   UNL     1     134.877 137.755 164.648  1.00  0.00     0.008 C 
ATOM     10  C   UNL     1     137.115 138.608 165.174  1.00  0.00     0.031 C 
ATOM     11  C   UNL     1     137.208 140.115 165.406  1.00  0.00     0.005 C 
ATOM     12  C   UNL     1     137.354 140.889 164.084  1.00  0.00     0.008 C 
ATOM     13  C   UNL     1     136.240 140.568 163.030  1.00  0.00    -0.026 C 
ATOM     14  C   UNL     1     134.892 141.142 163.549  1.00  0.00     0.012 C 
ATOM     15  C   UNL     1     136.598 141.365 161.747  1.00  0.00     0.012 C 
ENDROOT
TORSDOF 0
ENDMDL
