MODEL 1
REMARK VINA RESULT:    -3.490      0.000      0.000
REMARK INTER + INTRA:          -3.928
REMARK INTER:                  -3.898
REMARK INTRA:                  -0.030
REMARK UNBOUND:                -0.030
REMARK SMILES CCCC(=O)[O-]
REMARK SMILES IDX 3 1 4 2 5 3 6 4 2 5 1 6
REMARK H PARENT
REMARK Flexibility Score: inf
ROOT
ATOM      1  C   UNL     1       2.449  21.786 -19.530  1.00  0.00     0.052 C 
ENDROOT
BRANCH   1   2
ATOM      2  C   UNL     1       2.430  22.135 -18.073  1.00  0.00     0.041 C 
ATOM      3  O   UNL     1       3.246  22.975 -17.611  1.00  0.00    -0.550 OA
ATOM      4  O   UNL     1       1.532  21.507 -17.219  1.00  0.00    -0.550 OA
ENDBRANCH   1   2
BRANCH   1   5
ATOM      5  C   UNL     1       1.508  20.617 -19.846  1.00  0.00     0.003 C 
ATOM      6  C   UNL     1       2.256  19.398 -20.386  1.00  0.00     0.004 C 
ENDBRANCH   1   5
TORSDOF 2
ENDMDL
MODEL 2
REMARK VINA RESULT:    -3.399      2.543      3.226
REMARK INTER + INTRA:          -3.826
REMARK INTER:                  -3.790
REMARK INTRA:                  -0.036
REMARK UNBOUND:                -0.030
REMARK SMILES CCCC(=O)[O-]
REMARK SMILES IDX 3 1 4 2 5 3 6 4 2 5 1 6
REMARK H PARENT
REMARK Flexibility Score: inf
ROOT
ATOM      1  C   UNL     1       1.413  20.558 -19.860  1.00  0.00     0.052 C 
ENDROOT
BRANCH   1   2
ATOM      2  C   UNL     1       2.727  20.415 -20.563  1.00  0.00     0.041 C 
ATOM      3  O   UNL     1       3.331  21.432 -20.994  1.00  0.00    -0.550 OA
ATOM      4  O   UNL     1       3.270  19.153 -20.774  1.00  0.00    -0.550 OA
ENDBRANCH   1   2
BRANCH   1   5
ATOM      5  C   UNL     1       1.340  21.862 -19.055  1.00  0.00     0.003 C 
ATOM      6  C   UNL     1       1.691  21.656 -17.581  1.00  0.00     0.004 C 
ENDBRANCH   1   5
TORSDOF 2
ENDMDL
MODEL 3
REMARK VINA RESULT:    -3.296      2.129      3.308
REMARK INTER + INTRA:          -3.710
REMARK INTER:                  -3.659
REMARK INTRA:                  -0.052
REMARK UNBOUND:                -0.030
REMARK SMILES CCCC(=O)[O-]
REMARK SMILES IDX 3 1 4 2 5 3 6 4 2 5 1 6
REMARK H PARENT
REMARK Flexibility Score: inf
ROOT
ATOM      1  C   UNL     1       1.298  21.837 -18.966  1.00  0.00     0.052 C 
ENDROOT
BRANCH   1   2
ATOM      2  C   UNL     1       2.101  20.956 -19.873  1.00  0.00     0.041 C 
ATOM      3  O   UNL     1       1.873  19.719 -19.923  1.00  0.00    -0.550 OA
ATOM      4  O   UNL     1       3.125  21.497 -20.641  1.00  0.00    -0.550 OA
ENDBRANCH   1   2
BRANCH   1   5
ATOM      5  C   UNL     1       1.701  21.657 -17.498  1.00  0.00     0.003 C 
ATOM      6  C   UNL     1       2.935  22.479 -17.128  1.00  0.00     0.004 C 
ENDBRANCH   1   5
TORSDOF 2
ENDMDL
MODEL 4
REMARK VINA RESULT:    -3.287      2.156      3.293
REMARK INTER + INTRA:          -3.701
REMARK INTER:                  -3.695
REMARK INTRA:                  -0.007
REMARK UNBOUND:                -0.030
REMARK SMILES CCCC(=O)[O-]
REMARK SMILES IDX 3 1 4 2 5 3 6 4 2 5 1 6
REMARK H PARENT
REMARK Flexibility Score: inf
ROOT
ATOM      1  C   UNL     1       1.584  21.706 -17.394  1.00  0.00     0.052 C 
ENDROOT
BRANCH   1   2
ATOM      2  C   UNL     1       1.398  21.931 -18.863  1.00  0.00     0.041 C 
ATOM      3  O   UNL     1       1.513  23.087 -19.348  1.00  0.00    -0.550 OA
ATOM      4  O   UNL     1       1.064  20.867 -19.693  1.00  0.00    -0.550 OA
ENDBRANCH   1   2
BRANCH   1   5
ATOM      5  C   UNL     1       2.910  22.293 -16.894  1.00  0.00     0.003 C 
ATOM      6  C   UNL     1       3.197  21.924 -15.439  1.00  0.00     0.004 C 
ENDBRANCH   1   5
TORSDOF 2
ENDMDL
MODEL 5
REMARK VINA RESULT:    -3.265     13.616     14.194
REMARK INTER + INTRA:          -3.676
REMARK INTER:                  -3.667
REMARK INTRA:                  -0.009
REMARK UNBOUND:                -0.030
REMARK SMILES CCCC(=O)[O-]
REMARK SMILES IDX 3 1 4 2 5 3 6 4 2 5 1 6
REMARK H PARENT
REMARK Flexibility Score: inf
ROOT
ATOM      1  C   UNL     1      -6.060  31.870 -16.881  1.00  0.00     0.052 C 
ENDROOT
BRANCH   1   2
ATOM      2  C   UNL     1      -7.346  32.430 -16.354  1.00  0.00     0.041 C 
ATOM      3  O   UNL     1      -7.674  32.244 -15.153  1.00  0.00    -0.550 OA
ATOM      4  O   UNL     1      -8.198  33.129 -17.200  1.00  0.00    -0.550 OA
ENDBRANCH   1   2
BRANCH   1   5
ATOM      5  C   UNL     1      -5.978  31.978 -18.408  1.00  0.00     0.003 C 
ATOM      6  C   UNL     1      -4.652  31.452 -18.958  1.00  0.00     0.004 C 
ENDBRANCH   1   5
TORSDOF 2
ENDMDL
MODEL 6
REMARK VINA RESULT:    -3.237      8.750      9.759
REMARK INTER + INTRA:          -3.644
REMARK INTER:                  -3.607
REMARK INTRA:                  -0.038
REMARK UNBOUND:                -0.030
REMARK SMILES CCCC(=O)[O-]
REMARK SMILES IDX 3 1 4 2 5 3 6 4 2 5 1 6
REMARK H PARENT
REMARK Flexibility Score: inf
ROOT
ATOM      1  C   UNL     1       8.421  23.903 -11.967  1.00  0.00     0.052 C 
ENDROOT
BRANCH   1   2
ATOM      2  C   UNL     1       7.445  24.877 -12.554  1.00  0.00     0.041 C 
ATOM      3  O   UNL     1       7.847  25.976 -13.019  1.00  0.00    -0.550 OA
ATOM      4  O   UNL     1       6.087  24.585 -12.557  1.00  0.00    -0.550 OA
ENDBRANCH   1   2
BRANCH   1   5
ATOM      5  C   UNL     1       8.540  24.067 -10.447  1.00  0.00     0.003 C 
ATOM      6  C   UNL     1       7.800  22.969  -9.683  1.00  0.00     0.004 C 
ENDBRANCH   1   5
TORSDOF 2
ENDMDL
MODEL 7
REMARK VINA RESULT:    -3.105      9.559     10.381
REMARK INTER + INTRA:          -3.498
REMARK INTER:                  -3.488
REMARK INTRA:                  -0.010
REMARK UNBOUND:                -0.030
REMARK SMILES CCCC(=O)[O-]
REMARK SMILES IDX 3 1 4 2 5 3 6 4 2 5 1 6
REMARK H PARENT
REMARK Flexibility Score: inf
ROOT
ATOM      1  C   UNL     1       8.124  23.928 -11.827  1.00  0.00     0.052 C 
ENDROOT
BRANCH   1   2
ATOM      2  C   UNL     1       9.238  24.465 -12.671  1.00  0.00     0.041 C 
ATOM      3  O   UNL     1      10.036  25.318 -12.202  1.00  0.00    -0.550 OA
ATOM      4  O   UNL     1       9.376  24.047 -13.989  1.00  0.00    -0.550 OA
ENDBRANCH   1   2
BRANCH   1   5
ATOM      5  C   UNL     1       8.471  23.973 -10.334  1.00  0.00     0.003 C 
ATOM      6  C   UNL     1       7.744  22.891  -9.535  1.00  0.00     0.004 C 
ENDBRANCH   1   5
TORSDOF 2
ENDMDL
MODEL 8
REMARK VINA RESULT:    -3.096      8.631      9.806
REMARK INTER + INTRA:          -3.488
REMARK INTER:                  -3.478
REMARK INTRA:                  -0.010
REMARK UNBOUND:                -0.030
REMARK SMILES CCCC(=O)[O-]
REMARK SMILES IDX 3 1 4 2 5 3 6 4 2 5 1 6
REMARK H PARENT
REMARK Flexibility Score: inf
ROOT
ATOM      1  C   UNL     1       6.887  26.992 -13.161  1.00  0.00     0.052 C 
ENDROOT
BRANCH   1   2
ATOM      2  C   UNL     1       7.086  25.525 -12.932  1.00  0.00     0.041 C 
ATOM      3  O   UNL     1       8.214  25.000 -13.125  1.00  0.00    -0.550 OA
ATOM      4  O   UNL     1       6.016  24.731 -12.537  1.00  0.00    -0.550 OA
ENDBRANCH   1   2
BRANCH   1   5
ATOM      5  C   UNL     1       8.213  27.760 -13.105  1.00  0.00     0.003 C 
ATOM      6  C   UNL     1       8.011  29.250 -12.831  1.00  0.00     0.004 C 
ENDBRANCH   1   5
TORSDOF 2
ENDMDL
MODEL 9
REMARK VINA RESULT:    -2.992      8.787      9.628
REMARK INTER + INTRA:          -3.372
REMARK INTER:                  -3.302
REMARK INTRA:                  -0.070
REMARK UNBOUND:                -0.030
REMARK SMILES CCCC(=O)[O-]
REMARK SMILES IDX 3 1 4 2 5 3 6 4 2 5 1 6
REMARK H PARENT
REMARK Flexibility Score: inf
ROOT
ATOM      1  C   UNL     1       7.684  24.354 -11.894  1.00  0.00     0.052 C 
ENDROOT
BRANCH   1   2
ATOM      2  C   UNL     1       9.061  24.426 -12.480  1.00  0.00     0.041 C 
ATOM      3  O   UNL     1       9.984  25.016 -11.860  1.00  0.00    -0.550 OA
ATOM      4  O   UNL     1       9.316  23.870 -13.727  1.00  0.00    -0.550 OA
ENDBRANCH   1   2
BRANCH   1   5
ATOM      5  C   UNL     1       6.648  25.039 -12.793  1.00  0.00     0.003 C 
ATOM      6  C   UNL     1       6.984  26.508 -13.052  1.00  0.00     0.004 C 
ENDBRANCH   1   5
TORSDOF 2
ENDMDL
