MODEL 1
REMARK VINA RESULT:    -4.572      0.000      0.000
REMARK INTER + INTRA:          -7.210
REMARK INTER:                  -6.977
REMARK INTRA:                  -0.234
REMARK UNBOUND:                -0.234
REMARK SMILES O=C([O-])CCCCCCCCC(=O)[O-]
REMARK SMILES IDX 7 1 6 2 5 3 4 4 2 5 1 6 3 7 8 8 9 9 10 10 11 11 12 12 13 13
REMARK SMILES IDX 14 14
REMARK H PARENT
REMARK Flexibility Score: inf
ROOT
ATOM      1  C   UNL     1      -7.453  -2.067 -11.491  1.00  0.00     0.000 C 
ENDROOT
BRANCH   1   2
ATOM      2  C   UNL     1      -8.369  -1.995 -12.726  1.00  0.00     0.000 C 
BRANCH   2   3
ATOM      3  C   UNL     1      -7.987  -3.008 -13.820  1.00  0.00     0.006 C 
BRANCH   3   4
ATOM      4  C   UNL     1      -9.160  -3.881 -14.297  1.00  0.00     0.053 C 
BRANCH   4   5
ATOM      5  C   UNL     1      -9.145  -4.103 -15.779  1.00  0.00     0.041 C 
ATOM      6  O   UNL     1      -8.396  -4.983 -16.281  1.00  0.00    -0.550 OA
ATOM      7  O   UNL     1      -9.930  -3.315 -16.611  1.00  0.00    -0.550 OA
ENDBRANCH   4   5
ENDBRANCH   3   4
ENDBRANCH   2   3
ENDBRANCH   1   2
BRANCH   1   8
ATOM      8  C   UNL     1      -7.004  -0.681 -11.006  1.00  0.00     0.000 C 
BRANCH   8   9
ATOM      9  C   UNL     1      -6.561  -0.685  -9.535  1.00  0.00     0.000 C 
BRANCH   9  10
ATOM     10  C   UNL     1      -7.259   0.435  -8.749  1.00  0.00     0.006 C 
BRANCH  10  11
ATOM     11  C   UNL     1      -6.449   1.739  -8.752  1.00  0.00     0.053 C 
BRANCH  11  12
ATOM     12  C   UNL     1      -6.971   2.715  -9.761  1.00  0.00     0.041 C 
ATOM     13  O   UNL     1      -6.448   2.788 -10.903  1.00  0.00    -0.550 OA
ATOM     14  O   UNL     1      -8.060   3.520  -9.449  1.00  0.00    -0.550 OA
ENDBRANCH  11  12
ENDBRANCH  10  11
ENDBRANCH   9  10
ENDBRANCH   8   9
ENDBRANCH   1   8
TORSDOF 9
ENDMDL
MODEL 2
REMARK VINA RESULT:    -4.539      1.016      7.674
REMARK INTER + INTRA:          -7.160
REMARK INTER:                  -6.839
REMARK INTRA:                  -0.322
REMARK UNBOUND:                -0.234
REMARK SMILES O=C([O-])CCCCCCCCC(=O)[O-]
REMARK SMILES IDX 7 1 6 2 5 3 4 4 2 5 1 6 3 7 8 8 9 9 10 10 11 11 12 12 13 13
REMARK SMILES IDX 14 14
REMARK H PARENT
REMARK Flexibility Score: inf
ROOT
ATOM      1  C   UNL     1      -7.395  -2.050 -11.321  1.00  0.00     0.000 C 
ENDROOT
BRANCH   1   2
ATOM      2  C   UNL     1      -6.957  -0.625 -10.942  1.00  0.00     0.000 C 
BRANCH   2   3
ATOM      3  C   UNL     1      -6.634  -0.472  -9.444  1.00  0.00     0.006 C 
BRANCH   3   4
ATOM      4  C   UNL     1      -7.302   0.746  -8.784  1.00  0.00     0.053 C 
BRANCH   4   5
ATOM      5  C   UNL     1      -6.696   2.043  -9.224  1.00  0.00     0.041 C 
ATOM      6  O   UNL     1      -7.433   3.018  -9.526  1.00  0.00    -0.550 OA
ATOM      7  O   UNL     1      -5.316   2.167  -9.337  1.00  0.00    -0.550 OA
ENDBRANCH   4   5
ENDBRANCH   3   4
ENDBRANCH   2   3
ENDBRANCH   1   2
BRANCH   1   8
ATOM      8  C   UNL     1      -8.035  -2.120 -12.716  1.00  0.00     0.000 C 
BRANCH   8   9
ATOM      9  C   UNL     1      -7.112  -2.771 -13.757  1.00  0.00     0.000 C 
BRANCH   9  10
ATOM     10  C   UNL     1      -7.928  -3.460 -14.861  1.00  0.00     0.006 C 
BRANCH  10  11
ATOM     11  C   UNL     1      -9.358  -3.785 -14.408  1.00  0.00     0.053 C 
BRANCH  11  12
ATOM     12  C   UNL     1     -10.313  -3.811 -15.562  1.00  0.00     0.041 C 
ATOM     13  O   UNL     1      -9.941  -3.432 -16.702  1.00  0.00    -0.550 OA
ATOM     14  O   UNL     1     -11.606  -4.288 -15.382  1.00  0.00    -0.550 OA
ENDBRANCH  11  12
ENDBRANCH  10  11
ENDBRANCH   9  10
ENDBRANCH   8   9
ENDBRANCH   1   8
TORSDOF 9
ENDMDL
MODEL 3
REMARK VINA RESULT:    -4.536      5.119      7.892
REMARK INTER + INTRA:          -7.157
REMARK INTER:                  -6.847
REMARK INTRA:                  -0.310
REMARK UNBOUND:                -0.234
REMARK SMILES O=C([O-])CCCCCCCCC(=O)[O-]
REMARK SMILES IDX 7 1 6 2 5 3 4 4 2 5 1 6 3 7 8 8 9 9 10 10 11 11 12 12 13 13
REMARK SMILES IDX 14 14
REMARK H PARENT
REMARK Flexibility Score: inf
ROOT
ATOM      1  C   UNL     1      -4.660  -2.321 -15.127  1.00  0.00     0.000 C 
ENDROOT
BRANCH   1   2
ATOM      2  C   UNL     1      -3.799  -2.699 -16.345  1.00  0.00     0.000 C 
BRANCH   2   3
ATOM      3  C   UNL     1      -3.570  -1.521 -17.310  1.00  0.00     0.006 C 
BRANCH   3   4
ATOM      4  C   UNL     1      -3.054  -1.942 -18.696  1.00  0.00     0.053 C 
BRANCH   4   5
ATOM      5  C   UNL     1      -1.629  -1.540 -18.926  1.00  0.00     0.041 C 
ATOM      6  O   UNL     1      -1.005  -1.968 -19.933  1.00  0.00    -0.550 OA
ATOM      7  O   UNL     1      -0.977  -0.724 -18.010  1.00  0.00    -0.550 OA
ENDBRANCH   4   5
ENDBRANCH   3   4
ENDBRANCH   2   3
ENDBRANCH   1   2
BRANCH   1   8
ATOM      8  C   UNL     1      -5.878  -3.240 -14.956  1.00  0.00     0.000 C 
BRANCH   8   9
ATOM      9  C   UNL     1      -6.917  -2.668 -13.980  1.00  0.00     0.000 C 
BRANCH   9  10
ATOM     10  C   UNL     1      -8.320  -3.211 -14.290  1.00  0.00     0.006 C 
BRANCH  10  11
ATOM     11  C   UNL     1      -8.304  -4.248 -15.421  1.00  0.00     0.053 C 
BRANCH  11  12
ATOM     12  C   UNL     1      -9.597  -4.265 -16.178  1.00  0.00     0.041 C 
ATOM     13  O   UNL     1     -10.260  -5.330 -16.278  1.00  0.00    -0.550 OA
ATOM     14  O   UNL     1     -10.086  -3.093 -16.743  1.00  0.00    -0.550 OA
ENDBRANCH  11  12
ENDBRANCH  10  11
ENDBRANCH   9  10
ENDBRANCH   8   9
ENDBRANCH   1   8
TORSDOF 9
ENDMDL
MODEL 4
REMARK VINA RESULT:    -4.501      2.496      7.952
REMARK INTER + INTRA:          -7.103
REMARK INTER:                  -6.819
REMARK INTRA:                  -0.285
REMARK UNBOUND:                -0.234
REMARK SMILES O=C([O-])CCCCCCCCC(=O)[O-]
REMARK SMILES IDX 7 1 6 2 5 3 4 4 2 5 1 6 3 7 8 8 9 9 10 10 11 11 12 12 13 13
REMARK SMILES IDX 14 14
REMARK H PARENT
REMARK Flexibility Score: inf
ROOT
ATOM      1  C   UNL     1      -7.795  -2.771 -13.807  1.00  0.00     0.000 C 
ENDROOT
BRANCH   1   2
ATOM      2  C   UNL     1      -8.127  -1.996 -12.519  1.00  0.00     0.000 C 
BRANCH   2   3
ATOM      3  C   UNL     1      -6.926  -1.874 -11.563  1.00  0.00     0.006 C 
BRANCH   3   4
ATOM      4  C   UNL     1      -6.995  -0.654 -10.629  1.00  0.00     0.053 C 
BRANCH   4   5
ATOM      5  C   UNL     1      -6.108  -0.797  -9.430  1.00  0.00     0.041 C 
ATOM      6  O   UNL     1      -6.056   0.118  -8.567  1.00  0.00    -0.550 OA
ATOM      7  O   UNL     1      -5.310  -1.925  -9.283  1.00  0.00    -0.550 OA
ENDBRANCH   4   5
ENDBRANCH   3   4
ENDBRANCH   2   3
ENDBRANCH   1   2
BRANCH   1   8
ATOM      8  C   UNL     1      -8.851  -3.833 -14.147  1.00  0.00     0.000 C 
BRANCH   8   9
ATOM      9  C   UNL     1      -8.936  -4.120 -15.653  1.00  0.00     0.000 C 
BRANCH   9  10
ATOM     10  C   UNL     1     -10.275  -3.636 -16.230  1.00  0.00     0.006 C 
BRANCH  10  11
ATOM     11  C   UNL     1     -11.345  -4.736 -16.216  1.00  0.00     0.053 C 
BRANCH  11  12
ATOM     12  C   UNL     1     -12.423  -4.450 -15.216  1.00  0.00     0.041 C 
ATOM     13  O   UNL     1     -12.316  -4.864 -14.032  1.00  0.00    -0.550 OA
ATOM     14  O   UNL     1     -13.531  -3.696 -15.584  1.00  0.00    -0.550 OA
ENDBRANCH  11  12
ENDBRANCH  10  11
ENDBRANCH   9  10
ENDBRANCH   8   9
ENDBRANCH   1   8
TORSDOF 9
ENDMDL
MODEL 5
REMARK VINA RESULT:    -4.485      5.457      7.310
REMARK INTER + INTRA:          -7.079
REMARK INTER:                  -6.684
REMARK INTRA:                  -0.395
REMARK UNBOUND:                -0.234
REMARK SMILES O=C([O-])CCCCCCCCC(=O)[O-]
REMARK SMILES IDX 7 1 6 2 5 3 4 4 2 5 1 6 3 7 8 8 9 9 10 10 11 11 12 12 13 13
REMARK SMILES IDX 14 14
REMARK H PARENT
REMARK Flexibility Score: inf
ROOT
ATOM      1  C   UNL     1      -5.935  -2.762 -14.558  1.00  0.00     0.000 C 
ENDROOT
BRANCH   1   2
ATOM      2  C   UNL     1      -6.054  -4.216 -15.046  1.00  0.00     0.000 C 
BRANCH   2   3
ATOM      3  C   UNL     1      -7.480  -4.588 -15.490  1.00  0.00     0.006 C 
BRANCH   3   4
ATOM      4  C   UNL     1      -8.579  -3.730 -14.840  1.00  0.00     0.053 C 
BRANCH   4   5
ATOM      5  C   UNL     1      -9.892  -3.842 -15.552  1.00  0.00     0.041 C 
ATOM      6  O   UNL     1     -10.052  -3.299 -16.677  1.00  0.00    -0.550 OA
ATOM      7  O   UNL     1     -10.953  -4.516 -14.960  1.00  0.00    -0.550 OA
ENDBRANCH   4   5
ENDBRANCH   3   4
ENDBRANCH   2   3
ENDBRANCH   1   2
BRANCH   1   8
ATOM      8  C   UNL     1      -4.593  -2.118 -14.938  1.00  0.00     0.000 C 
BRANCH   8   9
ATOM      9  C   UNL     1      -4.042  -2.646 -16.272  1.00  0.00     0.000 C 
BRANCH   9  10
ATOM     10  C   UNL     1      -3.832  -1.499 -17.271  1.00  0.00     0.006 C 
BRANCH  10  11
ATOM     11  C   UNL     1      -2.363  -1.359 -17.694  1.00  0.00     0.053 C 
BRANCH  11  12
ATOM     12  C   UNL     1      -2.156  -1.755 -19.124  1.00  0.00     0.041 C 
ATOM     13  O   UNL     1      -3.145  -1.987 -19.867  1.00  0.00    -0.550 OA
ATOM     14  O   UNL     1      -0.870  -1.833 -19.644  1.00  0.00    -0.550 OA
ENDBRANCH  11  12
ENDBRANCH  10  11
ENDBRANCH   9  10
ENDBRANCH   8   9
ENDBRANCH   1   8
TORSDOF 9
ENDMDL
MODEL 6
REMARK VINA RESULT:    -4.468      1.518      1.964
REMARK INTER + INTRA:          -7.052
REMARK INTER:                  -6.827
REMARK INTRA:                  -0.225
REMARK UNBOUND:                -0.234
REMARK SMILES O=C([O-])CCCCCCCCC(=O)[O-]
REMARK SMILES IDX 7 1 6 2 5 3 4 4 2 5 1 6 3 7 8 8 9 9 10 10 11 11 12 12 13 13
REMARK SMILES IDX 14 14
REMARK H PARENT
REMARK Flexibility Score: inf
ROOT
ATOM      1  C   UNL     1      -8.121  -2.041 -12.608  1.00  0.00     0.000 C 
ENDROOT
BRANCH   1   2
ATOM      2  C   UNL     1      -7.638  -3.119 -13.594  1.00  0.00     0.000 C 
BRANCH   2   3
ATOM      3  C   UNL     1      -8.657  -3.417 -14.709  1.00  0.00     0.006 C 
BRANCH   3   4
ATOM      4  C   UNL     1      -9.570  -4.619 -14.414  1.00  0.00     0.053 C 
BRANCH   4   5
ATOM      5  C   UNL     1     -10.967  -4.417 -14.916  1.00  0.00     0.041 C 
ATOM      6  O   UNL     1     -11.174  -3.738 -15.956  1.00  0.00    -0.550 OA
ATOM      7  O   UNL     1     -12.044  -4.947 -14.217  1.00  0.00    -0.550 OA
ENDBRANCH   4   5
ENDBRANCH   3   4
ENDBRANCH   2   3
ENDBRANCH   1   2
BRANCH   1   8
ATOM      8  C   UNL     1      -7.275  -1.989 -11.327  1.00  0.00     0.000 C 
BRANCH   8   9
ATOM      9  C   UNL     1      -6.963  -0.552 -10.883  1.00  0.00     0.000 C 
BRANCH   9  10
ATOM     10  C   UNL     1      -6.589  -0.507  -9.394  1.00  0.00     0.006 C 
BRANCH  10  11
ATOM     11  C   UNL     1      -7.352   0.589  -8.637  1.00  0.00     0.053 C 
BRANCH  11  12
ATOM     12  C   UNL     1      -6.643   1.907  -8.703  1.00  0.00     0.041 C 
ATOM     13  O   UNL     1      -5.700   2.161  -7.910  1.00  0.00    -0.550 OA
ATOM     14  O   UNL     1      -7.004   2.842  -9.666  1.00  0.00    -0.550 OA
ENDBRANCH  11  12
ENDBRANCH  10  11
ENDBRANCH   9  10
ENDBRANCH   8   9
ENDBRANCH   1   8
TORSDOF 9
ENDMDL
MODEL 7
REMARK VINA RESULT:    -4.374      1.751      2.366
REMARK INTER + INTRA:          -6.910
REMARK INTER:                  -6.691
REMARK INTRA:                  -0.219
REMARK UNBOUND:                -0.234
REMARK SMILES O=C([O-])CCCCCCCCC(=O)[O-]
REMARK SMILES IDX 7 1 6 2 5 3 4 4 2 5 1 6 3 7 8 8 9 9 10 10 11 11 12 12 13 13
REMARK SMILES IDX 14 14
REMARK H PARENT
REMARK Flexibility Score: inf
ROOT
ATOM      1  C   UNL     1      -7.668  -2.815 -13.607  1.00  0.00     0.000 C 
ENDROOT
BRANCH   1   2
ATOM      2  C   UNL     1      -9.009  -3.349 -14.141  1.00  0.00     0.000 C 
BRANCH   2   3
ATOM      3  C   UNL     1      -8.887  -4.006 -15.528  1.00  0.00     0.006 C 
BRANCH   3   4
ATOM      4  C   UNL     1     -10.171  -3.923 -16.372  1.00  0.00     0.053 C 
BRANCH   4   5
ATOM      5  C   UNL     1     -11.282  -4.756 -15.812  1.00  0.00     0.041 C 
ATOM      6  O   UNL     1     -11.067  -5.946 -15.459  1.00  0.00    -0.550 OA
ATOM      7  O   UNL     1     -12.565  -4.233 -15.712  1.00  0.00    -0.550 OA
ENDBRANCH   4   5
ENDBRANCH   3   4
ENDBRANCH   2   3
ENDBRANCH   1   2
BRANCH   1   8
ATOM      8  C   UNL     1      -7.817  -2.078 -12.268  1.00  0.00     0.000 C 
BRANCH   8   9
ATOM      9  C   UNL     1      -6.463  -1.763 -11.615  1.00  0.00     0.000 C 
BRANCH   9  10
ATOM     10  C   UNL     1      -6.656  -1.040 -10.273  1.00  0.00     0.006 C 
BRANCH  10  11
ATOM     11  C   UNL     1      -6.677   0.487 -10.434  1.00  0.00     0.053 C 
BRANCH  11  12
ATOM     12  C   UNL     1      -7.145   1.170  -9.185  1.00  0.00     0.041 C 
ATOM     13  O   UNL     1      -6.924   2.397  -9.012  1.00  0.00    -0.550 OA
ATOM     14  O   UNL     1      -7.855   0.456  -8.228  1.00  0.00    -0.550 OA
ENDBRANCH  11  12
ENDBRANCH  10  11
ENDBRANCH   9  10
ENDBRANCH   8   9
ENDBRANCH   1   8
TORSDOF 9
ENDMDL
MODEL 8
REMARK VINA RESULT:    -4.317      5.590      7.577
REMARK INTER + INTRA:          -6.822
REMARK INTER:                  -6.357
REMARK INTRA:                  -0.465
REMARK UNBOUND:                -0.234
REMARK SMILES O=C([O-])CCCCCCCCC(=O)[O-]
REMARK SMILES IDX 7 1 6 2 5 3 4 4 2 5 1 6 3 7 8 8 9 9 10 10 11 11 12 12 13 13
REMARK SMILES IDX 14 14
REMARK H PARENT
REMARK Flexibility Score: inf
ROOT
ATOM      1  C   UNL     1      -5.335  -3.176 -14.490  1.00  0.00     0.000 C 
ENDROOT
BRANCH   1   2
ATOM      2  C   UNL     1      -4.564  -2.066 -15.227  1.00  0.00     0.000 C 
BRANCH   2   3
ATOM      3  C   UNL     1      -3.958  -2.537 -16.561  1.00  0.00     0.006 C 
BRANCH   3   4
ATOM      4  C   UNL     1      -3.370  -1.400 -17.415  1.00  0.00     0.053 C 
BRANCH   4   5
ATOM      5  C   UNL     1      -2.638  -1.906 -18.620  1.00  0.00     0.041 C 
ATOM      6  O   UNL     1      -3.219  -1.965 -19.736  1.00  0.00    -0.550 OA
ATOM      7  O   UNL     1      -1.325  -2.348 -18.506  1.00  0.00    -0.550 OA
ENDBRANCH   4   5
ENDBRANCH   3   4
ENDBRANCH   2   3
ENDBRANCH   1   2
BRANCH   1   8
ATOM      8  C   UNL     1      -5.551  -4.423 -15.360  1.00  0.00     0.000 C 
BRANCH   8   9
ATOM      9  C   UNL     1      -7.031  -4.824 -15.460  1.00  0.00     0.000 C 
BRANCH   9  10
ATOM     10  C   UNL     1      -7.943  -3.673 -15.009  1.00  0.00     0.006 C 
BRANCH  10  11
ATOM     11  C   UNL     1      -9.325  -4.168 -14.562  1.00  0.00     0.053 C 
BRANCH  11  12
ATOM     12  C   UNL     1     -10.358  -3.969 -15.628  1.00  0.00     0.041 C 
ATOM     13  O   UNL     1     -11.499  -4.488 -15.511  1.00  0.00    -0.550 OA
ATOM     14  O   UNL     1     -10.070  -3.180 -16.735  1.00  0.00    -0.550 OA
ENDBRANCH  11  12
ENDBRANCH  10  11
ENDBRANCH   9  10
ENDBRANCH   8   9
ENDBRANCH   1   8
TORSDOF 9
ENDMDL
MODEL 9
REMARK VINA RESULT:    -4.200      1.388      7.537
REMARK INTER + INTRA:          -6.643
REMARK INTER:                  -6.281
REMARK INTRA:                  -0.362
REMARK UNBOUND:                -0.234
REMARK SMILES O=C([O-])CCCCCCCCC(=O)[O-]
REMARK SMILES IDX 7 1 6 2 5 3 4 4 2 5 1 6 3 7 8 8 9 9 10 10 11 11 12 12 13 13
REMARK SMILES IDX 14 14
REMARK H PARENT
REMARK Flexibility Score: inf
ROOT
ATOM      1  C   UNL     1      -6.461  -1.711 -10.434  1.00  0.00     0.000 C 
ENDROOT
BRANCH   1   2
ATOM      2  C   UNL     1      -6.727  -0.246 -10.823  1.00  0.00     0.000 C 
BRANCH   2   3
ATOM      3  C   UNL     1      -5.451   0.614 -10.839  1.00  0.00     0.006 C 
BRANCH   3   4
ATOM      4  C   UNL     1      -5.710   2.119 -10.652  1.00  0.00     0.053 C 
BRANCH   4   5
ATOM      5  C   UNL     1      -6.445   2.422  -9.382  1.00  0.00     0.041 C 
ATOM      6  O   UNL     1      -5.930   2.137  -8.269  1.00  0.00    -0.550 OA
ATOM      7  O   UNL     1      -7.714   2.986  -9.426  1.00  0.00    -0.550 OA
ENDBRANCH   4   5
ENDBRANCH   3   4
ENDBRANCH   2   3
ENDBRANCH   1   2
BRANCH   1   8
ATOM      8  C   UNL     1      -7.322  -2.700 -11.234  1.00  0.00     0.000 C 
BRANCH   8   9
ATOM      9  C   UNL     1      -7.113  -2.572 -12.751  1.00  0.00     0.000 C 
BRANCH   9  10
ATOM     10  C   UNL     1      -8.451  -2.656 -13.499  1.00  0.00     0.006 C 
BRANCH  10  11
ATOM     11  C   UNL     1      -8.372  -3.570 -14.730  1.00  0.00     0.053 C 
BRANCH  11  12
ATOM     12  C   UNL     1      -9.719  -3.787 -15.348  1.00  0.00     0.041 C 
ATOM     13  O   UNL     1     -10.645  -4.319 -14.682  1.00  0.00    -0.550 OA
ATOM     14  O   UNL     1      -9.961  -3.368 -16.651  1.00  0.00    -0.550 OA
ENDBRANCH  11  12
ENDBRANCH  10  11
ENDBRANCH   9  10
ENDBRANCH   8   9
ENDBRANCH   1   8
TORSDOF 9
ENDMDL
