MODEL 1
REMARK VINA RESULT:    -7.923      0.000      0.000
REMARK INTER + INTRA:         -10.134
REMARK INTER:                  -9.776
REMARK INTRA:                  -0.358
REMARK UNBOUND:                -0.358
REMARK SMILES O=c1c(O)c(-c2cc(O)c(O)c(O)c2)oc2cc(O)cc(O)c12
REMARK SMILES IDX 5 1 3 2 2 3 1 4 23 5 21 6 20 7 18 8 17 9 16 10 15 11 6 12
REMARK SMILES IDX 7 13 8 14 14 15 10 16 12 17 9 18 11 20 13 22 4 24 22 26
REMARK SMILES IDX 19 28
REMARK H PARENT 9 19 11 21 13 23 4 25 22 27 19 29
REMARK Flexibility Score: inf
ROOT
ATOM      1  C   UNL     1      19.078  88.566 112.948  1.00  0.00     0.180 A 
ATOM      2  C   UNL     1      19.488  88.160 114.230  1.00  0.00     0.208 A 
ATOM      3  C   UNL     1      20.634  87.357 114.356  1.00  0.00     0.238 A 
ATOM      4  O   UNL     1      20.965  86.952 115.501  1.00  0.00    -0.285 OA
ATOM      5  C   UNL     1      21.363  86.985 113.201  1.00  0.00     0.111 A 
ATOM      6  C   UNL     1      22.560  86.207 113.214  1.00  0.00     0.134 A 
ATOM      7  C   UNL     1      23.125  85.788 112.003  1.00  0.00     0.093 A 
ATOM      8  C   UNL     1      22.574  86.172 110.781  1.00  0.00     0.123 A 
ATOM      9  C   UNL     1      21.438  86.981 110.756  1.00  0.00     0.094 A 
ATOM     10  C   UNL     1      20.831  87.385 111.948  1.00  0.00     0.146 A 
ATOM     11  O   UNL     1      19.745  88.145 111.880  1.00  0.00    -0.452 OA
ENDROOT
BRANCH   1  12
ATOM     12  C   UNL     1      17.896  89.433 112.738  1.00  0.00     0.029 A 
ATOM     13  C   UNL     1      16.612  88.888 112.560  1.00  0.00     0.062 A 
ATOM     14  C   UNL     1      15.502  89.725 112.387  1.00  0.00     0.162 A 
ATOM     15  C   UNL     1      18.047  90.827 112.772  1.00  0.00     0.062 A 
ATOM     16  C   UNL     1      15.664  91.116 112.400  1.00  0.00     0.200 A 
ATOM     17  C   UNL     1      16.940  91.670 112.598  1.00  0.00     0.162 A 
BRANCH  14  18
ATOM     18  O   UNL     1      14.232  89.181 112.205  1.00  0.00    -0.504 OA
ATOM     19  H   UNL     1      13.984  88.274 112.581  1.00  0.00     0.293 HD
ENDBRANCH  14  18
BRANCH  16  20
ATOM     20  O   UNL     1      14.548  91.934 112.222  1.00  0.00    -0.502 OA
ATOM     21  H   UNL     1      14.623  92.942 112.158  1.00  0.00     0.293 HD
ENDBRANCH  16  20
BRANCH  17  22
ATOM     22  O   UNL     1      17.105  93.054 112.619  1.00  0.00    -0.504 OA
ATOM     23  H   UNL     1      17.154  93.569 113.490  1.00  0.00     0.293 HD
ENDBRANCH  17  22
ENDBRANCH   1  12
BRANCH   2  24
ATOM     24  O   UNL     1      18.742  88.521 115.356  1.00  0.00    -0.502 OA
ATOM     25  H   UNL     1      17.839  88.975 115.286  1.00  0.00     0.293 HD
ENDBRANCH   2  24
BRANCH   6  26
ATOM     26  O   UNL     1      23.244  85.847 114.379  1.00  0.00    -0.507 OA
ATOM     27  H   UNL     1      24.245  85.898 114.497  1.00  0.00     0.293 HD
ENDBRANCH   6  26
BRANCH   8  28
ATOM     28  O   UNL     1      23.172  85.749 109.596  1.00  0.00    -0.508 OA
ATOM     29  H   UNL     1      22.894  86.128 108.698  1.00  0.00     0.293 HD
ENDBRANCH   8  28
TORSDOF 7
ENDMDL
MODEL 2
REMARK VINA RESULT:    -7.737      2.748      4.258
REMARK INTER + INTRA:          -9.904
REMARK INTER:                  -9.654
REMARK INTRA:                  -0.250
REMARK UNBOUND:                -0.358
REMARK SMILES O=c1c(O)c(-c2cc(O)c(O)c(O)c2)oc2cc(O)cc(O)c12
REMARK SMILES IDX 5 1 3 2 2 3 1 4 23 5 21 6 20 7 18 8 17 9 16 10 15 11 6 12
REMARK SMILES IDX 7 13 8 14 14 15 10 16 12 17 9 18 11 20 13 22 4 24 22 26
REMARK SMILES IDX 19 28
REMARK H PARENT 9 19 11 21 13 23 4 25 22 27 19 29
REMARK Flexibility Score: inf
ROOT
ATOM      1  C   UNL     1      16.540  89.816 113.523  1.00  0.00     0.180 A 
ATOM      2  C   UNL     1      16.435  90.713 114.600  1.00  0.00     0.208 A 
ATOM      3  C   UNL     1      17.457  90.744 115.563  1.00  0.00     0.238 A 
ATOM      4  O   UNL     1      17.331  91.511 116.553  1.00  0.00    -0.285 OA
ATOM      5  C   UNL     1      18.578  89.891 115.428  1.00  0.00     0.111 A 
ATOM      6  C   UNL     1      19.690  89.866 116.322  1.00  0.00     0.134 A 
ATOM      7  C   UNL     1      20.681  88.890 116.164  1.00  0.00     0.093 A 
ATOM      8  C   UNL     1      20.635  87.980 115.109  1.00  0.00     0.123 A 
ATOM      9  C   UNL     1      19.582  88.032 114.194  1.00  0.00     0.094 A 
ATOM     10  C   UNL     1      18.560  88.972 114.346  1.00  0.00     0.146 A 
ATOM     11  O   UNL     1      17.571  88.982 113.461  1.00  0.00    -0.452 OA
ENDROOT
BRANCH   1  12
ATOM     12  C   UNL     1      15.516  89.743 112.456  1.00  0.00     0.029 A 
ATOM     13  C   UNL     1      14.635  88.651 112.362  1.00  0.00     0.062 A 
ATOM     14  C   UNL     1      13.657  88.611 111.360  1.00  0.00     0.162 A 
ATOM     15  C   UNL     1      15.381  90.809 111.554  1.00  0.00     0.062 A 
ATOM     16  C   UNL     1      13.542  89.669 110.449  1.00  0.00     0.200 A 
ATOM     17  C   UNL     1      14.404  90.774 110.549  1.00  0.00     0.162 A 
BRANCH  14  18
ATOM     18  O   UNL     1      12.790  87.524 111.266  1.00  0.00    -0.504 OA
ATOM     19  H   UNL     1      13.130  86.570 111.289  1.00  0.00     0.293 HD
ENDBRANCH  14  18
BRANCH  16  20
ATOM     20  O   UNL     1      12.564  89.610 109.456  1.00  0.00    -0.502 OA
ATOM     21  H   UNL     1      11.787  88.962 109.503  1.00  0.00     0.293 HD
ENDBRANCH  16  20
BRANCH  17  22
ATOM     22  O   UNL     1      14.289  91.833 109.649  1.00  0.00    -0.504 OA
ATOM     23  H   UNL     1      14.124  92.782 109.965  1.00  0.00     0.293 HD
ENDBRANCH  17  22
ENDBRANCH   1  12
BRANCH   2  24
ATOM     24  O   UNL     1      15.309  91.533 114.726  1.00  0.00    -0.502 OA
ATOM     25  H   UNL     1      14.868  91.976 113.930  1.00  0.00     0.293 HD
ENDBRANCH   2  24
BRANCH   6  26
ATOM     26  O   UNL     1      19.882  90.788 117.356  1.00  0.00    -0.507 OA
ATOM     27  H   UNL     1      20.680  91.399 117.439  1.00  0.00     0.293 HD
ENDBRANCH   6  26
BRANCH   8  28
ATOM     28  O   UNL     1      21.646  87.031 114.975  1.00  0.00    -0.508 OA
ATOM     29  H   UNL     1      21.448  86.084 114.674  1.00  0.00     0.293 HD
ENDBRANCH   8  28
TORSDOF 7
ENDMDL
MODEL 3
REMARK VINA RESULT:    -7.611      3.778      8.237
REMARK INTER + INTRA:          -9.748
REMARK INTER:                  -9.404
REMARK INTRA:                  -0.344
REMARK UNBOUND:                -0.358
REMARK SMILES O=c1c(O)c(-c2cc(O)c(O)c(O)c2)oc2cc(O)cc(O)c12
REMARK SMILES IDX 5 1 3 2 2 3 1 4 23 5 21 6 20 7 18 8 17 9 16 10 15 11 6 12
REMARK SMILES IDX 7 13 8 14 14 15 10 16 12 17 9 18 11 20 13 22 4 24 22 26
REMARK SMILES IDX 19 28
REMARK H PARENT 9 19 11 21 13 23 4 25 22 27 19 29
REMARK Flexibility Score: inf
ROOT
ATOM      1  C   UNL     1      18.285  91.598 115.676  1.00  0.00     0.180 A 
ATOM      2  C   UNL     1      16.908  91.558 115.962  1.00  0.00     0.208 A 
ATOM      3  C   UNL     1      16.224  92.766 116.175  1.00  0.00     0.238 A 
ATOM      4  O   UNL     1      15.004  92.721 116.484  1.00  0.00    -0.285 OA
ATOM      5  C   UNL     1      16.918  93.995 116.084  1.00  0.00     0.111 A 
ATOM      6  C   UNL     1      16.316  95.280 116.243  1.00  0.00     0.134 A 
ATOM      7  C   UNL     1      17.124  96.423 116.263  1.00  0.00     0.093 A 
ATOM      8  C   UNL     1      18.501  96.336 116.065  1.00  0.00     0.123 A 
ATOM      9  C   UNL     1      19.093  95.091 115.849  1.00  0.00     0.094 A 
ATOM     10  C   UNL     1      18.318  93.929 115.861  1.00  0.00     0.146 A 
ATOM     11  O   UNL     1      18.921  92.763 115.663  1.00  0.00    -0.452 OA
ENDROOT
BRANCH   1  12
ATOM     12  C   UNL     1      19.069  90.369 115.414  1.00  0.00     0.029 A 
ATOM     13  C   UNL     1      19.040  89.735 114.160  1.00  0.00     0.062 A 
ATOM     14  C   UNL     1      19.808  88.588 113.925  1.00  0.00     0.162 A 
ATOM     15  C   UNL     1      19.904  89.857 116.418  1.00  0.00     0.062 A 
ATOM     16  C   UNL     1      20.623  88.069 114.939  1.00  0.00     0.200 A 
ATOM     17  C   UNL     1      20.675  88.708 116.189  1.00  0.00     0.162 A 
BRANCH  14  18
ATOM     18  O   UNL     1      19.771  87.959 112.681  1.00  0.00    -0.504 OA
ATOM     19  H   UNL     1      19.112  87.216 112.481  1.00  0.00     0.293 HD
ENDBRANCH  14  18
BRANCH  16  20
ATOM     20  O   UNL     1      21.377  86.923 114.687  1.00  0.00    -0.502 OA
ATOM     21  H   UNL     1      21.167  86.033 115.123  1.00  0.00     0.293 HD
ENDBRANCH  16  20
BRANCH  17  22
ATOM     22  O   UNL     1      21.490  88.199 117.199  1.00  0.00    -0.504 OA
ATOM     23  H   UNL     1      21.331  88.426 118.174  1.00  0.00     0.293 HD
ENDBRANCH  17  22
ENDBRANCH   1  12
BRANCH   2  24
ATOM     24  O   UNL     1      16.246  90.332 116.067  1.00  0.00    -0.502 OA
ATOM     25  H   UNL     1      15.248  90.240 115.929  1.00  0.00     0.293 HD
ENDBRANCH   2  24
BRANCH   6  26
ATOM     26  O   UNL     1      14.938  95.488 116.356  1.00  0.00    -0.507 OA
ATOM     27  H   UNL     1      14.406  96.131 115.789  1.00  0.00     0.293 HD
ENDBRANCH   6  26
BRANCH   8  28
ATOM     28  O   UNL     1      19.272  97.497 116.075  1.00  0.00    -0.508 OA
ATOM     29  H   UNL     1      20.151  97.553 115.574  1.00  0.00     0.293 HD
ENDBRANCH   8  28
TORSDOF 7
ENDMDL
MODEL 4
REMARK VINA RESULT:    -7.605      3.914      7.677
REMARK INTER + INTRA:          -9.741
REMARK INTER:                  -9.742
REMARK INTRA:                   0.001
REMARK UNBOUND:                -0.358
REMARK SMILES O=c1c(O)c(-c2cc(O)c(O)c(O)c2)oc2cc(O)cc(O)c12
REMARK SMILES IDX 5 1 3 2 2 3 1 4 23 5 21 6 20 7 18 8 17 9 16 10 15 11 6 12
REMARK SMILES IDX 7 13 8 14 14 15 10 16 12 17 9 18 11 20 13 22 4 24 22 26
REMARK SMILES IDX 19 28
REMARK H PARENT 9 19 11 21 13 23 4 25 22 27 19 29
REMARK Flexibility Score: inf
ROOT
ATOM      1  C   UNL     1      18.021  91.050 115.705  1.00  0.00     0.180 A 
ATOM      2  C   UNL     1      17.030  91.795 116.369  1.00  0.00     0.208 A 
ATOM      3  C   UNL     1      15.845  92.113 115.685  1.00  0.00     0.238 A 
ATOM      4  O   UNL     1      14.985  92.826 116.266  1.00  0.00    -0.285 OA
ATOM      5  C   UNL     1      15.659  91.669 114.354  1.00  0.00     0.111 A 
ATOM      6  C   UNL     1      14.483  91.900 113.580  1.00  0.00     0.134 A 
ATOM      7  C   UNL     1      14.460  91.528 112.230  1.00  0.00     0.093 A 
ATOM      8  C   UNL     1      15.545  90.878 111.644  1.00  0.00     0.123 A 
ATOM      9  C   UNL     1      16.678  90.594 112.407  1.00  0.00     0.094 A 
ATOM     10  C   UNL     1      16.744  90.985 113.747  1.00  0.00     0.146 A 
ATOM     11  O   UNL     1      17.844  90.706 114.435  1.00  0.00    -0.452 OA
ENDROOT
BRANCH   1  12
ATOM     12  C   UNL     1      19.285  90.656 116.368  1.00  0.00     0.029 A 
ATOM     13  C   UNL     1      20.068  91.592 117.066  1.00  0.00     0.062 A 
ATOM     14  C   UNL     1      21.248  91.194 117.707  1.00  0.00     0.162 A 
ATOM     15  C   UNL     1      19.684  89.311 116.349  1.00  0.00     0.062 A 
ATOM     16  C   UNL     1      21.652  89.853 117.665  1.00  0.00     0.200 A 
ATOM     17  C   UNL     1      20.865  88.907 116.987  1.00  0.00     0.162 A 
BRANCH  14  18
ATOM     18  O   UNL     1      22.025  92.126 118.393  1.00  0.00    -0.504 OA
ATOM     19  H   UNL     1      21.737  92.501 119.289  1.00  0.00     0.293 HD
ENDBRANCH  14  18
BRANCH  16  20
ATOM     20  O   UNL     1      22.832  89.477 118.306  1.00  0.00    -0.502 OA
ATOM     21  H   UNL     1      23.257  88.568 118.162  1.00  0.00     0.293 HD
ENDBRANCH  16  20
BRANCH  17  22
ATOM     22  O   UNL     1      21.259  87.570 116.949  1.00  0.00    -0.504 OA
ATOM     23  H   UNL     1      21.650  87.156 116.111  1.00  0.00     0.293 HD
ENDBRANCH  17  22
ENDBRANCH   1  12
BRANCH   2  24
ATOM     24  O   UNL     1      17.242  92.242 117.677  1.00  0.00    -0.502 OA
ATOM     25  H   UNL     1      16.784  91.822 118.476  1.00  0.00     0.293 HD
ENDBRANCH   2  24
BRANCH   6  26
ATOM     26  O   UNL     1      13.308  92.460 114.092  1.00  0.00    -0.507 OA
ATOM     27  H   UNL     1      13.274  93.250 114.718  1.00  0.00     0.293 HD
ENDBRANCH   6  26
BRANCH   8  28
ATOM     28  O   UNL     1      15.482  90.509 110.302  1.00  0.00    -0.508 OA
ATOM     29  H   UNL     1      16.199  90.787 109.642  1.00  0.00     0.293 HD
ENDBRANCH   8  28
TORSDOF 7
ENDMDL
MODEL 5
REMARK VINA RESULT:    -7.602      3.656      7.969
REMARK INTER + INTRA:          -9.738
REMARK INTER:                  -9.505
REMARK INTRA:                  -0.233
REMARK UNBOUND:                -0.358
REMARK SMILES O=c1c(O)c(-c2cc(O)c(O)c(O)c2)oc2cc(O)cc(O)c12
REMARK SMILES IDX 5 1 3 2 2 3 1 4 23 5 21 6 20 7 18 8 17 9 16 10 15 11 6 12
REMARK SMILES IDX 7 13 8 14 14 15 10 16 12 17 9 18 11 20 13 22 4 24 22 26
REMARK SMILES IDX 19 28
REMARK H PARENT 9 19 11 21 13 23 4 25 22 27 19 29
REMARK Flexibility Score: inf
ROOT
ATOM      1  C   UNL     1      18.288  90.738 115.281  1.00  0.00     0.180 A 
ATOM      2  C   UNL     1      18.335  90.560 113.887  1.00  0.00     0.208 A 
ATOM      3  C   UNL     1      17.210  90.901 113.119  1.00  0.00     0.238 A 
ATOM      4  O   UNL     1      17.238  90.688 111.878  1.00  0.00    -0.285 OA
ATOM      5  C   UNL     1      16.060  91.431 113.751  1.00  0.00     0.111 A 
ATOM      6  C   UNL     1      14.878  91.848 113.067  1.00  0.00     0.134 A 
ATOM      7  C   UNL     1      13.753  92.235 113.805  1.00  0.00     0.093 A 
ATOM      8  C   UNL     1      13.787  92.282 115.198  1.00  0.00     0.123 A 
ATOM      9  C   UNL     1      14.956  91.933 115.876  1.00  0.00     0.094 A 
ATOM     10  C   UNL     1      16.083  91.508 115.168  1.00  0.00     0.146 A 
ATOM     11  O   UNL     1      17.171  91.175 115.851  1.00  0.00    -0.452 OA
ENDROOT
BRANCH   1  12
ATOM     12  C   UNL     1      19.442  90.425 116.154  1.00  0.00     0.029 A 
ATOM     13  C   UNL     1      19.868  89.100 116.356  1.00  0.00     0.062 A 
ATOM     14  C   UNL     1      20.977  88.826 117.167  1.00  0.00     0.162 A 
ATOM     15  C   UNL     1      20.163  91.472 116.748  1.00  0.00     0.062 A 
ATOM     16  C   UNL     1      21.679  89.875 117.774  1.00  0.00     0.200 A 
ATOM     17  C   UNL     1      21.273  91.203 117.561  1.00  0.00     0.162 A 
BRANCH  14  18
ATOM     18  O   UNL     1      21.392  87.510 117.370  1.00  0.00    -0.504 OA
ATOM     19  H   UNL     1      21.276  86.801 116.656  1.00  0.00     0.293 HD
ENDBRANCH  14  18
BRANCH  16  20
ATOM     20  O   UNL     1      22.778  89.582 118.581  1.00  0.00    -0.502 OA
ATOM     21  H   UNL     1      23.221  88.670 118.579  1.00  0.00     0.293 HD
ENDBRANCH  16  20
BRANCH  17  22
ATOM     22  O   UNL     1      21.973  92.251 118.158  1.00  0.00    -0.504 OA
ATOM     23  H   UNL     1      22.308  92.189 119.112  1.00  0.00     0.293 HD
ENDBRANCH  17  22
ENDBRANCH   1  12
BRANCH   2  24
ATOM     24  O   UNL     1      19.473  90.015 113.285  1.00  0.00    -0.502 OA
ATOM     25  H   UNL     1      19.456  89.610 112.358  1.00  0.00     0.293 HD
ENDBRANCH   2  24
BRANCH   6  26
ATOM     26  O   UNL     1      14.769  91.927 111.675  1.00  0.00    -0.507 OA
ATOM     27  H   UNL     1      14.386  91.201 111.087  1.00  0.00     0.293 HD
ENDBRANCH   6  26
BRANCH   8  28
ATOM     28  O   UNL     1      12.653  92.686 115.899  1.00  0.00    -0.508 OA
ATOM     29  H   UNL     1      11.753  92.779 115.443  1.00  0.00     0.293 HD
ENDBRANCH   8  28
TORSDOF 7
ENDMDL
MODEL 6
REMARK VINA RESULT:    -7.572      3.654      8.159
REMARK INTER + INTRA:          -9.700
REMARK INTER:                  -9.486
REMARK INTRA:                  -0.213
REMARK UNBOUND:                -0.358
REMARK SMILES O=c1c(O)c(-c2cc(O)c(O)c(O)c2)oc2cc(O)cc(O)c12
REMARK SMILES IDX 5 1 3 2 2 3 1 4 23 5 21 6 20 7 18 8 17 9 16 10 15 11 6 12
REMARK SMILES IDX 7 13 8 14 14 15 10 16 12 17 9 18 11 20 13 22 4 24 22 26
REMARK SMILES IDX 19 28
REMARK H PARENT 9 19 11 21 13 23 4 25 22 27 19 29
REMARK Flexibility Score: inf
ROOT
ATOM      1  C   UNL     1      18.277  90.809 115.239  1.00  0.00     0.180 A 
ATOM      2  C   UNL     1      18.288  90.611 113.847  1.00  0.00     0.208 A 
ATOM      3  C   UNL     1      17.144  90.945 113.104  1.00  0.00     0.238 A 
ATOM      4  O   UNL     1      17.140  90.715 111.866  1.00  0.00    -0.285 OA
ATOM      5  C   UNL     1      16.013  91.488 113.757  1.00  0.00     0.111 A 
ATOM      6  C   UNL     1      14.815  91.899 113.098  1.00  0.00     0.134 A 
ATOM      7  C   UNL     1      13.711  92.300 113.859  1.00  0.00     0.093 A 
ATOM      8  C   UNL     1      13.780  92.367 115.250  1.00  0.00     0.123 A 
ATOM      9  C   UNL     1      14.965  92.023 115.902  1.00  0.00     0.094 A 
ATOM     10  C   UNL     1      16.072  91.585 115.172  1.00  0.00     0.146 A 
ATOM     11  O   UNL     1      17.177  91.258 115.831  1.00  0.00    -0.452 OA
ENDROOT
BRANCH   1  12
ATOM     12  C   UNL     1      19.453  90.504 116.087  1.00  0.00     0.029 A 
ATOM     13  C   UNL     1      20.158  91.522 116.754  1.00  0.00     0.062 A 
ATOM     14  C   UNL     1      21.253  91.210 117.570  1.00  0.00     0.162 A 
ATOM     15  C   UNL     1      19.840  89.169 116.275  1.00  0.00     0.062 A 
ATOM     16  C   UNL     1      21.647  89.876 117.737  1.00  0.00     0.200 A 
ATOM     17  C   UNL     1      20.935  88.852 117.091  1.00  0.00     0.162 A 
BRANCH  14  18
ATOM     18  O   UNL     1      21.952  92.223 118.225  1.00  0.00    -0.504 OA
ATOM     19  H   UNL     1      22.553  92.028 119.016  1.00  0.00     0.293 HD
ENDBRANCH  14  18
BRANCH  16  20
ATOM     20  O   UNL     1      22.742  89.586 118.551  1.00  0.00    -0.502 OA
ATOM     21  H   UNL     1      22.666  88.982 119.361  1.00  0.00     0.293 HD
ENDBRANCH  16  20
BRANCH  17  22
ATOM     22  O   UNL     1      21.319  87.522 117.260  1.00  0.00    -0.504 OA
ATOM     23  H   UNL     1      20.764  86.874 117.807  1.00  0.00     0.293 HD
ENDBRANCH  17  22
ENDBRANCH   1  12
BRANCH   2  24
ATOM     24  O   UNL     1      19.409  90.054 113.224  1.00  0.00    -0.502 OA
ATOM     25  H   UNL     1      20.310  89.992 113.681  1.00  0.00     0.293 HD
ENDBRANCH   2  24
BRANCH   6  26
ATOM     26  O   UNL     1      14.670  91.959 111.708  1.00  0.00    -0.507 OA
ATOM     27  H   UNL     1      14.021  91.400 111.174  1.00  0.00     0.293 HD
ENDBRANCH   6  26
BRANCH   8  28
ATOM     28  O   UNL     1      12.666  92.784 115.974  1.00  0.00    -0.508 OA
ATOM     29  H   UNL     1      12.213  92.177 116.647  1.00  0.00     0.293 HD
ENDBRANCH   8  28
TORSDOF 7
ENDMDL
MODEL 7
REMARK VINA RESULT:    -7.484      1.546      7.050
REMARK INTER + INTRA:          -9.592
REMARK INTER:                  -9.740
REMARK INTRA:                   0.148
REMARK UNBOUND:                -0.358
REMARK SMILES O=c1c(O)c(-c2cc(O)c(O)c(O)c2)oc2cc(O)cc(O)c12
REMARK SMILES IDX 5 1 3 2 2 3 1 4 23 5 21 6 20 7 18 8 17 9 16 10 15 11 6 12
REMARK SMILES IDX 7 13 8 14 14 15 10 16 12 17 9 18 11 20 13 22 4 24 22 26
REMARK SMILES IDX 19 28
REMARK H PARENT 9 19 11 21 13 23 4 25 22 27 19 29
REMARK Flexibility Score: inf
ROOT
ATOM      1  C   UNL     1      18.452  89.492 113.129  1.00  0.00     0.180 A 
ATOM      2  C   UNL     1      18.366  90.667 113.898  1.00  0.00     0.208 A 
ATOM      3  C   UNL     1      17.279  91.532 113.699  1.00  0.00     0.238 A 
ATOM      4  O   UNL     1      17.236  92.608 114.351  1.00  0.00    -0.285 OA
ATOM      5  C   UNL     1      16.284  91.206 112.746  1.00  0.00     0.111 A 
ATOM      6  C   UNL     1      15.119  91.990 112.490  1.00  0.00     0.134 A 
ATOM      7  C   UNL     1      14.269  91.640 111.434  1.00  0.00     0.093 A 
ATOM      8  C   UNL     1      14.506  90.500 110.667  1.00  0.00     0.123 A 
ATOM      9  C   UNL     1      15.609  89.692 110.947  1.00  0.00     0.094 A 
ATOM     10  C   UNL     1      16.495  90.037 111.971  1.00  0.00     0.146 A 
ATOM     11  O   UNL     1      17.538  89.248 112.198  1.00  0.00    -0.452 OA
ENDROOT
BRANCH   1  12
ATOM     12  C   UNL     1      19.555  88.519 113.300  1.00  0.00     0.029 A 
ATOM     13  C   UNL     1      20.173  87.912 112.192  1.00  0.00     0.062 A 
ATOM     14  C   UNL     1      21.231  87.012 112.373  1.00  0.00     0.162 A 
ATOM     15  C   UNL     1      20.033  88.236 114.588  1.00  0.00     0.062 A 
ATOM     16  C   UNL     1      21.689  86.718 113.664  1.00  0.00     0.200 A 
ATOM     17  C   UNL     1      21.091  87.335 114.775  1.00  0.00     0.162 A 
BRANCH  14  18
ATOM     18  O   UNL     1      21.837  86.408 111.272  1.00  0.00    -0.504 OA
ATOM     19  H   UNL     1      21.404  86.416 110.357  1.00  0.00     0.293 HD
ENDBRANCH  14  18
BRANCH  16  20
ATOM     20  O   UNL     1      22.741  85.816 113.824  1.00  0.00    -0.502 OA
ATOM     21  H   UNL     1      23.659  85.983 113.429  1.00  0.00     0.293 HD
ENDBRANCH  16  20
BRANCH  17  22
ATOM     22  O   UNL     1      21.548  87.051 116.061  1.00  0.00    -0.504 OA
ATOM     23  H   UNL     1      21.807  87.787 116.708  1.00  0.00     0.293 HD
ENDBRANCH  17  22
ENDBRANCH   1  12
BRANCH   2  24
ATOM     24  O   UNL     1      19.371  90.980 114.819  1.00  0.00    -0.502 OA
ATOM     25  H   UNL     1      19.870  91.861 114.800  1.00  0.00     0.293 HD
ENDBRANCH   2  24
BRANCH   6  26
ATOM     26  O   UNL     1      14.739  93.098 113.255  1.00  0.00    -0.507 OA
ATOM     27  H   UNL     1      14.188  93.871 112.912  1.00  0.00     0.293 HD
ENDBRANCH   6  26
BRANCH   8  28
ATOM     28  O   UNL     1      13.631  90.173 109.633  1.00  0.00    -0.508 OA
ATOM     29  H   UNL     1      12.653  89.975 109.809  1.00  0.00     0.293 HD
ENDBRANCH   8  28
TORSDOF 7
ENDMDL
MODEL 8
REMARK VINA RESULT:    -7.342      3.531      5.195
REMARK INTER + INTRA:          -9.417
REMARK INTER:                  -9.060
REMARK INTRA:                  -0.357
REMARK UNBOUND:                -0.358
REMARK SMILES O=c1c(O)c(-c2cc(O)c(O)c(O)c2)oc2cc(O)cc(O)c12
REMARK SMILES IDX 5 1 3 2 2 3 1 4 23 5 21 6 20 7 18 8 17 9 16 10 15 11 6 12
REMARK SMILES IDX 7 13 8 14 14 15 10 16 12 17 9 18 11 20 13 22 4 24 22 26
REMARK SMILES IDX 19 28
REMARK H PARENT 9 19 11 21 13 23 4 25 22 27 19 29
REMARK Flexibility Score: inf
ROOT
ATOM      1  C   UNL     1      17.830  90.562 115.403  1.00  0.00     0.180 A 
ATOM      2  C   UNL     1      18.307  89.339 114.897  1.00  0.00     0.208 A 
ATOM      3  C   UNL     1      19.433  88.749 115.494  1.00  0.00     0.238 A 
ATOM      4  O   UNL     1      19.888  87.683 115.003  1.00  0.00    -0.285 OA
ATOM      5  C   UNL     1      20.057  89.379 116.597  1.00  0.00     0.111 A 
ATOM      6  C   UNL     1      21.179  88.851 117.304  1.00  0.00     0.134 A 
ATOM      7  C   UNL     1      21.795  89.622 118.297  1.00  0.00     0.093 A 
ATOM      8  C   UNL     1      21.293  90.873 118.653  1.00  0.00     0.123 A 
ATOM      9  C   UNL     1      20.160  91.374 118.009  1.00  0.00     0.094 A 
ATOM     10  C   UNL     1      19.545  90.643 116.990  1.00  0.00     0.146 A 
ATOM     11  O   UNL     1      18.477  91.160 116.396  1.00  0.00    -0.452 OA
ENDROOT
BRANCH   1  12
ATOM     12  C   UNL     1      16.634  91.232 114.842  1.00  0.00     0.029 A 
ATOM     13  C   UNL     1      16.740  92.150 113.783  1.00  0.00     0.062 A 
ATOM     14  C   UNL     1      15.594  92.756 113.251  1.00  0.00     0.162 A 
ATOM     15  C   UNL     1      15.363  90.905 115.338  1.00  0.00     0.062 A 
ATOM     16  C   UNL     1      14.330  92.441 113.765  1.00  0.00     0.200 A 
ATOM     17  C   UNL     1      14.214  91.509 114.810  1.00  0.00     0.162 A 
BRANCH  14  18
ATOM     18  O   UNL     1      15.704  93.671 112.205  1.00  0.00    -0.504 OA
ATOM     19  H   UNL     1      16.192  94.551 112.317  1.00  0.00     0.293 HD
ENDBRANCH  14  18
BRANCH  16  20
ATOM     20  O   UNL     1      13.201  93.057 113.225  1.00  0.00    -0.502 OA
ATOM     21  H   UNL     1      12.999  94.038 113.377  1.00  0.00     0.293 HD
ENDBRANCH  16  20
BRANCH  17  22
ATOM     22  O   UNL     1      12.957  91.186 115.320  1.00  0.00    -0.504 OA
ATOM     23  H   UNL     1      12.770  90.283 115.739  1.00  0.00     0.293 HD
ENDBRANCH  17  22
ENDBRANCH   1  12
BRANCH   2  24
ATOM     24  O   UNL     1      17.689  88.745 113.793  1.00  0.00    -0.502 OA
ATOM     25  H   UNL     1      17.577  87.742 113.708  1.00  0.00     0.293 HD
ENDBRANCH   2  24
BRANCH   6  26
ATOM     26  O   UNL     1      21.705  87.573 117.091  1.00  0.00    -0.507 OA
ATOM     27  H   UNL     1      21.159  86.726 117.054  1.00  0.00     0.293 HD
ENDBRANCH   6  26
BRANCH   8  28
ATOM     28  O   UNL     1      21.923  91.607 119.656  1.00  0.00    -0.508 OA
ATOM     29  H   UNL     1      22.921  91.776 119.641  1.00  0.00     0.293 HD
ENDBRANCH   8  28
TORSDOF 7
ENDMDL
MODEL 9
REMARK VINA RESULT:    -7.311      3.862      5.958
REMARK INTER + INTRA:          -9.378
REMARK INTER:                  -9.049
REMARK INTRA:                  -0.330
REMARK UNBOUND:                -0.358
REMARK SMILES O=c1c(O)c(-c2cc(O)c(O)c(O)c2)oc2cc(O)cc(O)c12
REMARK SMILES IDX 5 1 3 2 2 3 1 4 23 5 21 6 20 7 18 8 17 9 16 10 15 11 6 12
REMARK SMILES IDX 7 13 8 14 14 15 10 16 12 17 9 18 11 20 13 22 4 24 22 26
REMARK SMILES IDX 19 28
REMARK H PARENT 9 19 11 21 13 23 4 25 22 27 19 29
REMARK Flexibility Score: inf
ROOT
ATOM      1  C   UNL     1      18.304  92.762 115.064  1.00  0.00     0.180 A 
ATOM      2  C   UNL     1      17.992  92.251 113.791  1.00  0.00     0.208 A 
ATOM      3  C   UNL     1      18.391  90.944 113.467  1.00  0.00     0.238 A 
ATOM      4  O   UNL     1      18.156  90.512 112.307  1.00  0.00    -0.285 OA
ATOM      5  C   UNL     1      19.081  90.160 114.421  1.00  0.00     0.111 A 
ATOM      6  C   UNL     1      19.498  88.811 114.214  1.00  0.00     0.134 A 
ATOM      7  C   UNL     1      20.289  88.176 115.179  1.00  0.00     0.093 A 
ATOM      8  C   UNL     1      20.624  88.816 116.371  1.00  0.00     0.123 A 
ATOM      9  C   UNL     1      20.172  90.115 116.610  1.00  0.00     0.094 A 
ATOM     10  C   UNL     1      19.412  90.788 115.651  1.00  0.00     0.146 A 
ATOM     11  O   UNL     1      19.011  92.025 115.913  1.00  0.00    -0.452 OA
ENDROOT
BRANCH   1  12
ATOM     12  C   UNL     1      17.896  94.121 115.488  1.00  0.00     0.029 A 
ATOM     13  C   UNL     1      16.577  94.397 115.889  1.00  0.00     0.062 A 
ATOM     14  C   UNL     1      16.216  95.683 116.310  1.00  0.00     0.162 A 
ATOM     15  C   UNL     1      18.855  95.143 115.547  1.00  0.00     0.062 A 
ATOM     16  C   UNL     1      17.174  96.704 116.346  1.00  0.00     0.200 A 
ATOM     17  C   UNL     1      18.500  96.432 115.967  1.00  0.00     0.162 A 
BRANCH  14  18
ATOM     18  O   UNL     1      14.905  95.954 116.700  1.00  0.00    -0.504 OA
ATOM     19  H   UNL     1      14.568  96.903 116.806  1.00  0.00     0.293 HD
ENDBRANCH  14  18
BRANCH  16  20
ATOM     20  O   UNL     1      16.795  97.980 116.764  1.00  0.00    -0.502 OA
ATOM     21  H   UNL     1      15.883  98.367 116.553  1.00  0.00     0.293 HD
ENDBRANCH  16  20
BRANCH  17  22
ATOM     22  O   UNL     1      19.458  97.444 116.008  1.00  0.00    -0.504 OA
ATOM     23  H   UNL     1      19.822  97.865 115.161  1.00  0.00     0.293 HD
ENDBRANCH  17  22
ENDBRANCH   1  12
BRANCH   2  24
ATOM     24  O   UNL     1      17.328  93.050 112.856  1.00  0.00    -0.502 OA
ATOM     25  H   UNL     1      16.349  92.922 112.629  1.00  0.00     0.293 HD
ENDBRANCH   2  24
BRANCH   6  26
ATOM     26  O   UNL     1      19.141  88.046 113.098  1.00  0.00    -0.507 OA
ATOM     27  H   UNL     1      18.330  88.215 112.522  1.00  0.00     0.293 HD
ENDBRANCH   6  26
BRANCH   8  28
ATOM     28  O   UNL     1      21.400  88.149 117.315  1.00  0.00    -0.508 OA
ATOM     29  H   UNL     1      22.254  87.669 117.056  1.00  0.00     0.293 HD
ENDBRANCH   8  28
TORSDOF 7
ENDMDL
