MODEL 1
REMARK VINA RESULT:    -2.733      0.000      0.000
REMARK INTER + INTRA:          -3.332
REMARK INTER:                  -3.213
REMARK INTRA:                  -0.119
REMARK UNBOUND:                -0.119
REMARK SMILES O=C([O-])CCC(=O)[O-]
REMARK SMILES IDX 4 1 2 2 1 3 3 4 5 5 6 6 7 7 8 8
REMARK H PARENT
REMARK Flexibility Score: inf
ROOT
ATOM      1  C   UNL     1     -10.999 -18.303  20.280  1.00  0.00     0.059 C 
ENDROOT
BRANCH   1   2
ATOM      2  C   UNL     1     -10.748 -19.440  19.337  1.00  0.00     0.042 C 
ATOM      3  O   UNL     1     -11.123 -19.361  18.137  1.00  0.00    -0.550 OA
ATOM      4  O   UNL     1     -10.064 -20.568  19.771  1.00  0.00    -0.550 OA
ENDBRANCH   1   2
BRANCH   1   5
ATOM      5  C   UNL     1      -9.691 -17.734  20.840  1.00  0.00     0.059 C 
BRANCH   5   6
ATOM      6  C   UNL     1      -9.516 -18.076  22.288  1.00  0.00     0.042 C 
ATOM      7  O   UNL     1      -8.737 -17.400  23.010  1.00  0.00    -0.550 OA
ATOM      8  O   UNL     1     -10.182 -19.167  22.830  1.00  0.00    -0.550 OA
ENDBRANCH   5   6
ENDBRANCH   1   5
TORSDOF 3
ENDMDL
MODEL 2
REMARK VINA RESULT:    -2.719      0.186      3.909
REMARK INTER + INTRA:          -3.315
REMARK INTER:                  -3.195
REMARK INTRA:                  -0.120
REMARK UNBOUND:                -0.119
REMARK SMILES O=C([O-])CCC(=O)[O-]
REMARK SMILES IDX 4 1 2 2 1 3 3 4 5 5 6 6 7 7 8 8
REMARK H PARENT
REMARK Flexibility Score: inf
ROOT
ATOM      1  C   UNL     1      -9.827 -17.875  20.880  1.00  0.00     0.059 C 
ENDROOT
BRANCH   1   2
ATOM      2  C   UNL     1      -9.602 -18.220  22.321  1.00  0.00     0.042 C 
ATOM      3  O   UNL     1     -10.077 -19.283  22.799  1.00  0.00    -0.550 OA
ATOM      4  O   UNL     1      -8.832 -17.388  23.124  1.00  0.00    -0.550 OA
ENDBRANCH   1   2
BRANCH   1   5
ATOM      5  C   UNL     1     -11.079 -18.561  20.323  1.00  0.00     0.059 C 
BRANCH   5   6
ATOM      6  C   UNL     1     -10.729 -19.628  19.332  1.00  0.00     0.042 C 
ATOM      7  O   UNL     1     -10.043 -20.623  19.687  1.00  0.00    -0.550 OA
ATOM      8  O   UNL     1     -11.125 -19.503  18.007  1.00  0.00    -0.550 OA
ENDBRANCH   5   6
ENDBRANCH   1   5
TORSDOF 3
ENDMDL
MODEL 3
REMARK VINA RESULT:    -2.680      2.340      3.621
REMARK INTER + INTRA:          -3.269
REMARK INTER:                  -3.178
REMARK INTRA:                  -0.091
REMARK UNBOUND:                -0.119
REMARK SMILES O=C([O-])CCC(=O)[O-]
REMARK SMILES IDX 4 1 2 2 1 3 3 4 5 5 6 6 7 7 8 8
REMARK H PARENT
REMARK Flexibility Score: inf
ROOT
ATOM      1  C   UNL     1     -10.643 -19.037  22.642  1.00  0.00     0.059 C 
ENDROOT
BRANCH   1   2
ATOM      2  C   UNL     1      -9.621 -18.101  22.071  1.00  0.00     0.042 C 
ATOM      3  O   UNL     1      -9.566 -17.907  20.828  1.00  0.00    -0.550 OA
ATOM      4  O   UNL     1      -8.760 -17.412  22.915  1.00  0.00    -0.550 OA
ENDBRANCH   1   2
BRANCH   1   5
ATOM      5  C   UNL     1     -10.484 -20.456  22.084  1.00  0.00     0.059 C 
BRANCH   5   6
ATOM      6  C   UNL     1      -9.787 -21.356  23.057  1.00  0.00     0.042 C 
ATOM      7  O   UNL     1     -10.454 -22.125  23.800  1.00  0.00    -0.550 OA
ATOM      8  O   UNL     1      -8.404 -21.317  23.173  1.00  0.00    -0.550 OA
ENDBRANCH   5   6
ENDBRANCH   1   5
TORSDOF 3
ENDMDL
MODEL 4
REMARK VINA RESULT:    -2.673      2.340      3.506
REMARK INTER + INTRA:          -3.261
REMARK INTER:                  -3.161
REMARK INTRA:                  -0.100
REMARK UNBOUND:                -0.119
REMARK SMILES O=C([O-])CCC(=O)[O-]
REMARK SMILES IDX 4 1 2 2 1 3 3 4 5 5 6 6 7 7 8 8
REMARK H PARENT
REMARK Flexibility Score: inf
ROOT
ATOM      1  C   UNL     1     -10.502 -20.458  22.093  1.00  0.00     0.059 C 
ENDROOT
BRANCH   1   2
ATOM      2  C   UNL     1      -9.780 -21.329  23.076  1.00  0.00     0.042 C 
ATOM      3  O   UNL     1     -10.424 -22.126  23.807  1.00  0.00    -0.550 OA
ATOM      4  O   UNL     1      -8.394 -21.291  23.153  1.00  0.00    -0.550 OA
ENDBRANCH   1   2
BRANCH   1   5
ATOM      5  C   UNL     1     -10.687 -19.035  22.629  1.00  0.00     0.059 C 
BRANCH   5   6
ATOM      6  C   UNL     1      -9.663 -18.096  22.067  1.00  0.00     0.042 C 
ATOM      7  O   UNL     1      -9.583 -17.915  20.824  1.00  0.00    -0.550 OA
ATOM      8  O   UNL     1      -8.770 -17.454  22.915  1.00  0.00    -0.550 OA
ENDBRANCH   5   6
ENDBRANCH   1   5
TORSDOF 3
ENDMDL
MODEL 5
REMARK VINA RESULT:    -2.532     19.131     19.565
REMARK INTER + INTRA:          -3.095
REMARK INTER:                  -2.976
REMARK INTRA:                  -0.119
REMARK UNBOUND:                -0.119
REMARK SMILES O=C([O-])CCC(=O)[O-]
REMARK SMILES IDX 4 1 2 2 1 3 3 4 5 5 6 6 7 7 8 8
REMARK H PARENT
REMARK Flexibility Score: inf
ROOT
ATOM      1  C   UNL     1       8.571 -19.709  13.752  1.00  0.00     0.059 C 
ENDROOT
BRANCH   1   2
ATOM      2  C   UNL     1       8.258 -19.892  12.298  1.00  0.00     0.042 C 
ATOM      3  O   UNL     1       8.504 -20.988  11.731  1.00  0.00    -0.550 OA
ATOM      4  O   UNL     1       7.655 -18.866  11.581  1.00  0.00    -0.550 OA
ENDBRANCH   1   2
BRANCH   1   5
ATOM      5  C   UNL     1       8.718 -21.053  14.473  1.00  0.00     0.059 C 
BRANCH   5   6
ATOM      6  C   UNL     1       7.453 -21.445  15.173  1.00  0.00     0.042 C 
ATOM      7  O   UNL     1       7.267 -21.122  16.375  1.00  0.00    -0.550 OA
ATOM      8  O   UNL     1       6.498 -22.203  14.508  1.00  0.00    -0.550 OA
ENDBRANCH   5   6
ENDBRANCH   1   5
TORSDOF 3
ENDMDL
MODEL 6
REMARK VINA RESULT:    -2.515     19.140     19.591
REMARK INTER + INTRA:          -3.075
REMARK INTER:                  -2.971
REMARK INTRA:                  -0.105
REMARK UNBOUND:                -0.119
REMARK SMILES O=C([O-])CCC(=O)[O-]
REMARK SMILES IDX 4 1 2 2 1 3 3 4 5 5 6 6 7 7 8 8
REMARK H PARENT
REMARK Flexibility Score: inf
ROOT
ATOM      1  C   UNL     1       8.491 -19.739  13.771  1.00  0.00     0.059 C 
ENDROOT
BRANCH   1   2
ATOM      2  C   UNL     1       8.292 -19.905  12.295  1.00  0.00     0.042 C 
ATOM      3  O   UNL     1       8.719 -20.935  11.711  1.00  0.00    -0.550 OA
ATOM      4  O   UNL     1       7.598 -18.942  11.573  1.00  0.00    -0.550 OA
ENDBRANCH   1   2
BRANCH   1   5
ATOM      5  C   UNL     1       8.683 -21.088  14.471  1.00  0.00     0.059 C 
BRANCH   5   6
ATOM      6  C   UNL     1       7.439 -21.522  15.183  1.00  0.00     0.042 C 
ATOM      7  O   UNL     1       6.567 -22.200  14.579  1.00  0.00    -0.550 OA
ATOM      8  O   UNL     1       7.223 -21.142  16.502  1.00  0.00    -0.550 OA
ENDBRANCH   5   6
ENDBRANCH   1   5
TORSDOF 3
ENDMDL
MODEL 7
REMARK VINA RESULT:    -2.499     19.046     19.673
REMARK INTER + INTRA:          -3.057
REMARK INTER:                  -2.936
REMARK INTRA:                  -0.121
REMARK UNBOUND:                -0.119
REMARK SMILES O=C([O-])CCC(=O)[O-]
REMARK SMILES IDX 4 1 2 2 1 3 3 4 5 5 6 6 7 7 8 8
REMARK H PARENT
REMARK Flexibility Score: inf
ROOT
ATOM      1  C   UNL     1       8.667 -21.171  14.434  1.00  0.00     0.059 C 
ENDROOT
BRANCH   1   2
ATOM      2  C   UNL     1       7.436 -21.530  15.208  1.00  0.00     0.042 C 
ATOM      3  O   UNL     1       7.297 -21.134  16.395  1.00  0.00    -0.550 OA
ATOM      4  O   UNL     1       6.424 -22.266  14.605  1.00  0.00    -0.550 OA
ENDBRANCH   1   2
BRANCH   1   5
ATOM      5  C   UNL     1       8.512 -19.825  13.718  1.00  0.00     0.059 C 
BRANCH   5   6
ATOM      6  C   UNL     1       8.065 -20.003  12.299  1.00  0.00     0.042 C 
ATOM      7  O   UNL     1       8.107 -21.140  11.759  1.00  0.00    -0.550 OA
ATOM      8  O   UNL     1       7.642 -18.906  11.560  1.00  0.00    -0.550 OA
ENDBRANCH   5   6
ENDBRANCH   1   5
TORSDOF 3
ENDMDL
MODEL 8
REMARK VINA RESULT:    -2.457      1.964      3.561
REMARK INTER + INTRA:          -3.007
REMARK INTER:                  -2.901
REMARK INTRA:                  -0.106
REMARK UNBOUND:                -0.119
REMARK SMILES O=C([O-])CCC(=O)[O-]
REMARK SMILES IDX 4 1 2 2 1 3 3 4 5 5 6 6 7 7 8 8
REMARK H PARENT
REMARK Flexibility Score: inf
ROOT
ATOM      1  C   UNL     1      -9.721 -19.200  22.445  1.00  0.00     0.059 C 
ENDROOT
BRANCH   1   2
ATOM      2  C   UNL     1      -9.763 -20.669  22.739  1.00  0.00     0.042 C 
ATOM      3  O   UNL     1      -8.737 -21.258  23.169  1.00  0.00    -0.550 OA
ATOM      4  O   UNL     1     -10.948 -21.377  22.580  1.00  0.00    -0.550 OA
ENDBRANCH   1   2
BRANCH   1   5
ATOM      5  C   UNL     1     -10.998 -18.727  21.743  1.00  0.00     0.059 C 
BRANCH   5   6
ATOM      6  C   UNL     1     -10.766 -18.479  20.284  1.00  0.00     0.042 C 
ATOM      7  O   UNL     1     -11.017 -17.351  19.784  1.00  0.00    -0.550 OA
ATOM      8  O   UNL     1     -10.312 -19.508  19.468  1.00  0.00    -0.550 OA
ENDBRANCH   5   6
ENDBRANCH   1   5
TORSDOF 3
ENDMDL
MODEL 9
REMARK VINA RESULT:    -2.426      1.577      2.157
REMARK INTER + INTRA:          -2.971
REMARK INTER:                  -2.864
REMARK INTRA:                  -0.107
REMARK UNBOUND:                -0.119
REMARK SMILES O=C([O-])CCC(=O)[O-]
REMARK SMILES IDX 4 1 2 2 1 3 3 4 5 5 6 6 7 7 8 8
REMARK H PARENT
REMARK Flexibility Score: inf
ROOT
ATOM      1  C   UNL     1     -10.860 -20.024  21.200  1.00  0.00     0.059 C 
ENDROOT
BRANCH   1   2
ATOM      2  C   UNL     1     -10.037 -20.950  20.356  1.00  0.00     0.042 C 
ATOM      3  O   UNL     1      -9.689 -22.073  20.804  1.00  0.00    -0.550 OA
ATOM      4  O   UNL     1      -9.692 -20.588  19.059  1.00  0.00    -0.550 OA
ENDBRANCH   1   2
BRANCH   1   5
ATOM      5  C   UNL     1     -10.050 -19.454  22.369  1.00  0.00     0.059 C 
BRANCH   5   6
ATOM      6  C   UNL     1      -9.524 -18.086  22.061  1.00  0.00     0.042 C 
ATOM      7  O   UNL     1      -8.842 -17.461  22.916  1.00  0.00    -0.550 OA
ATOM      8  O   UNL     1      -9.822 -17.484  20.845  1.00  0.00    -0.550 OA
ENDBRANCH   5   6
ENDBRANCH   1   5
TORSDOF 3
ENDMDL
