MODEL 1
REMARK VINA RESULT:    -4.975      0.000      0.000
REMARK INTER + INTRA:         -14.463
REMARK INTER:                 -11.373
REMARK INTRA:                  -3.089
REMARK UNBOUND:                -3.089
REMARK SMILES CCCCCCCCCCCCCCCCCCCCCCCC(=O)[O-]
REMARK SMILES IDX 13 1 14 2 15 3 16 4 17 5 18 6 19 7 20 8 21 9 22 10 23 11
REMARK SMILES IDX 24 12 25 13 26 14 12 15 11 16 10 17 9 18 8 19 7 20 6 21 5 22
REMARK SMILES IDX 4 23 3 24 2 25 1 26
REMARK H PARENT
REMARK Flexibility Score: inf
ROOT
ATOM      1  C   UNL     1     161.264 166.505 156.157  1.00  0.00     0.000 C 
ENDROOT
BRANCH   1   2
ATOM      2  C   UNL     1     162.761 166.828 156.013  1.00  0.00     0.000 C 
BRANCH   2   3
ATOM      3  C   UNL     1     163.394 167.344 157.319  1.00  0.00     0.000 C 
BRANCH   3   4
ATOM      4  C   UNL     1     163.724 166.263 158.366  1.00  0.00     0.000 C 
BRANCH   4   5
ATOM      5  C   UNL     1     163.192 166.600 159.771  1.00  0.00     0.000 C 
BRANCH   5   6
ATOM      6  C   UNL     1     162.270 167.838 159.765  1.00  0.00     0.000 C 
BRANCH   6   7
ATOM      7  C   UNL     1     161.015 167.678 160.639  1.00  0.00     0.000 C 
BRANCH   7   8
ATOM      8  C   UNL     1     159.865 166.960 159.913  1.00  0.00     0.000 C 
BRANCH   8   9
ATOM      9  C   UNL     1     159.271 165.813 160.759  1.00  0.00     0.000 C 
BRANCH   9  10
ATOM     10  C   UNL     1     159.973 164.461 160.541  1.00  0.00     0.006 C 
BRANCH  10  11
ATOM     11  C   UNL     1     160.447 164.260 159.097  1.00  0.00     0.053 C 
BRANCH  11  12
ATOM     12  C   UNL     1     161.572 163.275 159.050  1.00  0.00     0.041 C 
ATOM     13  O   UNL     1     162.276 163.166 158.011  1.00  0.00    -0.550 OA
ATOM     14  O   UNL     1     161.814 162.441 160.133  1.00  0.00    -0.550 OA
ENDBRANCH  11  12
ENDBRANCH  10  11
ENDBRANCH   9  10
ENDBRANCH   8   9
ENDBRANCH   7   8
ENDBRANCH   6   7
ENDBRANCH   5   6
ENDBRANCH   4   5
ENDBRANCH   3   4
ENDBRANCH   2   3
ENDBRANCH   1   2
BRANCH   1  15
ATOM     15  C   UNL     1     160.468 166.754 154.862  1.00  0.00     0.000 C 
BRANCH  15  16
ATOM     16  C   UNL     1     161.204 166.405 153.555  1.00  0.00     0.000 C 
BRANCH  16  17
ATOM     17  C   UNL     1     161.363 167.612 152.615  1.00  0.00     0.000 C 
BRANCH  17  18
ATOM     18  C   UNL     1     162.797 168.164 152.596  1.00  0.00    -0.000 C 
BRANCH  18  19
ATOM     19  C   UNL     1     163.856 167.073 152.371  1.00  0.00    -0.000 C 
BRANCH  19  20
ATOM     20  C   UNL     1     165.215 167.501 152.945  1.00  0.00    -0.000 C 
BRANCH  20  21
ATOM     21  C   UNL     1     165.137 168.824 153.726  1.00  0.00    -0.000 C 
BRANCH  21  22
ATOM     22  C   UNL     1     166.297 169.776 153.394  1.00  0.00    -0.000 C 
BRANCH  22  23
ATOM     23  C   UNL     1     165.774 171.147 152.949  1.00  0.00    -0.000 C 
BRANCH  23  24
ATOM     24  C   UNL     1     164.701 170.999 151.861  1.00  0.00    -0.000 C 
BRANCH  24  25
ATOM     25  C   UNL     1     165.182 171.485 150.486  1.00  0.00    -0.003 C 
ATOM     26  C   UNL     1     166.009 170.436 149.743  1.00  0.00     0.004 C 
ENDBRANCH  24  25
ENDBRANCH  23  24
ENDBRANCH  22  23
ENDBRANCH  21  22
ENDBRANCH  20  21
ENDBRANCH  19  20
ENDBRANCH  18  19
ENDBRANCH  17  18
ENDBRANCH  16  17
ENDBRANCH  15  16
ENDBRANCH   1  15
TORSDOF 22
ENDMDL
MODEL 2
REMARK VINA RESULT:    -4.971      1.834      4.830
REMARK INTER + INTRA:         -14.454
REMARK INTER:                 -11.204
REMARK INTRA:                  -3.250
REMARK UNBOUND:                -3.089
REMARK SMILES CCCCCCCCCCCCCCCCCCCCCCCC(=O)[O-]
REMARK SMILES IDX 13 1 14 2 15 3 16 4 17 5 18 6 19 7 20 8 21 9 22 10 23 11
REMARK SMILES IDX 24 12 25 13 26 14 12 15 11 16 10 17 9 18 8 19 7 20 6 21 5 22
REMARK SMILES IDX 4 23 3 24 2 25 1 26
REMARK H PARENT
REMARK Flexibility Score: inf
ROOT
ATOM      1  C   UNL     1     161.759 165.719 160.080  1.00  0.00     0.000 C 
ENDROOT
BRANCH   1   2
ATOM      2  C   UNL     1     160.805 166.916 160.242  1.00  0.00     0.000 C 
BRANCH   2   3
ATOM      3  C   UNL     1     159.338 166.493 160.448  1.00  0.00     0.000 C 
BRANCH   3   4
ATOM      4  C   UNL     1     159.119 165.000 160.759  1.00  0.00     0.000 C 
BRANCH   4   5
ATOM      5  C   UNL     1     157.801 164.450 160.184  1.00  0.00     0.000 C 
BRANCH   5   6
ATOM      6  C   UNL     1     158.003 163.118 159.429  1.00  0.00     0.000 C 
BRANCH   6   7
ATOM      7  C   UNL     1     158.622 163.288 158.031  1.00  0.00     0.000 C 
BRANCH   7   8
ATOM      8  C   UNL     1     160.081 162.813 157.959  1.00  0.00     0.000 C 
BRANCH   8   9
ATOM      9  C   UNL     1     160.495 162.013 159.213  1.00  0.00     0.000 C 
BRANCH   9  10
ATOM     10  C   UNL     1     162.009 162.041 159.488  1.00  0.00     0.006 C 
BRANCH  10  11
ATOM     11  C   UNL     1     162.816 162.637 158.329  1.00  0.00     0.053 C 
BRANCH  11  12
ATOM     12  C   UNL     1     164.171 162.008 158.258  1.00  0.00     0.041 C 
ATOM     13  O   UNL     1     165.195 162.724 158.096  1.00  0.00    -0.550 OA
ATOM     14  O   UNL     1     164.303 160.627 158.321  1.00  0.00    -0.550 OA
ENDBRANCH  11  12
ENDBRANCH  10  11
ENDBRANCH   9  10
ENDBRANCH   8   9
ENDBRANCH   7   8
ENDBRANCH   6   7
ENDBRANCH   5   6
ENDBRANCH   4   5
ENDBRANCH   3   4
ENDBRANCH   2   3
ENDBRANCH   1   2
BRANCH   1  15
ATOM     15  C   UNL     1     163.230 166.143 159.905  1.00  0.00     0.000 C 
BRANCH  15  16
ATOM     16  C   UNL     1     163.755 166.132 158.457  1.00  0.00     0.000 C 
BRANCH  16  17
ATOM     17  C   UNL     1     163.255 167.327 157.628  1.00  0.00     0.000 C 
BRANCH  17  18
ATOM     18  C   UNL     1     162.541 166.896 156.336  1.00  0.00    -0.000 C 
BRANCH  18  19
ATOM     19  C   UNL     1     161.193 166.206 156.599  1.00  0.00    -0.000 C 
BRANCH  19  20
ATOM     20  C   UNL     1     160.443 165.949 155.283  1.00  0.00    -0.000 C 
BRANCH  20  21
ATOM     21  C   UNL     1     160.820 166.955 154.182  1.00  0.00    -0.000 C 
BRANCH  21  22
ATOM     22  C   UNL     1     160.879 166.311 152.788  1.00  0.00    -0.000 C 
BRANCH  22  23
ATOM     23  C   UNL     1     162.251 166.529 152.139  1.00  0.00    -0.000 C 
BRANCH  23  24
ATOM     24  C   UNL     1     163.096 167.516 152.958  1.00  0.00    -0.000 C 
BRANCH  24  25
ATOM     25  C   UNL     1     164.603 167.345 152.718  1.00  0.00    -0.003 C 
ATOM     26  C   UNL     1     165.411 168.578 153.122  1.00  0.00     0.004 C 
ENDBRANCH  24  25
ENDBRANCH  23  24
ENDBRANCH  22  23
ENDBRANCH  21  22
ENDBRANCH  20  21
ENDBRANCH  19  20
ENDBRANCH  18  19
ENDBRANCH  17  18
ENDBRANCH  16  17
ENDBRANCH  15  16
ENDBRANCH   1  15
TORSDOF 22
ENDMDL
MODEL 3
REMARK VINA RESULT:    -4.955      1.816      2.771
REMARK INTER + INTRA:         -14.417
REMARK INTER:                 -11.932
REMARK INTRA:                  -2.484
REMARK UNBOUND:                -3.089
REMARK SMILES CCCCCCCCCCCCCCCCCCCCCCCC(=O)[O-]
REMARK SMILES IDX 13 1 14 2 15 3 16 4 17 5 18 6 19 7 20 8 21 9 22 10 23 11
REMARK SMILES IDX 24 12 25 13 26 14 12 15 11 16 10 17 9 18 8 19 7 20 6 21 5 22
REMARK SMILES IDX 4 23 3 24 2 25 1 26
REMARK H PARENT
REMARK Flexibility Score: inf
ROOT
ATOM      1  C   UNL     1     161.206 166.358 156.737  1.00  0.00     0.000 C 
ENDROOT
BRANCH   1   2
ATOM      2  C   UNL     1     162.075 166.800 157.928  1.00  0.00     0.000 C 
BRANCH   2   3
ATOM      3  C   UNL     1     163.574 166.514 157.718  1.00  0.00     0.000 C 
BRANCH   3   4
ATOM      4  C   UNL     1     164.118 165.272 158.448  1.00  0.00     0.000 C 
BRANCH   4   5
ATOM      5  C   UNL     1     163.766 163.951 157.738  1.00  0.00     0.000 C 
BRANCH   5   6
ATOM      6  C   UNL     1     162.875 163.039 158.609  1.00  0.00     0.000 C 
BRANCH   6   7
ATOM      7  C   UNL     1     161.372 163.178 158.312  1.00  0.00     0.000 C 
BRANCH   7   8
ATOM      8  C   UNL     1     160.515 163.269 159.585  1.00  0.00     0.000 C 
BRANCH   8   9
ATOM      9  C   UNL     1     161.295 163.884 160.768  1.00  0.00     0.000 C 
BRANCH   9  10
ATOM     10  C   UNL     1     160.429 164.767 161.683  1.00  0.00     0.006 C 
BRANCH  10  11
ATOM     11  C   UNL     1     160.634 166.266 161.436  1.00  0.00     0.053 C 
BRANCH  11  12
ATOM     12  C   UNL     1     159.521 166.814 160.601  1.00  0.00     0.041 C 
ATOM     13  O   UNL     1     158.409 166.223 160.559  1.00  0.00    -0.550 OA
ATOM     14  O   UNL     1     159.724 167.950 159.828  1.00  0.00    -0.550 OA
ENDBRANCH  11  12
ENDBRANCH  10  11
ENDBRANCH   9  10
ENDBRANCH   8   9
ENDBRANCH   7   8
ENDBRANCH   6   7
ENDBRANCH   5   6
ENDBRANCH   4   5
ENDBRANCH   3   4
ENDBRANCH   2   3
ENDBRANCH   1   2
BRANCH   1  15
ATOM     15  C   UNL     1     161.808 166.750 155.375  1.00  0.00     0.000 C 
BRANCH  15  16
ATOM     16  C   UNL     1     160.860 166.615 154.168  1.00  0.00     0.000 C 
BRANCH  16  17
ATOM     17  C   UNL     1     161.536 166.964 152.831  1.00  0.00     0.000 C 
BRANCH  17  18
ATOM     18  C   UNL     1     162.918 167.613 153.016  1.00  0.00    -0.000 C 
BRANCH  18  19
ATOM     19  C   UNL     1     164.030 166.878 152.251  1.00  0.00    -0.000 C 
BRANCH  19  20
ATOM     20  C   UNL     1     165.326 167.706 152.240  1.00  0.00    -0.000 C 
BRANCH  20  21
ATOM     21  C   UNL     1     165.382 168.730 153.385  1.00  0.00    -0.000 C 
BRANCH  21  22
ATOM     22  C   UNL     1     165.691 170.153 152.891  1.00  0.00    -0.000 C 
BRANCH  22  23
ATOM     23  C   UNL     1     164.556 170.688 152.011  1.00  0.00    -0.000 C 
BRANCH  23  24
ATOM     24  C   UNL     1     165.111 171.356 150.744  1.00  0.00    -0.000 C 
BRANCH  24  25
ATOM     25  C   UNL     1     166.047 170.432 149.950  1.00  0.00    -0.003 C 
ATOM     26  C   UNL     1     166.454 171.021 148.600  1.00  0.00     0.004 C 
ENDBRANCH  24  25
ENDBRANCH  23  24
ENDBRANCH  22  23
ENDBRANCH  21  22
ENDBRANCH  20  21
ENDBRANCH  19  20
ENDBRANCH  18  19
ENDBRANCH  17  18
ENDBRANCH  16  17
ENDBRANCH  15  16
ENDBRANCH   1  15
TORSDOF 22
ENDMDL
MODEL 4
REMARK VINA RESULT:    -4.871      1.435      3.120
REMARK INTER + INTRA:         -14.225
REMARK INTER:                 -11.490
REMARK INTRA:                  -2.735
REMARK UNBOUND:                -3.089
REMARK SMILES CCCCCCCCCCCCCCCCCCCCCCCC(=O)[O-]
REMARK SMILES IDX 13 1 14 2 15 3 16 4 17 5 18 6 19 7 20 8 21 9 22 10 23 11
REMARK SMILES IDX 24 12 25 13 26 14 12 15 11 16 10 17 9 18 8 19 7 20 6 21 5 22
REMARK SMILES IDX 4 23 3 24 2 25 1 26
REMARK H PARENT
REMARK Flexibility Score: inf
ROOT
ATOM      1  C   UNL     1     163.370 167.301 157.427  1.00  0.00     0.000 C 
ENDROOT
BRANCH   1   2
ATOM      2  C   UNL     1     163.502 166.520 158.747  1.00  0.00     0.000 C 
BRANCH   2   3
ATOM      3  C   UNL     1     162.786 167.205 159.926  1.00  0.00     0.000 C 
BRANCH   3   4
ATOM      4  C   UNL     1     161.710 166.356 160.629  1.00  0.00     0.000 C 
BRANCH   4   5
ATOM      5  C   UNL     1     160.311 166.519 160.007  1.00  0.00     0.000 C 
BRANCH   5   6
ATOM      6  C   UNL     1     159.228 165.753 160.797  1.00  0.00     0.000 C 
BRANCH   6   7
ATOM      7  C   UNL     1     158.952 164.340 160.256  1.00  0.00     0.000 C 
BRANCH   7   8
ATOM      8  C   UNL     1     159.698 164.042 158.946  1.00  0.00     0.000 C 
BRANCH   8   9
ATOM      9  C   UNL     1     159.756 162.529 158.642  1.00  0.00     0.000 C 
BRANCH   9  10
ATOM     10  C   UNL     1     161.181 162.009 158.383  1.00  0.00     0.006 C 
BRANCH  10  11
ATOM     11  C   UNL     1     162.261 163.061 158.661  1.00  0.00     0.053 C 
BRANCH  11  12
ATOM     12  C   UNL     1     163.610 162.536 158.283  1.00  0.00     0.041 C 
ATOM     13  O   UNL     1     164.501 163.323 157.865  1.00  0.00    -0.550 OA
ATOM     14  O   UNL     1     163.871 161.174 158.342  1.00  0.00    -0.550 OA
ENDBRANCH  11  12
ENDBRANCH  10  11
ENDBRANCH   9  10
ENDBRANCH   8   9
ENDBRANCH   7   8
ENDBRANCH   6   7
ENDBRANCH   5   6
ENDBRANCH   4   5
ENDBRANCH   3   4
ENDBRANCH   2   3
ENDBRANCH   1   2
BRANCH   1  15
ATOM     15  C   UNL     1     162.667 166.495 156.319  1.00  0.00     0.000 C 
BRANCH  15  16
ATOM     16  C   UNL     1     161.134 166.414 156.430  1.00  0.00     0.000 C 
BRANCH  16  17
ATOM     17  C   UNL     1     160.457 166.002 155.112  1.00  0.00     0.000 C 
BRANCH  17  18
ATOM     18  C   UNL     1     160.515 167.107 154.044  1.00  0.00    -0.000 C 
BRANCH  18  19
ATOM     19  C   UNL     1     160.791 166.561 152.634  1.00  0.00    -0.000 C 
BRANCH  19  20
ATOM     20  C   UNL     1     162.302 166.499 152.358  1.00  0.00    -0.000 C 
BRANCH  20  21
ATOM     21  C   UNL     1     163.044 167.755 152.844  1.00  0.00    -0.000 C 
BRANCH  21  22
ATOM     22  C   UNL     1     164.557 167.528 152.988  1.00  0.00    -0.000 C 
BRANCH  22  23
ATOM     23  C   UNL     1     165.349 168.599 152.229  1.00  0.00    -0.000 C 
BRANCH  23  24
ATOM     24  C   UNL     1     165.617 169.820 153.120  1.00  0.00    -0.000 C 
BRANCH  24  25
ATOM     25  C   UNL     1     166.501 169.486 154.331  1.00  0.00    -0.003 C 
ATOM     26  C   UNL     1     167.936 169.136 153.938  1.00  0.00     0.004 C 
ENDBRANCH  24  25
ENDBRANCH  23  24
ENDBRANCH  22  23
ENDBRANCH  21  22
ENDBRANCH  20  21
ENDBRANCH  19  20
ENDBRANCH  18  19
ENDBRANCH  17  18
ENDBRANCH  16  17
ENDBRANCH  15  16
ENDBRANCH   1  15
TORSDOF 22
ENDMDL
MODEL 5
REMARK VINA RESULT:    -4.862      3.764      9.357
REMARK INTER + INTRA:         -14.204
REMARK INTER:                 -11.398
REMARK INTRA:                  -2.806
REMARK UNBOUND:                -3.089
REMARK SMILES CCCCCCCCCCCCCCCCCCCCCCCC(=O)[O-]
REMARK SMILES IDX 13 1 14 2 15 3 16 4 17 5 18 6 19 7 20 8 21 9 22 10 23 11
REMARK SMILES IDX 24 12 25 13 26 14 12 15 11 16 10 17 9 18 8 19 7 20 6 21 5 22
REMARK SMILES IDX 4 23 3 24 2 25 1 26
REMARK H PARENT
REMARK Flexibility Score: inf
ROOT
ATOM      1  C   UNL     1     162.540 166.873 156.559  1.00  0.00     0.000 C 
ENDROOT
BRANCH   1   2
ATOM      2  C   UNL     1     161.169 166.180 156.657  1.00  0.00     0.000 C 
BRANCH   2   3
ATOM      3  C   UNL     1     160.465 166.042 155.294  1.00  0.00     0.000 C 
BRANCH   3   4
ATOM      4  C   UNL     1     160.957 167.003 154.196  1.00  0.00     0.000 C 
BRANCH   4   5
ATOM      5  C   UNL     1     161.032 166.345 152.806  1.00  0.00     0.000 C 
BRANCH   5   6
ATOM      6  C   UNL     1     162.434 166.478 152.172  1.00  0.00     0.000 C 
BRANCH   6   7
ATOM      7  C   UNL     1     163.318 167.541 152.845  1.00  0.00     0.000 C 
BRANCH   7   8
ATOM      8  C   UNL     1     164.821 167.282 152.651  1.00  0.00     0.000 C 
BRANCH   8   9
ATOM      9  C   UNL     1     165.565 168.533 152.135  1.00  0.00     0.000 C 
BRANCH   9  10
ATOM     10  C   UNL     1     165.395 169.766 153.040  1.00  0.00     0.006 C 
BRANCH  10  11
ATOM     11  C   UNL     1     164.656 170.918 152.348  1.00  0.00     0.053 C 
BRANCH  11  12
ATOM     12  C   UNL     1     165.567 171.623 151.393  1.00  0.00     0.041 C 
ATOM     13  O   UNL     1     166.464 172.393 151.825  1.00  0.00    -0.550 OA
ATOM     14  O   UNL     1     165.394 171.469 150.023  1.00  0.00    -0.550 OA
ENDBRANCH  11  12
ENDBRANCH  10  11
ENDBRANCH   9  10
ENDBRANCH   8   9
ENDBRANCH   7   8
ENDBRANCH   6   7
ENDBRANCH   5   6
ENDBRANCH   4   5
ENDBRANCH   3   4
ENDBRANCH   2   3
ENDBRANCH   1   2
BRANCH   1  15
ATOM     15  C   UNL     1     163.497 166.476 157.699  1.00  0.00     0.000 C 
BRANCH  15  16
ATOM     16  C   UNL     1     163.124 165.191 158.460  1.00  0.00     0.000 C 
BRANCH  16  17
ATOM     17  C   UNL     1     163.857 163.946 157.931  1.00  0.00     0.000 C 
BRANCH  17  18
ATOM     18  C   UNL     1     163.152 162.634 158.314  1.00  0.00    -0.000 C 
BRANCH  18  19
ATOM     19  C   UNL     1     161.802 162.864 159.012  1.00  0.00    -0.000 C 
BRANCH  19  20
ATOM     20  C   UNL     1     160.635 162.568 158.056  1.00  0.00    -0.000 C 
BRANCH  20  21
ATOM     21  C   UNL     1     159.401 163.439 158.344  1.00  0.00    -0.000 C 
BRANCH  21  22
ATOM     22  C   UNL     1     159.025 163.457 159.835  1.00  0.00    -0.000 C 
BRANCH  22  23
ATOM     23  C   UNL     1     158.680 164.877 160.298  1.00  0.00    -0.000 C 
BRANCH  23  24
ATOM     24  C   UNL     1     159.887 165.815 160.140  1.00  0.00    -0.000 C 
BRANCH  24  25
ATOM     25  C   UNL     1     160.550 166.155 161.483  1.00  0.00    -0.003 C 
ATOM     26  C   UNL     1     161.304 164.972 162.088  1.00  0.00     0.004 C 
ENDBRANCH  24  25
ENDBRANCH  23  24
ENDBRANCH  22  23
ENDBRANCH  21  22
ENDBRANCH  20  21
ENDBRANCH  19  20
ENDBRANCH  18  19
ENDBRANCH  17  18
ENDBRANCH  16  17
ENDBRANCH  15  16
ENDBRANCH   1  15
TORSDOF 22
ENDMDL
MODEL 6
REMARK VINA RESULT:    -4.826      1.880      3.604
REMARK INTER + INTRA:         -14.121
REMARK INTER:                 -10.827
REMARK INTRA:                  -3.294
REMARK UNBOUND:                -3.089
REMARK SMILES CCCCCCCCCCCCCCCCCCCCCCCC(=O)[O-]
REMARK SMILES IDX 13 1 14 2 15 3 16 4 17 5 18 6 19 7 20 8 21 9 22 10 23 11
REMARK SMILES IDX 24 12 25 13 26 14 12 15 11 16 10 17 9 18 8 19 7 20 6 21 5 22
REMARK SMILES IDX 4 23 3 24 2 25 1 26
REMARK H PARENT
REMARK Flexibility Score: inf
ROOT
ATOM      1  C   UNL     1     163.510 166.492 158.162  1.00  0.00     0.000 C 
ENDROOT
BRANCH   1   2
ATOM      2  C   UNL     1     163.632 165.111 158.830  1.00  0.00     0.000 C 
BRANCH   2   3
ATOM      3  C   UNL     1     163.848 163.970 157.819  1.00  0.00     0.000 C 
BRANCH   3   4
ATOM      4  C   UNL     1     163.505 162.559 158.333  1.00  0.00     0.000 C 
BRANCH   4   5
ATOM      5  C   UNL     1     162.047 162.428 158.812  1.00  0.00     0.000 C 
BRANCH   5   6
ATOM      6  C   UNL     1     161.034 162.701 157.679  1.00  0.00     0.000 C 
BRANCH   6   7
ATOM      7  C   UNL     1     159.741 163.384 158.157  1.00  0.00     0.000 C 
BRANCH   7   8
ATOM      8  C   UNL     1     159.764 163.731 159.654  1.00  0.00     0.000 C 
BRANCH   8   9
ATOM      9  C   UNL     1     159.633 165.250 159.901  1.00  0.00     0.000 C 
BRANCH   9  10
ATOM     10  C   UNL     1     160.708 165.814 160.846  1.00  0.00     0.006 C 
BRANCH  10  11
ATOM     11  C   UNL     1     161.455 164.723 161.621  1.00  0.00     0.053 C 
BRANCH  11  12
ATOM     12  C   UNL     1     160.996 164.685 163.044  1.00  0.00     0.041 C 
ATOM     13  O   UNL     1     160.086 165.463 163.437  1.00  0.00    -0.550 OA
ATOM     14  O   UNL     1     161.604 163.827 163.950  1.00  0.00    -0.550 OA
ENDBRANCH  11  12
ENDBRANCH  10  11
ENDBRANCH   9  10
ENDBRANCH   8   9
ENDBRANCH   7   8
ENDBRANCH   6   7
ENDBRANCH   5   6
ENDBRANCH   4   5
ENDBRANCH   3   4
ENDBRANCH   2   3
ENDBRANCH   1   2
BRANCH   1  15
ATOM     15  C   UNL     1     162.807 166.437 156.792  1.00  0.00     0.000 C 
BRANCH  15  16
ATOM     16  C   UNL     1     161.269 166.474 156.836  1.00  0.00     0.000 C 
BRANCH  16  17
ATOM     17  C   UNL     1     160.619 165.939 155.548  1.00  0.00     0.000 C 
BRANCH  17  18
ATOM     18  C   UNL     1     160.793 166.894 154.355  1.00  0.00    -0.000 C 
BRANCH  18  19
ATOM     19  C   UNL     1     160.861 166.159 153.007  1.00  0.00    -0.000 C 
BRANCH  19  20
ATOM     20  C   UNL     1     161.847 166.853 152.054  1.00  0.00    -0.000 C 
BRANCH  20  21
ATOM     21  C   UNL     1     162.899 167.691 152.800  1.00  0.00    -0.000 C 
BRANCH  21  22
ATOM     22  C   UNL     1     164.227 166.940 152.989  1.00  0.00    -0.000 C 
BRANCH  22  23
ATOM     23  C   UNL     1     165.377 167.672 152.287  1.00  0.00    -0.000 C 
BRANCH  23  24
ATOM     24  C   UNL     1     165.682 169.009 152.979  1.00  0.00    -0.000 C 
BRANCH  24  25
ATOM     25  C   UNL     1     165.537 170.210 152.033  1.00  0.00    -0.003 C 
ATOM     26  C   UNL     1     164.861 171.409 152.698  1.00  0.00     0.004 C 
ENDBRANCH  24  25
ENDBRANCH  23  24
ENDBRANCH  22  23
ENDBRANCH  21  22
ENDBRANCH  20  21
ENDBRANCH  19  20
ENDBRANCH  18  19
ENDBRANCH  17  18
ENDBRANCH  16  17
ENDBRANCH  15  16
ENDBRANCH   1  15
TORSDOF 22
ENDMDL
MODEL 7
REMARK VINA RESULT:    -4.824      1.854      3.193
REMARK INTER + INTRA:         -14.118
REMARK INTER:                 -11.684
REMARK INTRA:                  -2.434
REMARK UNBOUND:                -3.089
REMARK SMILES CCCCCCCCCCCCCCCCCCCCCCCC(=O)[O-]
REMARK SMILES IDX 13 1 14 2 15 3 16 4 17 5 18 6 19 7 20 8 21 9 22 10 23 11
REMARK SMILES IDX 24 12 25 13 26 14 12 15 11 16 10 17 9 18 8 19 7 20 6 21 5 22
REMARK SMILES IDX 4 23 3 24 2 25 1 26
REMARK H PARENT
REMARK Flexibility Score: inf
ROOT
ATOM      1  C   UNL     1     161.295 166.365 157.141  1.00  0.00     0.000 C 
ENDROOT
BRANCH   1   2
ATOM      2  C   UNL     1     162.408 166.850 158.087  1.00  0.00     0.000 C 
BRANCH   2   3
ATOM      3  C   UNL     1     163.315 165.710 158.586  1.00  0.00     0.000 C 
BRANCH   3   4
ATOM      4  C   UNL     1     163.391 164.477 157.666  1.00  0.00     0.000 C 
BRANCH   4   5
ATOM      5  C   UNL     1     164.179 163.308 158.287  1.00  0.00     0.000 C 
BRANCH   5   6
ATOM      6  C   UNL     1     163.349 162.007 158.340  1.00  0.00     0.000 C 
BRANCH   6   7
ATOM      7  C   UNL     1     162.116 162.098 159.254  1.00  0.00     0.000 C 
BRANCH   7   8
ATOM      8  C   UNL     1     160.790 162.090 158.477  1.00  0.00     0.000 C 
BRANCH   8   9
ATOM      9  C   UNL     1     159.978 163.384 158.699  1.00  0.00     0.000 C 
BRANCH   9  10
ATOM     10  C   UNL     1     160.317 164.104 160.016  1.00  0.00     0.006 C 
BRANCH  10  11
ATOM     11  C   UNL     1     159.162 164.965 160.540  1.00  0.00     0.053 C 
BRANCH  11  12
ATOM     12  C   UNL     1     159.632 166.359 160.814  1.00  0.00     0.041 C 
ATOM     13  O   UNL     1     159.414 167.276 159.979  1.00  0.00    -0.550 OA
ATOM     14  O   UNL     1     160.355 166.637 161.966  1.00  0.00    -0.550 OA
ENDBRANCH  11  12
ENDBRANCH  10  11
ENDBRANCH   9  10
ENDBRANCH   8   9
ENDBRANCH   7   8
ENDBRANCH   6   7
ENDBRANCH   5   6
ENDBRANCH   4   5
ENDBRANCH   3   4
ENDBRANCH   2   3
ENDBRANCH   1   2
BRANCH   1  15
ATOM     15  C   UNL     1     161.623 166.604 155.655  1.00  0.00     0.000 C 
BRANCH  15  16
ATOM     16  C   UNL     1     160.429 166.500 154.689  1.00  0.00     0.000 C 
BRANCH  16  17
ATOM     17  C   UNL     1     160.651 167.268 153.375  1.00  0.00     0.000 C 
BRANCH  17  18
ATOM     18  C   UNL     1     161.724 166.622 152.483  1.00  0.00    -0.000 C 
BRANCH  18  19
ATOM     19  C   UNL     1     163.092 167.315 152.597  1.00  0.00    -0.000 C 
BRANCH  19  20
ATOM     20  C   UNL     1     164.168 166.530 151.831  1.00  0.00    -0.000 C 
BRANCH  20  21
ATOM     21  C   UNL     1     165.551 166.617 152.498  1.00  0.00    -0.000 C 
BRANCH  21  22
ATOM     22  C   UNL     1     166.448 167.690 151.861  1.00  0.00    -0.000 C 
BRANCH  22  23
ATOM     23  C   UNL     1     167.011 168.639 152.925  1.00  0.00    -0.000 C 
BRANCH  23  24
ATOM     24  C   UNL     1     165.881 169.378 153.656  1.00  0.00    -0.000 C 
BRANCH  24  25
ATOM     25  C   UNL     1     165.585 170.757 153.048  1.00  0.00    -0.003 C 
ATOM     26  C   UNL     1     164.490 170.711 151.982  1.00  0.00     0.004 C 
ENDBRANCH  24  25
ENDBRANCH  23  24
ENDBRANCH  22  23
ENDBRANCH  21  22
ENDBRANCH  20  21
ENDBRANCH  19  20
ENDBRANCH  18  19
ENDBRANCH  17  18
ENDBRANCH  16  17
ENDBRANCH  15  16
ENDBRANCH   1  15
TORSDOF 22
ENDMDL
MODEL 8
REMARK VINA RESULT:    -4.787      3.373      9.145
REMARK INTER + INTRA:         -14.033
REMARK INTER:                 -11.023
REMARK INTRA:                  -3.010
REMARK UNBOUND:                -3.089
REMARK SMILES CCCCCCCCCCCCCCCCCCCCCCCC(=O)[O-]
REMARK SMILES IDX 13 1 14 2 15 3 16 4 17 5 18 6 19 7 20 8 21 9 22 10 23 11
REMARK SMILES IDX 24 12 25 13 26 14 12 15 11 16 10 17 9 18 8 19 7 20 6 21 5 22
REMARK SMILES IDX 4 23 3 24 2 25 1 26
REMARK H PARENT
REMARK Flexibility Score: inf
ROOT
ATOM      1  C   UNL     1     163.076 166.767 157.286  1.00  0.00     0.000 C 
ENDROOT
BRANCH   1   2
ATOM      2  C   UNL     1     161.931 165.886 156.753  1.00  0.00     0.000 C 
BRANCH   2   3
ATOM      3  C   UNL     1     160.845 166.692 156.017  1.00  0.00     0.000 C 
BRANCH   3   4
ATOM      4  C   UNL     1     160.491 166.188 154.605  1.00  0.00     0.000 C 
BRANCH   4   5
ATOM      5  C   UNL     1     160.125 167.323 153.632  1.00  0.00     0.000 C 
BRANCH   5   6
ATOM      6  C   UNL     1     160.982 167.292 152.348  1.00  0.00     0.000 C 
BRANCH   6   7
ATOM      7  C   UNL     1     162.434 166.844 152.586  1.00  0.00     0.000 C 
BRANCH   7   8
ATOM      8  C   UNL     1     163.368 168.007 152.958  1.00  0.00     0.000 C 
BRANCH   8   9
ATOM      9  C   UNL     1     164.781 167.831 152.360  1.00  0.00     0.000 C 
BRANCH   9  10
ATOM     10  C   UNL     1     165.676 169.073 152.523  1.00  0.00     0.006 C 
BRANCH  10  11
ATOM     11  C   UNL     1     165.173 170.280 151.723  1.00  0.00     0.053 C 
BRANCH  11  12
ATOM     12  C   UNL     1     165.829 171.536 152.205  1.00  0.00     0.041 C 
ATOM     13  O   UNL     1     165.282 172.232 153.101  1.00  0.00    -0.550 OA
ATOM     14  O   UNL     1     167.018 171.965 151.632  1.00  0.00    -0.550 OA
ENDBRANCH  11  12
ENDBRANCH  10  11
ENDBRANCH   9  10
ENDBRANCH   8   9
ENDBRANCH   7   8
ENDBRANCH   6   7
ENDBRANCH   5   6
ENDBRANCH   4   5
ENDBRANCH   3   4
ENDBRANCH   2   3
ENDBRANCH   1   2
BRANCH   1  15
ATOM     15  C   UNL     1     163.853 166.108 158.441  1.00  0.00     0.000 C 
BRANCH  15  16
ATOM     16  C   UNL     1     163.426 166.538 159.857  1.00  0.00     0.000 C 
BRANCH  16  17
ATOM     17  C   UNL     1     162.449 167.727 159.854  1.00  0.00     0.000 C 
BRANCH  17  18
ATOM     18  C   UNL     1     161.197 167.469 160.709  1.00  0.00    -0.000 C 
BRANCH  18  19
ATOM     19  C   UNL     1     159.938 167.219 159.863  1.00  0.00    -0.000 C 
BRANCH  19  20
ATOM     20  C   UNL     1     159.417 165.787 160.066  1.00  0.00    -0.000 C 
BRANCH  20  21
ATOM     21  C   UNL     1     160.266 164.986 161.068  1.00  0.00    -0.000 C 
BRANCH  21  22
ATOM     22  C   UNL     1     161.035 163.834 160.401  1.00  0.00    -0.000 C 
BRANCH  22  23
ATOM     23  C   UNL     1     160.442 163.498 159.028  1.00  0.00    -0.000 C 
BRANCH  23  24
ATOM     24  C   UNL     1     161.283 162.430 158.313  1.00  0.00    -0.000 C 
BRANCH  24  25
ATOM     25  C   UNL     1     162.777 162.523 158.662  1.00  0.00    -0.003 C 
ATOM     26  C   UNL     1     163.516 161.201 158.452  1.00  0.00     0.004 C 
ENDBRANCH  24  25
ENDBRANCH  23  24
ENDBRANCH  22  23
ENDBRANCH  21  22
ENDBRANCH  20  21
ENDBRANCH  19  20
ENDBRANCH  18  19
ENDBRANCH  17  18
ENDBRANCH  16  17
ENDBRANCH  15  16
ENDBRANCH   1  15
TORSDOF 22
ENDMDL
MODEL 9
REMARK VINA RESULT:    -4.742      1.987      3.153
REMARK INTER + INTRA:         -13.929
REMARK INTER:                 -10.710
REMARK INTRA:                  -3.220
REMARK UNBOUND:                -3.089
REMARK SMILES CCCCCCCCCCCCCCCCCCCCCCCC(=O)[O-]
REMARK SMILES IDX 13 1 14 2 15 3 16 4 17 5 18 6 19 7 20 8 21 9 22 10 23 11
REMARK SMILES IDX 24 12 25 13 26 14 12 15 11 16 10 17 9 18 8 19 7 20 6 21 5 22
REMARK SMILES IDX 4 23 3 24 2 25 1 26
REMARK H PARENT
REMARK Flexibility Score: inf
ROOT
ATOM      1  C   UNL     1     160.495 166.886 154.885  1.00  0.00     0.000 C 
ENDROOT
BRANCH   1   2
ATOM      2  C   UNL     1     161.221 166.199 156.056  1.00  0.00     0.000 C 
BRANCH   2   3
ATOM      3  C   UNL     1     162.620 166.784 156.323  1.00  0.00     0.000 C 
BRANCH   3   4
ATOM      4  C   UNL     1     162.880 167.240 157.772  1.00  0.00     0.000 C 
BRANCH   4   5
ATOM      5  C   UNL     1     163.521 166.145 158.644  1.00  0.00     0.000 C 
BRANCH   5   6
ATOM      6  C   UNL     1     163.766 164.840 157.856  1.00  0.00     0.000 C 
BRANCH   6   7
ATOM      7  C   UNL     1     162.846 163.682 158.279  1.00  0.00     0.000 C 
BRANCH   7   8
ATOM      8  C   UNL     1     161.963 164.027 159.489  1.00  0.00     0.000 C 
BRANCH   8   9
ATOM      9  C   UNL     1     160.459 163.885 159.170  1.00  0.00     0.000 C 
BRANCH   9  10
ATOM     10  C   UNL     1     159.570 164.871 159.948  1.00  0.00     0.006 C 
BRANCH  10  11
ATOM     11  C   UNL     1     159.927 166.338 159.679  1.00  0.00     0.053 C 
BRANCH  11  12
ATOM     12  C   UNL     1     160.351 167.013 160.945  1.00  0.00     0.041 C 
ATOM     13  O   UNL     1     161.197 167.945 160.914  1.00  0.00    -0.550 OA
ATOM     14  O   UNL     1     159.850 166.582 162.166  1.00  0.00    -0.550 OA
ENDBRANCH  11  12
ENDBRANCH  10  11
ENDBRANCH   9  10
ENDBRANCH   8   9
ENDBRANCH   7   8
ENDBRANCH   6   7
ENDBRANCH   5   6
ENDBRANCH   4   5
ENDBRANCH   3   4
ENDBRANCH   2   3
ENDBRANCH   1   2
BRANCH   1  15
ATOM     15  C   UNL     1     161.014 166.434 153.508  1.00  0.00     0.000 C 
BRANCH  15  16
ATOM     16  C   UNL     1     161.860 167.471 152.745  1.00  0.00     0.000 C 
BRANCH  16  17
ATOM     17  C   UNL     1     163.319 167.027 152.547  1.00  0.00     0.000 C 
BRANCH  17  18
ATOM     18  C   UNL     1     164.323 167.963 153.240  1.00  0.00    -0.000 C 
BRANCH  18  19
ATOM     19  C   UNL     1     164.414 169.343 152.570  1.00  0.00    -0.000 C 
BRANCH  19  20
ATOM     20  C   UNL     1     165.669 170.098 153.038  1.00  0.00    -0.000 C 
BRANCH  20  21
ATOM     21  C   UNL     1     166.425 169.353 154.152  1.00  0.00    -0.000 C 
BRANCH  21  22
ATOM     22  C   UNL     1     167.943 169.316 153.913  1.00  0.00    -0.000 C 
BRANCH  22  23
ATOM     23  C   UNL     1     168.273 168.642 152.576  1.00  0.00    -0.000 C 
BRANCH  23  24
ATOM     24  C   UNL     1     167.985 167.134 152.635  1.00  0.00    -0.000 C 
BRANCH  24  25
ATOM     25  C   UNL     1     167.145 166.646 151.445  1.00  0.00    -0.003 C 
ATOM     26  C   UNL     1     166.932 167.729 150.388  1.00  0.00     0.004 C 
ENDBRANCH  24  25
ENDBRANCH  23  24
ENDBRANCH  22  23
ENDBRANCH  21  22
ENDBRANCH  20  21
ENDBRANCH  19  20
ENDBRANCH  18  19
ENDBRANCH  17  18
ENDBRANCH  16  17
ENDBRANCH  15  16
ENDBRANCH   1  15
TORSDOF 22
ENDMDL
