MODEL 1
REMARK VINA RESULT:    -5.923      0.000      0.000
REMARK INTER + INTRA:          -6.836
REMARK INTER:                  -6.616
REMARK INTRA:                  -0.220
REMARK UNBOUND:                -0.220
REMARK SMILES CC(C)c1ccc(C(=O)[O-])cc1
REMARK SMILES IDX 7 1 6 2 11 3 5 4 12 5 4 6 8 7 9 8 10 9 2 10 1 11 3 12
REMARK H PARENT
REMARK Flexibility Score: inf
ROOT
ATOM      1  C   UNL     1      18.948  32.634  26.548  1.00  0.00    -0.003 A 
ATOM      2  C   UNL     1      18.348  32.525  27.814  1.00  0.00     0.010 A 
ATOM      3  C   UNL     1      18.233  33.247  25.506  1.00  0.00     0.010 A 
ATOM      4  C   UNL     1      17.059  33.020  28.033  1.00  0.00     0.004 A 
ATOM      5  C   UNL     1      16.944  33.741  25.725  1.00  0.00     0.004 A 
ATOM      6  C   UNL     1      16.343  33.635  26.990  1.00  0.00    -0.045 A 
ENDROOT
BRANCH   1   7
ATOM      7  C   UNL     1      20.312  32.112  26.311  1.00  0.00     0.071 C 
ATOM      8  O   UNL     1      21.106  31.933  27.273  1.00  0.00    -0.545 OA
ATOM      9  O   UNL     1      20.738  31.812  25.022  1.00  0.00    -0.545 OA
ENDBRANCH   1   7
BRANCH   6  10
ATOM     10  C   UNL     1      14.942  34.175  27.213  1.00  0.00     0.013 C 
ATOM     11  C   UNL     1      14.132  33.246  28.125  1.00  0.00     0.012 C 
ATOM     12  C   UNL     1      14.220  34.409  25.882  1.00  0.00     0.012 C 
ENDBRANCH   6  10
TORSDOF 2
ENDMDL
MODEL 2
REMARK VINA RESULT:    -5.906      0.077      1.681
REMARK INTER + INTRA:          -6.817
REMARK INTER:                  -6.598
REMARK INTRA:                  -0.219
REMARK UNBOUND:                -0.220
REMARK SMILES CC(C)c1ccc(C(=O)[O-])cc1
REMARK SMILES IDX 7 1 6 2 11 3 5 4 12 5 4 6 8 7 9 8 10 9 2 10 1 11 3 12
REMARK H PARENT
REMARK Flexibility Score: inf
ROOT
ATOM      1  C   UNL     1      18.947  32.641  26.544  1.00  0.00    -0.003 A 
ATOM      2  C   UNL     1      18.223  33.249  25.505  1.00  0.00     0.010 A 
ATOM      3  C   UNL     1      18.353  32.526  27.811  1.00  0.00     0.010 A 
ATOM      4  C   UNL     1      16.931  33.733  25.729  1.00  0.00     0.004 A 
ATOM      5  C   UNL     1      17.061  33.010  28.035  1.00  0.00     0.004 A 
ATOM      6  C   UNL     1      16.335  33.618  26.998  1.00  0.00    -0.045 A 
ENDROOT
BRANCH   1   7
ATOM      7  C   UNL     1      20.315  32.127  26.312  1.00  0.00     0.071 C 
ATOM      8  O   UNL     1      20.677  31.767  25.160  1.00  0.00    -0.545 OA
ATOM      9  O   UNL     1      21.221  32.034  27.363  1.00  0.00    -0.545 OA
ENDBRANCH   1   7
BRANCH   6  10
ATOM     10  C   UNL     1      14.933  34.140  27.255  1.00  0.00     0.013 C 
ATOM     11  C   UNL     1      14.132  33.164  28.125  1.00  0.00     0.012 C 
ATOM     12  C   UNL     1      14.202  34.436  25.941  1.00  0.00     0.012 C 
ENDBRANCH   6  10
TORSDOF 2
ENDMDL
MODEL 3
REMARK VINA RESULT:    -5.526      3.175      5.009
REMARK INTER + INTRA:          -6.392
REMARK INTER:                  -6.173
REMARK INTRA:                  -0.219
REMARK UNBOUND:                -0.220
REMARK SMILES CC(C)c1ccc(C(=O)[O-])cc1
REMARK SMILES IDX 7 1 6 2 11 3 5 4 12 5 4 6 8 7 9 8 10 9 2 10 1 11 3 12
REMARK H PARENT
REMARK Flexibility Score: inf
ROOT
ATOM      1  C   UNL     1      16.095  34.036  26.035  1.00  0.00    -0.003 A 
ATOM      2  C   UNL     1      16.340  33.476  27.300  1.00  0.00     0.010 A 
ATOM      3  C   UNL     1      17.075  33.918  25.036  1.00  0.00     0.010 A 
ATOM      4  C   UNL     1      17.542  32.813  27.561  1.00  0.00     0.004 A 
ATOM      5  C   UNL     1      18.277  33.255  25.297  1.00  0.00     0.004 A 
ATOM      6  C   UNL     1      18.525  32.694  26.561  1.00  0.00    -0.045 A 
ENDROOT
BRANCH   1   7
ATOM      7  C   UNL     1      14.824  34.740  25.753  1.00  0.00     0.071 C 
ATOM      8  O   UNL     1      14.716  35.488  24.745  1.00  0.00    -0.545 OA
ATOM      9  O   UNL     1      13.731  34.586  26.598  1.00  0.00    -0.545 OA
ENDBRANCH   1   7
BRANCH   6  10
ATOM     10  C   UNL     1      19.835  31.977  26.831  1.00  0.00     0.013 C 
ATOM     11  C   UNL     1      20.484  32.482  28.125  1.00  0.00     0.012 C 
ATOM     12  C   UNL     1      20.795  32.111  25.643  1.00  0.00     0.012 C 
ENDBRANCH   6  10
TORSDOF 2
ENDMDL
MODEL 4
REMARK VINA RESULT:    -5.051     15.819     17.078
REMARK INTER + INTRA:          -5.861
REMARK INTER:                  -5.655
REMARK INTRA:                  -0.207
REMARK UNBOUND:                -0.220
REMARK SMILES CC(C)c1ccc(C(=O)[O-])cc1
REMARK SMILES IDX 7 1 6 2 11 3 5 4 12 5 4 6 8 7 9 8 10 9 2 10 1 11 3 12
REMARK H PARENT
REMARK Flexibility Score: inf
ROOT
ATOM      1  C   UNL     1      19.832  33.580   9.084  1.00  0.00    -0.003 A 
ATOM      2  C   UNL     1      18.705  34.149   8.467  1.00  0.00     0.010 A 
ATOM      3  C   UNL     1      19.980  33.699  10.475  1.00  0.00     0.010 A 
ATOM      4  C   UNL     1      17.746  34.825   9.227  1.00  0.00     0.004 A 
ATOM      5  C   UNL     1      19.021  34.375  11.235  1.00  0.00     0.004 A 
ATOM      6  C   UNL     1      17.894  34.945  10.621  1.00  0.00    -0.045 A 
ENDROOT
BRANCH   1   7
ATOM      7  C   UNL     1      20.851  32.864   8.284  1.00  0.00     0.071 C 
ATOM      8  O   UNL     1      21.881  33.463   7.875  1.00  0.00    -0.545 OA
ATOM      9  O   UNL     1      20.684  31.519   7.971  1.00  0.00    -0.545 OA
ENDBRANCH   1   7
BRANCH   6  10
ATOM     10  C   UNL     1      16.860  35.676  11.458  1.00  0.00     0.013 C 
ATOM     11  C   UNL     1      16.188  34.728  12.457  1.00  0.00     0.012 C 
ATOM     12  C   UNL     1      15.821  36.371  10.571  1.00  0.00     0.012 C 
ENDBRANCH   6  10
TORSDOF 2
ENDMDL
MODEL 5
REMARK VINA RESULT:    -5.015     16.815     17.916
REMARK INTER + INTRA:          -5.821
REMARK INTER:                  -5.615
REMARK INTRA:                  -0.206
REMARK UNBOUND:                -0.220
REMARK SMILES CC(C)c1ccc(C(=O)[O-])cc1
REMARK SMILES IDX 7 1 6 2 11 3 5 4 12 5 4 6 8 7 9 8 10 9 2 10 1 11 3 12
REMARK H PARENT
REMARK Flexibility Score: inf
ROOT
ATOM      1  C   UNL     1      20.608  32.323   9.200  1.00  0.00    -0.003 A 
ATOM      2  C   UNL     1      19.751  32.235   8.090  1.00  0.00     0.010 A 
ATOM      3  C   UNL     1      20.458  33.398  10.092  1.00  0.00     0.010 A 
ATOM      4  C   UNL     1      18.765  33.202   7.875  1.00  0.00     0.004 A 
ATOM      5  C   UNL     1      19.473  34.365   9.877  1.00  0.00     0.004 A 
ATOM      6  C   UNL     1      18.615  34.279   8.769  1.00  0.00    -0.045 A 
ENDROOT
BRANCH   1   7
ATOM      7  C   UNL     1      21.653  31.302   9.431  1.00  0.00     0.071 C 
ATOM      8  O   UNL     1      22.464  30.997   8.516  1.00  0.00    -0.545 OA
ATOM      9  O   UNL     1      21.754  30.662  10.661  1.00  0.00    -0.545 OA
ENDBRANCH   1   7
BRANCH   6  10
ATOM     10  C   UNL     1      17.549  35.337   8.548  1.00  0.00     0.013 C 
ATOM     11  C   UNL     1      18.140  36.583   7.878  1.00  0.00     0.012 C 
ATOM     12  C   UNL     1      16.846  35.698   9.861  1.00  0.00     0.012 C 
ENDBRANCH   6  10
TORSDOF 2
ENDMDL
MODEL 6
REMARK VINA RESULT:    -4.985     15.174     17.629
REMARK INTER + INTRA:          -5.788
REMARK INTER:                  -5.574
REMARK INTRA:                  -0.214
REMARK UNBOUND:                -0.220
REMARK SMILES CC(C)c1ccc(C(=O)[O-])cc1
REMARK SMILES IDX 7 1 6 2 11 3 5 4 12 5 4 6 8 7 9 8 10 9 2 10 1 11 3 12
REMARK H PARENT
REMARK Flexibility Score: inf
ROOT
ATOM      1  C   UNL     1       5.234  42.361  17.073  1.00  0.00    -0.003 A 
ATOM      2  C   UNL     1       6.097  41.287  17.349  1.00  0.00     0.010 A 
ATOM      3  C   UNL     1       4.965  43.296  18.086  1.00  0.00     0.010 A 
ATOM      4  C   UNL     1       6.679  41.151  18.612  1.00  0.00     0.004 A 
ATOM      5  C   UNL     1       5.546  43.159  19.349  1.00  0.00     0.004 A 
ATOM      6  C   UNL     1       6.410  42.087  19.628  1.00  0.00    -0.045 A 
ENDROOT
BRANCH   1   7
ATOM      7  C   UNL     1       4.616  42.509  15.737  1.00  0.00     0.071 C 
ATOM      8  O   UNL     1       3.953  41.565  15.229  1.00  0.00    -0.545 OA
ATOM      9  O   UNL     1       4.758  43.693  15.021  1.00  0.00    -0.545 OA
ENDBRANCH   1   7
BRANCH   6  10
ATOM     10  C   UNL     1       7.034  41.951  21.004  1.00  0.00     0.013 C 
ATOM     11  C   UNL     1       7.714  40.587  21.169  1.00  0.00     0.012 C 
ATOM     12  C   UNL     1       5.996  42.187  22.108  1.00  0.00     0.012 C 
ENDBRANCH   6  10
TORSDOF 2
ENDMDL
MODEL 7
REMARK VINA RESULT:    -4.953     16.832     18.413
REMARK INTER + INTRA:          -5.753
REMARK INTER:                  -5.539
REMARK INTRA:                  -0.214
REMARK UNBOUND:                -0.220
REMARK SMILES CC(C)c1ccc(C(=O)[O-])cc1
REMARK SMILES IDX 7 1 6 2 11 3 5 4 12 5 4 6 8 7 9 8 10 9 2 10 1 11 3 12
REMARK H PARENT
REMARK Flexibility Score: inf
ROOT
ATOM      1  C   UNL     1      19.021  34.236   8.603  1.00  0.00    -0.003 A 
ATOM      2  C   UNL     1      19.094  33.036   7.875  1.00  0.00     0.010 A 
ATOM      3  C   UNL     1      19.805  34.380   9.759  1.00  0.00     0.010 A 
ATOM      4  C   UNL     1      19.933  32.001   8.296  1.00  0.00     0.004 A 
ATOM      5  C   UNL     1      20.644  33.344  10.180  1.00  0.00     0.004 A 
ATOM      6  C   UNL     1      20.719  32.144   9.454  1.00  0.00    -0.045 A 
ENDROOT
BRANCH   1   7
ATOM      7  C   UNL     1      18.133  35.335   8.162  1.00  0.00     0.071 C 
ATOM      8  O   UNL     1      18.609  36.467   7.877  1.00  0.00    -0.545 OA
ATOM      9  O   UNL     1      16.762  35.134   8.056  1.00  0.00    -0.545 OA
ENDBRANCH   1   7
BRANCH   6  10
ATOM     10  C   UNL     1      21.634  31.028   9.923  1.00  0.00     0.013 C 
ATOM     11  C   UNL     1      21.264  29.696   9.259  1.00  0.00     0.012 C 
ATOM     12  C   UNL     1      21.621  30.905  11.451  1.00  0.00     0.012 C 
ENDBRANCH   6  10
TORSDOF 2
ENDMDL
MODEL 8
REMARK VINA RESULT:    -4.863      2.622      5.471
REMARK INTER + INTRA:          -5.651
REMARK INTER:                  -5.430
REMARK INTRA:                  -0.221
REMARK UNBOUND:                -0.220
REMARK SMILES CC(C)c1ccc(C(=O)[O-])cc1
REMARK SMILES IDX 7 1 6 2 11 3 5 4 12 5 4 6 8 7 9 8 10 9 2 10 1 11 3 12
REMARK H PARENT
REMARK Flexibility Score: inf
ROOT
ATOM      1  C   UNL     1      17.938  33.080  26.454  1.00  0.00    -0.003 A 
ATOM      2  C   UNL     1      18.762  32.979  25.320  1.00  0.00     0.010 A 
ATOM      3  C   UNL     1      18.453  32.707  27.706  1.00  0.00     0.010 A 
ATOM      4  C   UNL     1      20.074  32.513  25.436  1.00  0.00     0.004 A 
ATOM      5  C   UNL     1      19.766  32.240  27.822  1.00  0.00     0.004 A 
ATOM      6  C   UNL     1      20.591  32.138  26.690  1.00  0.00    -0.045 A 
ENDROOT
BRANCH   1   7
ATOM      7  C   UNL     1      16.548  33.573  26.336  1.00  0.00     0.071 C 
ATOM      8  O   UNL     1      16.099  33.964  25.225  1.00  0.00    -0.545 OA
ATOM      9  O   UNL     1      15.717  33.613  27.450  1.00  0.00    -0.545 OA
ENDBRANCH   1   7
BRANCH   6  10
ATOM     10  C   UNL     1      22.014  31.630  26.831  1.00  0.00     0.013 C 
ATOM     11  C   UNL     1      22.658  32.141  28.125  1.00  0.00     0.012 C 
ATOM     12  C   UNL     1      22.860  32.005  25.608  1.00  0.00     0.012 C 
ENDBRANCH   6  10
TORSDOF 2
ENDMDL
MODEL 9
REMARK VINA RESULT:    -4.794     15.787     17.503
REMARK INTER + INTRA:          -5.575
REMARK INTER:                  -5.358
REMARK INTRA:                  -0.217
REMARK UNBOUND:                -0.220
REMARK SMILES CC(C)c1ccc(C(=O)[O-])cc1
REMARK SMILES IDX 7 1 6 2 11 3 5 4 12 5 4 6 8 7 9 8 10 9 2 10 1 11 3 12
REMARK H PARENT
REMARK Flexibility Score: inf
ROOT
ATOM      1  C   UNL     1      17.398  35.227  10.454  1.00  0.00    -0.003 A 
ATOM      2  C   UNL     1      17.687  35.003   9.097  1.00  0.00     0.010 A 
ATOM      3  C   UNL     1      18.282  34.734  11.428  1.00  0.00     0.010 A 
ATOM      4  C   UNL     1      18.835  34.300   8.722  1.00  0.00     0.004 A 
ATOM      5  C   UNL     1      19.430  34.030  11.053  1.00  0.00     0.004 A 
ATOM      6  C   UNL     1      19.720  33.805   9.698  1.00  0.00    -0.045 A 
ENDROOT
BRANCH   1   7
ATOM      7  C   UNL     1      16.184  35.971  10.856  1.00  0.00     0.071 C 
ATOM      8  O   UNL     1      15.818  36.993  10.216  1.00  0.00    -0.545 OA
ATOM      9  O   UNL     1      15.430  35.553  11.947  1.00  0.00    -0.545 OA
ENDBRANCH   1   7
BRANCH   6  10
ATOM     10  C   UNL     1      20.970  33.039   9.305  1.00  0.00     0.013 C 
ATOM     11  C   UNL     1      20.858  32.496   7.876  1.00  0.00     0.012 C 
ATOM     12  C   UNL     1      21.265  31.912  10.302  1.00  0.00     0.012 C 
ENDBRANCH   6  10
TORSDOF 2
ENDMDL
