MODEL 1
REMARK VINA RESULT:    -3.035      0.000      0.000
REMARK INTER + INTRA:          -4.755
REMARK INTER:                  -4.632
REMARK INTRA:                  -0.123
REMARK UNBOUND:                -0.123
REMARK SMILES CC1=CCC[C@H](C)C(=O)C[C@H](C(C)C)C(=O)C1
REMARK SMILES IDX 8 1 9 2 6 3 7 4 5 5 4 6 3 7 2 8 1 9 10 11 11 12 15 13 16 14
REMARK SMILES IDX 17 15 12 17 13 18 14 19
REMARK H PARENT
REMARK Flexibility Score: 70.00
ROOT
ATOM      1  C   UNL     1     -37.156  -8.935  47.354  1.00  0.00     0.136 C 
ATOM      2  O   UNL     1     -37.836  -8.696  46.368  1.00  0.00    -0.299 OA
ENDROOT
BRANCH   1   3
ATOM      3  C   UNL     1     -37.695  -9.862  48.430  1.00  0.00     0.053 C 
ATOM      4  C   UNL     1     -36.554 -10.376  49.319  1.00  0.00     0.016 C 
BRANCH   3   5
ATOM      5  C   UNL     1     -38.766  -9.135  49.273  1.00  0.00     0.015 C 
BRANCH   5   6
ATOM      6  C   UNL     1     -38.141  -8.176  50.305  1.00  0.00     0.028 C 
BRANCH   6   7
ATOM      7  C   UNL     1     -38.488  -6.744  49.984  1.00  0.00    -0.028 C 
ATOM      8  C   UNL     1     -37.591  -5.796  49.623  1.00  0.00    -0.070 CG0
ATOM      9  C   UNL     1     -38.091  -4.389  49.418  1.00  0.00     0.039 C 
ATOM     10  G   UNL     1     -36.117  -6.098  49.398  1.00  0.00     0.000 G0
ENDBRANCH   6   7
ENDBRANCH   5   6
ENDBRANCH   3   5
ENDBRANCH   1   3
BRANCH   1  11
ATOM     11  C   UNL     1     -35.788  -8.301  47.484  1.00  0.00     0.087 C 
BRANCH  11  12
ATOM     12  C   UNL     1     -35.667  -6.852  46.913  1.00  0.00     0.066 C 
BRANCH  12  13
ATOM     13  C   UNL     1     -35.653  -5.767  47.985  1.00  0.00     0.140 C 
ATOM     14  O   UNL     1     -35.358  -4.618  47.690  1.00  0.00    -0.299 OA
BRANCH  13  15
ATOM     15  C   UNL     1     -36.089  -6.072  49.399  1.00  0.00     0.106 CG0
ATOM     16  G   UNL     1     -37.568  -5.798  49.621  1.00  0.00     0.000 G0
ENDBRANCH  13  15
ENDBRANCH  12  13
BRANCH  12  17
ATOM     17  C   UNL     1     -34.523  -6.649  45.866  1.00  0.00    -0.006 C 
ATOM     18  C   UNL     1     -34.796  -7.428  44.568  1.00  0.00     0.008 C 
ATOM     19  C   UNL     1     -33.116  -6.985  46.388  1.00  0.00     0.008 C 
ENDBRANCH  12  17
ENDBRANCH  11  12
ENDBRANCH   1  11
TORSDOF 1
ENDMDL
MODEL 2
REMARK VINA RESULT:    -2.967      1.874      4.052
REMARK INTER + INTRA:          -4.652
REMARK INTER:                  -4.558
REMARK INTRA:                  -0.094
REMARK UNBOUND:                -0.123
REMARK SMILES CC1=CCC[C@H](C)C(=O)C[C@H](C(C)C)C(=O)C1
REMARK SMILES IDX 8 1 9 2 6 3 7 4 5 5 4 6 3 7 2 8 1 9 10 11 11 12 15 13 16 14
REMARK SMILES IDX 17 15 12 17 13 18 14 19
REMARK H PARENT
REMARK Flexibility Score: 70.00
ROOT
ATOM      1  C   UNL     1     -34.319  -8.255  46.218  1.00  0.00     0.136 C 
ATOM      2  O   UNL     1     -33.661  -9.247  45.940  1.00  0.00    -0.299 OA
ENDROOT
BRANCH   1   3
ATOM      3  C   UNL     1     -33.859  -6.891  45.732  1.00  0.00     0.053 C 
ATOM      4  C   UNL     1     -33.174  -7.009  44.364  1.00  0.00     0.016 C 
BRANCH   3   5
ATOM      5  C   UNL     1     -35.055  -5.916  45.669  1.00  0.00     0.015 C 
BRANCH   5   6
ATOM      6  C   UNL     1     -34.904  -4.746  46.661  1.00  0.00     0.028 C 
BRANCH   6   7
ATOM      7  C   UNL     1     -36.249  -4.304  47.178  1.00  0.00    -0.028 C 
ATOM      8  C   UNL     1     -36.810  -4.735  48.333  1.00  0.00    -0.070 CG0
ATOM      9  C   UNL     1     -38.201  -4.259  48.665  1.00  0.00     0.039 C 
ATOM     10  G   UNL     1     -36.090  -5.653  49.307  1.00  0.00     0.000 G0
ENDBRANCH   6   7
ENDBRANCH   5   6
ENDBRANCH   3   5
ENDBRANCH   1   3
BRANCH   1  11
ATOM     11  C   UNL     1     -35.579  -8.406  47.042  1.00  0.00     0.087 C 
BRANCH  11  12
ATOM     12  C   UNL     1     -35.419  -8.105  48.566  1.00  0.00     0.066 C 
BRANCH  12  13
ATOM     13  C   UNL     1     -36.450  -7.119  49.110  1.00  0.00     0.140 C 
ATOM     14  O   UNL     1     -37.556  -7.514  49.447  1.00  0.00    -0.299 OA
BRANCH  13  15
ATOM     15  C   UNL     1     -36.091  -5.668  49.326  1.00  0.00     0.106 CG0
ATOM     16  G   UNL     1     -36.783  -4.745  48.336  1.00  0.00     0.000 G0
ENDBRANCH  13  15
ENDBRANCH  12  13
BRANCH  12  17
ATOM     17  C   UNL     1     -35.287  -9.369  49.478  1.00  0.00    -0.006 C 
ATOM     18  C   UNL     1     -33.833  -9.866  49.551  1.00  0.00     0.008 C 
ATOM     19  C   UNL     1     -36.215 -10.532  49.092  1.00  0.00     0.008 C 
ENDBRANCH  12  17
ENDBRANCH  11  12
ENDBRANCH   1  11
TORSDOF 1
ENDMDL
MODEL 3
REMARK VINA RESULT:    -2.938      2.099      4.891
REMARK INTER + INTRA:          -4.606
REMARK INTER:                  -4.442
REMARK INTRA:                  -0.164
REMARK UNBOUND:                -0.123
REMARK SMILES CC1=CCC[C@H](C)C(=O)C[C@H](C(C)C)C(=O)C1
REMARK SMILES IDX 8 1 9 2 6 3 7 4 5 5 4 6 3 7 2 8 1 9 10 11 11 12 15 13 16 14
REMARK SMILES IDX 17 15 12 17 13 18 14 19
REMARK H PARENT
REMARK Flexibility Score: 70.00
ROOT
ATOM      1  C   UNL     1     -37.367  -6.294  48.185  1.00  0.00     0.136 C 
ATOM      2  O   UNL     1     -38.384  -6.738  47.674  1.00  0.00    -0.299 OA
ENDROOT
BRANCH   1   3
ATOM      3  C   UNL     1     -37.037  -4.818  48.038  1.00  0.00     0.053 C 
ATOM      4  C   UNL     1     -36.127  -4.353  49.184  1.00  0.00     0.016 C 
BRANCH   3   5
ATOM      5  C   UNL     1     -36.377  -4.553  46.668  1.00  0.00     0.015 C 
BRANCH   5   6
ATOM      6  C   UNL     1     -34.871  -4.880  46.675  1.00  0.00     0.028 C 
BRANCH   6   7
ATOM      7  C   UNL     1     -34.558  -5.990  45.704  1.00  0.00    -0.028 C 
ATOM      8  C   UNL     1     -34.063  -7.202  46.051  1.00  0.00    -0.070 CG0
ATOM      9  C   UNL     1     -33.725  -8.171  44.948  1.00  0.00     0.039 C 
ATOM     10  G   UNL     1     -33.856  -7.624  47.497  1.00  0.00     0.000 G0
ENDBRANCH   6   7
ENDBRANCH   5   6
ENDBRANCH   3   5
ENDBRANCH   1   3
BRANCH   1  11
ATOM     11  C   UNL     1     -36.454  -7.224  48.955  1.00  0.00     0.087 C 
BRANCH  11  12
ATOM     12  C   UNL     1     -36.175  -8.601  48.271  1.00  0.00     0.066 C 
BRANCH  12  13
ATOM     13  C   UNL     1     -34.718  -8.802  47.866  1.00  0.00     0.140 C 
ATOM     14  O   UNL     1     -34.258  -9.931  47.775  1.00  0.00    -0.299 OA
BRANCH  13  15
ATOM     15  C   UNL     1     -33.853  -7.625  47.483  1.00  0.00     0.106 CG0
ATOM     16  G   UNL     1     -34.070  -7.190  46.042  1.00  0.00     0.000 G0
ENDBRANCH  13  15
ENDBRANCH  12  13
BRANCH  12  17
ATOM     17  C   UNL     1     -36.743  -9.843  49.033  1.00  0.00    -0.006 C 
ATOM     18  C   UNL     1     -37.968 -10.437  48.316  1.00  0.00     0.008 C 
ATOM     19  C   UNL     1     -37.081  -9.584  50.511  1.00  0.00     0.008 C 
ENDBRANCH  12  17
ENDBRANCH  11  12
ENDBRANCH   1  11
TORSDOF 1
ENDMDL
MODEL 4
REMARK VINA RESULT:    -2.921     12.926     15.362
REMARK INTER + INTRA:          -4.582
REMARK INTER:                  -4.343
REMARK INTRA:                  -0.238
REMARK UNBOUND:                -0.123
REMARK SMILES CC1=CCC[C@H](C)C(=O)C[C@H](C(C)C)C(=O)C1
REMARK SMILES IDX 8 1 9 2 6 3 7 4 5 5 4 6 3 7 2 8 1 9 10 11 11 12 15 13 16 14
REMARK SMILES IDX 17 15 12 17 13 18 14 19
REMARK H PARENT
REMARK Flexibility Score: 70.00
ROOT
ATOM      1  C   UNL     1     -34.383   2.758  59.458  1.00  0.00     0.136 C 
ATOM      2  O   UNL     1     -35.239   1.889  59.517  1.00  0.00    -0.299 OA
ENDROOT
BRANCH   1   3
ATOM      3  C   UNL     1     -32.922   2.364  59.325  1.00  0.00     0.053 C 
ATOM      4  C   UNL     1     -32.459   1.586  60.565  1.00  0.00     0.016 C 
BRANCH   3   5
ATOM      5  C   UNL     1     -32.708   1.532  58.042  1.00  0.00     0.015 C 
BRANCH   5   6
ATOM      6  C   UNL     1     -32.664   2.414  56.778  1.00  0.00     0.028 C 
BRANCH   6   7
ATOM      7  C   UNL     1     -33.935   2.272  55.980  1.00  0.00    -0.028 C 
ATOM      8  C   UNL     1     -34.726   3.304  55.601  1.00  0.00    -0.070 CG0
ATOM      9  C   UNL     1     -36.009   2.984  54.878  1.00  0.00     0.039 C 
ATOM     10  G   UNL     1     -34.363   4.758  55.857  1.00  0.00     0.000 G0
ENDBRANCH   6   7
ENDBRANCH   5   6
ENDBRANCH   3   5
ENDBRANCH   1   3
BRANCH   1  11
ATOM     11  C   UNL     1     -34.795   4.213  59.520  1.00  0.00     0.087 C 
BRANCH  11  12
ATOM     12  C   UNL     1     -34.133   5.140  58.452  1.00  0.00     0.066 C 
BRANCH  12  13
ATOM     13  C   UNL     1     -34.939   5.267  57.162  1.00  0.00     0.140 C 
ATOM     14  O   UNL     1     -36.016   5.845  57.167  1.00  0.00    -0.299 OA
BRANCH  13  15
ATOM     15  C   UNL     1     -34.380   4.766  55.851  1.00  0.00     0.106 CG0
ATOM     16  G   UNL     1     -34.712   3.303  55.600  1.00  0.00     0.000 G0
ENDBRANCH  13  15
ENDBRANCH  12  13
BRANCH  12  17
ATOM     17  C   UNL     1     -33.669   6.535  58.986  1.00  0.00    -0.006 C 
ATOM     18  C   UNL     1     -32.926   7.338  57.904  1.00  0.00     0.008 C 
ATOM     19  C   UNL     1     -32.819   6.476  60.265  1.00  0.00     0.008 C 
ENDBRANCH  12  17
ENDBRANCH  11  12
ENDBRANCH   1  11
TORSDOF 1
ENDMDL
MODEL 5
REMARK VINA RESULT:    -2.894      1.603      3.865
REMARK INTER + INTRA:          -4.539
REMARK INTER:                  -4.778
REMARK INTRA:                   0.239
REMARK UNBOUND:                -0.123
REMARK SMILES CC1=CCC[C@H](C)C(=O)C[C@H](C(C)C)C(=O)C1
REMARK SMILES IDX 8 1 9 2 6 3 7 4 5 5 4 6 3 7 2 8 1 9 10 11 11 12 15 13 16 14
REMARK SMILES IDX 17 15 12 17 13 18 14 19
REMARK H PARENT
REMARK Flexibility Score: 70.00
ROOT
ATOM      1  C   UNL     1     -35.434  -4.611  46.606  1.00  0.00     0.136 C 
ATOM      2  O   UNL     1     -34.234  -4.517  46.814  1.00  0.00    -0.299 OA
ENDROOT
BRANCH   1   3
ATOM      3  C   UNL     1     -36.351  -3.458  46.977  1.00  0.00     0.053 C 
ATOM      4  C   UNL     1     -37.596  -3.449  46.079  1.00  0.00     0.016 C 
BRANCH   3   5
ATOM      5  C   UNL     1     -36.747  -3.549  48.467  1.00  0.00     0.015 C 
BRANCH   5   6
ATOM      6  C   UNL     1     -36.290  -4.874  49.109  1.00  0.00     0.028 C 
BRANCH   6   7
ATOM      7  C   UNL     1     -37.476  -5.705  49.527  1.00  0.00    -0.028 C 
ATOM      8  C   UNL     1     -37.564  -7.049  49.386  1.00  0.00    -0.070 CG0
ATOM      9  C   UNL     1     -38.856  -7.719  49.778  1.00  0.00     0.039 C 
ATOM     10  G   UNL     1     -36.413  -7.901  48.874  1.00  0.00     0.000 G0
ENDBRANCH   6   7
ENDBRANCH   5   6
ENDBRANCH   3   5
ENDBRANCH   1   3
BRANCH   1  11
ATOM     11  C   UNL     1     -35.983  -5.875  45.983  1.00  0.00     0.087 C 
BRANCH  11  12
ATOM     12  C   UNL     1     -35.392  -7.207  46.545  1.00  0.00     0.066 C 
BRANCH  12  13
ATOM     13  C   UNL     1     -36.386  -8.024  47.366  1.00  0.00     0.140 C 
ATOM     14  O   UNL     1     -37.122  -8.828  46.814  1.00  0.00    -0.299 OA
BRANCH  13  15
ATOM     15  C   UNL     1     -36.410  -7.920  48.873  1.00  0.00     0.106 CG0
ATOM     16  G   UNL     1     -37.551  -7.050  49.376  1.00  0.00     0.000 G0
ENDBRANCH  13  15
ENDBRANCH  12  13
BRANCH  12  17
ATOM     17  C   UNL     1     -34.642  -8.091  45.494  1.00  0.00    -0.006 C 
ATOM     18  C   UNL     1     -33.533  -8.932  46.149  1.00  0.00     0.008 C 
ATOM     19  C   UNL     1     -34.067  -7.311  44.301  1.00  0.00     0.008 C 
ENDBRANCH  12  17
ENDBRANCH  11  12
ENDBRANCH   1  11
TORSDOF 1
ENDMDL
MODEL 6
REMARK VINA RESULT:    -2.809     13.190     15.056
REMARK INTER + INTRA:          -4.410
REMARK INTER:                  -4.313
REMARK INTRA:                  -0.097
REMARK UNBOUND:                -0.123
REMARK SMILES CC1=CCC[C@H](C)C(=O)C[C@H](C(C)C)C(=O)C1
REMARK SMILES IDX 8 1 9 2 6 3 7 4 5 5 4 6 3 7 2 8 1 9 10 11 11 12 15 13 16 14
REMARK SMILES IDX 17 15 12 17 13 18 14 19
REMARK H PARENT
REMARK Flexibility Score: 70.00
ROOT
ATOM      1  C   UNL     1     -48.359  -1.369  45.358  1.00  0.00     0.136 C 
ATOM      2  O   UNL     1     -47.683  -2.382  45.260  1.00  0.00    -0.299 OA
ENDROOT
BRANCH   1   3
ATOM      3  C   UNL     1     -49.604  -1.213  44.502  1.00  0.00     0.053 C 
ATOM      4  C   UNL     1     -49.852  -2.483  43.676  1.00  0.00     0.016 C 
BRANCH   3   5
ATOM      5  C   UNL     1     -50.825  -0.885  45.390  1.00  0.00     0.015 C 
BRANCH   5   6
ATOM      6  C   UNL     1     -51.552   0.393  44.929  1.00  0.00     0.028 C 
BRANCH   6   7
ATOM      7  C   UNL     1     -51.661   1.385  46.058  1.00  0.00    -0.028 C 
ATOM      8  C   UNL     1     -50.755   2.357  46.321  1.00  0.00    -0.070 CG0
ATOM      9  C   UNL     1     -50.970   3.215  47.541  1.00  0.00     0.039 C 
ATOM     10  G   UNL     1     -49.554   2.627  45.428  1.00  0.00     0.000 G0
ENDBRANCH   6   7
ENDBRANCH   5   6
ENDBRANCH   3   5
ENDBRANCH   1   3
BRANCH   1  11
ATOM     11  C   UNL     1     -47.940  -0.287  46.330  1.00  0.00     0.087 C 
BRANCH  11  12
ATOM     12  C   UNL     1     -47.438   1.039  45.677  1.00  0.00     0.066 C 
BRANCH  12  13
ATOM     13  C   UNL     1     -48.232   2.272  46.099  1.00  0.00     0.140 C 
ATOM     14  O   UNL     1     -47.777   3.036  46.938  1.00  0.00    -0.299 OA
BRANCH  13  15
ATOM     15  C   UNL     1     -49.539   2.616  45.425  1.00  0.00     0.106 CG0
ATOM     16  G   UNL     1     -50.741   2.348  46.317  1.00  0.00     0.000 G0
ENDBRANCH  13  15
ENDBRANCH  12  13
BRANCH  12  17
ATOM     17  C   UNL     1     -45.896   1.281  45.775  1.00  0.00    -0.006 C 
ATOM     18  C   UNL     1     -45.356   2.011  44.533  1.00  0.00     0.008 C 
ATOM     19  C   UNL     1     -45.068   0.010  46.031  1.00  0.00     0.008 C 
ENDBRANCH  12  17
ENDBRANCH  11  12
ENDBRANCH   1  11
TORSDOF 1
ENDMDL
MODEL 7
REMARK VINA RESULT:    -2.773      2.654      4.500
REMARK INTER + INTRA:          -4.355
REMARK INTER:                  -3.873
REMARK INTRA:                  -0.482
REMARK UNBOUND:                -0.123
REMARK SMILES CC1=CCC[C@H](C)C(=O)C[C@H](C(C)C)C(=O)C1
REMARK SMILES IDX 8 1 9 2 6 3 7 4 5 5 4 6 3 7 2 8 1 9 10 11 11 12 15 13 16 14
REMARK SMILES IDX 17 15 12 17 13 18 14 19
REMARK H PARENT
REMARK Flexibility Score: 70.00
ROOT
ATOM      1  C   UNL     1     -36.565  -6.432  50.007  1.00  0.00     0.136 C 
ATOM      2  O   UNL     1     -35.792  -5.505  49.818  1.00  0.00    -0.299 OA
ENDROOT
BRANCH   1   3
ATOM      3  C   UNL     1     -36.533  -7.176  51.331  1.00  0.00     0.053 C 
ATOM      4  C   UNL     1     -35.156  -7.816  51.557  1.00  0.00     0.016 C 
BRANCH   3   5
ATOM      5  C   UNL     1     -36.893  -6.220  52.489  1.00  0.00     0.015 C 
BRANCH   5   6
ATOM      6  C   UNL     1     -38.381  -5.818  52.469  1.00  0.00     0.028 C 
BRANCH   6   7
ATOM      7  C   UNL     1     -39.263  -7.013  52.731  1.00  0.00    -0.028 C 
ATOM      8  C   UNL     1     -40.175  -7.503  51.858  1.00  0.00    -0.070 CG0
ATOM      9  C   UNL     1     -41.038  -8.655  52.308  1.00  0.00     0.039 C 
ATOM     10  G   UNL     1     -40.346  -6.957  50.449  1.00  0.00     0.000 G0
ENDBRANCH   6   7
ENDBRANCH   5   6
ENDBRANCH   3   5
ENDBRANCH   1   3
BRANCH   1  11
ATOM     11  C   UNL     1     -37.538  -6.823  48.916  1.00  0.00     0.087 C 
BRANCH  11  12
ATOM     12  C   UNL     1     -38.348  -8.131  49.182  1.00  0.00     0.066 C 
BRANCH  12  13
ATOM     13  C   UNL     1     -39.845  -7.901  49.366  1.00  0.00     0.140 C 
ATOM     14  O   UNL     1     -40.649  -8.541  48.704  1.00  0.00    -0.299 OA
BRANCH  13  15
ATOM     15  C   UNL     1     -40.355  -6.955  50.427  1.00  0.00     0.106 CG0
ATOM     16  G   UNL     1     -40.161  -7.501  51.834  1.00  0.00     0.000 G0
ENDBRANCH  13  15
ENDBRANCH  12  13
BRANCH  12  17
ATOM     17  C   UNL     1     -38.059  -9.301  48.184  1.00  0.00    -0.006 C 
ATOM     18  C   UNL     1     -37.050 -10.306  48.765  1.00  0.00     0.008 C 
ATOM     19  C   UNL     1     -37.597  -8.848  46.789  1.00  0.00     0.008 C 
ENDBRANCH  12  17
ENDBRANCH  11  12
ENDBRANCH   1  11
TORSDOF 1
ENDMDL
MODEL 8
REMARK VINA RESULT:    -2.754      1.858      3.821
REMARK INTER + INTRA:          -4.326
REMARK INTER:                  -4.167
REMARK INTRA:                  -0.159
REMARK UNBOUND:                -0.123
REMARK SMILES CC1=CCC[C@H](C)C(=O)C[C@H](C(C)C)C(=O)C1
REMARK SMILES IDX 8 1 9 2 6 3 7 4 5 5 4 6 3 7 2 8 1 9 10 11 11 12 15 13 16 14
REMARK SMILES IDX 17 15 12 17 13 18 14 19
REMARK H PARENT
REMARK Flexibility Score: 70.00
ROOT
ATOM      1  C   UNL     1     -35.392  -5.918  47.098  1.00  0.00     0.136 C 
ATOM      2  O   UNL     1     -35.063  -5.302  46.095  1.00  0.00    -0.299 OA
ENDROOT
BRANCH   1   3
ATOM      3  C   UNL     1     -35.236  -7.428  47.135  1.00  0.00     0.053 C 
ATOM      4  C   UNL     1     -34.979  -7.908  48.571  1.00  0.00     0.016 C 
BRANCH   3   5
ATOM      5  C   UNL     1     -36.489  -8.109  46.543  1.00  0.00     0.015 C 
BRANCH   5   6
ATOM      6  C   UNL     1     -37.138  -9.096  47.534  1.00  0.00     0.028 C 
BRANCH   6   7
ATOM      7  C   UNL     1     -38.579  -8.732  47.788  1.00  0.00    -0.028 C 
ATOM      8  C   UNL     1     -39.007  -7.942  48.801  1.00  0.00    -0.070 CG0
ATOM      9  C   UNL     1     -40.492  -7.744  48.965  1.00  0.00     0.039 C 
ATOM     10  G   UNL     1     -38.056  -7.237  49.755  1.00  0.00     0.000 G0
ENDBRANCH   6   7
ENDBRANCH   5   6
ENDBRANCH   3   5
ENDBRANCH   1   3
BRANCH   1  11
ATOM     11  C   UNL     1     -35.949  -5.162  48.285  1.00  0.00     0.087 C 
BRANCH  11  12
ATOM     12  C   UNL     1     -37.507  -5.067  48.344  1.00  0.00     0.066 C 
BRANCH  12  13
ATOM     13  C   UNL     1     -38.117  -5.723  49.579  1.00  0.00     0.140 C 
ATOM     14  O   UNL     1     -38.713  -5.044  50.402  1.00  0.00    -0.299 OA
BRANCH  13  15
ATOM     15  C   UNL     1     -38.076  -7.223  49.756  1.00  0.00     0.106 CG0
ATOM     16  G   UNL     1     -39.014  -7.946  48.802  1.00  0.00     0.000 G0
ENDBRANCH  13  15
ENDBRANCH  12  13
BRANCH  12  17
ATOM     17  C   UNL     1     -38.091  -3.638  48.097  1.00  0.00    -0.006 C 
ATOM     18  C   UNL     1     -38.945  -3.586  46.819  1.00  0.00     0.008 C 
ATOM     19  C   UNL     1     -37.039  -2.517  48.066  1.00  0.00     0.008 C 
ENDBRANCH  12  17
ENDBRANCH  11  12
ENDBRANCH   1  11
TORSDOF 1
ENDMDL
MODEL 9
REMARK VINA RESULT:    -2.580      2.018      2.570
REMARK INTER + INTRA:          -4.060
REMARK INTER:                  -3.800
REMARK INTRA:                  -0.260
REMARK UNBOUND:                -0.123
REMARK SMILES CC1=CCC[C@H](C)C(=O)C[C@H](C(C)C)C(=O)C1
REMARK SMILES IDX 8 1 9 2 6 3 7 4 5 5 4 6 3 7 2 8 1 9 10 11 11 12 15 13 16 14
REMARK SMILES IDX 17 15 12 17 13 18 14 19
REMARK H PARENT
REMARK Flexibility Score: 70.00
ROOT
ATOM      1  C   UNL     1     -37.992  -9.659  50.041  1.00  0.00     0.136 C 
ATOM      2  O   UNL     1     -38.001 -10.878  50.130  1.00  0.00    -0.299 OA
ENDROOT
BRANCH   1   3
ATOM      3  C   UNL     1     -39.307  -8.898  50.041  1.00  0.00     0.053 C 
ATOM      4  C   UNL     1     -40.332  -9.593  49.136  1.00  0.00     0.016 C 
BRANCH   3   5
ATOM      5  C   UNL     1     -39.845  -8.763  51.482  1.00  0.00     0.015 C 
BRANCH   5   6
ATOM      6  C   UNL     1     -38.950  -7.861  52.355  1.00  0.00     0.028 C 
BRANCH   6   7
ATOM      7  C   UNL     1     -39.074  -6.418  51.939  1.00  0.00    -0.028 C 
ATOM      8  C   UNL     1     -38.049  -5.654  51.493  1.00  0.00    -0.070 CG0
ATOM      9  C   UNL     1     -38.325  -4.202  51.197  1.00  0.00     0.039 C 
ATOM     10  G   UNL     1     -36.651  -6.204  51.261  1.00  0.00     0.000 G0
ENDBRANCH   6   7
ENDBRANCH   5   6
ENDBRANCH   3   5
ENDBRANCH   1   3
BRANCH   1  11
ATOM     11  C   UNL     1     -36.669  -8.932  49.932  1.00  0.00     0.087 C 
BRANCH  11  12
ATOM     12  C   UNL     1     -36.684  -7.653  49.036  1.00  0.00     0.066 C 
BRANCH  12  13
ATOM     13  C   UNL     1     -36.331  -6.372  49.787  1.00  0.00     0.140 C 
ATOM     14  O   UNL     1     -35.855  -5.421  49.185  1.00  0.00    -0.299 OA
BRANCH  13  15
ATOM     15  C   UNL     1     -36.649  -6.226  51.256  1.00  0.00     0.106 CG0
ATOM     16  G   UNL     1     -38.045  -5.671  51.495  1.00  0.00     0.000 G0
ENDBRANCH  13  15
ENDBRANCH  12  13
BRANCH  12  17
ATOM     17  C   UNL     1     -35.888  -7.777  47.695  1.00  0.00    -0.006 C 
ATOM     18  C   UNL     1     -36.831  -7.937  46.489  1.00  0.00     0.008 C 
ATOM     19  C   UNL     1     -34.833  -8.896  47.682  1.00  0.00     0.008 C 
ENDBRANCH  12  17
ENDBRANCH  11  12
ENDBRANCH   1  11
TORSDOF 1
ENDMDL
