MODEL 1
REMARK VINA RESULT:    -3.507      0.000      0.000
REMARK INTER + INTRA:          -5.781
REMARK INTER:                  -4.943
REMARK INTRA:                  -0.839
REMARK UNBOUND:                -0.839
REMARK SMILES CCCCCCCCC(=O)[O-]
REMARK SMILES IDX 6 1 7 2 8 3 9 4 10 5 11 6 5 7 4 8 3 9 2 10 1 11
REMARK H PARENT
REMARK Flexibility Score: inf
ROOT
ATOM      1  C   UNL     1      -5.029   8.498  -8.816  1.00  0.00     0.000 C 
ENDROOT
BRANCH   1   2
ATOM      2  C   UNL     1      -3.907   8.436  -7.766  1.00  0.00     0.006 C 
BRANCH   2   3
ATOM      3  C   UNL     1      -3.673   7.017  -7.233  1.00  0.00     0.053 C 
BRANCH   3   4
ATOM      4  C   UNL     1      -4.142   6.907  -5.817  1.00  0.00     0.041 C 
ATOM      5  O   UNL     1      -5.203   7.479  -5.454  1.00  0.00    -0.550 OA
ATOM      6  O   UNL     1      -3.433   6.130  -4.908  1.00  0.00    -0.550 OA
ENDBRANCH   3   4
ENDBRANCH   2   3
ENDBRANCH   1   2
BRANCH   1   7
ATOM      7  C   UNL     1      -6.162   9.456  -8.412  1.00  0.00     0.000 C 
BRANCH   7   8
ATOM      8  C   UNL     1      -7.365   8.722  -7.796  1.00  0.00    -0.000 C 
BRANCH   8   9
ATOM      9  C   UNL     1      -7.680   7.398  -8.508  1.00  0.00    -0.000 C 
BRANCH   9  10
ATOM     10  C   UNL     1      -7.714   6.234  -7.510  1.00  0.00    -0.003 C 
ATOM     11  C   UNL     1      -6.727   5.139  -7.905  1.00  0.00     0.004 C 
ENDBRANCH   9  10
ENDBRANCH   8   9
ENDBRANCH   7   8
ENDBRANCH   1   7
TORSDOF 7
ENDMDL
MODEL 2
REMARK VINA RESULT:    -3.478      2.259      4.114
REMARK INTER + INTRA:          -5.740
REMARK INTER:                  -5.148
REMARK INTRA:                  -0.592
REMARK UNBOUND:                -0.839
REMARK SMILES CCCCCCCCC(=O)[O-]
REMARK SMILES IDX 6 1 7 2 8 3 9 4 10 5 11 6 5 7 4 8 3 9 2 10 1 11
REMARK H PARENT
REMARK Flexibility Score: inf
ROOT
ATOM      1  C   UNL     1      -7.125   8.713  -7.715  1.00  0.00     0.000 C 
ENDROOT
BRANCH   1   2
ATOM      2  C   UNL     1      -7.819   7.531  -8.411  1.00  0.00     0.006 C 
BRANCH   2   3
ATOM      3  C   UNL     1      -7.870   6.274  -7.533  1.00  0.00     0.053 C 
BRANCH   3   4
ATOM      4  C   UNL     1      -7.362   5.087  -8.290  1.00  0.00     0.041 C 
ATOM      5  O   UNL     1      -6.196   4.657  -8.087  1.00  0.00    -0.550 OA
ATOM      6  O   UNL     1      -8.194   4.425  -9.185  1.00  0.00    -0.550 OA
ENDBRANCH   3   4
ENDBRANCH   2   3
ENDBRANCH   1   2
BRANCH   1   7
ATOM      7  C   UNL     1      -6.002   8.261  -6.766  1.00  0.00     0.000 C 
BRANCH   7   8
ATOM      8  C   UNL     1      -4.625   8.235  -7.451  1.00  0.00    -0.000 C 
BRANCH   8   9
ATOM      9  C   UNL     1      -3.669   7.209  -6.823  1.00  0.00    -0.000 C 
BRANCH   9  10
ATOM     10  C   UNL     1      -4.389   6.366  -5.764  1.00  0.00    -0.003 C 
ATOM     11  C   UNL     1      -3.395   5.720  -4.803  1.00  0.00     0.004 C 
ENDBRANCH   9  10
ENDBRANCH   8   9
ENDBRANCH   7   8
ENDBRANCH   1   7
TORSDOF 7
ENDMDL
MODEL 3
REMARK VINA RESULT:    -3.358      1.332      1.829
REMARK INTER + INTRA:          -5.571
REMARK INTER:                  -4.921
REMARK INTRA:                  -0.650
REMARK UNBOUND:                -0.839
REMARK SMILES CCCCCCCCC(=O)[O-]
REMARK SMILES IDX 6 1 7 2 8 3 9 4 10 5 11 6 5 7 4 8 3 9 2 10 1 11
REMARK H PARENT
REMARK Flexibility Score: inf
ROOT
ATOM      1  C   UNL     1      -6.113   8.459  -7.493  1.00  0.00     0.000 C 
ENDROOT
BRANCH   1   2
ATOM      2  C   UNL     1      -4.846   7.783  -8.042  1.00  0.00     0.006 C 
BRANCH   2   3
ATOM      3  C   UNL     1      -3.781   7.556  -6.962  1.00  0.00     0.053 C 
BRANCH   3   4
ATOM      4  C   UNL     1      -4.116   6.349  -6.144  1.00  0.00     0.041 C 
ATOM      5  O   UNL     1      -4.633   5.338  -6.688  1.00  0.00    -0.550 OA
ATOM      6  O   UNL     1      -3.811   6.320  -4.789  1.00  0.00    -0.550 OA
ENDBRANCH   3   4
ENDBRANCH   2   3
ENDBRANCH   1   2
BRANCH   1   7
ATOM      7  C   UNL     1      -7.401   7.735  -7.922  1.00  0.00     0.000 C 
BRANCH   7   8
ATOM      8  C   UNL     1      -7.154   6.700  -9.031  1.00  0.00    -0.000 C 
BRANCH   8   9
ATOM      9  C   UNL     1      -7.615   5.287  -8.638  1.00  0.00    -0.000 C 
BRANCH   9  10
ATOM     10  C   UNL     1      -8.222   5.282  -7.230  1.00  0.00    -0.003 C 
ATOM     11  C   UNL     1      -9.588   4.600  -7.221  1.00  0.00     0.004 C 
ENDBRANCH   9  10
ENDBRANCH   8   9
ENDBRANCH   7   8
ENDBRANCH   1   7
TORSDOF 7
ENDMDL
MODEL 4
REMARK VINA RESULT:    -3.023      3.737      5.976
REMARK INTER + INTRA:          -5.099
REMARK INTER:                  -4.955
REMARK INTRA:                  -0.144
REMARK UNBOUND:                -0.839
REMARK SMILES CCCCCCCCC(=O)[O-]
REMARK SMILES IDX 6 1 7 2 8 3 9 4 10 5 11 6 5 7 4 8 3 9 2 10 1 11
REMARK H PARENT
REMARK Flexibility Score: inf
ROOT
ATOM      1  C   UNL     1      -3.800   5.622  -6.003  1.00  0.00     0.000 C 
ENDROOT
BRANCH   1   2
ATOM      2  C   UNL     1      -4.528   6.958  -6.223  1.00  0.00     0.006 C 
BRANCH   2   3
ATOM      3  C   UNL     1      -5.958   6.773  -6.748  1.00  0.00     0.053 C 
BRANCH   3   4
ATOM      4  C   UNL     1      -5.942   6.069  -8.068  1.00  0.00     0.041 C 
ATOM      5  O   UNL     1      -6.247   4.849  -8.139  1.00  0.00    -0.550 OA
ATOM      6  O   UNL     1      -5.640   6.771  -9.228  1.00  0.00    -0.550 OA
ENDBRANCH   3   4
ENDBRANCH   2   3
ENDBRANCH   1   2
BRANCH   1   7
ATOM      7  C   UNL     1      -3.404   5.401  -4.533  1.00  0.00     0.000 C 
BRANCH   7   8
ATOM      8  C   UNL     1      -2.538   4.146  -4.337  1.00  0.00    -0.000 C 
BRANCH   8   9
ATOM      9  C   UNL     1      -2.893   3.374  -3.056  1.00  0.00    -0.000 C 
BRANCH   9  10
ATOM     10  C   UNL     1      -1.697   2.549  -2.566  1.00  0.00    -0.003 C 
ATOM     11  C   UNL     1      -0.884   3.318  -1.528  1.00  0.00     0.004 C 
ENDBRANCH   9  10
ENDBRANCH   8   9
ENDBRANCH   7   8
ENDBRANCH   1   7
TORSDOF 7
ENDMDL
MODEL 5
REMARK VINA RESULT:    -2.991      0.897      2.862
REMARK INTER + INTRA:          -5.054
REMARK INTER:                  -4.345
REMARK INTRA:                  -0.709
REMARK UNBOUND:                -0.839
REMARK SMILES CCCCCCCCC(=O)[O-]
REMARK SMILES IDX 6 1 7 2 8 3 9 4 10 5 11 6 5 7 4 8 3 9 2 10 1 11
REMARK H PARENT
REMARK Flexibility Score: inf
ROOT
ATOM      1  C   UNL     1      -6.410   5.984  -8.689  1.00  0.00     0.000 C 
ENDROOT
BRANCH   1   2
ATOM      2  C   UNL     1      -5.830   5.410  -7.386  1.00  0.00     0.006 C 
BRANCH   2   3
ATOM      3  C   UNL     1      -4.420   5.935  -7.085  1.00  0.00     0.053 C 
BRANCH   3   4
ATOM      4  C   UNL     1      -4.411   6.696  -5.796  1.00  0.00     0.041 C 
ATOM      5  O   UNL     1      -3.613   6.375  -4.876  1.00  0.00    -0.550 OA
ATOM      6  O   UNL     1      -5.249   7.791  -5.629  1.00  0.00    -0.550 OA
ENDBRANCH   3   4
ENDBRANCH   2   3
ENDBRANCH   1   2
BRANCH   1   7
ATOM      7  C   UNL     1      -7.692   6.800  -8.454  1.00  0.00     0.000 C 
BRANCH   7   8
ATOM      8  C   UNL     1      -7.607   8.217  -9.046  1.00  0.00    -0.000 C 
BRANCH   8   9
ATOM      9  C   UNL     1      -7.102   9.255  -8.032  1.00  0.00    -0.000 C 
BRANCH   9  10
ATOM     10  C   UNL     1      -5.964  10.093  -8.628  1.00  0.00    -0.003 C 
ATOM     11  C   UNL     1      -4.710   9.250  -8.842  1.00  0.00     0.004 C 
ENDBRANCH   9  10
ENDBRANCH   8   9
ENDBRANCH   7   8
ENDBRANCH   1   7
TORSDOF 7
ENDMDL
MODEL 6
REMARK VINA RESULT:    -2.974      3.674      5.947
REMARK INTER + INTRA:          -5.030
REMARK INTER:                  -4.876
REMARK INTRA:                  -0.153
REMARK UNBOUND:                -0.839
REMARK SMILES CCCCCCCCC(=O)[O-]
REMARK SMILES IDX 6 1 7 2 8 3 9 4 10 5 11 6 5 7 4 8 3 9 2 10 1 11
REMARK H PARENT
REMARK Flexibility Score: inf
ROOT
ATOM      1  C   UNL     1      -3.808   5.592  -5.965  1.00  0.00     0.000 C 
ENDROOT
BRANCH   1   2
ATOM      2  C   UNL     1      -4.394   6.997  -6.182  1.00  0.00     0.006 C 
BRANCH   2   3
ATOM      3  C   UNL     1      -3.598   7.820  -7.204  1.00  0.00     0.053 C 
BRANCH   3   4
ATOM      4  C   UNL     1      -4.519   8.447  -8.202  1.00  0.00     0.041 C 
ATOM      5  O   UNL     1      -5.708   8.715  -7.886  1.00  0.00    -0.550 OA
ATOM      6  O   UNL     1      -4.051   8.781  -9.466  1.00  0.00    -0.550 OA
ENDBRANCH   3   4
ENDBRANCH   2   3
ENDBRANCH   1   2
BRANCH   1   7
ATOM      7  C   UNL     1      -3.405   5.342  -4.502  1.00  0.00     0.000 C 
BRANCH   7   8
ATOM      8  C   UNL     1      -2.539   4.082  -4.336  1.00  0.00    -0.000 C 
BRANCH   8   9
ATOM      9  C   UNL     1      -2.834   3.326  -3.031  1.00  0.00    -0.000 C 
BRANCH   9  10
ATOM     10  C   UNL     1      -1.598   2.555  -2.554  1.00  0.00    -0.003 C 
ATOM     11  C   UNL     1      -0.857   3.321  -1.461  1.00  0.00     0.004 C 
ENDBRANCH   9  10
ENDBRANCH   8   9
ENDBRANCH   7   8
ENDBRANCH   1   7
TORSDOF 7
ENDMDL
MODEL 7
REMARK VINA RESULT:    -2.967      3.519      5.386
REMARK INTER + INTRA:          -5.020
REMARK INTER:                  -4.887
REMARK INTRA:                  -0.133
REMARK UNBOUND:                -0.839
REMARK SMILES CCCCCCCCC(=O)[O-]
REMARK SMILES IDX 6 1 7 2 8 3 9 4 10 5 11 6 5 7 4 8 3 9 2 10 1 11
REMARK H PARENT
REMARK Flexibility Score: inf
ROOT
ATOM      1  C   UNL     1      -3.392   5.347  -4.504  1.00  0.00     0.000 C 
ENDROOT
BRANCH   1   2
ATOM      2  C   UNL     1      -2.549   4.072  -4.331  1.00  0.00     0.006 C 
BRANCH   2   3
ATOM      3  C   UNL     1      -2.814   3.365  -2.995  1.00  0.00     0.053 C 
BRANCH   3   4
ATOM      4  C   UNL     1      -1.554   2.751  -2.472  1.00  0.00     0.041 C 
ATOM      5  O   UNL     1      -1.112   1.685  -2.974  1.00  0.00    -0.550 OA
ATOM      6  O   UNL     1      -0.841   3.383  -1.461  1.00  0.00    -0.550 OA
ENDBRANCH   3   4
ENDBRANCH   2   3
ENDBRANCH   1   2
BRANCH   1   7
ATOM      7  C   UNL     1      -3.782   5.601  -5.970  1.00  0.00     0.000 C 
BRANCH   7   8
ATOM      8  C   UNL     1      -4.332   7.019  -6.197  1.00  0.00    -0.000 C 
BRANCH   8   9
ATOM      9  C   UNL     1      -3.433   7.866  -7.111  1.00  0.00    -0.000 C 
BRANCH   9  10
ATOM     10  C   UNL     1      -4.068   8.039  -8.496  1.00  0.00    -0.003 C 
ATOM     11  C   UNL     1      -4.187   9.514  -8.869  1.00  0.00     0.004 C 
ENDBRANCH   9  10
ENDBRANCH   8   9
ENDBRANCH   7   8
ENDBRANCH   1   7
TORSDOF 7
ENDMDL
MODEL 8
REMARK VINA RESULT:    -2.960      2.933      4.901
REMARK INTER + INTRA:          -5.010
REMARK INTER:                  -4.543
REMARK INTRA:                  -0.467
REMARK UNBOUND:                -0.839
REMARK SMILES CCCCCCCCC(=O)[O-]
REMARK SMILES IDX 6 1 7 2 8 3 9 4 10 5 11 6 5 7 4 8 3 9 2 10 1 11
REMARK H PARENT
REMARK Flexibility Score: inf
ROOT
ATOM      1  C   UNL     1      -6.432   5.646  -7.627  1.00  0.00     0.000 C 
ENDROOT
BRANCH   1   2
ATOM      2  C   UNL     1      -7.385   5.053  -8.677  1.00  0.00     0.006 C 
BRANCH   2   3
ATOM      3  C   UNL     1      -8.850   5.437  -8.431  1.00  0.00     0.053 C 
BRANCH   3   4
ATOM      4  C   UNL     1      -9.514   4.426  -7.551  1.00  0.00     0.041 C 
ATOM      5  O   UNL     1      -9.562   4.604  -6.305  1.00  0.00    -0.550 OA
ATOM      6  O   UNL     1     -10.124   3.311  -8.110  1.00  0.00    -0.550 OA
ENDBRANCH   3   4
ENDBRANCH   2   3
ENDBRANCH   1   2
BRANCH   1   7
ATOM      7  C   UNL     1      -6.898   7.020  -7.116  1.00  0.00     0.000 C 
BRANCH   7   8
ATOM      8  C   UNL     1      -5.762   7.822  -6.460  1.00  0.00    -0.000 C 
BRANCH   8   9
ATOM      9  C   UNL     1      -4.429   7.058  -6.439  1.00  0.00    -0.000 C 
BRANCH   9  10
ATOM     10  C   UNL     1      -3.347   7.826  -7.207  1.00  0.00    -0.003 C 
ATOM     11  C   UNL     1      -3.863   8.303  -8.562  1.00  0.00     0.004 C 
ENDBRANCH   9  10
ENDBRANCH   8   9
ENDBRANCH   7   8
ENDBRANCH   1   7
TORSDOF 7
ENDMDL
MODEL 9
REMARK VINA RESULT:    -2.937      2.485      3.419
REMARK INTER + INTRA:          -4.977
REMARK INTER:                  -4.429
REMARK INTRA:                  -0.548
REMARK UNBOUND:                -0.839
REMARK SMILES CCCCCCCCC(=O)[O-]
REMARK SMILES IDX 6 1 7 2 8 3 9 4 10 5 11 6 5 7 4 8 3 9 2 10 1 11
REMARK H PARENT
REMARK Flexibility Score: inf
ROOT
ATOM      1  C   UNL     1      -4.730   7.319  -6.587  1.00  0.00     0.000 C 
ENDROOT
BRANCH   1   2
ATOM      2  C   UNL     1      -3.563   7.868  -7.425  1.00  0.00     0.006 C 
BRANCH   2   3
ATOM      3  C   UNL     1      -3.973   9.055  -8.306  1.00  0.00     0.053 C 
BRANCH   3   4
ATOM      4  C   UNL     1      -4.885   8.601  -9.402  1.00  0.00     0.041 C 
ATOM      5  O   UNL     1      -4.567   7.621 -10.125  1.00  0.00    -0.550 OA
ATOM      6  O   UNL     1      -6.109   9.229  -9.593  1.00  0.00    -0.550 OA
ENDBRANCH   3   4
ENDBRANCH   2   3
ENDBRANCH   1   2
BRANCH   1   7
ATOM      7  C   UNL     1      -4.909   5.800  -6.750  1.00  0.00     0.000 C 
BRANCH   7   8
ATOM      8  C   UNL     1      -6.004   5.440  -7.767  1.00  0.00    -0.000 C 
BRANCH   8   9
ATOM      9  C   UNL     1      -7.328   6.172  -7.499  1.00  0.00    -0.000 C 
BRANCH   9  10
ATOM     10  C   UNL     1      -8.526   5.295  -7.882  1.00  0.00    -0.003 C 
ATOM     11  C   UNL     1      -8.261   4.533  -9.178  1.00  0.00     0.004 C 
ENDBRANCH   9  10
ENDBRANCH   8   9
ENDBRANCH   7   8
ENDBRANCH   1   7
TORSDOF 7
ENDMDL
