MODEL 1
REMARK VINA RESULT:     5.378      0.000      0.000
REMARK INTER + INTRA:           5.591
REMARK INTER:                   5.850
REMARK INTRA:                  -0.259
REMARK UNBOUND:                -0.259
REMARK SMILES CC1=C[C@H]2[C@H](C(C)C)CC[C@@](C)(O)[C@H]2CC1
REMARK SMILES IDX 1 1 2 2 3 3 4 4 5 5 9 6 10 7 11 8 14 9 15 10 16 11 12 12
REMARK SMILES IDX 6 13 7 14 8 15 13 16
REMARK H PARENT 13 17
REMARK Flexibility Score: inf
ROOT
ATOM      1  C   UNL     1     -41.962  26.603   4.642  1.00  0.00     0.039 C 
ATOM      2  C   UNL     1     -41.484  25.631   5.686  1.00  0.00    -0.077 C 
ATOM      3  C   UNL     1     -40.569  24.703   5.360  1.00  0.00    -0.024 C 
ATOM      4  C   UNL     1     -40.108  23.671   6.358  1.00  0.00     0.021 C 
ATOM      5  C   UNL     1     -38.959  24.182   7.277  1.00  0.00    -0.001 C 
ATOM      6  C   UNL     1     -38.541  23.056   8.251  1.00  0.00     0.007 C 
ATOM      7  C   UNL     1     -39.730  22.559   9.087  1.00  0.00     0.035 C 
ATOM      8  C   UNL     1     -40.938  22.091   8.235  1.00  0.00     0.065 C 
ATOM      9  C   UNL     1     -41.330  23.186   7.182  1.00  0.00     0.028 C 
ATOM     10  C   UNL     1     -42.125  24.369   7.823  1.00  0.00     0.011 C 
ATOM     11  C   UNL     1     -41.984  25.733   7.107  1.00  0.00     0.031 C 
ATOM     12  C   UNL     1     -40.606  20.747   7.543  1.00  0.00     0.042 C 
ENDROOT
BRANCH   5  13
ATOM     13  C   UNL     1     -37.750  24.779   6.479  1.00  0.00    -0.014 C 
ATOM     14  C   UNL     1     -37.081  23.784   5.515  1.00  0.00     0.007 C 
ATOM     15  C   UNL     1     -36.695  25.396   7.411  1.00  0.00     0.007 C 
ENDBRANCH   5  13
BRANCH   8  16
ATOM     16  O   UNL     1     -42.013  21.868   9.119  1.00  0.00    -0.390 OA
ATOM     17  H   UNL     1     -42.444  22.744   9.304  1.00  0.00     0.211 HD
ENDBRANCH   8  16
TORSDOF 2
ENDMDL
