MODEL 1
REMARK VINA RESULT:    -5.848      0.000      0.000
REMARK INTER + INTRA:          -7.549
REMARK INTER:                  -7.216
REMARK INTRA:                  -0.333
REMARK UNBOUND:                -0.333
REMARK SMILES O=c1c(O)c(-c2cc(O)c(O)c(O)c2)oc2cc(O)cc(O)c12
REMARK SMILES IDX 5 1 3 2 2 3 1 4 23 5 21 6 20 7 18 8 17 9 16 10 15 11 6 12
REMARK SMILES IDX 7 13 8 14 14 15 10 16 12 17 9 18 11 20 13 22 4 24 22 26
REMARK SMILES IDX 19 28
REMARK H PARENT 9 19 11 21 13 23 4 25 22 27 19 29
REMARK Flexibility Score: inf
ROOT
ATOM      1  C   UNL     1      14.991  56.280  32.363  1.00  0.00     0.180 A 
ATOM      2  C   UNL     1      14.496  56.327  31.049  1.00  0.00     0.208 A 
ATOM      3  C   UNL     1      14.687  57.494  30.290  1.00  0.00     0.238 A 
ATOM      4  O   UNL     1      14.195  57.550  29.135  1.00  0.00    -0.285 OA
ATOM      5  C   UNL     1      15.385  58.591  30.850  1.00  0.00     0.111 A 
ATOM      6  C   UNL     1      15.672  59.806  30.160  1.00  0.00     0.134 A 
ATOM      7  C   UNL     1      16.254  60.874  30.854  1.00  0.00     0.093 A 
ATOM      8  C   UNL     1      16.619  60.747  32.197  1.00  0.00     0.123 A 
ATOM      9  C   UNL     1      16.398  59.545  32.862  1.00  0.00     0.094 A 
ATOM     10  C   UNL     1      15.785  58.473  32.207  1.00  0.00     0.146 A 
ATOM     11  O   UNL     1      15.584  57.349  32.883  1.00  0.00    -0.452 OA
ENDROOT
BRANCH   1  12
ATOM     12  C   UNL     1      14.851  55.076  33.215  1.00  0.00     0.029 A 
ATOM     13  C   UNL     1      15.733  53.999  33.038  1.00  0.00     0.062 A 
ATOM     14  C   UNL     1      15.612  52.842  33.814  1.00  0.00     0.162 A 
ATOM     15  C   UNL     1      13.816  54.964  34.158  1.00  0.00     0.062 A 
ATOM     16  C   UNL     1      14.588  52.742  34.771  1.00  0.00     0.200 A 
ATOM     17  C   UNL     1      13.686  53.807  34.939  1.00  0.00     0.162 A 
BRANCH  14  18
ATOM     18  O   UNL     1      16.518  51.799  33.617  1.00  0.00    -0.504 OA
ATOM     19  H   UNL     1      17.400  51.751  34.113  1.00  0.00     0.293 HD
ENDBRANCH  14  18
BRANCH  16  20
ATOM     20  O   UNL     1      14.476  51.585  35.543  1.00  0.00    -0.502 OA
ATOM     21  H   UNL     1      14.316  50.675  35.130  1.00  0.00     0.293 HD
ENDBRANCH  16  20
BRANCH  17  22
ATOM     22  O   UNL     1      12.659  53.709  35.877  1.00  0.00    -0.504 OA
ATOM     23  H   UNL     1      12.761  54.074  36.817  1.00  0.00     0.293 HD
ENDBRANCH  17  22
ENDBRANCH   1  12
BRANCH   2  24
ATOM     24  O   UNL     1      13.791  55.240  30.524  1.00  0.00    -0.502 OA
ATOM     25  H   UNL     1      13.856  54.308  30.914  1.00  0.00     0.293 HD
ENDBRANCH   2  24
BRANCH   6  26
ATOM     26  O   UNL     1      15.432  60.005  28.797  1.00  0.00    -0.507 OA
ATOM     27  H   UNL     1      16.029  60.533  28.179  1.00  0.00     0.293 HD
ENDBRANCH   6  26
BRANCH   8  28
ATOM     28  O   UNL     1      17.212  61.809  32.874  1.00  0.00    -0.508 OA
ATOM     29  H   UNL     1      17.626  62.590  32.379  1.00  0.00     0.293 HD
ENDBRANCH   8  28
TORSDOF 7
ENDMDL
MODEL 2
REMARK VINA RESULT:    -5.830      0.204      1.761
REMARK INTER + INTRA:          -7.527
REMARK INTER:                  -7.220
REMARK INTRA:                  -0.307
REMARK UNBOUND:                -0.333
REMARK SMILES O=c1c(O)c(-c2cc(O)c(O)c(O)c2)oc2cc(O)cc(O)c12
REMARK SMILES IDX 5 1 3 2 2 3 1 4 23 5 21 6 20 7 18 8 17 9 16 10 15 11 6 12
REMARK SMILES IDX 7 13 8 14 14 15 10 16 12 17 9 18 11 20 13 22 4 24 22 26
REMARK SMILES IDX 19 28
REMARK H PARENT 9 19 11 21 13 23 4 25 22 27 19 29
REMARK Flexibility Score: inf
ROOT
ATOM      1  C   UNL     1      14.989  56.239  32.317  1.00  0.00     0.180 A 
ATOM      2  C   UNL     1      14.592  56.259  30.969  1.00  0.00     0.208 A 
ATOM      3  C   UNL     1      14.835  57.412  30.204  1.00  0.00     0.238 A 
ATOM      4  O   UNL     1      14.428  57.444  29.014  1.00  0.00    -0.285 OA
ATOM      5  C   UNL     1      15.486  58.523  30.792  1.00  0.00     0.111 A 
ATOM      6  C   UNL     1      15.820  59.726  30.100  1.00  0.00     0.134 A 
ATOM      7  C   UNL     1      16.346  60.809  30.814  1.00  0.00     0.093 A 
ATOM      8  C   UNL     1      16.612  60.710  32.182  1.00  0.00     0.123 A 
ATOM      9  C   UNL     1      16.346  59.519  32.853  1.00  0.00     0.094 A 
ATOM     10  C   UNL     1      15.786  58.433  32.176  1.00  0.00     0.146 A 
ATOM     11  O   UNL     1      15.539  57.321  32.857  1.00  0.00    -0.452 OA
ENDROOT
BRANCH   1  12
ATOM     12  C   UNL     1      14.790  55.052  33.179  1.00  0.00     0.029 A 
ATOM     13  C   UNL     1      13.822  55.091  34.195  1.00  0.00     0.062 A 
ATOM     14  C   UNL     1      13.626  53.991  35.037  1.00  0.00     0.162 A 
ATOM     15  C   UNL     1      15.589  53.905  33.040  1.00  0.00     0.062 A 
ATOM     16  C   UNL     1      14.414  52.839  34.881  1.00  0.00     0.200 A 
ATOM     17  C   UNL     1      15.400  52.799  33.881  1.00  0.00     0.162 A 
BRANCH  14  18
ATOM     18  O   UNL     1      12.644  54.066  36.025  1.00  0.00    -0.504 OA
ATOM     19  H   UNL     1      11.656  54.092  35.803  1.00  0.00     0.293 HD
ENDBRANCH  14  18
BRANCH  16  20
ATOM     20  O   UNL     1      14.209  51.745  35.723  1.00  0.00    -0.502 OA
ATOM     21  H   UNL     1      13.968  51.855  36.701  1.00  0.00     0.293 HD
ENDBRANCH  16  20
BRANCH  17  22
ATOM     22  O   UNL     1      16.195  51.663  33.729  1.00  0.00    -0.504 OA
ATOM     23  H   UNL     1      17.132  51.615  34.111  1.00  0.00     0.293 HD
ENDBRANCH  17  22
ENDBRANCH   1  12
BRANCH   2  24
ATOM     24  O   UNL     1      13.930  55.160  30.415  1.00  0.00    -0.502 OA
ATOM     25  H   UNL     1      13.187  54.670  30.898  1.00  0.00     0.293 HD
ENDBRANCH   2  24
BRANCH   6  26
ATOM     26  O   UNL     1      15.679  59.897  28.720  1.00  0.00    -0.507 OA
ATOM     27  H   UNL     1      15.769  59.159  28.037  1.00  0.00     0.293 HD
ENDBRANCH   6  26
BRANCH   8  28
ATOM     28  O   UNL     1      17.151  61.788  32.881  1.00  0.00    -0.508 OA
ATOM     29  H   UNL     1      18.021  61.706  33.392  1.00  0.00     0.293 HD
ENDBRANCH   8  28
TORSDOF 7
ENDMDL
MODEL 3
REMARK VINA RESULT:    -5.554      1.297      7.156
REMARK INTER + INTRA:          -7.186
REMARK INTER:                  -6.830
REMARK INTRA:                  -0.356
REMARK UNBOUND:                -0.333
REMARK SMILES O=c1c(O)c(-c2cc(O)c(O)c(O)c2)oc2cc(O)cc(O)c12
REMARK SMILES IDX 5 1 3 2 2 3 1 4 23 5 21 6 20 7 18 8 17 9 16 10 15 11 6 12
REMARK SMILES IDX 7 13 8 14 14 15 10 16 12 17 9 18 11 20 13 22 4 24 22 26
REMARK SMILES IDX 19 28
REMARK H PARENT 9 19 11 21 13 23 4 25 22 27 19 29
REMARK Flexibility Score: inf
ROOT
ATOM      1  C   UNL     1      14.625  57.220  32.655  1.00  0.00     0.180 A 
ATOM      2  C   UNL     1      13.305  57.190  33.134  1.00  0.00     0.208 A 
ATOM      3  C   UNL     1      12.826  56.017  33.741  1.00  0.00     0.238 A 
ATOM      4  O   UNL     1      11.627  55.978  34.118  1.00  0.00    -0.285 OA
ATOM      5  C   UNL     1      13.680  54.895  33.875  1.00  0.00     0.111 A 
ATOM      6  C   UNL     1      13.314  53.670  34.509  1.00  0.00     0.134 A 
ATOM      7  C   UNL     1      14.195  52.583  34.469  1.00  0.00     0.093 A 
ATOM      8  C   UNL     1      15.455  52.697  33.876  1.00  0.00     0.123 A 
ATOM      9  C   UNL     1      15.844  53.907  33.308  1.00  0.00     0.094 A 
ATOM     10  C   UNL     1      14.972  54.999  33.299  1.00  0.00     0.146 A 
ATOM     11  O   UNL     1      15.380  56.130  32.737  1.00  0.00    -0.452 OA
ENDROOT
BRANCH   1  12
ATOM     12  C   UNL     1      15.207  58.428  32.027  1.00  0.00     0.029 A 
ATOM     13  C   UNL     1      15.861  59.376  32.830  1.00  0.00     0.062 A 
ATOM     14  C   UNL     1      16.403  60.536  32.267  1.00  0.00     0.162 A 
ATOM     15  C   UNL     1      15.070  58.676  30.651  1.00  0.00     0.062 A 
ATOM     16  C   UNL     1      16.282  60.769  30.887  1.00  0.00     0.200 A 
ATOM     17  C   UNL     1      15.609  59.837  30.079  1.00  0.00     0.162 A 
BRANCH  14  18
ATOM     18  O   UNL     1      17.058  61.446  33.097  1.00  0.00    -0.504 OA
ATOM     19  H   UNL     1      17.471  62.300  32.741  1.00  0.00     0.293 HD
ENDBRANCH  14  18
BRANCH  16  20
ATOM     20  O   UNL     1      16.829  61.928  30.333  1.00  0.00    -0.502 OA
ATOM     21  H   UNL     1      17.196  62.678  30.906  1.00  0.00     0.293 HD
ENDBRANCH  16  20
BRANCH  17  22
ATOM     22  O   UNL     1      15.473  60.069  28.710  1.00  0.00    -0.504 OA
ATOM     23  H   UNL     1      15.434  61.008  28.332  1.00  0.00     0.293 HD
ENDBRANCH  17  22
ENDBRANCH   1  12
BRANCH   2  24
ATOM     24  O   UNL     1      12.472  58.301  32.971  1.00  0.00    -0.502 OA
ATOM     25  H   UNL     1      12.212  58.658  32.059  1.00  0.00     0.293 HD
ENDBRANCH   2  24
BRANCH   6  26
ATOM     26  O   UNL     1      12.119  53.480  35.209  1.00  0.00    -0.507 OA
ATOM     27  H   UNL     1      11.378  54.162  35.276  1.00  0.00     0.293 HD
ENDBRANCH   6  26
BRANCH   8  28
ATOM     28  O   UNL     1      16.330  51.614  33.855  1.00  0.00    -0.508 OA
ATOM     29  H   UNL     1      16.971  51.435  34.619  1.00  0.00     0.293 HD
ENDBRANCH   8  28
TORSDOF 7
ENDMDL
MODEL 4
REMARK VINA RESULT:    -5.406      1.868      6.801
REMARK INTER + INTRA:          -7.003
REMARK INTER:                  -6.674
REMARK INTRA:                  -0.329
REMARK UNBOUND:                -0.333
REMARK SMILES O=c1c(O)c(-c2cc(O)c(O)c(O)c2)oc2cc(O)cc(O)c12
REMARK SMILES IDX 5 1 3 2 2 3 1 4 23 5 21 6 20 7 18 8 17 9 16 10 15 11 6 12
REMARK SMILES IDX 7 13 8 14 14 15 10 16 12 17 9 18 11 20 13 22 4 24 22 26
REMARK SMILES IDX 19 28
REMARK H PARENT 9 19 11 21 13 23 4 25 22 27 19 29
REMARK Flexibility Score: inf
ROOT
ATOM      1  C   UNL     1      15.219  56.401  31.929  1.00  0.00     0.180 A 
ATOM      2  C   UNL     1      15.191  55.908  30.613  1.00  0.00     0.208 A 
ATOM      3  C   UNL     1      15.107  54.521  30.407  1.00  0.00     0.238 A 
ATOM      4  O   UNL     1      15.138  54.083  29.228  1.00  0.00    -0.285 OA
ATOM      5  C   UNL     1      15.035  53.647  31.518  1.00  0.00     0.111 A 
ATOM      6  C   UNL     1      14.906  52.229  31.427  1.00  0.00     0.134 A 
ATOM      7  C   UNL     1      14.975  51.453  32.591  1.00  0.00     0.093 A 
ATOM      8  C   UNL     1      15.103  52.049  33.848  1.00  0.00     0.123 A 
ATOM      9  C   UNL     1      15.168  53.436  33.951  1.00  0.00     0.094 A 
ATOM     10  C   UNL     1      15.139  54.235  32.806  1.00  0.00     0.146 A 
ATOM     11  O   UNL     1      15.216  55.552  32.950  1.00  0.00    -0.452 OA
ENDROOT
BRANCH   1  12
ATOM     12  C   UNL     1      15.281  57.851  32.225  1.00  0.00     0.029 A 
ATOM     13  C   UNL     1      14.096  58.549  32.507  1.00  0.00     0.062 A 
ATOM     14  C   UNL     1      14.122  59.922  32.771  1.00  0.00     0.162 A 
ATOM     15  C   UNL     1      16.495  58.557  32.173  1.00  0.00     0.062 A 
ATOM     16  C   UNL     1      15.341  60.620  32.738  1.00  0.00     0.200 A 
ATOM     17  C   UNL     1      16.529  59.934  32.435  1.00  0.00     0.162 A 
BRANCH  14  18
ATOM     18  O   UNL     1      12.925  60.576  33.061  1.00  0.00    -0.504 OA
ATOM     19  H   UNL     1      12.616  60.739  34.012  1.00  0.00     0.293 HD
ENDBRANCH  14  18
BRANCH  16  20
ATOM     20  O   UNL     1      15.358  61.990  33.006  1.00  0.00    -0.502 OA
ATOM     21  H   UNL     1      16.035  62.614  32.584  1.00  0.00     0.293 HD
ENDBRANCH  16  20
BRANCH  17  22
ATOM     22  O   UNL     1      17.741  60.623  32.387  1.00  0.00    -0.504 OA
ATOM     23  H   UNL     1      18.397  60.493  31.626  1.00  0.00     0.293 HD
ENDBRANCH  17  22
ENDBRANCH   1  12
BRANCH   2  24
ATOM     24  O   UNL     1      15.286  56.787  29.530  1.00  0.00    -0.502 OA
ATOM     25  H   UNL     1      16.123  56.867  28.965  1.00  0.00     0.293 HD
ENDBRANCH   2  24
BRANCH   6  26
ATOM     26  O   UNL     1      14.684  51.541  30.230  1.00  0.00    -0.507 OA
ATOM     27  H   UNL     1      13.801  51.505  29.744  1.00  0.00     0.293 HD
ENDBRANCH   6  26
BRANCH   8  28
ATOM     28  O   UNL     1      15.154  51.270  35.001  1.00  0.00    -0.508 OA
ATOM     29  H   UNL     1      14.666  51.540  35.846  1.00  0.00     0.293 HD
ENDBRANCH   8  28
TORSDOF 7
ENDMDL
MODEL 5
REMARK VINA RESULT:    -5.235      2.882      7.265
REMARK INTER + INTRA:          -6.792
REMARK INTER:                  -6.449
REMARK INTRA:                  -0.343
REMARK UNBOUND:                -0.333
REMARK SMILES O=c1c(O)c(-c2cc(O)c(O)c(O)c2)oc2cc(O)cc(O)c12
REMARK SMILES IDX 5 1 3 2 2 3 1 4 23 5 21 6 20 7 18 8 17 9 16 10 15 11 6 12
REMARK SMILES IDX 7 13 8 14 14 15 10 16 12 17 9 18 11 20 13 22 4 24 22 26
REMARK SMILES IDX 19 28
REMARK H PARENT 9 19 11 21 13 23 4 25 22 27 19 29
REMARK Flexibility Score: inf
ROOT
ATOM      1  C   UNL     1      15.122  54.562  31.826  1.00  0.00     0.180 A 
ATOM      2  C   UNL     1      15.237  53.723  32.947  1.00  0.00     0.208 A 
ATOM      3  C   UNL     1      14.988  52.349  32.798  1.00  0.00     0.238 A 
ATOM      4  O   UNL     1      15.039  51.611  33.815  1.00  0.00    -0.285 OA
ATOM      5  C   UNL     1      14.644  51.830  31.526  1.00  0.00     0.111 A 
ATOM      6  C   UNL     1      14.410  50.449  31.250  1.00  0.00     0.134 A 
ATOM      7  C   UNL     1      13.948  50.067  29.984  1.00  0.00     0.093 A 
ATOM      8  C   UNL     1      13.775  51.007  28.966  1.00  0.00     0.123 A 
ATOM      9  C   UNL     1      14.059  52.348  29.208  1.00  0.00     0.094 A 
ATOM     10  C   UNL     1      14.486  52.766  30.471  1.00  0.00     0.146 A 
ATOM     11  O   UNL     1      14.734  54.057  30.661  1.00  0.00    -0.452 OA
ENDROOT
BRANCH   1  12
ATOM     12  C   UNL     1      15.394  56.016  31.901  1.00  0.00     0.029 A 
ATOM     13  C   UNL     1      16.675  56.496  31.584  1.00  0.00     0.062 A 
ATOM     14  C   UNL     1      16.966  57.862  31.664  1.00  0.00     0.162 A 
ATOM     15  C   UNL     1      14.414  56.923  32.338  1.00  0.00     0.062 A 
ATOM     16  C   UNL     1      15.976  58.767  32.082  1.00  0.00     0.200 A 
ATOM     17  C   UNL     1      14.698  58.293  32.423  1.00  0.00     0.162 A 
BRANCH  14  18
ATOM     18  O   UNL     1      18.247  58.300  31.326  1.00  0.00    -0.504 OA
ATOM     19  H   UNL     1      18.596  59.209  31.604  1.00  0.00     0.293 HD
ENDBRANCH  14  18
BRANCH  16  20
ATOM     20  O   UNL     1      16.274  60.129  32.156  1.00  0.00    -0.502 OA
ATOM     21  H   UNL     1      16.267  60.727  31.340  1.00  0.00     0.293 HD
ENDBRANCH  16  20
BRANCH  17  22
ATOM     22  O   UNL     1      13.714  59.184  32.852  1.00  0.00    -0.504 OA
ATOM     23  H   UNL     1      13.614  60.103  32.439  1.00  0.00     0.293 HD
ENDBRANCH  17  22
ENDBRANCH   1  12
BRANCH   2  24
ATOM     24  O   UNL     1      15.557  54.259  34.198  1.00  0.00    -0.502 OA
ATOM     25  H   UNL     1      16.505  54.500  34.461  1.00  0.00     0.293 HD
ENDBRANCH   2  24
BRANCH   6  26
ATOM     26  O   UNL     1      14.639  49.421  32.168  1.00  0.00    -0.507 OA
ATOM     27  H   UNL     1      14.267  48.486  32.089  1.00  0.00     0.293 HD
ENDBRANCH   6  26
BRANCH   8  28
ATOM     28  O   UNL     1      13.331  50.615  27.706  1.00  0.00    -0.508 OA
ATOM     29  H   UNL     1      13.943  50.632  26.899  1.00  0.00     0.293 HD
ENDBRANCH   8  28
TORSDOF 7
ENDMDL
MODEL 6
REMARK VINA RESULT:    -5.204      2.232      2.711
REMARK INTER + INTRA:          -6.754
REMARK INTER:                  -6.683
REMARK INTRA:                  -0.071
REMARK UNBOUND:                -0.333
REMARK SMILES O=c1c(O)c(-c2cc(O)c(O)c(O)c2)oc2cc(O)cc(O)c12
REMARK SMILES IDX 5 1 3 2 2 3 1 4 23 5 21 6 20 7 18 8 17 9 16 10 15 11 6 12
REMARK SMILES IDX 7 13 8 14 14 15 10 16 12 17 9 18 11 20 13 22 4 24 22 26
REMARK SMILES IDX 19 28
REMARK H PARENT 9 19 11 21 13 23 4 25 22 27 19 29
REMARK Flexibility Score: inf
ROOT
ATOM      1  C   UNL     1      14.207  56.063  32.646  1.00  0.00     0.180 A 
ATOM      2  C   UNL     1      12.959  56.645  32.925  1.00  0.00     0.208 A 
ATOM      3  C   UNL     1      12.854  58.045  32.971  1.00  0.00     0.238 A 
ATOM      4  O   UNL     1      11.747  58.559  33.275  1.00  0.00    -0.285 OA
ATOM      5  C   UNL     1      13.995  58.845  32.719  1.00  0.00     0.111 A 
ATOM      6  C   UNL     1      13.996  60.272  32.698  1.00  0.00     0.134 A 
ATOM      7  C   UNL     1      15.209  60.959  32.567  1.00  0.00     0.093 A 
ATOM      8  C   UNL     1      16.413  60.271  32.391  1.00  0.00     0.123 A 
ATOM      9  C   UNL     1      16.413  58.880  32.350  1.00  0.00     0.094 A 
ATOM     10  C   UNL     1      15.224  58.164  32.514  1.00  0.00     0.146 A 
ATOM     11  O   UNL     1      15.272  56.838  32.479  1.00  0.00    -0.452 OA
ENDROOT
BRANCH   1  12
ATOM     12  C   UNL     1      14.389  54.596  32.556  1.00  0.00     0.029 A 
ATOM     13  C   UNL     1      15.443  53.988  33.256  1.00  0.00     0.062 A 
ATOM     14  C   UNL     1      15.651  52.607  33.175  1.00  0.00     0.162 A 
ATOM     15  C   UNL     1      13.565  53.805  31.739  1.00  0.00     0.062 A 
ATOM     16  C   UNL     1      14.811  51.817  32.372  1.00  0.00     0.200 A 
ATOM     17  C   UNL     1      13.768  52.421  31.650  1.00  0.00     0.162 A 
BRANCH  14  18
ATOM     18  O   UNL     1      16.701  52.039  33.897  1.00  0.00    -0.504 OA
ATOM     19  H   UNL     1      17.032  52.436  34.769  1.00  0.00     0.293 HD
ENDBRANCH  14  18
BRANCH  16  20
ATOM     20  O   UNL     1      15.024  50.439  32.299  1.00  0.00    -0.502 OA
ATOM     21  H   UNL     1      14.755  49.812  33.047  1.00  0.00     0.293 HD
ENDBRANCH  16  20
BRANCH  17  22
ATOM     22  O   UNL     1      12.939  51.644  30.841  1.00  0.00    -0.504 OA
ATOM     23  H   UNL     1      13.316  51.000  30.157  1.00  0.00     0.293 HD
ENDBRANCH  17  22
ENDBRANCH   1  12
BRANCH   2  24
ATOM     24  O   UNL     1      11.850  55.837  33.193  1.00  0.00    -0.502 OA
ATOM     25  H   UNL     1      11.115  56.115  33.832  1.00  0.00     0.293 HD
ENDBRANCH   2  24
BRANCH   6  26
ATOM     26  O   UNL     1      12.840  61.053  32.774  1.00  0.00    -0.507 OA
ATOM     27  H   UNL     1      12.017  60.919  32.207  1.00  0.00     0.293 HD
ENDBRANCH   6  26
BRANCH   8  28
ATOM     28  O   UNL     1      17.612  60.964  32.246  1.00  0.00    -0.508 OA
ATOM     29  H   UNL     1      18.393  60.808  32.871  1.00  0.00     0.293 HD
ENDBRANCH   8  28
TORSDOF 7
ENDMDL
MODEL 7
REMARK VINA RESULT:    -5.161      2.382      3.337
REMARK INTER + INTRA:          -6.702
REMARK INTER:                  -6.342
REMARK INTRA:                  -0.359
REMARK UNBOUND:                -0.333
REMARK SMILES O=c1c(O)c(-c2cc(O)c(O)c(O)c2)oc2cc(O)cc(O)c12
REMARK SMILES IDX 5 1 3 2 2 3 1 4 23 5 21 6 20 7 18 8 17 9 16 10 15 11 6 12
REMARK SMILES IDX 7 13 8 14 14 15 10 16 12 17 9 18 11 20 13 22 4 24 22 26
REMARK SMILES IDX 19 28
REMARK H PARENT 9 19 11 21 13 23 4 25 22 27 19 29
REMARK Flexibility Score: inf
ROOT
ATOM      1  C   UNL     1      15.102  56.452  32.099  1.00  0.00     0.180 A 
ATOM      2  C   UNL     1      16.259  57.183  31.779  1.00  0.00     0.208 A 
ATOM      3  C   UNL     1      16.250  58.578  31.940  1.00  0.00     0.238 A 
ATOM      4  O   UNL     1      17.269  59.232  31.601  1.00  0.00    -0.285 OA
ATOM      5  C   UNL     1      15.091  59.222  32.436  1.00  0.00     0.111 A 
ATOM      6  C   UNL     1      14.983  60.625  32.678  1.00  0.00     0.134 A 
ATOM      7  C   UNL     1      13.747  61.169  33.045  1.00  0.00     0.093 A 
ATOM      8  C   UNL     1      12.630  60.354  33.243  1.00  0.00     0.123 A 
ATOM      9  C   UNL     1      12.740  58.977  33.068  1.00  0.00     0.094 A 
ATOM     10  C   UNL     1      13.952  58.408  32.666  1.00  0.00     0.146 A 
ATOM     11  O   UNL     1      14.009  57.092  32.500  1.00  0.00    -0.452 OA
ENDROOT
BRANCH   1  12
ATOM     12  C   UNL     1      15.044  54.977  31.980  1.00  0.00     0.029 A 
ATOM     13  C   UNL     1      14.449  54.400  30.848  1.00  0.00     0.062 A 
ATOM     14  C   UNL     1      14.363  53.010  30.717  1.00  0.00     0.162 A 
ATOM     15  C   UNL     1      15.522  54.141  33.003  1.00  0.00     0.062 A 
ATOM     16  C   UNL     1      14.860  52.177  31.733  1.00  0.00     0.200 A 
ATOM     17  C   UNL     1      15.438  52.747  32.880  1.00  0.00     0.162 A 
BRANCH  14  18
ATOM     18  O   UNL     1      13.776  52.475  29.569  1.00  0.00    -0.504 OA
ATOM     19  H   UNL     1      12.827  52.702  29.294  1.00  0.00     0.293 HD
ENDBRANCH  14  18
BRANCH  16  20
ATOM     20  O   UNL     1      14.773  50.791  31.593  1.00  0.00    -0.502 OA
ATOM     21  H   UNL     1      14.754  50.341  30.686  1.00  0.00     0.293 HD
ENDBRANCH  16  20
BRANCH  17  22
ATOM     22  O   UNL     1      15.921  51.927  33.899  1.00  0.00    -0.504 OA
ATOM     23  H   UNL     1      15.456  51.063  34.152  1.00  0.00     0.293 HD
ENDBRANCH  17  22
ENDBRANCH   1  12
BRANCH   2  24
ATOM     24  O   UNL     1      17.385  56.530  31.271  1.00  0.00    -0.502 OA
ATOM     25  H   UNL     1      17.504  56.339  30.283  1.00  0.00     0.293 HD
ENDBRANCH   2  24
BRANCH   6  26
ATOM     26  O   UNL     1      16.058  61.514  32.598  1.00  0.00    -0.507 OA
ATOM     27  H   UNL     1      16.986  61.327  32.947  1.00  0.00     0.293 HD
ENDBRANCH   6  26
BRANCH   8  28
ATOM     28  O   UNL     1      11.408  60.903  33.623  1.00  0.00    -0.508 OA
ATOM     29  H   UNL     1      11.049  60.797  34.564  1.00  0.00     0.293 HD
ENDBRANCH   8  28
TORSDOF 7
ENDMDL
MODEL 8
REMARK VINA RESULT:    -5.140      2.347      3.310
REMARK INTER + INTRA:          -6.675
REMARK INTER:                  -6.333
REMARK INTRA:                  -0.342
REMARK UNBOUND:                -0.333
REMARK SMILES O=c1c(O)c(-c2cc(O)c(O)c(O)c2)oc2cc(O)cc(O)c12
REMARK SMILES IDX 5 1 3 2 2 3 1 4 23 5 21 6 20 7 18 8 17 9 16 10 15 11 6 12
REMARK SMILES IDX 7 13 8 14 14 15 10 16 12 17 9 18 11 20 13 22 4 24 22 26
REMARK SMILES IDX 19 28
REMARK H PARENT 9 19 11 21 13 23 4 25 22 27 19 29
REMARK Flexibility Score: inf
ROOT
ATOM      1  C   UNL     1      15.104  56.541  32.086  1.00  0.00     0.180 A 
ATOM      2  C   UNL     1      16.299  57.211  31.773  1.00  0.00     0.208 A 
ATOM      3  C   UNL     1      16.364  58.604  31.943  1.00  0.00     0.238 A 
ATOM      4  O   UNL     1      17.417  59.205  31.610  1.00  0.00    -0.285 OA
ATOM      5  C   UNL     1      15.239  59.306  32.440  1.00  0.00     0.111 A 
ATOM      6  C   UNL     1      15.206  60.711  32.690  1.00  0.00     0.134 A 
ATOM      7  C   UNL     1      13.998  61.318  33.057  1.00  0.00     0.093 A 
ATOM      8  C   UNL     1      12.839  60.561  33.247  1.00  0.00     0.123 A 
ATOM      9  C   UNL     1      12.877  59.182  33.063  1.00  0.00     0.094 A 
ATOM     10  C   UNL     1      14.057  58.551  32.661  1.00  0.00     0.146 A 
ATOM     11  O   UNL     1      14.045  57.235  32.488  1.00  0.00    -0.452 OA
ENDROOT
BRANCH   1  12
ATOM     12  C   UNL     1      14.968  55.072  31.957  1.00  0.00     0.029 A 
ATOM     13  C   UNL     1      15.450  54.242  32.981  1.00  0.00     0.062 A 
ATOM     14  C   UNL     1      15.353  52.850  32.878  1.00  0.00     0.162 A 
ATOM     15  C   UNL     1      14.420  54.486  30.804  1.00  0.00     0.062 A 
ATOM     16  C   UNL     1      14.784  52.270  31.732  1.00  0.00     0.200 A 
ATOM     17  C   UNL     1      14.320  53.093  30.691  1.00  0.00     0.162 A 
BRANCH  14  18
ATOM     18  O   UNL     1      15.830  52.061  33.925  1.00  0.00    -0.504 OA
ATOM     19  H   UNL     1      16.542  51.354  33.785  1.00  0.00     0.293 HD
ENDBRANCH  14  18
BRANCH  16  20
ATOM     20  O   UNL     1      14.689  50.880  31.638  1.00  0.00    -0.502 OA
ATOM     21  H   UNL     1      15.477  50.302  31.376  1.00  0.00     0.293 HD
ENDBRANCH  16  20
BRANCH  17  22
ATOM     22  O   UNL     1      13.768  52.523  29.544  1.00  0.00    -0.504 OA
ATOM     23  H   UNL     1      13.007  51.856  29.596  1.00  0.00     0.293 HD
ENDBRANCH  17  22
ENDBRANCH   1  12
BRANCH   2  24
ATOM     24  O   UNL     1      17.390  56.502  31.263  1.00  0.00    -0.502 OA
ATOM     25  H   UNL     1      18.343  56.680  31.561  1.00  0.00     0.293 HD
ENDBRANCH   2  24
BRANCH   6  26
ATOM     26  O   UNL     1      16.327  61.542  32.618  1.00  0.00    -0.507 OA
ATOM     27  H   UNL     1      17.242  61.304  32.968  1.00  0.00     0.293 HD
ENDBRANCH   6  26
BRANCH   8  28
ATOM     28  O   UNL     1      11.647  61.172  33.628  1.00  0.00    -0.508 OA
ATOM     29  H   UNL     1      11.557  61.650  34.516  1.00  0.00     0.293 HD
ENDBRANCH   8  28
TORSDOF 7
ENDMDL
MODEL 9
REMARK VINA RESULT:    -5.121      4.378      6.578
REMARK INTER + INTRA:          -6.652
REMARK INTER:                  -6.300
REMARK INTRA:                  -0.351
REMARK UNBOUND:                -0.333
REMARK SMILES O=c1c(O)c(-c2cc(O)c(O)c(O)c2)oc2cc(O)cc(O)c12
REMARK SMILES IDX 5 1 3 2 2 3 1 4 23 5 21 6 20 7 18 8 17 9 16 10 15 11 6 12
REMARK SMILES IDX 7 13 8 14 14 15 10 16 12 17 9 18 11 20 13 22 4 24 22 26
REMARK SMILES IDX 19 28
REMARK H PARENT 9 19 11 21 13 23 4 25 22 27 19 29
REMARK Flexibility Score: inf
ROOT
ATOM      1  C   UNL     1      14.920  50.577  31.371  1.00  0.00     0.180 A 
ATOM      2  C   UNL     1      14.727  51.395  30.245  1.00  0.00     0.208 A 
ATOM      3  C   UNL     1      14.725  52.791  30.409  1.00  0.00     0.238 A 
ATOM      4  O   UNL     1      14.497  53.517  29.408  1.00  0.00    -0.285 OA
ATOM      5  C   UNL     1      14.936  53.349  31.694  1.00  0.00     0.111 A 
ATOM      6  C   UNL     1      14.995  54.748  31.970  1.00  0.00     0.134 A 
ATOM      7  C   UNL     1      15.077  55.186  33.297  1.00  0.00     0.093 A 
ATOM      8  C   UNL     1      15.168  54.276  34.353  1.00  0.00     0.123 A 
ATOM      9  C   UNL     1      15.171  52.909  34.088  1.00  0.00     0.094 A 
ATOM     10  C   UNL     1      15.053  52.440  32.777  1.00  0.00     0.146 A 
ATOM     11  O   UNL     1      15.049  51.128  32.572  1.00  0.00    -0.452 OA
ENDROOT
BRANCH   1  12
ATOM     12  C   UNL     1      14.959  49.100  31.272  1.00  0.00     0.029 A 
ATOM     13  C   UNL     1      13.828  48.354  31.638  1.00  0.00     0.062 A 
ATOM     14  C   UNL     1      13.843  46.956  31.574  1.00  0.00     0.162 A 
ATOM     15  C   UNL     1      16.125  48.423  30.875  1.00  0.00     0.062 A 
ATOM     16  C   UNL     1      15.004  46.285  31.156  1.00  0.00     0.200 A 
ATOM     17  C   UNL     1      16.149  47.024  30.810  1.00  0.00     0.162 A 
BRANCH  14  18
ATOM     18  O   UNL     1      12.693  46.253  31.933  1.00  0.00    -0.504 OA
ATOM     19  H   UNL     1      11.864  46.242  31.351  1.00  0.00     0.293 HD
ENDBRANCH  14  18
BRANCH  16  20
ATOM     20  O   UNL     1      15.009  44.891  31.092  1.00  0.00    -0.502 OA
ATOM     21  H   UNL     1      15.618  44.382  30.463  1.00  0.00     0.293 HD
ENDBRANCH  16  20
BRANCH  17  22
ATOM     22  O   UNL     1      17.309  46.363  30.407  1.00  0.00    -0.504 OA
ATOM     23  H   UNL     1      18.134  46.871  30.109  1.00  0.00     0.293 HD
ENDBRANCH  17  22
ENDBRANCH   1  12
BRANCH   2  24
ATOM     24  O   UNL     1      14.499  50.824  28.990  1.00  0.00    -0.502 OA
ATOM     25  H   UNL     1      14.257  51.376  28.176  1.00  0.00     0.293 HD
ENDBRANCH   2  24
BRANCH   6  26
ATOM     26  O   UNL     1      15.005  55.737  30.983  1.00  0.00    -0.507 OA
ATOM     27  H   UNL     1      15.821  56.024  30.464  1.00  0.00     0.293 HD
ENDBRANCH   6  26
BRANCH   8  28
ATOM     28  O   UNL     1      15.265  54.722  35.668  1.00  0.00    -0.508 OA
ATOM     29  H   UNL     1      14.743  55.526  35.996  1.00  0.00     0.293 HD
ENDBRANCH   8  28
TORSDOF 7
ENDMDL
