MODEL 1
REMARK VINA RESULT:    -4.126      0.000      0.000
REMARK INTER + INTRA:          -7.805
REMARK INTER:                  -6.538
REMARK INTRA:                  -1.267
REMARK UNBOUND:                -1.267
REMARK SMILES CCCCCCCCCCCC(=O)[O-]
REMARK SMILES IDX 7 1 8 2 9 3 10 4 11 5 12 6 13 7 14 8 6 9 5 10 4 11 3 12 2 13
REMARK SMILES IDX 1 14
REMARK H PARENT
REMARK Flexibility Score: inf
ROOT
ATOM      1  C   UNL     1      -0.921  44.013  22.476  1.00  0.00     0.000 C 
ENDROOT
BRANCH   1   2
ATOM      2  C   UNL     1      -2.177  43.621  21.677  1.00  0.00     0.000 C 
BRANCH   2   3
ATOM      3  C   UNL     1      -2.646  44.660  20.637  1.00  0.00     0.000 C 
BRANCH   3   4
ATOM      4  C   UNL     1      -4.092  44.478  20.133  1.00  0.00     0.006 C 
BRANCH   4   5
ATOM      5  C   UNL     1      -4.309  44.892  18.669  1.00  0.00     0.053 C 
BRANCH   5   6
ATOM      6  C   UNL     1      -4.185  43.728  17.734  1.00  0.00     0.041 C 
ATOM      7  O   UNL     1      -4.200  43.912  16.488  1.00  0.00    -0.550 OA
ATOM      8  O   UNL     1      -4.087  42.438  18.238  1.00  0.00    -0.550 OA
ENDBRANCH   5   6
ENDBRANCH   4   5
ENDBRANCH   3   4
ENDBRANCH   2   3
ENDBRANCH   1   2
BRANCH   1   9
ATOM      9  C   UNL     1      -1.216  44.261  23.966  1.00  0.00     0.000 C 
BRANCH   9  10
ATOM     10  C   UNL     1      -2.533  43.610  24.422  1.00  0.00    -0.000 C 
BRANCH  10  11
ATOM     11  C   UNL     1      -3.540  44.633  24.975  1.00  0.00    -0.000 C 
BRANCH  11  12
ATOM     12  C   UNL     1      -4.769  44.811  24.067  1.00  0.00    -0.000 C 
BRANCH  12  13
ATOM     13  C   UNL     1      -4.758  46.128  23.264  1.00  0.00    -0.003 C 
ATOM     14  C   UNL     1      -3.683  47.100  23.750  1.00  0.00     0.004 C 
ENDBRANCH  12  13
ENDBRANCH  11  12
ENDBRANCH  10  11
ENDBRANCH   9  10
ENDBRANCH   1   9
TORSDOF 10
ENDMDL
MODEL 2
REMARK VINA RESULT:    -4.107      3.582      5.623
REMARK INTER + INTRA:          -7.776
REMARK INTER:                  -6.427
REMARK INTRA:                  -1.349
REMARK UNBOUND:                -1.267
REMARK SMILES CCCCCCCCCCCC(=O)[O-]
REMARK SMILES IDX 7 1 8 2 9 3 10 4 11 5 12 6 13 7 14 8 6 9 5 10 4 11 3 12 2 13
REMARK SMILES IDX 1 14
REMARK H PARENT
REMARK Flexibility Score: inf
ROOT
ATOM      1  C   UNL     1      -2.293  44.220  19.779  1.00  0.00     0.000 C 
ENDROOT
BRANCH   1   2
ATOM      2  C   UNL     1      -1.814  44.290  21.240  1.00  0.00     0.000 C 
BRANCH   2   3
ATOM      3  C   UNL     1      -2.739  45.069  22.199  1.00  0.00     0.000 C 
BRANCH   3   4
ATOM      4  C   UNL     1      -2.235  45.178  23.651  1.00  0.00     0.006 C 
BRANCH   4   5
ATOM      5  C   UNL     1      -1.297  44.040  24.084  1.00  0.00     0.053 C 
BRANCH   5   6
ATOM      6  C   UNL     1      -1.821  43.306  25.280  1.00  0.00     0.041 C 
ATOM      7  O   UNL     1      -2.949  43.599  25.758  1.00  0.00    -0.550 OA
ATOM      8  O   UNL     1      -1.051  42.324  25.886  1.00  0.00    -0.550 OA
ENDBRANCH   5   6
ENDBRANCH   4   5
ENDBRANCH   3   4
ENDBRANCH   2   3
ENDBRANCH   1   2
BRANCH   1   9
ATOM      9  C   UNL     1      -3.574  45.034  19.532  1.00  0.00     0.000 C 
BRANCH   9  10
ATOM     10  C   UNL     1      -4.777  44.146  19.171  1.00  0.00    -0.000 C 
BRANCH  10  11
ATOM     11  C   UNL     1      -5.510  43.608  20.411  1.00  0.00    -0.000 C 
BRANCH  11  12
ATOM     12  C   UNL     1      -5.445  42.075  20.523  1.00  0.00    -0.000 C 
BRANCH  12  13
ATOM     13  C   UNL     1      -4.343  41.571  21.478  1.00  0.00    -0.003 C 
ATOM     14  C   UNL     1      -4.583  42.000  22.926  1.00  0.00     0.004 C 
ENDBRANCH  12  13
ENDBRANCH  11  12
ENDBRANCH  10  11
ENDBRANCH   9  10
ENDBRANCH   1   9
TORSDOF 10
ENDMDL
MODEL 3
REMARK VINA RESULT:    -4.022      1.037      1.610
REMARK INTER + INTRA:          -7.641
REMARK INTER:                  -6.342
REMARK INTRA:                  -1.298
REMARK UNBOUND:                -1.267
REMARK SMILES CCCCCCCCCCCC(=O)[O-]
REMARK SMILES IDX 7 1 8 2 9 3 10 4 11 5 12 6 13 7 14 8 6 9 5 10 4 11 3 12 2 13
REMARK SMILES IDX 1 14
REMARK H PARENT
REMARK Flexibility Score: inf
ROOT
ATOM      1  C   UNL     1      -0.913  43.320  23.902  1.00  0.00     0.000 C 
ENDROOT
BRANCH   1   2
ATOM      2  C   UNL     1      -1.000  44.272  22.695  1.00  0.00     0.000 C 
BRANCH   2   3
ATOM      3  C   UNL     1      -1.747  43.712  21.467  1.00  0.00     0.000 C 
BRANCH   3   4
ATOM      4  C   UNL     1      -2.715  44.696  20.782  1.00  0.00     0.006 C 
BRANCH   4   5
ATOM      5  C   UNL     1      -2.764  44.574  19.251  1.00  0.00     0.053 C 
BRANCH   5   6
ATOM      6  C   UNL     1      -4.156  44.330  18.753  1.00  0.00     0.041 C 
ATOM      7  O   UNL     1      -5.092  44.115  19.568  1.00  0.00    -0.550 OA
ATOM      8  O   UNL     1      -4.413  44.305  17.388  1.00  0.00    -0.550 OA
ENDBRANCH   5   6
ENDBRANCH   4   5
ENDBRANCH   3   4
ENDBRANCH   2   3
ENDBRANCH   1   2
BRANCH   1   9
ATOM      9  C   UNL     1      -2.016  43.575  24.943  1.00  0.00     0.000 C 
BRANCH   9  10
ATOM     10  C   UNL     1      -3.230  42.650  24.753  1.00  0.00    -0.000 C 
BRANCH  10  11
ATOM     11  C   UNL     1      -4.398  43.343  24.032  1.00  0.00    -0.000 C 
BRANCH  11  12
ATOM     12  C   UNL     1      -4.685  44.752  24.578  1.00  0.00    -0.000 C 
BRANCH  12  13
ATOM     13  C   UNL     1      -4.688  45.848  23.493  1.00  0.00    -0.003 C 
ATOM     14  C   UNL     1      -3.637  46.927  23.750  1.00  0.00     0.004 C 
ENDBRANCH  12  13
ENDBRANCH  11  12
ENDBRANCH  10  11
ENDBRANCH   9  10
ENDBRANCH   1   9
TORSDOF 10
ENDMDL
MODEL 4
REMARK VINA RESULT:    -3.996      3.029      5.979
REMARK INTER + INTRA:          -7.600
REMARK INTER:                  -6.525
REMARK INTRA:                  -1.074
REMARK UNBOUND:                -1.267
REMARK SMILES CCCCCCCCCCCC(=O)[O-]
REMARK SMILES IDX 7 1 8 2 9 3 10 4 11 5 12 6 13 7 14 8 6 9 5 10 4 11 3 12 2 13
REMARK SMILES IDX 1 14
REMARK H PARENT
REMARK Flexibility Score: inf
ROOT
ATOM      1  C   UNL     1      -3.118  45.043  20.810  1.00  0.00     0.000 C 
ENDROOT
BRANCH   1   2
ATOM      2  C   UNL     1      -1.784  44.290  20.955  1.00  0.00     0.000 C 
BRANCH   2   3
ATOM      3  C   UNL     1      -1.497  43.724  22.361  1.00  0.00     0.000 C 
BRANCH   3   4
ATOM      4  C   UNL     1      -1.730  44.707  23.525  1.00  0.00     0.006 C 
BRANCH   4   5
ATOM      5  C   UNL     1      -2.685  44.187  24.611  1.00  0.00     0.053 C 
BRANCH   5   6
ATOM      6  C   UNL     1      -3.827  45.126  24.849  1.00  0.00     0.041 C 
ATOM      7  O   UNL     1      -4.099  46.019  24.004  1.00  0.00    -0.550 OA
ATOM      8  O   UNL     1      -4.569  45.037  26.019  1.00  0.00    -0.550 OA
ENDBRANCH   5   6
ENDBRANCH   4   5
ENDBRANCH   3   4
ENDBRANCH   2   3
ENDBRANCH   1   2
BRANCH   1   9
ATOM      9  C   UNL     1      -4.341  44.118  20.933  1.00  0.00     0.000 C 
BRANCH   9  10
ATOM     10  C   UNL     1      -4.946  43.755  19.567  1.00  0.00    -0.000 C 
BRANCH  10  11
ATOM     11  C   UNL     1      -4.444  44.666  18.434  1.00  0.00    -0.000 C 
BRANCH  11  12
ATOM     12  C   UNL     1      -4.222  43.909  17.114  1.00  0.00    -0.000 C 
BRANCH  12  13
ATOM     13  C   UNL     1      -3.021  42.940  17.151  1.00  0.00    -0.003 C 
ATOM     14  C   UNL     1      -1.691  43.666  17.350  1.00  0.00     0.004 C 
ENDBRANCH  12  13
ENDBRANCH  11  12
ENDBRANCH  10  11
ENDBRANCH   9  10
ENDBRANCH   1   9
TORSDOF 10
ENDMDL
MODEL 5
REMARK VINA RESULT:    -3.990      3.105      5.166
REMARK INTER + INTRA:          -7.589
REMARK INTER:                  -6.246
REMARK INTRA:                  -1.343
REMARK UNBOUND:                -1.267
REMARK SMILES CCCCCCCCCCCC(=O)[O-]
REMARK SMILES IDX 7 1 8 2 9 3 10 4 11 5 12 6 13 7 14 8 6 9 5 10 4 11 3 12 2 13
REMARK SMILES IDX 1 14
REMARK H PARENT
REMARK Flexibility Score: inf
ROOT
ATOM      1  C   UNL     1      -1.330  42.427  20.178  1.00  0.00     0.000 C 
ENDROOT
BRANCH   1   2
ATOM      2  C   UNL     1      -1.573  42.635  21.684  1.00  0.00     0.000 C 
BRANCH   2   3
ATOM      3  C   UNL     1      -1.026  43.956  22.263  1.00  0.00     0.000 C 
BRANCH   3   4
ATOM      4  C   UNL     1      -1.958  44.671  23.261  1.00  0.00     0.006 C 
BRANCH   4   5
ATOM      5  C   UNL     1      -3.138  45.408  22.609  1.00  0.00     0.053 C 
BRANCH   5   6
ATOM      6  C   UNL     1      -3.943  46.174  23.614  1.00  0.00     0.041 C 
ATOM      7  O   UNL     1      -4.434  47.294  23.310  1.00  0.00    -0.550 OA
ATOM      8  O   UNL     1      -4.122  45.669  24.894  1.00  0.00    -0.550 OA
ENDBRANCH   5   6
ENDBRANCH   4   5
ENDBRANCH   3   4
ENDBRANCH   2   3
ENDBRANCH   1   2
BRANCH   1   9
ATOM      9  C   UNL     1      -1.092  43.748  19.425  1.00  0.00     0.000 C 
BRANCH   9  10
ATOM     10  C   UNL     1      -2.220  44.070  18.430  1.00  0.00    -0.000 C 
BRANCH  10  11
ATOM     11  C   UNL     1      -3.330  44.934  19.050  1.00  0.00    -0.000 C 
BRANCH  11  12
ATOM     12  C   UNL     1      -4.724  44.296  18.923  1.00  0.00    -0.000 C 
BRANCH  12  13
ATOM     13  C   UNL     1      -5.243  43.676  20.237  1.00  0.00    -0.003 C 
ATOM     14  C   UNL     1      -5.185  42.149  20.226  1.00  0.00     0.004 C 
ENDBRANCH  12  13
ENDBRANCH  11  12
ENDBRANCH  10  11
ENDBRANCH   9  10
ENDBRANCH   1   9
TORSDOF 10
ENDMDL
MODEL 6
REMARK VINA RESULT:    -3.936      3.040      5.502
REMARK INTER + INTRA:          -7.505
REMARK INTER:                  -6.559
REMARK INTRA:                  -0.946
REMARK UNBOUND:                -1.267
REMARK SMILES CCCCCCCCCCCC(=O)[O-]
REMARK SMILES IDX 7 1 8 2 9 3 10 4 11 5 12 6 13 7 14 8 6 9 5 10 4 11 3 12 2 13
REMARK SMILES IDX 1 14
REMARK H PARENT
REMARK Flexibility Score: inf
ROOT
ATOM      1  C   UNL     1      -0.891  43.445  21.796  1.00  0.00     0.000 C 
ENDROOT
BRANCH   1   2
ATOM      2  C   UNL     1      -1.116  44.288  23.064  1.00  0.00     0.000 C 
BRANCH   2   3
ATOM      3  C   UNL     1      -0.869  43.552  24.397  1.00  0.00     0.000 C 
BRANCH   3   4
ATOM      4  C   UNL     1      -2.092  43.454  25.330  1.00  0.00     0.006 C 
BRANCH   4   5
ATOM      5  C   UNL     1      -3.444  43.641  24.624  1.00  0.00     0.053 C 
BRANCH   5   6
ATOM      6  C   UNL     1      -4.135  44.897  25.060  1.00  0.00     0.041 C 
ATOM      7  O   UNL     1      -4.486  45.755  24.209  1.00  0.00    -0.550 OA
ATOM      8  O   UNL     1      -4.359  45.134  26.410  1.00  0.00    -0.550 OA
ENDBRANCH   5   6
ENDBRANCH   4   5
ENDBRANCH   3   4
ENDBRANCH   2   3
ENDBRANCH   1   2
BRANCH   1   9
ATOM      9  C   UNL     1      -1.841  43.829  20.649  1.00  0.00     0.000 C 
BRANCH   9  10
ATOM     10  C   UNL     1      -2.886  44.875  21.074  1.00  0.00    -0.000 C 
BRANCH  10  11
ATOM     11  C   UNL     1      -4.321  44.322  21.056  1.00  0.00    -0.000 C 
BRANCH  11  12
ATOM     12  C   UNL     1      -4.701  43.693  19.705  1.00  0.00    -0.000 C 
BRANCH  12  13
ATOM     13  C   UNL     1      -4.521  44.647  18.506  1.00  0.00    -0.003 C 
ATOM     14  C   UNL     1      -4.195  43.903  17.212  1.00  0.00     0.004 C 
ENDBRANCH  12  13
ENDBRANCH  11  12
ENDBRANCH  10  11
ENDBRANCH   9  10
ENDBRANCH   1   9
TORSDOF 10
ENDMDL
MODEL 7
REMARK VINA RESULT:    -3.919      3.111      5.364
REMARK INTER + INTRA:          -7.477
REMARK INTER:                  -5.981
REMARK INTRA:                  -1.496
REMARK UNBOUND:                -1.267
REMARK SMILES CCCCCCCCCCCC(=O)[O-]
REMARK SMILES IDX 7 1 8 2 9 3 10 4 11 5 12 6 13 7 14 8 6 9 5 10 4 11 3 12 2 13
REMARK SMILES IDX 1 14
REMARK H PARENT
REMARK Flexibility Score: inf
ROOT
ATOM      1  C   UNL     1      -3.386  45.036  19.621  1.00  0.00     0.000 C 
ENDROOT
BRANCH   1   2
ATOM      2  C   UNL     1      -2.119  44.180  19.797  1.00  0.00     0.000 C 
BRANCH   2   3
ATOM      3  C   UNL     1      -1.493  44.213  21.206  1.00  0.00     0.000 C 
BRANCH   3   4
ATOM      4  C   UNL     1      -2.485  44.022  22.370  1.00  0.00     0.006 C 
BRANCH   4   5
ATOM      5  C   UNL     1      -2.545  45.203  23.352  1.00  0.00     0.053 C 
BRANCH   5   6
ATOM      6  C   UNL     1      -3.905  45.830  23.392  1.00  0.00     0.041 C 
ATOM      7  O   UNL     1      -4.905  45.152  23.746  1.00  0.00    -0.550 OA
ATOM      8  O   UNL     1      -4.072  47.152  23.003  1.00  0.00    -0.550 OA
ENDBRANCH   5   6
ENDBRANCH   4   5
ENDBRANCH   3   4
ENDBRANCH   2   3
ENDBRANCH   1   2
BRANCH   1   9
ATOM      9  C   UNL     1      -4.626  44.198  19.265  1.00  0.00     0.000 C 
BRANCH   9  10
ATOM     10  C   UNL     1      -5.476  43.850  20.498  1.00  0.00    -0.000 C 
BRANCH  10  11
ATOM     11  C   UNL     1      -5.636  42.334  20.701  1.00  0.00    -0.000 C 
BRANCH  11  12
ATOM     12  C   UNL     1      -4.679  41.511  19.821  1.00  0.00    -0.000 C 
BRANCH  12  13
ATOM     13  C   UNL     1      -3.535  40.841  20.610  1.00  0.00    -0.003 C 
ATOM     14  C   UNL     1      -2.337  40.499  19.724  1.00  0.00     0.004 C 
ENDBRANCH  12  13
ENDBRANCH  11  12
ENDBRANCH  10  11
ENDBRANCH   9  10
ENDBRANCH   1   9
TORSDOF 10
ENDMDL
MODEL 8
REMARK VINA RESULT:    -3.914      1.667      2.551
REMARK INTER + INTRA:          -7.470
REMARK INTER:                  -6.209
REMARK INTRA:                  -1.261
REMARK UNBOUND:                -1.267
REMARK SMILES CCCCCCCCCCCC(=O)[O-]
REMARK SMILES IDX 7 1 8 2 9 3 10 4 11 5 12 6 13 7 14 8 6 9 5 10 4 11 3 12 2 13
REMARK SMILES IDX 1 14
REMARK H PARENT
REMARK Flexibility Score: inf
ROOT
ATOM      1  C   UNL     1      -1.272  43.592  20.176  1.00  0.00     0.000 C 
ENDROOT
BRANCH   1   2
ATOM      2  C   UNL     1      -2.126  44.310  19.116  1.00  0.00     0.000 C 
BRANCH   2   3
ATOM      3  C   UNL     1      -3.403  44.991  19.650  1.00  0.00     0.000 C 
BRANCH   3   4
ATOM      4  C   UNL     1      -4.726  44.302  19.260  1.00  0.00     0.006 C 
BRANCH   4   5
ATOM      5  C   UNL     1      -5.458  43.627  20.432  1.00  0.00     0.053 C 
BRANCH   5   6
ATOM      6  C   UNL     1      -5.275  42.140  20.423  1.00  0.00     0.041 C 
ATOM      7  O   UNL     1      -4.438  41.609  19.647  1.00  0.00    -0.550 OA
ATOM      8  O   UNL     1      -6.054  41.339  21.248  1.00  0.00    -0.550 OA
ENDBRANCH   5   6
ENDBRANCH   4   5
ENDBRANCH   3   4
ENDBRANCH   2   3
ENDBRANCH   1   2
BRANCH   1   9
ATOM      9  C   UNL     1      -1.966  43.513  21.547  1.00  0.00     0.000 C 
BRANCH   9  10
ATOM     10  C   UNL     1      -1.209  44.291  22.636  1.00  0.00    -0.000 C 
BRANCH  10  11
ATOM     11  C   UNL     1      -2.131  44.786  23.763  1.00  0.00    -0.000 C 
BRANCH  11  12
ATOM     12  C   UNL     1      -3.152  45.831  23.281  1.00  0.00    -0.000 C 
BRANCH  12  13
ATOM     13  C   UNL     1      -4.619  45.415  23.514  1.00  0.00    -0.003 C 
ATOM     14  C   UNL     1      -4.804  44.626  24.811  1.00  0.00     0.004 C 
ENDBRANCH  12  13
ENDBRANCH  11  12
ENDBRANCH  10  11
ENDBRANCH   9  10
ENDBRANCH   1   9
TORSDOF 10
ENDMDL
MODEL 9
REMARK VINA RESULT:    -3.896      3.073      5.942
REMARK INTER + INTRA:          -7.441
REMARK INTER:                  -5.971
REMARK INTRA:                  -1.470
REMARK UNBOUND:                -1.267
REMARK SMILES CCCCCCCCCCCC(=O)[O-]
REMARK SMILES IDX 7 1 8 2 9 3 10 4 11 5 12 6 13 7 14 8 6 9 5 10 4 11 3 12 2 13
REMARK SMILES IDX 1 14
REMARK H PARENT
REMARK Flexibility Score: inf
ROOT
ATOM      1  C   UNL     1      -5.142  43.872  19.985  1.00  0.00     0.000 C 
ENDROOT
BRANCH   1   2
ATOM      2  C   UNL     1      -4.695  44.171  21.428  1.00  0.00     0.000 C 
BRANCH   2   3
ATOM      3  C   UNL     1      -3.593  45.242  21.567  1.00  0.00     0.000 C 
BRANCH   3   4
ATOM      4  C   UNL     1      -3.048  45.441  22.995  1.00  0.00     0.006 C 
BRANCH   4   5
ATOM      5  C   UNL     1      -1.787  44.620  23.311  1.00  0.00     0.053 C 
BRANCH   5   6
ATOM      6  C   UNL     1      -2.056  43.544  24.317  1.00  0.00     0.041 C 
ATOM      7  O   UNL     1      -1.707  42.357  24.084  1.00  0.00    -0.550 OA
ATOM      8  O   UNL     1      -2.724  43.846  25.497  1.00  0.00    -0.550 OA
ENDBRANCH   5   6
ENDBRANCH   4   5
ENDBRANCH   3   4
ENDBRANCH   2   3
ENDBRANCH   1   2
BRANCH   1   9
ATOM      9  C   UNL     1      -4.389  44.716  18.942  1.00  0.00     0.000 C 
BRANCH   9  10
ATOM     10  C   UNL     1      -4.013  43.905  17.690  1.00  0.00    -0.000 C 
BRANCH  10  11
ATOM     11  C   UNL     1      -2.591  43.324  17.764  1.00  0.00    -0.000 C 
BRANCH  11  12
ATOM     12  C   UNL     1      -1.638  44.186  18.609  1.00  0.00    -0.000 C 
BRANCH  12  13
ATOM     13  C   UNL     1      -0.884  43.390  19.695  1.00  0.00    -0.003 C 
ATOM     14  C   UNL     1      -1.721  42.247  20.268  1.00  0.00     0.004 C 
ENDBRANCH  12  13
ENDBRANCH  11  12
ENDBRANCH  10  11
ENDBRANCH   9  10
ENDBRANCH   1   9
TORSDOF 10
ENDMDL
