MODEL 1
REMARK VINA RESULT:    -3.165      0.000      0.000
REMARK INTER + INTRA:          -4.710
REMARK INTER:                  -4.460
REMARK INTRA:                  -0.250
REMARK UNBOUND:                -0.250
REMARK SMILES CCCCCCCCC(=O)[O-]
REMARK SMILES IDX 6 1 7 2 8 3 9 4 10 5 11 6 5 7 4 8 3 9 2 10 1 11
REMARK H PARENT
REMARK Flexibility Score: inf
ROOT
ATOM      1  C   UNL     1     -10.943 -19.653  19.111  1.00  0.00     0.000 C 
ENDROOT
BRANCH   1   2
ATOM      2  C   UNL     1     -10.801 -19.476  20.631  1.00  0.00     0.006 C 
BRANCH   2   3
ATOM      3  C   UNL     1     -10.155 -18.138  21.015  1.00  0.00     0.053 C 
BRANCH   3   4
ATOM      4  C   UNL     1      -9.627 -18.196  22.414  1.00  0.00     0.041 C 
ATOM      5  O   UNL     1      -9.823 -19.217  23.123  1.00  0.00    -0.550 OA
ATOM      6  O   UNL     1      -8.875 -17.141  22.916  1.00  0.00    -0.550 OA
ENDBRANCH   3   4
ENDBRANCH   2   3
ENDBRANCH   1   2
BRANCH   1   7
ATOM      7  C   UNL     1     -10.162 -20.870  18.583  1.00  0.00     0.000 C 
BRANCH   7   8
ATOM      8  C   UNL     1     -10.553 -21.241  17.143  1.00  0.00    -0.000 C 
BRANCH   8   9
ATOM      9  C   UNL     1     -11.125 -20.053  16.356  1.00  0.00    -0.000 C 
BRANCH   9  10
ATOM     10  C   UNL     1     -11.046 -20.307  14.846  1.00  0.00    -0.003 C 
ATOM     11  C   UNL     1      -9.621 -20.125  14.330  1.00  0.00     0.004 C 
ENDBRANCH   9  10
ENDBRANCH   8   9
ENDBRANCH   7   8
ENDBRANCH   1   7
TORSDOF 7
ENDMDL
MODEL 2
REMARK VINA RESULT:    -3.025      2.621      4.201
REMARK INTER + INTRA:          -4.513
REMARK INTER:                  -3.923
REMARK INTRA:                  -0.589
REMARK UNBOUND:                -0.250
REMARK SMILES CCCCCCCCC(=O)[O-]
REMARK SMILES IDX 6 1 7 2 8 3 9 4 10 5 11 6 5 7 4 8 3 9 2 10 1 11
REMARK H PARENT
REMARK Flexibility Score: inf
ROOT
ATOM      1  C   UNL     1     -10.411 -19.770  19.581  1.00  0.00     0.000 C 
ENDROOT
BRANCH   1   2
ATOM      2  C   UNL     1     -11.052 -18.680  20.456  1.00  0.00     0.006 C 
BRANCH   2   3
ATOM      3  C   UNL     1     -10.014 -17.757  21.109  1.00  0.00     0.053 C 
BRANCH   3   4
ATOM      4  C   UNL     1      -9.913 -18.040  22.575  1.00  0.00     0.041 C 
ATOM      5  O   UNL     1     -10.712 -18.846  23.121  1.00  0.00    -0.550 OA
ATOM      6  O   UNL     1      -8.906 -17.452  23.329  1.00  0.00    -0.550 OA
ENDBRANCH   3   4
ENDBRANCH   2   3
ENDBRANCH   1   2
BRANCH   1   7
ATOM      7  C   UNL     1     -10.780 -21.190  20.044  1.00  0.00     0.000 C 
BRANCH   7   8
ATOM      8  C   UNL     1      -9.656 -22.206  19.780  1.00  0.00    -0.000 C 
BRANCH   8   9
ATOM      9  C   UNL     1      -9.054 -22.776  21.073  1.00  0.00    -0.000 C 
BRANCH   9  10
ATOM     10  C   UNL     1      -9.753 -22.193  22.307  1.00  0.00    -0.003 C 
ATOM     11  C   UNL     1      -8.739 -21.780  23.372  1.00  0.00     0.004 C 
ENDBRANCH   9  10
ENDBRANCH   8   9
ENDBRANCH   7   8
ENDBRANCH   1   7
TORSDOF 7
ENDMDL
MODEL 3
REMARK VINA RESULT:    -3.011     15.669     17.029
REMARK INTER + INTRA:          -4.493
REMARK INTER:                  -3.941
REMARK INTRA:                  -0.552
REMARK UNBOUND:                -0.250
REMARK SMILES CCCCCCCCC(=O)[O-]
REMARK SMILES IDX 6 1 7 2 8 3 9 4 10 5 11 6 5 7 4 8 3 9 2 10 1 11
REMARK H PARENT
REMARK Flexibility Score: inf
ROOT
ATOM      1  C   UNL     1       5.815 -22.403  13.324  1.00  0.00     0.000 C 
ENDROOT
BRANCH   1   2
ATOM      2  C   UNL     1       4.849 -23.122  14.280  1.00  0.00     0.006 C 
BRANCH   2   3
ATOM      3  C   UNL     1       3.398 -23.104  13.782  1.00  0.00     0.053 C 
BRANCH   3   4
ATOM      4  C   UNL     1       2.460 -22.836  14.916  1.00  0.00     0.041 C 
ATOM      5  O   UNL     1       1.227 -23.052  14.783  1.00  0.00    -0.550 OA
ATOM      6  O   UNL     1       2.955 -22.393  16.137  1.00  0.00    -0.550 OA
ENDBRANCH   3   4
ENDBRANCH   2   3
ENDBRANCH   1   2
BRANCH   1   7
ATOM      7  C   UNL     1       7.284 -22.531  13.763  1.00  0.00     0.000 C 
BRANCH   7   8
ATOM      8  C   UNL     1       7.683 -21.471  14.803  1.00  0.00    -0.000 C 
BRANCH   8   9
ATOM      9  C   UNL     1       8.363 -22.077  16.040  1.00  0.00    -0.000 C 
BRANCH   9  10
ATOM     10  C   UNL     1       7.322 -22.549  17.062  1.00  0.00    -0.003 C 
ATOM     11  C   UNL     1       6.324 -21.440  17.385  1.00  0.00     0.004 C 
ENDBRANCH   9  10
ENDBRANCH   8   9
ENDBRANCH   7   8
ENDBRANCH   1   7
TORSDOF 7
ENDMDL
MODEL 4
REMARK VINA RESULT:    -3.005      3.581      5.425
REMARK INTER + INTRA:          -4.485
REMARK INTER:                  -3.770
REMARK INTRA:                  -0.715
REMARK UNBOUND:                -0.250
REMARK SMILES CCCCCCCCC(=O)[O-]
REMARK SMILES IDX 6 1 7 2 8 3 9 4 10 5 11 6 5 7 4 8 3 9 2 10 1 11
REMARK H PARENT
REMARK Flexibility Score: inf
ROOT
ATOM      1  C   UNL     1      -9.631 -21.060  22.884  1.00  0.00     0.000 C 
ENDROOT
BRANCH   1   2
ATOM      2  C   UNL     1      -9.690 -22.163  21.815  1.00  0.00     0.006 C 
BRANCH   2   3
ATOM      3  C   UNL     1     -10.539 -21.765  20.599  1.00  0.00     0.053 C 
BRANCH   3   4
ATOM      4  C   UNL     1      -9.677 -21.623  19.385  1.00  0.00     0.041 C 
ATOM      5  O   UNL     1      -8.619 -22.298  19.276  1.00  0.00    -0.550 OA
ATOM      6  O   UNL     1     -10.067 -20.783  18.350  1.00  0.00    -0.550 OA
ENDBRANCH   3   4
ENDBRANCH   2   3
ENDBRANCH   1   2
BRANCH   1   7
ATOM      7  C   UNL     1     -11.017 -20.472  23.202  1.00  0.00     0.000 C 
BRANCH   7   8
ATOM      8  C   UNL     1     -11.087 -18.957  22.947  1.00  0.00    -0.000 C 
BRANCH   8   9
ATOM      9  C   UNL     1      -9.711 -18.338  22.657  1.00  0.00    -0.000 C 
BRANCH   9  10
ATOM     10  C   UNL     1      -9.719 -17.588  21.320  1.00  0.00    -0.003 C 
ATOM     11  C   UNL     1     -10.876 -18.047  20.436  1.00  0.00     0.004 C 
ENDBRANCH   9  10
ENDBRANCH   8   9
ENDBRANCH   7   8
ENDBRANCH   1   7
TORSDOF 7
ENDMDL
MODEL 5
REMARK VINA RESULT:    -2.944      3.904      5.942
REMARK INTER + INTRA:          -4.399
REMARK INTER:                  -4.027
REMARK INTRA:                  -0.373
REMARK UNBOUND:                -0.250
REMARK SMILES CCCCCCCCC(=O)[O-]
REMARK SMILES IDX 6 1 7 2 8 3 9 4 10 5 11 6 5 7 4 8 3 9 2 10 1 11
REMARK H PARENT
REMARK Flexibility Score: inf
ROOT
ATOM      1  C   UNL     1      -9.996 -20.977  18.531  1.00  0.00     0.000 C 
ENDROOT
BRANCH   1   2
ATOM      2  C   UNL     1      -9.113 -21.971  17.758  1.00  0.00     0.006 C 
BRANCH   2   3
ATOM      3  C   UNL     1      -7.728 -22.153  18.394  1.00  0.00     0.053 C 
BRANCH   3   4
ATOM      4  C   UNL     1      -6.671 -22.206  17.336  1.00  0.00     0.041 C 
ATOM      5  O   UNL     1      -5.462 -22.349  17.656  1.00  0.00    -0.550 OA
ATOM      6  O   UNL     1      -7.027 -22.147  15.995  1.00  0.00    -0.550 OA
ENDBRANCH   3   4
ENDBRANCH   2   3
ENDBRANCH   1   2
BRANCH   1   7
ATOM      7  C   UNL     1     -10.290 -21.443  19.967  1.00  0.00     0.000 C 
BRANCH   7   8
ATOM      8  C   UNL     1     -10.431 -20.269  20.950  1.00  0.00    -0.000 C 
BRANCH   8   9
ATOM      9  C   UNL     1     -10.483 -18.905  20.245  1.00  0.00    -0.000 C 
BRANCH   9  10
ATOM     10  C   UNL     1     -10.017 -17.785  21.183  1.00  0.00    -0.003 C 
ATOM     11  C   UNL     1      -9.721 -18.323  22.580  1.00  0.00     0.004 C 
ENDBRANCH   9  10
ENDBRANCH   8   9
ENDBRANCH   7   8
ENDBRANCH   1   7
TORSDOF 7
ENDMDL
MODEL 6
REMARK VINA RESULT:    -2.923     18.566     20.077
REMARK INTER + INTRA:          -4.370
REMARK INTER:                  -3.991
REMARK INTRA:                  -0.378
REMARK UNBOUND:                -0.250
REMARK SMILES CCCCCCCCC(=O)[O-]
REMARK SMILES IDX 6 1 7 2 8 3 9 4 10 5 11 6 5 7 4 8 3 9 2 10 1 11
REMARK H PARENT
REMARK Flexibility Score: inf
ROOT
ATOM      1  C   UNL     1       8.571 -20.292  13.635  1.00  0.00     0.000 C 
ENDROOT
BRANCH   1   2
ATOM      2  C   UNL     1       7.971 -20.092  12.233  1.00  0.00     0.006 C 
BRANCH   2   3
ATOM      3  C   UNL     1       8.816 -20.742  11.129  1.00  0.00     0.053 C 
BRANCH   3   4
ATOM      4  C   UNL     1       7.977 -21.670  10.308  1.00  0.00     0.041 C 
ATOM      5  O   UNL     1       8.115 -21.710   9.057  1.00  0.00    -0.550 OA
ATOM      6  O   UNL     1       7.078 -22.527  10.930  1.00  0.00    -0.550 OA
ENDBRANCH   3   4
ENDBRANCH   2   3
ENDBRANCH   1   2
BRANCH   1   7
ATOM      7  C   UNL     1       9.125 -21.712  13.842  1.00  0.00     0.000 C 
BRANCH   7   8
ATOM      8  C   UNL     1       8.757 -22.293  15.218  1.00  0.00    -0.000 C 
BRANCH   8   9
ATOM      9  C   UNL     1       7.337 -21.915  15.663  1.00  0.00    -0.000 C 
BRANCH   9  10
ATOM     10  C   UNL     1       7.291 -21.635  17.170  1.00  0.00    -0.003 C 
ATOM     11  C   UNL     1       5.852 -21.526  17.667  1.00  0.00     0.004 C 
ENDBRANCH   9  10
ENDBRANCH   8   9
ENDBRANCH   7   8
ENDBRANCH   1   7
TORSDOF 7
ENDMDL
MODEL 7
REMARK VINA RESULT:    -2.913      1.799      2.435
REMARK INTER + INTRA:          -4.355
REMARK INTER:                  -4.083
REMARK INTRA:                  -0.272
REMARK UNBOUND:                -0.250
REMARK SMILES CCCCCCCCC(=O)[O-]
REMARK SMILES IDX 6 1 7 2 8 3 9 4 10 5 11 6 5 7 4 8 3 9 2 10 1 11
REMARK H PARENT
REMARK Flexibility Score: inf
ROOT
ATOM      1  C   UNL     1     -10.123 -20.165  19.696  1.00  0.00     0.000 C 
ENDROOT
BRANCH   1   2
ATOM      2  C   UNL     1     -10.912 -19.092  20.465  1.00  0.00     0.006 C 
BRANCH   2   3
ATOM      3  C   UNL     1     -10.009 -17.999  21.053  1.00  0.00     0.053 C 
BRANCH   3   4
ATOM      4  C   UNL     1      -9.854 -18.188  22.529  1.00  0.00     0.041 C 
ATOM      5  O   UNL     1     -10.445 -19.134  23.111  1.00  0.00    -0.550 OA
ATOM      6  O   UNL     1      -9.016 -17.349  23.252  1.00  0.00    -0.550 OA
ENDBRANCH   3   4
ENDBRANCH   2   3
ENDBRANCH   1   2
BRANCH   1   7
ATOM      7  C   UNL     1     -10.772 -20.521  18.348  1.00  0.00     0.000 C 
BRANCH   7   8
ATOM      8  C   UNL     1      -9.994 -21.609  17.589  1.00  0.00    -0.000 C 
BRANCH   8   9
ATOM      9  C   UNL     1      -8.609 -21.882  18.194  1.00  0.00    -0.000 C 
BRANCH   9  10
ATOM     10  C   UNL     1      -7.610 -22.302  17.110  1.00  0.00    -0.003 C 
ATOM     11  C   UNL     1      -6.189 -22.368  17.665  1.00  0.00     0.004 C 
ENDBRANCH   9  10
ENDBRANCH   8   9
ENDBRANCH   7   8
ENDBRANCH   1   7
TORSDOF 7
ENDMDL
MODEL 8
REMARK VINA RESULT:    -2.901     17.550     18.772
REMARK INTER + INTRA:          -4.338
REMARK INTER:                  -3.740
REMARK INTRA:                  -0.598
REMARK UNBOUND:                -0.250
REMARK SMILES CCCCCCCCC(=O)[O-]
REMARK SMILES IDX 6 1 7 2 8 3 9 4 10 5 11 6 5 7 4 8 3 9 2 10 1 11
REMARK H PARENT
REMARK Flexibility Score: inf
ROOT
ATOM      1  C   UNL     1       8.452 -20.134  14.524  1.00  0.00     0.000 C 
ENDROOT
BRANCH   1   2
ATOM      2  C   UNL     1       8.716 -21.621  14.814  1.00  0.00     0.006 C 
BRANCH   2   3
ATOM      3  C   UNL     1       8.354 -22.017  16.252  1.00  0.00     0.053 C 
BRANCH   3   4
ATOM      4  C   UNL     1       6.874 -21.938  16.459  1.00  0.00     0.041 C 
ATOM      5  O   UNL     1       6.094 -22.569  15.698  1.00  0.00    -0.550 OA
ATOM      6  O   UNL     1       6.359 -21.208  17.522  1.00  0.00    -0.550 OA
ENDBRANCH   3   4
ENDBRANCH   2   3
ENDBRANCH   1   2
BRANCH   1   7
ATOM      7  C   UNL     1       8.752 -19.757  13.063  1.00  0.00     0.000 C 
BRANCH   7   8
ATOM      8  C   UNL     1       7.648 -20.216  12.096  1.00  0.00    -0.000 C 
BRANCH   8   9
ATOM      9  C   UNL     1       8.137 -21.271  11.092  1.00  0.00    -0.000 C 
BRANCH   9  10
ATOM     10  C   UNL     1       7.227 -22.505  11.107  1.00  0.00    -0.003 C 
ATOM     11  C   UNL     1       6.191 -22.413  12.225  1.00  0.00     0.004 C 
ENDBRANCH   9  10
ENDBRANCH   8   9
ENDBRANCH   7   8
ENDBRANCH   1   7
TORSDOF 7
ENDMDL
MODEL 9
REMARK VINA RESULT:    -2.837     18.230     19.734
REMARK INTER + INTRA:          -4.248
REMARK INTER:                  -3.823
REMARK INTRA:                  -0.425
REMARK UNBOUND:                -0.250
REMARK SMILES CCCCCCCCC(=O)[O-]
REMARK SMILES IDX 6 1 7 2 8 3 9 4 10 5 11 6 5 7 4 8 3 9 2 10 1 11
REMARK H PARENT
REMARK Flexibility Score: inf
ROOT
ATOM      1  C   UNL     1       6.514 -22.434  13.654  1.00  0.00     0.000 C 
ENDROOT
BRANCH   1   2
ATOM      2  C   UNL     1       6.463 -22.037  12.170  1.00  0.00     0.006 C 
BRANCH   2   3
ATOM      3  C   UNL     1       7.640 -22.605  11.364  1.00  0.00     0.053 C 
BRANCH   3   4
ATOM      4  C   UNL     1       8.200 -21.559  10.452  1.00  0.00     0.041 C 
ATOM      5  O   UNL     1       8.068 -21.670   9.205  1.00  0.00    -0.550 OA
ATOM      6  O   UNL     1       8.826 -20.438  10.982  1.00  0.00    -0.550 OA
ENDBRANCH   3   4
ENDBRANCH   2   3
ENDBRANCH   1   2
BRANCH   1   7
ATOM      7  C   UNL     1       7.762 -21.887  14.368  1.00  0.00     0.000 C 
BRANCH   7   8
ATOM      8  C   UNL     1       8.436 -22.938  15.266  1.00  0.00    -0.000 C 
BRANCH   8   9
ATOM      9  C   UNL     1       7.840 -22.981  16.681  1.00  0.00    -0.000 C 
BRANCH   9  10
ATOM     10  C   UNL     1       7.399 -21.585  17.133  1.00  0.00    -0.003 C 
ATOM     11  C   UNL     1       5.933 -21.580  17.559  1.00  0.00     0.004 C 
ENDBRANCH   9  10
ENDBRANCH   8   9
ENDBRANCH   7   8
ENDBRANCH   1   7
TORSDOF 7
ENDMDL
