MODEL 1
REMARK VINA RESULT:    -4.894      0.000      0.000
REMARK INTER + INTRA:          -9.391
REMARK INTER:                  -8.613
REMARK INTRA:                  -0.778
REMARK UNBOUND:                -0.778
REMARK SMILES CCCCCCCCCCCCCCC(=O)[O-]
REMARK SMILES IDX 9 1 10 2 11 3 12 4 13 5 14 6 15 7 16 8 17 9 8 10 7 11 6 12
REMARK SMILES IDX 5 13 4 14 3 15 2 16 1 17
REMARK H PARENT
REMARK Flexibility Score: inf
ROOT
ATOM      1  C   UNL     1      22.842 117.890 295.255  1.00  0.00     0.000 C 
ENDROOT
BRANCH   1   2
ATOM      2  C   UNL     1      24.159 118.574 294.841  1.00  0.00     0.000 C 
BRANCH   2   3
ATOM      3  C   UNL     1      24.159 119.027 293.370  1.00  0.00     0.000 C 
BRANCH   3   4
ATOM      4  C   UNL     1      25.570 119.051 292.761  1.00  0.00     0.000 C 
BRANCH   4   5
ATOM      5  C   UNL     1      25.763 117.988 291.665  1.00  0.00     0.006 C 
BRANCH   5   6
ATOM      6  C   UNL     1      24.425 117.497 291.093  1.00  0.00     0.053 C 
BRANCH   6   7
ATOM      7  C   UNL     1      24.206 117.990 289.696  1.00  0.00     0.041 C 
ATOM      8  O   UNL     1      23.335 117.450 288.964  1.00  0.00    -0.550 OA
ATOM      9  O   UNL     1      24.937 119.068 289.214  1.00  0.00    -0.550 OA
ENDBRANCH   6   7
ENDBRANCH   5   6
ENDBRANCH   4   5
ENDBRANCH   3   4
ENDBRANCH   2   3
ENDBRANCH   1   2
BRANCH   1  10
ATOM     10  C   UNL     1      21.599 118.324 294.454  1.00  0.00     0.000 C 
BRANCH  10  11
ATOM     11  C   UNL     1      20.430 118.861 295.303  1.00  0.00    -0.000 C 
BRANCH  11  12
ATOM     12  C   UNL     1      19.073 118.934 294.573  1.00  0.00    -0.000 C 
BRANCH  12  13
ATOM     13  C   UNL     1      18.379 117.578 294.352  1.00  0.00    -0.000 C 
BRANCH  13  14
ATOM     14  C   UNL     1      17.497 117.556 293.096  1.00  0.00    -0.000 C 
BRANCH  14  15
ATOM     15  C   UNL     1      17.352 116.127 292.552  1.00  0.00    -0.000 C 
BRANCH  15  16
ATOM     16  C   UNL     1      18.121 115.913 291.239  1.00  0.00    -0.003 C 
ATOM     17  C   UNL     1      17.609 114.714 290.442  1.00  0.00     0.004 C 
ENDBRANCH  15  16
ENDBRANCH  14  15
ENDBRANCH  13  14
ENDBRANCH  12  13
ENDBRANCH  11  12
ENDBRANCH  10  11
ENDBRANCH   1  10
TORSDOF 13
ENDMDL
MODEL 2
REMARK VINA RESULT:    -4.873      4.283      5.305
REMARK INTER + INTRA:          -9.355
REMARK INTER:                  -7.981
REMARK INTRA:                  -1.373
REMARK UNBOUND:                -0.778
REMARK SMILES CCCCCCCCCCCCCCC(=O)[O-]
REMARK SMILES IDX 9 1 10 2 11 3 12 4 13 5 14 6 15 7 16 8 17 9 8 10 7 11 6 12
REMARK SMILES IDX 5 13 4 14 3 15 2 16 1 17
REMARK H PARENT
REMARK Flexibility Score: inf
ROOT
ATOM      1  C   UNL     1      18.886 116.860 296.549  1.00  0.00     0.000 C 
ENDROOT
BRANCH   1   2
ATOM      2  C   UNL     1      20.182 117.683 296.675  1.00  0.00     0.000 C 
BRANCH   2   3
ATOM      3  C   UNL     1      20.602 118.341 295.349  1.00  0.00     0.000 C 
BRANCH   3   4
ATOM      4  C   UNL     1      20.763 119.864 295.473  1.00  0.00     0.000 C 
BRANCH   4   5
ATOM      5  C   UNL     1      20.135 120.626 294.291  1.00  0.00     0.006 C 
BRANCH   5   6
ATOM      6  C   UNL     1      18.846 121.356 294.693  1.00  0.00     0.053 C 
BRANCH   6   7
ATOM      7  C   UNL     1      18.878 122.799 294.296  1.00  0.00     0.041 C 
ATOM      8  O   UNL     1      18.147 123.636 294.888  1.00  0.00    -0.550 OA
ATOM      9  O   UNL     1      19.744 123.227 293.296  1.00  0.00    -0.550 OA
ENDBRANCH   6   7
ENDBRANCH   5   6
ENDBRANCH   4   5
ENDBRANCH   3   4
ENDBRANCH   2   3
ENDBRANCH   1   2
BRANCH   1  10
ATOM     10  C   UNL     1      17.582 117.682 296.586  1.00  0.00     0.000 C 
BRANCH  10  11
ATOM     11  C   UNL     1      16.532 117.288 295.527  1.00  0.00    -0.000 C 
BRANCH  11  12
ATOM     12  C   UNL     1      16.542 118.148 294.248  1.00  0.00    -0.000 C 
BRANCH  12  13
ATOM     13  C   UNL     1      17.677 117.828 293.257  1.00  0.00    -0.000 C 
BRANCH  13  14
ATOM     14  C   UNL     1      17.424 116.546 292.452  1.00  0.00    -0.000 C 
BRANCH  14  15
ATOM     15  C   UNL     1      18.592 116.259 291.497  1.00  0.00    -0.000 C 
BRANCH  15  16
ATOM     16  C   UNL     1      18.220 115.258 290.392  1.00  0.00    -0.003 C 
ATOM     17  C   UNL     1      16.996 114.414 290.746  1.00  0.00     0.004 C 
ENDBRANCH  15  16
ENDBRANCH  14  15
ENDBRANCH  13  14
ENDBRANCH  12  13
ENDBRANCH  11  12
ENDBRANCH  10  11
ENDBRANCH   1  10
TORSDOF 13
ENDMDL
MODEL 3
REMARK VINA RESULT:    -4.844      1.749      2.598
REMARK INTER + INTRA:          -9.304
REMARK INTER:                  -8.635
REMARK INTRA:                  -0.669
REMARK UNBOUND:                -0.778
REMARK SMILES CCCCCCCCCCCCCCC(=O)[O-]
REMARK SMILES IDX 9 1 10 2 11 3 12 4 13 5 14 6 15 7 16 8 17 9 8 10 7 11 6 12
REMARK SMILES IDX 5 13 4 14 3 15 2 16 1 17
REMARK H PARENT
REMARK Flexibility Score: inf
ROOT
ATOM      1  C   UNL     1      20.571 117.242 297.836  1.00  0.00     0.000 C 
ENDROOT
BRANCH   1   2
ATOM      2  C   UNL     1      21.709 118.089 297.236  1.00  0.00     0.000 C 
BRANCH   2   3
ATOM      3  C   UNL     1      22.544 117.317 296.200  1.00  0.00     0.000 C 
BRANCH   3   4
ATOM      4  C   UNL     1      22.622 118.043 294.847  1.00  0.00     0.000 C 
BRANCH   4   5
ATOM      5  C   UNL     1      24.020 117.961 294.209  1.00  0.00     0.006 C 
BRANCH   5   6
ATOM      6  C   UNL     1      24.018 118.437 292.749  1.00  0.00     0.053 C 
BRANCH   6   7
ATOM      7  C   UNL     1      25.144 117.836 291.968  1.00  0.00     0.041 C 
ATOM      8  O   UNL     1      25.686 116.768 292.357  1.00  0.00    -0.550 OA
ATOM      9  O   UNL     1      25.573 118.435 290.789  1.00  0.00    -0.550 OA
ENDBRANCH   6   7
ENDBRANCH   5   6
ENDBRANCH   4   5
ENDBRANCH   3   4
ENDBRANCH   2   3
ENDBRANCH   1   2
BRANCH   1  10
ATOM     10  C   UNL     1      19.515 116.754 296.824  1.00  0.00     0.000 C 
BRANCH  10  11
ATOM     11  C   UNL     1      19.053 117.811 295.801  1.00  0.00    -0.000 C 
BRANCH  11  12
ATOM     12  C   UNL     1      17.526 117.990 295.692  1.00  0.00    -0.000 C 
BRANCH  12  13
ATOM     13  C   UNL     1      16.951 117.822 294.273  1.00  0.00    -0.000 C 
BRANCH  13  14
ATOM     14  C   UNL     1      17.990 117.315 293.263  1.00  0.00    -0.000 C 
BRANCH  14  15
ATOM     15  C   UNL     1      17.405 116.195 292.390  1.00  0.00    -0.000 C 
BRANCH  15  16
ATOM     16  C   UNL     1      18.291 115.866 291.178  1.00  0.00    -0.003 C 
ATOM     17  C   UNL     1      17.712 114.753 290.307  1.00  0.00     0.004 C 
ENDBRANCH  15  16
ENDBRANCH  14  15
ENDBRANCH  13  14
ENDBRANCH  12  13
ENDBRANCH  11  12
ENDBRANCH  10  11
ENDBRANCH   1  10
TORSDOF 13
ENDMDL
MODEL 4
REMARK VINA RESULT:    -4.814      5.449      6.507
REMARK INTER + INTRA:          -9.250
REMARK INTER:                  -8.566
REMARK INTRA:                  -0.684
REMARK UNBOUND:                -0.778
REMARK SMILES CCCCCCCCCCCCCCC(=O)[O-]
REMARK SMILES IDX 9 1 10 2 11 3 12 4 13 5 14 6 15 7 16 8 17 9 8 10 7 11 6 12
REMARK SMILES IDX 5 13 4 14 3 15 2 16 1 17
REMARK H PARENT
REMARK Flexibility Score: inf
ROOT
ATOM      1  C   UNL     1      20.384 117.232 297.442  1.00  0.00     0.000 C 
ENDROOT
BRANCH   1   2
ATOM      2  C   UNL     1      21.889 117.305 297.125  1.00  0.00     0.000 C 
BRANCH   2   3
ATOM      3  C   UNL     1      22.590 118.480 297.830  1.00  0.00     0.000 C 
BRANCH   3   4
ATOM      4  C   UNL     1      23.348 118.041 299.092  1.00  0.00     0.000 C 
BRANCH   4   5
ATOM      5  C   UNL     1      23.377 119.132 300.178  1.00  0.00     0.006 C 
BRANCH   5   6
ATOM      6  C   UNL     1      24.051 120.421 299.685  1.00  0.00     0.053 C 
BRANCH   6   7
ATOM      7  C   UNL     1      23.692 121.596 300.540  1.00  0.00     0.041 C 
ATOM      8  O   UNL     1      24.564 122.141 301.266  1.00  0.00    -0.550 OA
ATOM      9  O   UNL     1      22.402 122.114 300.508  1.00  0.00    -0.550 OA
ENDBRANCH   6   7
ENDBRANCH   5   6
ENDBRANCH   4   5
ENDBRANCH   3   4
ENDBRANCH   2   3
ENDBRANCH   1   2
BRANCH   1  10
ATOM     10  C   UNL     1      19.465 117.047 296.218  1.00  0.00     0.000 C 
BRANCH  10  11
ATOM     11  C   UNL     1      19.608 118.125 295.125  1.00  0.00    -0.000 C 
BRANCH  11  12
ATOM     12  C   UNL     1      18.431 118.210 294.134  1.00  0.00    -0.000 C 
BRANCH  12  13
ATOM     13  C   UNL     1      17.410 117.062 294.236  1.00  0.00    -0.000 C 
BRANCH  13  14
ATOM     14  C   UNL     1      17.253 116.283 292.922  1.00  0.00    -0.000 C 
BRANCH  14  15
ATOM     15  C   UNL     1      18.426 116.569 291.972  1.00  0.00    -0.000 C 
BRANCH  15  16
ATOM     16  C   UNL     1      18.430 115.647 290.743  1.00  0.00    -0.003 C 
ATOM     17  C   UNL     1      17.263 114.660 290.740  1.00  0.00     0.004 C 
ENDBRANCH  15  16
ENDBRANCH  14  15
ENDBRANCH  13  14
ENDBRANCH  12  13
ENDBRANCH  11  12
ENDBRANCH  10  11
ENDBRANCH   1  10
TORSDOF 13
ENDMDL
MODEL 5
REMARK VINA RESULT:    -4.776      2.146      3.780
REMARK INTER + INTRA:          -9.184
REMARK INTER:                  -8.511
REMARK INTRA:                  -0.673
REMARK UNBOUND:                -0.778
REMARK SMILES CCCCCCCCCCCCCCC(=O)[O-]
REMARK SMILES IDX 9 1 10 2 11 3 12 4 13 5 14 6 15 7 16 8 17 9 8 10 7 11 6 12
REMARK SMILES IDX 5 13 4 14 3 15 2 16 1 17
REMARK H PARENT
REMARK Flexibility Score: inf
ROOT
ATOM      1  C   UNL     1      19.069 116.832 296.876  1.00  0.00     0.000 C 
ENDROOT
BRANCH   1   2
ATOM      2  C   UNL     1      20.375 117.431 296.323  1.00  0.00     0.000 C 
BRANCH   2   3
ATOM      3  C   UNL     1      21.627 116.898 297.043  1.00  0.00     0.000 C 
BRANCH   3   4
ATOM      4  C   UNL     1      22.734 117.957 297.162  1.00  0.00     0.000 C 
BRANCH   4   5
ATOM      5  C   UNL     1      23.063 118.626 295.815  1.00  0.00     0.006 C 
BRANCH   5   6
ATOM      6  C   UNL     1      23.481 117.604 294.748  1.00  0.00     0.053 C 
BRANCH   6   7
ATOM      7  C   UNL     1      24.466 118.183 293.781  1.00  0.00     0.041 C 
ATOM      8  O   UNL     1      25.597 118.565 294.181  1.00  0.00    -0.550 OA
ATOM      9  O   UNL     1      24.150 118.267 292.430  1.00  0.00    -0.550 OA
ENDBRANCH   6   7
ENDBRANCH   5   6
ENDBRANCH   4   5
ENDBRANCH   3   4
ENDBRANCH   2   3
ENDBRANCH   1   2
BRANCH   1  10
ATOM     10  C   UNL     1      17.794 117.642 296.566  1.00  0.00     0.000 C 
BRANCH  10  11
ATOM     11  C   UNL     1      16.836 116.988 295.551  1.00  0.00    -0.000 C 
BRANCH  11  12
ATOM     12  C   UNL     1      16.486 117.859 294.328  1.00  0.00    -0.000 C 
BRANCH  12  13
ATOM     13  C   UNL     1      17.438 117.708 293.127  1.00  0.00    -0.000 C 
BRANCH  13  14
ATOM     14  C   UNL     1      17.512 116.267 292.602  1.00  0.00    -0.000 C 
BRANCH  14  15
ATOM     15  C   UNL     1      18.488 116.165 291.419  1.00  0.00    -0.000 C 
BRANCH  15  16
ATOM     16  C   UNL     1      17.978 115.230 290.311  1.00  0.00    -0.003 C 
ATOM     17  C   UNL     1      16.880 114.283 290.795  1.00  0.00     0.004 C 
ENDBRANCH  15  16
ENDBRANCH  14  15
ENDBRANCH  13  14
ENDBRANCH  12  13
ENDBRANCH  11  12
ENDBRANCH  10  11
ENDBRANCH   1  10
TORSDOF 13
ENDMDL
MODEL 6
REMARK VINA RESULT:    -4.739      4.323      5.370
REMARK INTER + INTRA:          -9.119
REMARK INTER:                  -7.628
REMARK INTRA:                  -1.491
REMARK UNBOUND:                -0.778
REMARK SMILES CCCCCCCCCCCCCCC(=O)[O-]
REMARK SMILES IDX 9 1 10 2 11 3 12 4 13 5 14 6 15 7 16 8 17 9 8 10 7 11 6 12
REMARK SMILES IDX 5 13 4 14 3 15 2 16 1 17
REMARK H PARENT
REMARK Flexibility Score: inf
ROOT
ATOM      1  C   UNL     1      19.128 121.432 295.211  1.00  0.00     0.000 C 
ENDROOT
BRANCH   1   2
ATOM      2  C   UNL     1      20.135 120.788 294.240  1.00  0.00     0.000 C 
BRANCH   2   3
ATOM      3  C   UNL     1      21.281 120.060 294.966  1.00  0.00     0.000 C 
BRANCH   3   4
ATOM      4  C   UNL     1      21.116 118.533 294.943  1.00  0.00     0.000 C 
BRANCH   4   5
ATOM      5  C   UNL     1      20.465 117.986 296.227  1.00  0.00     0.006 C 
BRANCH   5   6
ATOM      6  C   UNL     1      21.426 117.099 297.030  1.00  0.00     0.053 C 
BRANCH   6   7
ATOM      7  C   UNL     1      22.033 117.839 298.181  1.00  0.00     0.041 C 
ATOM      8  O   UNL     1      21.434 117.891 299.288  1.00  0.00    -0.550 OA
ATOM      9  O   UNL     1      23.278 118.440 298.045  1.00  0.00    -0.550 OA
ENDBRANCH   6   7
ENDBRANCH   5   6
ENDBRANCH   4   5
ENDBRANCH   3   4
ENDBRANCH   2   3
ENDBRANCH   1   2
BRANCH   1  10
ATOM     10  C   UNL     1      17.645 121.265 294.823  1.00  0.00     0.000 C 
BRANCH  10  11
ATOM     11  C   UNL     1      17.278 119.893 294.224  1.00  0.00    -0.000 C 
BRANCH  11  12
ATOM     12  C   UNL     1      16.991 118.786 295.258  1.00  0.00    -0.000 C 
BRANCH  12  13
ATOM     13  C   UNL     1      17.090 117.348 294.717  1.00  0.00    -0.000 C 
BRANCH  13  14
ATOM     14  C   UNL     1      18.044 117.225 293.520  1.00  0.00    -0.000 C 
BRANCH  14  15
ATOM     15  C   UNL     1      17.331 116.594 292.314  1.00  0.00    -0.000 C 
BRANCH  15  16
ATOM     16  C   UNL     1      18.311 115.965 291.311  1.00  0.00    -0.003 C 
ATOM     17  C   UNL     1      17.670 114.859 290.473  1.00  0.00     0.004 C 
ENDBRANCH  15  16
ENDBRANCH  14  15
ENDBRANCH  13  14
ENDBRANCH  12  13
ENDBRANCH  11  12
ENDBRANCH  10  11
ENDBRANCH   1  10
TORSDOF 13
ENDMDL
MODEL 7
REMARK VINA RESULT:    -4.711      4.989      6.642
REMARK INTER + INTRA:          -9.069
REMARK INTER:                  -7.936
REMARK INTRA:                  -1.134
REMARK UNBOUND:                -0.778
REMARK SMILES CCCCCCCCCCCCCCC(=O)[O-]
REMARK SMILES IDX 9 1 10 2 11 3 12 4 13 5 14 6 15 7 16 8 17 9 8 10 7 11 6 12
REMARK SMILES IDX 5 13 4 14 3 15 2 16 1 17
REMARK H PARENT
REMARK Flexibility Score: inf
ROOT
ATOM      1  C   UNL     1      15.646 119.799 293.814  1.00  0.00     0.000 C 
ENDROOT
BRANCH   1   2
ATOM      2  C   UNL     1      14.962 120.981 293.103  1.00  0.00     0.000 C 
BRANCH   2   3
ATOM      3  C   UNL     1      15.687 122.319 293.337  1.00  0.00     0.000 C 
BRANCH   3   4
ATOM      4  C   UNL     1      15.861 123.128 292.042  1.00  0.00     0.000 C 
BRANCH   4   5
ATOM      5  C   UNL     1      17.180 123.921 292.011  1.00  0.00     0.006 C 
BRANCH   5   6
ATOM      6  C   UNL     1      18.018 123.703 293.279  1.00  0.00     0.053 C 
BRANCH   6   7
ATOM      7  C   UNL     1      19.354 123.106 292.965  1.00  0.00     0.041 C 
ATOM      8  O   UNL     1      19.880 122.279 293.756  1.00  0.00    -0.550 OA
ATOM      9  O   UNL     1      20.004 123.434 291.781  1.00  0.00    -0.550 OA
ENDBRANCH   6   7
ENDBRANCH   5   6
ENDBRANCH   4   5
ENDBRANCH   3   4
ENDBRANCH   2   3
ENDBRANCH   1   2
BRANCH   1  10
ATOM     10  C   UNL     1      17.078 120.075 294.313  1.00  0.00     0.000 C 
BRANCH  10  11
ATOM     11  C   UNL     1      17.976 118.828 294.440  1.00  0.00    -0.000 C 
BRANCH  11  12
ATOM     12  C   UNL     1      17.243 117.534 294.849  1.00  0.00    -0.000 C 
BRANCH  12  13
ATOM     13  C   UNL     1      17.314 116.393 293.818  1.00  0.00    -0.000 C 
BRANCH  13  14
ATOM     14  C   UNL     1      17.351 116.898 292.369  1.00  0.00    -0.000 C 
BRANCH  14  15
ATOM     15  C   UNL     1      18.436 116.169 291.562  1.00  0.00    -0.000 C 
BRANCH  15  16
ATOM     16  C   UNL     1      17.928 115.680 290.196  1.00  0.00    -0.003 C 
ATOM     17  C   UNL     1      17.156 114.364 290.288  1.00  0.00     0.004 C 
ENDBRANCH  15  16
ENDBRANCH  14  15
ENDBRANCH  13  14
ENDBRANCH  12  13
ENDBRANCH  11  12
ENDBRANCH  10  11
ENDBRANCH   1  10
TORSDOF 13
ENDMDL
MODEL 8
REMARK VINA RESULT:    -4.679      5.093      6.030
REMARK INTER + INTRA:          -9.012
REMARK INTER:                  -8.277
REMARK INTRA:                  -0.735
REMARK UNBOUND:                -0.778
REMARK SMILES CCCCCCCCCCCCCCC(=O)[O-]
REMARK SMILES IDX 9 1 10 2 11 3 12 4 13 5 14 6 15 7 16 8 17 9 8 10 7 11 6 12
REMARK SMILES IDX 5 13 4 14 3 15 2 16 1 17
REMARK H PARENT
REMARK Flexibility Score: inf
ROOT
ATOM      1  C   UNL     1      19.941 118.427 296.733  1.00  0.00     0.000 C 
ENDROOT
BRANCH   1   2
ATOM      2  C   UNL     1      20.762 117.248 297.289  1.00  0.00     0.000 C 
BRANCH   2   3
ATOM      3  C   UNL     1      22.171 117.161 296.677  1.00  0.00     0.000 C 
BRANCH   3   4
ATOM      4  C   UNL     1      23.079 118.317 297.122  1.00  0.00     0.000 C 
BRANCH   4   5
ATOM      5  C   UNL     1      23.187 118.433 298.653  1.00  0.00     0.006 C 
BRANCH   5   6
ATOM      6  C   UNL     1      22.868 119.849 299.151  1.00  0.00     0.053 C 
BRANCH   6   7
ATOM      7  C   UNL     1      23.985 120.414 299.972  1.00  0.00     0.041 C 
ATOM      8  O   UNL     1      24.940 119.677 300.335  1.00  0.00    -0.550 OA
ATOM      9  O   UNL     1      23.991 121.762 300.308  1.00  0.00    -0.550 OA
ENDBRANCH   6   7
ENDBRANCH   5   6
ENDBRANCH   4   5
ENDBRANCH   3   4
ENDBRANCH   2   3
ENDBRANCH   1   2
BRANCH   1  10
ATOM     10  C   UNL     1      18.969 118.067 295.592  1.00  0.00     0.000 C 
BRANCH  10  11
ATOM     11  C   UNL     1      17.603 117.518 296.047  1.00  0.00    -0.000 C 
BRANCH  11  12
ATOM     12  C   UNL     1      16.629 117.164 294.905  1.00  0.00    -0.000 C 
BRANCH  12  13
ATOM     13  C   UNL     1      17.206 116.234 293.823  1.00  0.00    -0.000 C 
BRANCH  13  14
ATOM     14  C   UNL     1      17.427 116.944 292.480  1.00  0.00    -0.000 C 
BRANCH  14  15
ATOM     15  C   UNL     1      18.419 116.164 291.603  1.00  0.00    -0.000 C 
BRANCH  15  16
ATOM     16  C   UNL     1      17.773 115.622 290.319  1.00  0.00    -0.003 C 
ATOM     17  C   UNL     1      17.001 114.323 290.548  1.00  0.00     0.004 C 
ENDBRANCH  15  16
ENDBRANCH  14  15
ENDBRANCH  13  14
ENDBRANCH  12  13
ENDBRANCH  11  12
ENDBRANCH  10  11
ENDBRANCH   1  10
TORSDOF 13
ENDMDL
MODEL 9
REMARK VINA RESULT:    -4.678      2.861      4.269
REMARK INTER + INTRA:          -9.011
REMARK INTER:                  -7.745
REMARK INTRA:                  -1.266
REMARK UNBOUND:                -0.778
REMARK SMILES CCCCCCCCCCCCCCC(=O)[O-]
REMARK SMILES IDX 9 1 10 2 11 3 12 4 13 5 14 6 15 7 16 8 17 9 8 10 7 11 6 12
REMARK SMILES IDX 5 13 4 14 3 15 2 16 1 17
REMARK H PARENT
REMARK Flexibility Score: inf
ROOT
ATOM      1  C   UNL     1      18.403 120.846 295.095  1.00  0.00     0.000 C 
ENDROOT
BRANCH   1   2
ATOM      2  C   UNL     1      19.751 121.155 294.418  1.00  0.00     0.000 C 
BRANCH   2   3
ATOM      3  C   UNL     1      20.924 120.379 295.042  1.00  0.00     0.000 C 
BRANCH   3   4
ATOM      4  C   UNL     1      20.771 118.858 294.890  1.00  0.00     0.000 C 
BRANCH   4   5
ATOM      5  C   UNL     1      21.901 118.075 295.583  1.00  0.00     0.006 C 
BRANCH   5   6
ATOM      6  C   UNL     1      23.123 117.894 294.672  1.00  0.00     0.053 C 
BRANCH   6   7
ATOM      7  C   UNL     1      24.301 118.679 295.161  1.00  0.00     0.041 C 
ATOM      8  O   UNL     1      25.396 118.632 294.541  1.00  0.00    -0.550 OA
ATOM      9  O   UNL     1      24.179 119.493 296.281  1.00  0.00    -0.550 OA
ENDBRANCH   6   7
ENDBRANCH   5   6
ENDBRANCH   4   5
ENDBRANCH   3   4
ENDBRANCH   2   3
ENDBRANCH   1   2
BRANCH   1  10
ATOM     10  C   UNL     1      17.202 120.724 294.138  1.00  0.00     0.000 C 
BRANCH  10  11
ATOM     11  C   UNL     1      16.440 119.386 294.213  1.00  0.00    -0.000 C 
BRANCH  11  12
ATOM     12  C   UNL     1      17.057 118.336 295.159  1.00  0.00    -0.000 C 
BRANCH  12  13
ATOM     13  C   UNL     1      17.387 116.983 294.504  1.00  0.00    -0.000 C 
BRANCH  13  14
ATOM     14  C   UNL     1      18.030 117.131 293.118  1.00  0.00    -0.000 C 
BRANCH  14  15
ATOM     15  C   UNL     1      17.287 116.283 292.075  1.00  0.00    -0.000 C 
BRANCH  15  16
ATOM     16  C   UNL     1      18.217 115.748 290.975  1.00  0.00    -0.003 C 
ATOM     17  C   UNL     1      17.547 114.695 290.094  1.00  0.00     0.004 C 
ENDBRANCH  15  16
ENDBRANCH  14  15
ENDBRANCH  13  14
ENDBRANCH  12  13
ENDBRANCH  11  12
ENDBRANCH  10  11
ENDBRANCH   1  10
TORSDOF 13
ENDMDL
