MODEL 1
REMARK VINA RESULT:    -3.366      0.000      0.000
REMARK INTER + INTRA:          -5.676
REMARK INTER:                  -5.137
REMARK INTRA:                  -0.539
REMARK UNBOUND:                -0.539
REMARK SMILES CC1=CCC[C@@H](C)C(=O)C[C@H](C(C)C)C(=O)C1
REMARK SMILES IDX 8 1 9 2 6 3 7 4 5 5 4 6 3 7 2 8 1 9 10 11 11 12 15 13 16 14
REMARK SMILES IDX 17 15 12 17 13 18 14 19
REMARK H PARENT
REMARK Flexibility Score: 70.00
ROOT
ATOM      1  C   UNL     1     -15.113  26.363  19.313  1.00  0.00     0.136 C 
ATOM      2  O   UNL     1     -14.377  26.715  20.223  1.00  0.00    -0.299 OA
ENDROOT
BRANCH   1   3
ATOM      3  C   UNL     1     -15.592  24.925  19.244  1.00  0.00     0.053 C 
ATOM      4  C   UNL     1     -15.376  24.250  20.602  1.00  0.00     0.016 C 
BRANCH   3   5
ATOM      5  C   UNL     1     -14.886  24.123  18.130  1.00  0.00     0.015 C 
BRANCH   5   6
ATOM      6  C   UNL     1     -15.688  23.988  16.824  1.00  0.00     0.028 C 
BRANCH   6   7
ATOM      7  C   UNL     1     -14.904  24.337  15.578  1.00  0.00    -0.028 C 
ATOM      8  C   UNL     1     -14.695  25.565  15.034  1.00  0.00    -0.070 CG0
ATOM      9  C   UNL     1     -13.766  25.626  13.844  1.00  0.00     0.039 C 
ATOM     10  G   UNL     1     -15.391  26.857  15.448  1.00  0.00     0.000 G0
ENDBRANCH   6   7
ENDBRANCH   5   6
ENDBRANCH   3   5
ENDBRANCH   1   3
BRANCH   1  11
ATOM     11  C   UNL     1     -15.577  27.385  18.306  1.00  0.00     0.087 C 
BRANCH  11  12
ATOM     12  C   UNL     1     -14.407  28.085  17.560  1.00  0.00     0.066 C 
BRANCH  12  13
ATOM     13  C   UNL     1     -14.516  27.937  16.046  1.00  0.00     0.140 C 
ATOM     14  O   UNL     1     -14.002  28.785  15.332  1.00  0.00    -0.299 OA
BRANCH  13  15
ATOM     15  C   UNL     1     -15.394  26.883  15.417  1.00  0.00     0.106 CG0
ATOM     16  G   UNL     1     -14.698  25.577  15.050  1.00  0.00     0.000 G0
ENDBRANCH  13  15
ENDBRANCH  12  13
BRANCH  12  17
ATOM     17  C   UNL     1     -14.295  29.595  17.948  1.00  0.00    -0.006 C 
ATOM     18  C   UNL     1     -15.542  30.099  18.698  1.00  0.00     0.008 C 
ATOM     19  C   UNL     1     -13.051  29.867  18.815  1.00  0.00     0.008 C 
ENDBRANCH  12  17
ENDBRANCH  11  12
ENDBRANCH   1  11
TORSDOF 1
ENDMDL
MODEL 2
REMARK VINA RESULT:    -3.179      2.375      5.271
REMARK INTER + INTRA:          -5.392
REMARK INTER:                  -4.903
REMARK INTRA:                  -0.489
REMARK UNBOUND:                -0.539
REMARK SMILES CC1=CCC[C@@H](C)C(=O)C[C@H](C(C)C)C(=O)C1
REMARK SMILES IDX 8 1 9 2 6 3 7 4 5 5 4 6 3 7 2 8 1 9 10 11 11 12 15 13 16 14
REMARK SMILES IDX 17 15 12 17 13 18 14 19
REMARK H PARENT
REMARK Flexibility Score: 70.00
ROOT
ATOM      1  C   UNL     1     -14.388  27.921  18.853  1.00  0.00     0.136 C 
ATOM      2  O   UNL     1     -13.848  27.655  19.918  1.00  0.00    -0.299 OA
ENDROOT
BRANCH   1   3
ATOM      3  C   UNL     1     -14.354  29.342  18.325  1.00  0.00     0.053 C 
ATOM      4  C   UNL     1     -13.043  30.012  18.748  1.00  0.00     0.016 C 
BRANCH   3   5
ATOM      5  C   UNL     1     -15.560  30.176  18.805  1.00  0.00     0.015 C 
BRANCH   5   6
ATOM      6  C   UNL     1     -16.735  30.245  17.814  1.00  0.00     0.028 C 
BRANCH   6   7
ATOM      7  C   UNL     1     -18.044  29.728  18.370  1.00  0.00    -0.028 C 
ATOM      8  C   UNL     1     -18.516  28.453  18.361  1.00  0.00    -0.070 CG0
ATOM      9  C   UNL     1     -19.811  28.208  19.100  1.00  0.00     0.039 C 
ATOM     10  G   UNL     1     -17.916  27.283  17.588  1.00  0.00     0.000 G0
ENDBRANCH   6   7
ENDBRANCH   5   6
ENDBRANCH   3   5
ENDBRANCH   1   3
BRANCH   1  11
ATOM     11  C   UNL     1     -15.030  26.812  18.059  1.00  0.00     0.087 C 
BRANCH  11  12
ATOM     12  C   UNL     1     -16.030  25.961  18.890  1.00  0.00     0.066 C 
BRANCH  12  13
ATOM     13  C   UNL     1     -17.461  26.088  18.378  1.00  0.00     0.140 C 
ATOM     14  O   UNL     1     -18.218  25.136  18.499  1.00  0.00    -0.299 OA
BRANCH  13  15
ATOM     15  C   UNL     1     -17.905  27.279  17.563  1.00  0.00     0.106 CG0
ATOM     16  G   UNL     1     -18.514  28.430  18.356  1.00  0.00     0.000 G0
ENDBRANCH  13  15
ENDBRANCH  12  13
BRANCH  12  17
ATOM     17  C   UNL     1     -15.608  24.457  18.942  1.00  0.00    -0.006 C 
ATOM     18  C   UNL     1     -14.816  24.030  17.692  1.00  0.00     0.008 C 
ATOM     19  C   UNL     1     -14.763  24.149  20.193  1.00  0.00     0.008 C 
ENDBRANCH  12  17
ENDBRANCH  11  12
ENDBRANCH   1  11
TORSDOF 1
ENDMDL
MODEL 3
REMARK VINA RESULT:    -3.174      3.488      5.736
REMARK INTER + INTRA:          -5.383
REMARK INTER:                  -4.892
REMARK INTRA:                  -0.491
REMARK UNBOUND:                -0.539
REMARK SMILES CC1=CCC[C@@H](C)C(=O)C[C@H](C(C)C)C(=O)C1
REMARK SMILES IDX 8 1 9 2 6 3 7 4 5 5 4 6 3 7 2 8 1 9 10 11 11 12 15 13 16 14
REMARK SMILES IDX 17 15 12 17 13 18 14 19
REMARK H PARENT
REMARK Flexibility Score: 70.00
ROOT
ATOM      1  C   UNL     1     -14.757  27.651  17.819  1.00  0.00     0.136 C 
ATOM      2  O   UNL     1     -14.758  26.482  17.461  1.00  0.00    -0.299 OA
ENDROOT
BRANCH   1   3
ATOM      3  C   UNL     1     -13.577  28.201  18.598  1.00  0.00     0.053 C 
ATOM      4  C   UNL     1     -13.819  27.998  20.097  1.00  0.00     0.016 C 
BRANCH   3   5
ATOM      5  C   UNL     1     -13.317  29.692  18.295  1.00  0.00     0.015 C 
BRANCH   5   6
ATOM      6  C   UNL     1     -13.625  30.651  19.458  1.00  0.00     0.028 C 
BRANCH   6   7
ATOM      7  C   UNL     1     -14.630  31.730  19.119  1.00  0.00    -0.028 C 
ATOM      8  C   UNL     1     -15.961  31.755  19.395  1.00  0.00    -0.070 CG0
ATOM      9  C   UNL     1     -16.700  33.025  19.039  1.00  0.00     0.039 C 
ATOM     10  G   UNL     1     -16.786  30.589  19.928  1.00  0.00     0.000 G0
ENDBRANCH   6   7
ENDBRANCH   5   6
ENDBRANCH   3   5
ENDBRANCH   1   3
BRANCH   1  11
ATOM     11  C   UNL     1     -15.911  28.539  17.427  1.00  0.00     0.087 C 
BRANCH  11  12
ATOM     12  C   UNL     1     -17.124  28.430  18.393  1.00  0.00     0.066 C 
BRANCH  12  13
ATOM     13  C   UNL     1     -17.587  29.794  18.895  1.00  0.00     0.140 C 
ATOM     14  O   UNL     1     -18.540  30.331  18.350  1.00  0.00    -0.299 OA
BRANCH  13  15
ATOM     15  C   UNL     1     -16.788  30.573  19.912  1.00  0.00     0.106 CG0
ATOM     16  G   UNL     1     -15.976  31.740  19.359  1.00  0.00     0.000 G0
ENDBRANCH  13  15
ENDBRANCH  12  13
BRANCH  12  17
ATOM     17  C   UNL     1     -18.319  27.663  17.738  1.00  0.00    -0.006 C 
ATOM     18  C   UNL     1     -18.174  27.554  16.209  1.00  0.00     0.008 C 
ATOM     19  C   UNL     1     -18.471  26.247  18.324  1.00  0.00     0.008 C 
ENDBRANCH  12  17
ENDBRANCH  11  12
ENDBRANCH   1  11
TORSDOF 1
ENDMDL
MODEL 4
REMARK VINA RESULT:    -3.155      1.783      2.689
REMARK INTER + INTRA:          -5.354
REMARK INTER:                  -4.879
REMARK INTRA:                  -0.476
REMARK UNBOUND:                -0.539
REMARK SMILES CC1=CCC[C@@H](C)C(=O)C[C@H](C(C)C)C(=O)C1
REMARK SMILES IDX 8 1 9 2 6 3 7 4 5 5 4 6 3 7 2 8 1 9 10 11 11 12 15 13 16 14
REMARK SMILES IDX 17 15 12 17 13 18 14 19
REMARK H PARENT
REMARK Flexibility Score: 70.00
ROOT
ATOM      1  C   UNL     1     -15.256  26.073  17.788  1.00  0.00     0.136 C 
ATOM      2  O   UNL     1     -15.070  25.340  18.748  1.00  0.00    -0.299 OA
ENDROOT
BRANCH   1   3
ATOM      3  C   UNL     1     -15.130  25.520  16.380  1.00  0.00     0.053 C 
ATOM      4  C   UNL     1     -15.789  24.138  16.316  1.00  0.00     0.016 C 
BRANCH   3   5
ATOM      5  C   UNL     1     -13.662  25.434  15.911  1.00  0.00     0.015 C 
BRANCH   5   6
ATOM      6  C   UNL     1     -13.317  26.323  14.704  1.00  0.00     0.028 C 
BRANCH   6   7
ATOM      7  C   UNL     1     -14.494  27.096  14.149  1.00  0.00    -0.028 C 
ATOM      8  C   UNL     1     -14.794  28.411  14.324  1.00  0.00    -0.070 CG0
ATOM      9  C   UNL     1     -15.976  28.942  13.547  1.00  0.00     0.039 C 
ATOM     10  G   UNL     1     -14.115  29.359  15.306  1.00  0.00     0.000 G0
ENDBRANCH   6   7
ENDBRANCH   5   6
ENDBRANCH   3   5
ENDBRANCH   1   3
BRANCH   1  11
ATOM     11  C   UNL     1     -15.662  27.506  18.025  1.00  0.00     0.087 C 
BRANCH  11  12
ATOM     12  C   UNL     1     -14.507  28.518  17.792  1.00  0.00     0.066 C 
BRANCH  12  13
ATOM     13  C   UNL     1     -14.814  29.495  16.661  1.00  0.00     0.140 C 
ATOM     14  O   UNL     1     -15.734  30.288  16.800  1.00  0.00    -0.299 OA
BRANCH  13  15
ATOM     15  C   UNL     1     -14.141  29.381  15.315  1.00  0.00     0.106 CG0
ATOM     16  G   UNL     1     -14.784  28.404  14.337  1.00  0.00     0.000 G0
ENDBRANCH  13  15
ENDBRANCH  12  13
BRANCH  12  17
ATOM     17  C   UNL     1     -14.149  29.299  19.097  1.00  0.00    -0.006 C 
ATOM     18  C   UNL     1     -13.834  28.357  20.274  1.00  0.00     0.008 C 
ATOM     19  C   UNL     1     -12.949  30.241  18.882  1.00  0.00     0.008 C 
ENDBRANCH  12  17
ENDBRANCH  11  12
ENDBRANCH   1  11
TORSDOF 1
ENDMDL
MODEL 5
REMARK VINA RESULT:    -3.149      1.510      3.920
REMARK INTER + INTRA:          -5.345
REMARK INTER:                  -5.076
REMARK INTRA:                  -0.269
REMARK UNBOUND:                -0.539
REMARK SMILES CC1=CCC[C@@H](C)C(=O)C[C@H](C(C)C)C(=O)C1
REMARK SMILES IDX 8 1 9 2 6 3 7 4 5 5 4 6 3 7 2 8 1 9 10 11 11 12 15 13 16 14
REMARK SMILES IDX 17 15 12 17 13 18 14 19
REMARK H PARENT
REMARK Flexibility Score: 70.00
ROOT
ATOM      1  C   UNL     1     -14.172  28.925  16.009  1.00  0.00     0.136 C 
ATOM      2  O   UNL     1     -15.044  29.731  15.719  1.00  0.00    -0.299 OA
ENDROOT
BRANCH   1   3
ATOM      3  C   UNL     1     -13.408  28.212  14.909  1.00  0.00     0.053 C 
ATOM      4  C   UNL     1     -14.030  28.555  13.552  1.00  0.00     0.016 C 
BRANCH   3   5
ATOM      5  C   UNL     1     -13.376  26.682  15.112  1.00  0.00     0.015 C 
BRANCH   5   6
ATOM      6  C   UNL     1     -14.758  26.006  15.148  1.00  0.00     0.028 C 
BRANCH   6   7
ATOM      7  C   UNL     1     -14.884  24.913  16.186  1.00  0.00    -0.028 C 
ATOM      8  C   UNL     1     -15.579  24.939  17.353  1.00  0.00    -0.070 CG0
ATOM      9  C   UNL     1     -15.625  23.650  18.141  1.00  0.00     0.039 C 
ATOM     10  G   UNL     1     -16.221  26.170  17.984  1.00  0.00     0.000 G0
ENDBRANCH   6   7
ENDBRANCH   5   6
ENDBRANCH   3   5
ENDBRANCH   1   3
BRANCH   1  11
ATOM     11  C   UNL     1     -13.837  28.696  17.461  1.00  0.00     0.087 C 
BRANCH  11  12
ATOM     12  C   UNL     1     -15.092  28.522  18.360  1.00  0.00     0.066 C 
BRANCH  12  13
ATOM     13  C   UNL     1     -15.315  27.069  18.766  1.00  0.00     0.140 C 
ATOM     14  O   UNL     1     -14.614  26.587  19.644  1.00  0.00    -0.299 OA
BRANCH  13  15
ATOM     15  C   UNL     1     -16.240  26.165  17.988  1.00  0.00     0.106 CG0
ATOM     16  G   UNL     1     -15.591  24.934  17.366  1.00  0.00     0.000 G0
ENDBRANCH  13  15
ENDBRANCH  12  13
BRANCH  12  17
ATOM     17  C   UNL     1     -15.027  29.432  19.630  1.00  0.00    -0.006 C 
ATOM     18  C   UNL     1     -14.028  30.593  19.464  1.00  0.00     0.008 C 
ATOM     19  C   UNL     1     -16.409  30.013  19.981  1.00  0.00     0.008 C 
ENDBRANCH  12  17
ENDBRANCH  11  12
ENDBRANCH   1  11
TORSDOF 1
ENDMDL
MODEL 6
REMARK VINA RESULT:    -2.965      2.802      4.223
REMARK INTER + INTRA:          -5.064
REMARK INTER:                  -4.706
REMARK INTRA:                  -0.358
REMARK UNBOUND:                -0.539
REMARK SMILES CC1=CCC[C@@H](C)C(=O)C[C@H](C(C)C)C(=O)C1
REMARK SMILES IDX 8 1 9 2 6 3 7 4 5 5 4 6 3 7 2 8 1 9 10 11 11 12 15 13 16 14
REMARK SMILES IDX 17 15 12 17 13 18 14 19
REMARK H PARENT
REMARK Flexibility Score: 70.00
ROOT
ATOM      1  C   UNL     1     -14.736  28.806  19.945  1.00  0.00     0.136 C 
ATOM      2  O   UNL     1     -14.868  27.816  20.650  1.00  0.00    -0.299 OA
ENDROOT
BRANCH   1   3
ATOM      3  C   UNL     1     -13.639  28.845  18.898  1.00  0.00     0.053 C 
ATOM      4  C   UNL     1     -12.999  30.237  18.883  1.00  0.00     0.016 C 
BRANCH   3   5
ATOM      5  C   UNL     1     -14.156  28.479  17.491  1.00  0.00     0.015 C 
BRANCH   5   6
ATOM      6  C   UNL     1     -14.873  27.121  17.399  1.00  0.00     0.028 C 
BRANCH   6   7
ATOM      7  C   UNL     1     -16.176  27.161  16.630  1.00  0.00    -0.028 C 
ATOM      8  C   UNL     1     -17.411  27.497  17.088  1.00  0.00    -0.070 CG0
ATOM      9  C   UNL     1     -18.517  27.563  16.059  1.00  0.00     0.039 C 
ATOM     10  G   UNL     1     -17.798  27.707  18.548  1.00  0.00     0.000 G0
ENDBRANCH   6   7
ENDBRANCH   5   6
ENDBRANCH   3   5
ENDBRANCH   1   3
BRANCH   1  11
ATOM     11  C   UNL     1     -15.706  29.950  20.096  1.00  0.00     0.087 C 
BRANCH  11  12
ATOM     12  C   UNL     1     -16.694  30.078  18.903  1.00  0.00     0.066 C 
BRANCH  12  13
ATOM     13  C   UNL     1     -17.887  29.136  19.037  1.00  0.00     0.140 C 
ATOM     14  O   UNL     1     -18.858  29.503  19.682  1.00  0.00    -0.299 OA
BRANCH  13  15
ATOM     15  C   UNL     1     -17.821  27.706  18.560  1.00  0.00     0.106 CG0
ATOM     16  G   UNL     1     -17.426  27.515  17.100  1.00  0.00     0.000 G0
ENDBRANCH  13  15
ENDBRANCH  12  13
BRANCH  12  17
ATOM     17  C   UNL     1     -17.187  31.549  18.714  1.00  0.00    -0.006 C 
ATOM     18  C   UNL     1     -16.199  32.575  19.298  1.00  0.00     0.008 C 
ATOM     19  C   UNL     1     -17.425  31.880  17.228  1.00  0.00     0.008 C 
ENDBRANCH  12  17
ENDBRANCH  11  12
ENDBRANCH   1  11
TORSDOF 1
ENDMDL
MODEL 7
REMARK VINA RESULT:    -2.869      2.125      4.183
REMARK INTER + INTRA:          -4.918
REMARK INTER:                  -4.601
REMARK INTRA:                  -0.316
REMARK UNBOUND:                -0.539
REMARK SMILES CC1=CCC[C@@H](C)C(=O)C[C@H](C(C)C)C(=O)C1
REMARK SMILES IDX 8 1 9 2 6 3 7 4 5 5 4 6 3 7 2 8 1 9 10 11 11 12 15 13 16 14
REMARK SMILES IDX 17 15 12 17 13 18 14 19
REMARK H PARENT
REMARK Flexibility Score: 70.00
ROOT
ATOM      1  C   UNL     1     -16.565  30.409  17.118  1.00  0.00     0.136 C 
ATOM      2  O   UNL     1     -17.039  30.428  15.992  1.00  0.00    -0.299 OA
ENDROOT
BRANCH   1   3
ATOM      3  C   UNL     1     -17.463  30.641  18.319  1.00  0.00     0.053 C 
ATOM      4  C   UNL     1     -16.791  31.633  19.273  1.00  0.00     0.016 C 
BRANCH   3   5
ATOM      5  C   UNL     1     -17.801  29.331  19.061  1.00  0.00     0.015 C 
BRANCH   5   6
ATOM      6  C   UNL     1     -18.489  28.258  18.198  1.00  0.00     0.028 C 
BRANCH   6   7
ATOM      7  C   UNL     1     -17.959  26.857  18.416  1.00  0.00    -0.028 C 
ATOM      8  C   UNL     1     -16.874  26.271  17.844  1.00  0.00    -0.070 CG0
ATOM      9  C   UNL     1     -16.511  24.891  18.342  1.00  0.00     0.039 C 
ATOM     10  G   UNL     1     -16.062  26.834  16.682  1.00  0.00     0.000 G0
ENDBRANCH   6   7
ENDBRANCH   5   6
ENDBRANCH   3   5
ENDBRANCH   1   3
BRANCH   1  11
ATOM     11  C   UNL     1     -15.099  30.099  17.293  1.00  0.00     0.087 C 
BRANCH  11  12
ATOM     12  C   UNL     1     -14.840  28.757  18.032  1.00  0.00     0.066 C 
BRANCH  12  13
ATOM     13  C   UNL     1     -14.790  27.571  17.074  1.00  0.00     0.140 C 
ATOM     14  O   UNL     1     -13.741  27.322  16.497  1.00  0.00    -0.299 OA
BRANCH  13  15
ATOM     15  C   UNL     1     -16.039  26.821  16.679  1.00  0.00     0.106 CG0
ATOM     16  G   UNL     1     -16.875  26.279  17.833  1.00  0.00     0.000 G0
ENDBRANCH  13  15
ENDBRANCH  12  13
BRANCH  12  17
ATOM     17  C   UNL     1     -13.536  28.811  18.891  1.00  0.00    -0.006 C 
ATOM     18  C   UNL     1     -13.009  30.248  19.062  1.00  0.00     0.008 C 
ATOM     19  C   UNL     1     -13.752  28.194  20.286  1.00  0.00     0.008 C 
ENDBRANCH  12  17
ENDBRANCH  11  12
ENDBRANCH   1  11
TORSDOF 1
ENDMDL
MODEL 8
REMARK VINA RESULT:    -2.738      3.325      5.364
REMARK INTER + INTRA:          -4.718
REMARK INTER:                  -4.436
REMARK INTRA:                  -0.281
REMARK UNBOUND:                -0.539
REMARK SMILES CC1=CCC[C@@H](C)C(=O)C[C@H](C(C)C)C(=O)C1
REMARK SMILES IDX 8 1 9 2 6 3 7 4 5 5 4 6 3 7 2 8 1 9 10 11 11 12 15 13 16 14
REMARK SMILES IDX 17 15 12 17 13 18 14 19
REMARK H PARENT
REMARK Flexibility Score: 70.00
ROOT
ATOM      1  C   UNL     1     -13.945  28.704  17.170  1.00  0.00     0.136 C 
ATOM      2  O   UNL     1     -13.796  27.493  17.097  1.00  0.00    -0.299 OA
ENDROOT
BRANCH   1   3
ATOM      3  C   UNL     1     -13.957  29.383  18.526  1.00  0.00     0.053 C 
ATOM      4  C   UNL     1     -13.397  28.423  19.581  1.00  0.00     0.016 C 
BRANCH   3   5
ATOM      5  C   UNL     1     -15.367  29.860  18.932  1.00  0.00     0.015 C 
BRANCH   5   6
ATOM      6  C   UNL     1     -15.675  31.329  18.593  1.00  0.00     0.028 C 
BRANCH   6   7
ATOM      7  C   UNL     1     -17.015  31.540  17.922  1.00  0.00    -0.028 C 
ATOM      8  C   UNL     1     -17.320  31.432  16.602  1.00  0.00    -0.070 CG0
ATOM      9  C   UNL     1     -18.777  31.584  16.231  1.00  0.00     0.039 C 
ATOM     10  G   UNL     1     -16.318  31.278  15.462  1.00  0.00     0.000 G0
ENDBRANCH   6   7
ENDBRANCH   5   6
ENDBRANCH   3   5
ENDBRANCH   1   3
BRANCH   1  11
ATOM     11  C   UNL     1     -14.058  29.507  15.898  1.00  0.00     0.087 C 
BRANCH  11  12
ATOM     12  C   UNL     1     -15.143  28.967  14.926  1.00  0.00     0.066 C 
BRANCH  12  13
ATOM     13  C   UNL     1     -16.310  29.937  14.767  1.00  0.00     0.140 C 
ATOM     14  O   UNL     1     -17.177  29.687  13.942  1.00  0.00    -0.299 OA
BRANCH  13  15
ATOM     15  C   UNL     1     -16.322  31.278  15.459  1.00  0.00     0.106 CG0
ATOM     16  G   UNL     1     -17.327  31.424  16.597  1.00  0.00     0.000 G0
ENDBRANCH  13  15
ENDBRANCH  12  13
BRANCH  12  17
ATOM     17  C   UNL     1     -14.543  28.612  13.528  1.00  0.00    -0.006 C 
ATOM     18  C   UNL     1     -14.052  29.858  12.769  1.00  0.00     0.008 C 
ATOM     19  C   UNL     1     -13.376  27.614  13.650  1.00  0.00     0.008 C 
ENDBRANCH  12  17
ENDBRANCH  11  12
ENDBRANCH   1  11
TORSDOF 1
ENDMDL
MODEL 9
REMARK VINA RESULT:    -2.701      2.182      4.713
REMARK INTER + INTRA:          -4.662
REMARK INTER:                  -4.358
REMARK INTRA:                  -0.304
REMARK UNBOUND:                -0.539
REMARK SMILES CC1=CCC[C@@H](C)C(=O)C[C@H](C(C)C)C(=O)C1
REMARK SMILES IDX 8 1 9 2 6 3 7 4 5 5 4 6 3 7 2 8 1 9 10 11 11 12 15 13 16 14
REMARK SMILES IDX 17 15 12 17 13 18 14 19
REMARK H PARENT
REMARK Flexibility Score: 70.00
ROOT
ATOM      1  C   UNL     1     -14.570  28.392  17.956  1.00  0.00     0.136 C 
ATOM      2  O   UNL     1     -15.146  27.797  18.856  1.00  0.00    -0.299 OA
ENDROOT
BRANCH   1   3
ATOM      3  C   UNL     1     -14.361  29.891  18.056  1.00  0.00     0.053 C 
ATOM      4  C   UNL     1     -13.675  30.222  19.386  1.00  0.00     0.016 C 
BRANCH   3   5
ATOM      5  C   UNL     1     -15.681  30.679  17.925  1.00  0.00     0.015 C 
BRANCH   5   6
ATOM      6  C   UNL     1     -16.627  30.174  16.821  1.00  0.00     0.028 C 
BRANCH   6   7
ATOM      7  C   UNL     1     -16.403  30.821  15.472  1.00  0.00    -0.028 C 
ATOM      8  C   UNL     1     -15.710  30.332  14.410  1.00  0.00    -0.070 CG0
ATOM      9  C   UNL     1     -15.753  31.150  13.140  1.00  0.00     0.039 C 
ATOM     10  G   UNL     1     -14.815  29.098  14.419  1.00  0.00     0.000 G0
ENDBRANCH   6   7
ENDBRANCH   5   6
ENDBRANCH   3   5
ENDBRANCH   1   3
BRANCH   1  11
ATOM     11  C   UNL     1     -14.027  27.608  16.788  1.00  0.00     0.087 C 
BRANCH  11  12
ATOM     12  C   UNL     1     -15.137  26.948  15.924  1.00  0.00     0.066 C 
BRANCH  12  13
ATOM     13  C   UNL     1     -15.477  27.777  14.689  1.00  0.00     0.140 C 
ATOM     14  O   UNL     1     -16.195  27.287  13.829  1.00  0.00    -0.299 OA
BRANCH  13  15
ATOM     15  C   UNL     1     -14.804  29.100  14.416  1.00  0.00     0.106 CG0
ATOM     16  G   UNL     1     -15.721  30.318  14.406  1.00  0.00     0.000 G0
ENDBRANCH  13  15
ENDBRANCH  12  13
BRANCH  12  17
ATOM     17  C   UNL     1     -14.757  25.491  15.507  1.00  0.00    -0.006 C 
ATOM     18  C   UNL     1     -13.389  25.423  14.803  1.00  0.00     0.008 C 
ATOM     19  C   UNL     1     -14.738  24.542  16.720  1.00  0.00     0.008 C 
ENDBRANCH  12  17
ENDBRANCH  11  12
ENDBRANCH   1  11
TORSDOF 1
ENDMDL
