MODEL 1
REMARK VINA RESULT:    -4.140      0.000      0.000
REMARK INTER + INTRA:          -4.400
REMARK INTER:                  -4.382
REMARK INTRA:                  -0.017
REMARK UNBOUND:                -0.017
REMARK SMILES O=C([O-])c1cccnc1
REMARK SMILES IDX 4 1 5 2 9 3 6 4 8 5 7 6 2 7 1 8 3 9
REMARK H PARENT
REMARK Flexibility Score: inf
ROOT
ATOM      1  C   UNL     1      88.565  76.753  72.172  1.00  0.00     0.016 A 
ATOM      2  C   UNL     1      87.940  77.961  71.819  1.00  0.00     0.013 A 
ATOM      3  C   UNL     1      89.776  76.418  71.543  1.00  0.00     0.120 A 
ATOM      4  C   UNL     1      88.520  78.797  70.863  1.00  0.00     0.021 A 
ATOM      5  N   UNL     1      90.321  77.250  70.616  1.00  0.00    -0.264 NA
ATOM      6  C   UNL     1      89.724  78.421  70.266  1.00  0.00     0.111 A 
ENDROOT
BRANCH   1   7
ATOM      7  C   UNL     1      87.959  75.859  73.183  1.00  0.00     0.073 C 
ATOM      8  O   UNL     1      86.864  75.282  72.953  1.00  0.00    -0.545 OA
ATOM      9  O   UNL     1      88.593  75.645  74.403  1.00  0.00    -0.545 OA
ENDBRANCH   1   7
TORSDOF 1
ENDMDL
MODEL 2
REMARK VINA RESULT:    -4.085      1.439      2.129
REMARK INTER + INTRA:          -4.341
REMARK INTER:                  -4.318
REMARK INTRA:                  -0.023
REMARK UNBOUND:                -0.017
REMARK SMILES O=C([O-])c1cccnc1
REMARK SMILES IDX 4 1 5 2 9 3 6 4 8 5 7 6 2 7 1 8 3 9
REMARK H PARENT
REMARK Flexibility Score: inf
ROOT
ATOM      1  C   UNL     1      88.030  76.913  72.934  1.00  0.00     0.016 A 
ATOM      2  C   UNL     1      89.382  77.290  73.000  1.00  0.00     0.013 A 
ATOM      3  C   UNL     1      87.177  77.630  72.078  1.00  0.00     0.120 A 
ATOM      4  C   UNL     1      89.851  78.354  72.228  1.00  0.00     0.021 A 
ATOM      5  N   UNL     1      87.659  78.662  71.335  1.00  0.00    -0.264 NA
ATOM      6  C   UNL     1      88.966  79.035  71.392  1.00  0.00     0.111 A 
ENDROOT
BRANCH   1   7
ATOM      7  C   UNL     1      87.522  75.787  73.748  1.00  0.00     0.073 C 
ATOM      8  O   UNL     1      88.120  75.436  74.800  1.00  0.00    -0.545 OA
ATOM      9  O   UNL     1      86.375  75.102  73.362  1.00  0.00    -0.545 OA
ENDBRANCH   1   7
TORSDOF 1
ENDMDL
MODEL 3
REMARK VINA RESULT:    -4.022      3.656      4.387
REMARK INTER + INTRA:          -4.275
REMARK INTER:                  -4.255
REMARK INTRA:                  -0.019
REMARK UNBOUND:                -0.017
REMARK SMILES O=C([O-])c1cccnc1
REMARK SMILES IDX 4 1 5 2 9 3 6 4 8 5 7 6 2 7 1 8 3 9
REMARK H PARENT
REMARK Flexibility Score: inf
ROOT
ATOM      1  C   UNL     1      87.766  76.000  74.281  1.00  0.00     0.016 A 
ATOM      2  C   UNL     1      86.877  75.460  73.337  1.00  0.00     0.013 A 
ATOM      3  C   UNL     1      87.233  76.682  75.388  1.00  0.00     0.120 A 
ATOM      4  C   UNL     1      85.499  75.607  73.508  1.00  0.00     0.021 A 
ATOM      5  N   UNL     1      85.887  76.812  75.531  1.00  0.00    -0.264 NA
ATOM      6  C   UNL     1      85.017  76.293  74.623  1.00  0.00     0.111 A 
ENDROOT
BRANCH   1   7
ATOM      7  C   UNL     1      89.228  75.850  74.110  1.00  0.00     0.073 C 
ATOM      8  O   UNL     1      89.951  75.485  75.075  1.00  0.00    -0.545 OA
ATOM      9  O   UNL     1      89.823  76.110  72.881  1.00  0.00    -0.545 OA
ENDBRANCH   1   7
TORSDOF 1
ENDMDL
MODEL 4
REMARK VINA RESULT:    -3.999      2.837      3.685
REMARK INTER + INTRA:          -4.250
REMARK INTER:                  -4.229
REMARK INTRA:                  -0.021
REMARK UNBOUND:                -0.017
REMARK SMILES O=C([O-])c1cccnc1
REMARK SMILES IDX 4 1 5 2 9 3 6 4 8 5 7 6 2 7 1 8 3 9
REMARK H PARENT
REMARK Flexibility Score: inf
ROOT
ATOM      1  C   UNL     1      88.712  77.663  72.228  1.00  0.00     0.016 A 
ATOM      2  C   UNL     1      87.344  77.402  72.416  1.00  0.00     0.013 A 
ATOM      3  C   UNL     1      89.642  76.923  72.979  1.00  0.00     0.120 A 
ATOM      4  C   UNL     1      86.935  76.430  73.330  1.00  0.00     0.021 A 
ATOM      5  N   UNL     1      89.218  75.982  73.863  1.00  0.00    -0.264 NA
ATOM      6  C   UNL     1      87.896  75.722  74.052  1.00  0.00     0.111 A 
ENDROOT
BRANCH   1   7
ATOM      7  C   UNL     1      89.157  78.690  71.262  1.00  0.00     0.073 C 
ATOM      8  O   UNL     1      88.500  79.754  71.110  1.00  0.00    -0.545 OA
ATOM      9  O   UNL     1      90.309  78.494  70.507  1.00  0.00    -0.545 OA
ENDBRANCH   1   7
TORSDOF 1
ENDMDL
MODEL 5
REMARK VINA RESULT:    -3.926      2.413      3.171
REMARK INTER + INTRA:          -4.173
REMARK INTER:                  -4.154
REMARK INTRA:                  -0.019
REMARK UNBOUND:                -0.017
REMARK SMILES O=C([O-])c1cccnc1
REMARK SMILES IDX 4 1 5 2 9 3 6 4 8 5 7 6 2 7 1 8 3 9
REMARK H PARENT
REMARK Flexibility Score: inf
ROOT
ATOM      1  C   UNL     1      87.283  76.524  74.327  1.00  0.00     0.016 A 
ATOM      2  C   UNL     1      88.540  76.057  74.748  1.00  0.00     0.013 A 
ATOM      3  C   UNL     1      87.137  76.936  72.991  1.00  0.00     0.120 A 
ATOM      4  C   UNL     1      89.607  76.011  73.850  1.00  0.00     0.021 A 
ATOM      5  N   UNL     1      88.193  76.880  72.136  1.00  0.00    -0.264 NA
ATOM      6  C   UNL     1      89.413  76.431  72.533  1.00  0.00     0.111 A 
ENDROOT
BRANCH   1   7
ATOM      7  C   UNL     1      86.145  76.578  75.270  1.00  0.00     0.073 C 
ATOM      8  O   UNL     1      85.019  76.120  74.940  1.00  0.00    -0.545 OA
ATOM      9  O   UNL     1      86.304  77.135  76.534  1.00  0.00    -0.545 OA
ENDBRANCH   1   7
TORSDOF 1
ENDMDL
MODEL 6
REMARK VINA RESULT:    -3.910      3.163      4.207
REMARK INTER + INTRA:          -4.156
REMARK INTER:                  -4.134
REMARK INTRA:                  -0.022
REMARK UNBOUND:                -0.017
REMARK SMILES O=C([O-])c1cccnc1
REMARK SMILES IDX 4 1 5 2 9 3 6 4 8 5 7 6 2 7 1 8 3 9
REMARK H PARENT
REMARK Flexibility Score: inf
ROOT
ATOM      1  C   UNL     1      87.689  76.196  73.948  1.00  0.00     0.016 A 
ATOM      2  C   UNL     1      87.584  76.729  75.244  1.00  0.00     0.013 A 
ATOM      3  C   UNL     1      86.507  75.861  73.266  1.00  0.00     0.120 A 
ATOM      4  C   UNL     1      86.329  76.914  75.826  1.00  0.00     0.021 A 
ATOM      5  N   UNL     1      85.297  76.051  73.854  1.00  0.00    -0.264 NA
ATOM      6  C   UNL     1      85.184  76.566  75.108  1.00  0.00     0.111 A 
ENDROOT
BRANCH   1   7
ATOM      7  C   UNL     1      89.014  75.995  73.321  1.00  0.00     0.073 C 
ATOM      8  O   UNL     1      89.128  75.942  72.068  1.00  0.00    -0.545 OA
ATOM      9  O   UNL     1      90.152  75.862  74.109  1.00  0.00    -0.545 OA
ENDBRANCH   1   7
TORSDOF 1
ENDMDL
MODEL 7
REMARK VINA RESULT:    -3.900      2.992      4.171
REMARK INTER + INTRA:          -4.146
REMARK INTER:                  -4.124
REMARK INTRA:                  -0.022
REMARK UNBOUND:                -0.017
REMARK SMILES O=C([O-])c1cccnc1
REMARK SMILES IDX 4 1 5 2 9 3 6 4 8 5 7 6 2 7 1 8 3 9
REMARK H PARENT
REMARK Flexibility Score: inf
ROOT
ATOM      1  C   UNL     1      87.248  76.884  72.911  1.00  0.00     0.016 A 
ATOM      2  C   UNL     1      85.882  77.212  72.877  1.00  0.00     0.013 A 
ATOM      3  C   UNL     1      87.651  75.778  73.679  1.00  0.00     0.120 A 
ATOM      4  C   UNL     1      84.961  76.447  73.594  1.00  0.00     0.021 A 
ATOM      5  N   UNL     1      86.733  75.050  74.368  1.00  0.00    -0.264 NA
ATOM      6  C   UNL     1      85.409  75.358  74.342  1.00  0.00     0.111 A 
ENDROOT
BRANCH   1   7
ATOM      7  C   UNL     1      88.234  77.687  72.155  1.00  0.00     0.073 C 
ATOM      8  O   UNL     1      89.438  77.735  72.523  1.00  0.00    -0.545 OA
ATOM      9  O   UNL     1      87.844  78.399  71.026  1.00  0.00    -0.545 OA
ENDBRANCH   1   7
TORSDOF 1
ENDMDL
MODEL 8
REMARK VINA RESULT:    -3.876      2.901      3.751
REMARK INTER + INTRA:          -4.120
REMARK INTER:                  -4.098
REMARK INTRA:                  -0.022
REMARK UNBOUND:                -0.017
REMARK SMILES O=C([O-])c1cccnc1
REMARK SMILES IDX 4 1 5 2 9 3 6 4 8 5 7 6 2 7 1 8 3 9
REMARK H PARENT
REMARK Flexibility Score: inf
ROOT
ATOM      1  C   UNL     1      89.229  77.253  71.244  1.00  0.00     0.016 A 
ATOM      2  C   UNL     1      88.984  76.208  72.151  1.00  0.00     0.013 A 
ATOM      3  C   UNL     1      88.227  78.220  71.051  1.00  0.00     0.120 A 
ATOM      4  C   UNL     1      87.769  76.146  72.836  1.00  0.00     0.021 A 
ATOM      5  N   UNL     1      87.053  78.137  71.732  1.00  0.00    -0.264 NA
ATOM      6  C   UNL     1      86.805  77.130  72.612  1.00  0.00     0.111 A 
ENDROOT
BRANCH   1   7
ATOM      7  C   UNL     1      90.512  77.329  70.512  1.00  0.00     0.073 C 
ATOM      8  O   UNL     1      90.945  78.436  70.094  1.00  0.00    -0.545 OA
ATOM      9  O   UNL     1      91.256  76.179  70.275  1.00  0.00    -0.545 OA
ENDBRANCH   1   7
TORSDOF 1
ENDMDL
MODEL 9
REMARK VINA RESULT:    -3.834     11.533     11.863
REMARK INTER + INTRA:          -4.075
REMARK INTER:                  -4.055
REMARK INTRA:                  -0.021
REMARK UNBOUND:                -0.017
REMARK SMILES O=C([O-])c1cccnc1
REMARK SMILES IDX 4 1 5 2 9 3 6 4 8 5 7 6 2 7 1 8 3 9
REMARK H PARENT
REMARK Flexibility Score: inf
ROOT
ATOM      1  C   UNL     1      92.301  84.679  79.784  1.00  0.00     0.016 A 
ATOM      2  C   UNL     1      93.282  83.716  80.074  1.00  0.00     0.013 A 
ATOM      3  C   UNL     1      92.707  85.897  79.213  1.00  0.00     0.120 A 
ATOM      4  C   UNL     1      94.625  83.979  79.796  1.00  0.00     0.021 A 
ATOM      5  N   UNL     1      94.021  86.128  78.952  1.00  0.00    -0.264 NA
ATOM      6  C   UNL     1      94.979  85.204  79.229  1.00  0.00     0.111 A 
ENDROOT
BRANCH   1   7
ATOM      7  C   UNL     1      90.875  84.411  80.073  1.00  0.00     0.073 C 
ATOM      8  O   UNL     1      89.976  84.810  79.285  1.00  0.00    -0.545 OA
ATOM      9  O   UNL     1      90.508  83.716  81.220  1.00  0.00    -0.545 OA
ENDBRANCH   1   7
TORSDOF 1
ENDMDL
