MODEL 1
REMARK VINA RESULT:    -3.643      0.000      0.000
REMARK INTER + INTRA:          -6.116
REMARK INTER:                  -5.560
REMARK INTRA:                  -0.556
REMARK UNBOUND:                -0.556
REMARK SMILES CCCCCCCCCCC(=O)[O-]
REMARK SMILES IDX 7 1 8 2 9 3 10 4 11 5 12 6 13 7 6 8 5 9 4 10 3 11 2 12 1 13
REMARK H PARENT
REMARK Flexibility Score: inf
ROOT
ATOM      1  C   UNL     1      18.921 133.067  62.329  1.00  0.00     0.000 C 
ENDROOT
BRANCH   1   2
ATOM      2  C   UNL     1      19.652 133.181  60.980  1.00  0.00     0.000 C 
BRANCH   2   3
ATOM      3  C   UNL     1      18.870 134.000  59.944  1.00  0.00     0.006 C 
BRANCH   3   4
ATOM      4  C   UNL     1      17.567 133.295  59.557  1.00  0.00     0.053 C 
BRANCH   4   5
ATOM      5  C   UNL     1      17.791 132.385  58.390  1.00  0.00     0.041 C 
ATOM      6  O   UNL     1      16.998 131.432  58.169  1.00  0.00    -0.550 OA
ATOM      7  O   UNL     1      18.844 132.621  57.516  1.00  0.00    -0.550 OA
ENDBRANCH   4   5
ENDBRANCH   3   4
ENDBRANCH   2   3
ENDBRANCH   1   2
BRANCH   1   8
ATOM      8  C   UNL     1      19.437 131.917  63.218  1.00  0.00     0.000 C 
BRANCH   8   9
ATOM      9  C   UNL     1      18.879 131.992  64.648  1.00  0.00    -0.000 C 
BRANCH   9  10
ATOM     10  C   UNL     1      18.624 130.591  65.215  1.00  0.00    -0.000 C 
BRANCH  10  11
ATOM     11  C   UNL     1      18.158 129.628  64.114  1.00  0.00    -0.000 C 
BRANCH  11  12
ATOM     12  C   UNL     1      18.798 128.236  64.235  1.00  0.00    -0.003 C 
ATOM     13  C   UNL     1      20.190 128.169  63.605  1.00  0.00     0.004 C 
ENDBRANCH  11  12
ENDBRANCH  10  11
ENDBRANCH   9  10
ENDBRANCH   8   9
ENDBRANCH   1   8
TORSDOF 9
ENDMDL
MODEL 2
REMARK VINA RESULT:    -3.540      3.276      6.730
REMARK INTER + INTRA:          -5.959
REMARK INTER:                  -5.449
REMARK INTRA:                  -0.510
REMARK UNBOUND:                -0.556
REMARK SMILES CCCCCCCCCCC(=O)[O-]
REMARK SMILES IDX 7 1 8 2 9 3 10 4 11 5 12 6 13 7 6 8 5 9 4 10 3 11 2 12 1 13
REMARK H PARENT
REMARK Flexibility Score: inf
ROOT
ATOM      1  C   UNL     1      19.064 133.220  58.602  1.00  0.00     0.000 C 
ENDROOT
BRANCH   1   2
ATOM      2  C   UNL     1      18.403 133.348  59.984  1.00  0.00     0.000 C 
BRANCH   2   3
ATOM      3  C   UNL     1      19.406 133.219  61.140  1.00  0.00     0.006 C 
BRANCH   3   4
ATOM      4  C   UNL     1      18.707 132.760  62.423  1.00  0.00     0.053 C 
BRANCH   4   5
ATOM      5  C   UNL     1      19.644 131.955  63.269  1.00  0.00     0.041 C 
ATOM      6  O   UNL     1      20.763 131.601  62.813  1.00  0.00    -0.550 OA
ATOM      7  O   UNL     1      19.303 131.641  64.578  1.00  0.00    -0.550 OA
ENDBRANCH   4   5
ENDBRANCH   3   4
ENDBRANCH   2   3
ENDBRANCH   1   2
BRANCH   1   8
ATOM      8  C   UNL     1      18.246 132.379  57.600  1.00  0.00     0.000 C 
BRANCH   8   9
ATOM      9  C   UNL     1      17.007 131.743  58.249  1.00  0.00    -0.000 C 
BRANCH   9  10
ATOM     10  C   UNL     1      15.991 131.306  57.188  1.00  0.00    -0.000 C 
BRANCH  10  11
ATOM     11  C   UNL     1      16.690 130.614  56.009  1.00  0.00    -0.000 C 
BRANCH  11  12
ATOM     12  C   UNL     1      16.217 131.145  54.647  1.00  0.00    -0.003 C 
ATOM     13  C   UNL     1      14.980 132.036  54.757  1.00  0.00     0.004 C 
ENDBRANCH  11  12
ENDBRANCH  10  11
ENDBRANCH   9  10
ENDBRANCH   8   9
ENDBRANCH   1   8
TORSDOF 9
ENDMDL
MODEL 3
REMARK VINA RESULT:    -3.535      3.450      5.527
REMARK INTER + INTRA:          -5.951
REMARK INTER:                  -4.636
REMARK INTRA:                  -1.315
REMARK UNBOUND:                -0.556
REMARK SMILES CCCCCCCCCCC(=O)[O-]
REMARK SMILES IDX 7 1 8 2 9 3 10 4 11 5 12 6 13 7 6 8 5 9 4 10 3 11 2 12 1 13
REMARK H PARENT
REMARK Flexibility Score: inf
ROOT
ATOM      1  C   UNL     1      19.239 132.289  63.264  1.00  0.00     0.000 C 
ENDROOT
BRANCH   1   2
ATOM      2  C   UNL     1      18.871 132.360  64.756  1.00  0.00     0.000 C 
BRANCH   2   3
ATOM      3  C   UNL     1      18.613 130.979  65.374  1.00  0.00     0.006 C 
BRANCH   3   4
ATOM      4  C   UNL     1      18.859 129.866  64.352  1.00  0.00     0.053 C 
BRANCH   4   5
ATOM      5  C   UNL     1      17.731 128.883  64.368  1.00  0.00     0.041 C 
ATOM      6  O   UNL     1      17.820 127.806  63.722  1.00  0.00    -0.550 OA
ATOM      7  O   UNL     1      16.602 129.132  65.137  1.00  0.00    -0.550 OA
ENDBRANCH   4   5
ENDBRANCH   3   4
ENDBRANCH   2   3
ENDBRANCH   1   2
BRANCH   1   8
ATOM      8  C   UNL     1      18.532 133.354  62.400  1.00  0.00     0.000 C 
BRANCH   8   9
ATOM      9  C   UNL     1      17.409 132.753  61.540  1.00  0.00    -0.000 C 
BRANCH   9  10
ATOM     10  C   UNL     1      16.029 133.124  62.096  1.00  0.00    -0.000 C 
BRANCH  10  11
ATOM     11  C   UNL     1      15.403 131.941  62.850  1.00  0.00    -0.000 C 
BRANCH  11  12
ATOM     12  C   UNL     1      15.234 132.220  64.351  1.00  0.00    -0.003 C 
ATOM     13  C   UNL     1      15.374 133.703  64.697  1.00  0.00     0.004 C 
ENDBRANCH  11  12
ENDBRANCH  10  11
ENDBRANCH   9  10
ENDBRANCH   8   9
ENDBRANCH   1   8
TORSDOF 9
ENDMDL
MODEL 4
REMARK VINA RESULT:    -3.517      3.062      4.634
REMARK INTER + INTRA:          -5.924
REMARK INTER:                  -5.020
REMARK INTRA:                  -0.904
REMARK UNBOUND:                -0.556
REMARK SMILES CCCCCCCCCCC(=O)[O-]
REMARK SMILES IDX 7 1 8 2 9 3 10 4 11 5 12 6 13 7 6 8 5 9 4 10 3 11 2 12 1 13
REMARK H PARENT
REMARK Flexibility Score: inf
ROOT
ATOM      1  C   UNL     1      18.616 131.624  66.322  1.00  0.00     0.000 C 
ENDROOT
BRANCH   1   2
ATOM      2  C   UNL     1      18.341 130.525  65.282  1.00  0.00     0.000 C 
BRANCH   2   3
ATOM      3  C   UNL     1      18.236 131.069  63.851  1.00  0.00     0.006 C 
BRANCH   3   4
ATOM      4  C   UNL     1      19.517 131.805  63.448  1.00  0.00     0.053 C 
BRANCH   4   5
ATOM      5  C   UNL     1      19.292 132.607  62.205  1.00  0.00     0.041 C 
ATOM      6  O   UNL     1      20.272 132.992  61.514  1.00  0.00    -0.550 OA
ATOM      7  O   UNL     1      17.999 132.884  61.781  1.00  0.00    -0.550 OA
ENDBRANCH   4   5
ENDBRANCH   3   4
ENDBRANCH   2   3
ENDBRANCH   1   2
BRANCH   1   8
ATOM      8  C   UNL     1      18.156 131.256  67.748  1.00  0.00     0.000 C 
BRANCH   8   9
ATOM      9  C   UNL     1      16.736 131.761  68.050  1.00  0.00    -0.000 C 
BRANCH   9  10
ATOM     10  C   UNL     1      15.712 130.626  67.940  1.00  0.00    -0.000 C 
BRANCH  10  11
ATOM     11  C   UNL     1      14.696 130.907  66.823  1.00  0.00    -0.000 C 
BRANCH  11  12
ATOM     12  C   UNL     1      14.635 129.777  65.783  1.00  0.00    -0.003 C 
ATOM     13  C   UNL     1      15.359 128.511  66.241  1.00  0.00     0.004 C 
ENDBRANCH  11  12
ENDBRANCH  10  11
ENDBRANCH   9  10
ENDBRANCH   8   9
ENDBRANCH   1   8
TORSDOF 9
ENDMDL
MODEL 5
REMARK VINA RESULT:    -3.490      1.829      2.095
REMARK INTER + INTRA:          -5.883
REMARK INTER:                  -5.040
REMARK INTRA:                  -0.843
REMARK UNBOUND:                -0.556
REMARK SMILES CCCCCCCCCCC(=O)[O-]
REMARK SMILES IDX 7 1 8 2 9 3 10 4 11 5 12 6 13 7 6 8 5 9 4 10 3 11 2 12 1 13
REMARK H PARENT
REMARK Flexibility Score: inf
ROOT
ATOM      1  C   UNL     1      19.252 132.678  62.975  1.00  0.00     0.000 C 
ENDROOT
BRANCH   1   2
ATOM      2  C   UNL     1      18.441 133.035  61.718  1.00  0.00     0.000 C 
BRANCH   2   3
ATOM      3  C   UNL     1      16.937 133.169  61.994  1.00  0.00     0.006 C 
BRANCH   3   4
ATOM      4  C   UNL     1      16.202 131.863  61.678  1.00  0.00     0.053 C 
BRANCH   4   5
ATOM      5  C   UNL     1      15.498 131.964  60.362  1.00  0.00     0.041 C 
ATOM      6  O   UNL     1      14.607 131.129  60.054  1.00  0.00    -0.550 OA
ATOM      7  O   UNL     1      15.788 133.011  59.496  1.00  0.00    -0.550 OA
ENDBRANCH   4   5
ENDBRANCH   3   4
ENDBRANCH   2   3
ENDBRANCH   1   2
BRANCH   1   8
ATOM      8  C   UNL     1      18.537 133.035  64.295  1.00  0.00     0.000 C 
BRANCH   8   9
ATOM      9  C   UNL     1      18.289 131.800  65.175  1.00  0.00    -0.000 C 
BRANCH   9  10
ATOM     10  C   UNL     1      18.869 130.537  64.528  1.00  0.00    -0.000 C 
BRANCH  10  11
ATOM     11  C   UNL     1      17.753 129.549  64.154  1.00  0.00    -0.000 C 
BRANCH  11  12
ATOM     12  C   UNL     1      18.249 128.097  64.086  1.00  0.00    -0.003 C 
ATOM     13  C   UNL     1      19.708 127.990  63.643  1.00  0.00     0.004 C 
ENDBRANCH  11  12
ENDBRANCH  10  11
ENDBRANCH   9  10
ENDBRANCH   8   9
ENDBRANCH   1   8
TORSDOF 9
ENDMDL
MODEL 6
REMARK VINA RESULT:    -3.474      2.957      5.804
REMARK INTER + INTRA:          -5.858
REMARK INTER:                  -5.298
REMARK INTRA:                  -0.560
REMARK UNBOUND:                -0.556
REMARK SMILES CCCCCCCCCCC(=O)[O-]
REMARK SMILES IDX 7 1 8 2 9 3 10 4 11 5 12 6 13 7 6 8 5 9 4 10 3 11 2 12 1 13
REMARK H PARENT
REMARK Flexibility Score: inf
ROOT
ATOM      1  C   UNL     1      18.699 133.291  62.591  1.00  0.00     0.000 C 
ENDROOT
BRANCH   1   2
ATOM      2  C   UNL     1      19.115 132.303  63.693  1.00  0.00     0.000 C 
BRANCH   2   3
ATOM      3  C   UNL     1      18.312 130.995  63.658  1.00  0.00     0.006 C 
BRANCH   3   4
ATOM      4  C   UNL     1      18.824 130.008  64.711  1.00  0.00     0.053 C 
BRANCH   4   5
ATOM      5  C   UNL     1      18.995 128.647  64.113  1.00  0.00     0.041 C 
ATOM      6  O   UNL     1      18.003 127.883  63.981  1.00  0.00    -0.550 OA
ATOM      7  O   UNL     1      20.241 128.241  63.653  1.00  0.00    -0.550 OA
ENDBRANCH   4   5
ENDBRANCH   3   4
ENDBRANCH   2   3
ENDBRANCH   1   2
BRANCH   1   8
ATOM      8  C   UNL     1      19.651 133.304  61.377  1.00  0.00     0.000 C 
BRANCH   8   9
ATOM      9  C   UNL     1      18.900 133.142  60.047  1.00  0.00    -0.000 C 
BRANCH   9  10
ATOM     10  C   UNL     1      17.383 133.192  60.260  1.00  0.00    -0.000 C 
BRANCH  10  11
ATOM     11  C   UNL     1      16.665 132.191  59.344  1.00  0.00    -0.000 C 
BRANCH  11  12
ATOM     12  C   UNL     1      17.177 132.242  57.897  1.00  0.00    -0.003 C 
ATOM     13  C   UNL     1      16.815 130.990  57.097  1.00  0.00     0.004 C 
ENDBRANCH  11  12
ENDBRANCH  10  11
ENDBRANCH   9  10
ENDBRANCH   8   9
ENDBRANCH   1   8
TORSDOF 9
ENDMDL
MODEL 7
REMARK VINA RESULT:    -3.469      1.279      2.042
REMARK INTER + INTRA:          -5.850
REMARK INTER:                  -5.045
REMARK INTRA:                  -0.804
REMARK UNBOUND:                -0.556
REMARK SMILES CCCCCCCCCCC(=O)[O-]
REMARK SMILES IDX 7 1 8 2 9 3 10 4 11 5 12 6 13 7 6 8 5 9 4 10 3 11 2 12 1 13
REMARK H PARENT
REMARK Flexibility Score: inf
ROOT
ATOM      1  C   UNL     1      18.878 132.906  64.638  1.00  0.00     0.000 C 
ENDROOT
BRANCH   1   2
ATOM      2  C   UNL     1      19.115 132.199  63.294  1.00  0.00     0.000 C 
BRANCH   2   3
ATOM      3  C   UNL     1      18.548 132.979  62.099  1.00  0.00     0.006 C 
BRANCH   3   4
ATOM      4  C   UNL     1      19.624 133.214  61.036  1.00  0.00     0.053 C 
BRANCH   4   5
ATOM      5  C   UNL     1      19.025 133.168  59.666  1.00  0.00     0.041 C 
ATOM      6  O   UNL     1      17.790 133.362  59.508  1.00  0.00    -0.550 OA
ATOM      7  O   UNL     1      19.836 132.963  58.558  1.00  0.00    -0.550 OA
ENDBRANCH   4   5
ENDBRANCH   3   4
ENDBRANCH   2   3
ENDBRANCH   1   2
BRANCH   1   8
ATOM      8  C   UNL     1      18.490 131.946  65.783  1.00  0.00     0.000 C 
BRANCH   8   9
ATOM      9  C   UNL     1      17.070 131.384  65.614  1.00  0.00    -0.000 C 
BRANCH   9  10
ATOM     10  C   UNL     1      17.084 129.852  65.570  1.00  0.00    -0.000 C 
BRANCH  10  11
ATOM     11  C   UNL     1      17.111 129.343  64.122  1.00  0.00    -0.000 C 
BRANCH  11  12
ATOM     12  C   UNL     1      18.077 128.165  63.927  1.00  0.00    -0.003 C 
ATOM     13  C   UNL     1      19.520 128.517  64.288  1.00  0.00     0.004 C 
ENDBRANCH  11  12
ENDBRANCH  10  11
ENDBRANCH   9  10
ENDBRANCH   8   9
ENDBRANCH   1   8
TORSDOF 9
ENDMDL
MODEL 8
REMARK VINA RESULT:    -3.467      6.301      8.671
REMARK INTER + INTRA:          -5.847
REMARK INTER:                  -5.097
REMARK INTRA:                  -0.751
REMARK UNBOUND:                -0.556
REMARK SMILES CCCCCCCCCCC(=O)[O-]
REMARK SMILES IDX 7 1 8 2 9 3 10 4 11 5 12 6 13 7 6 8 5 9 4 10 3 11 2 12 1 13
REMARK H PARENT
REMARK Flexibility Score: inf
ROOT
ATOM      1  C   UNL     1      16.307 131.434  53.999  1.00  0.00     0.000 C 
ENDROOT
BRANCH   1   2
ATOM      2  C   UNL     1      17.075 132.517  53.223  1.00  0.00     0.000 C 
BRANCH   2   3
ATOM      3  C   UNL     1      17.024 132.311  51.702  1.00  0.00     0.006 C 
BRANCH   3   4
ATOM      4  C   UNL     1      17.782 133.424  50.973  1.00  0.00     0.053 C 
BRANCH   4   5
ATOM      5  C   UNL     1      18.044 133.035  49.552  1.00  0.00     0.041 C 
ATOM      6  O   UNL     1      18.481 131.885  49.281  1.00  0.00    -0.550 OA
ATOM      7  O   UNL     1      17.757 133.922  48.523  1.00  0.00    -0.550 OA
ENDBRANCH   4   5
ENDBRANCH   3   4
ENDBRANCH   2   3
ENDBRANCH   1   2
BRANCH   1   8
ATOM      8  C   UNL     1      15.025 131.953  54.682  1.00  0.00     0.000 C 
BRANCH   8   9
ATOM      9  C   UNL     1      15.174 132.041  56.209  1.00  0.00    -0.000 C 
BRANCH   9  10
ATOM     10  C   UNL     1      16.065 130.913  56.742  1.00  0.00    -0.000 C 
BRANCH  10  11
ATOM     11  C   UNL     1      17.115 131.457  57.722  1.00  0.00    -0.000 C 
BRANCH  11  12
ATOM     12  C   UNL     1      17.941 132.607  57.124  1.00  0.00    -0.003 C 
ATOM     13  C   UNL     1      19.204 132.120  56.414  1.00  0.00     0.004 C 
ENDBRANCH  11  12
ENDBRANCH  10  11
ENDBRANCH   9  10
ENDBRANCH   8   9
ENDBRANCH   1   8
TORSDOF 9
ENDMDL
MODEL 9
REMARK VINA RESULT:    -3.465      2.337      3.012
REMARK INTER + INTRA:          -5.844
REMARK INTER:                  -4.722
REMARK INTRA:                  -1.123
REMARK UNBOUND:                -0.556
REMARK SMILES CCCCCCCCCCC(=O)[O-]
REMARK SMILES IDX 7 1 8 2 9 3 10 4 11 5 12 6 13 7 6 8 5 9 4 10 3 11 2 12 1 13
REMARK H PARENT
REMARK Flexibility Score: inf
ROOT
ATOM      1  C   UNL     1      18.222 132.903  62.179  1.00  0.00     0.000 C 
ENDROOT
BRANCH   1   2
ATOM      2  C   UNL     1      16.763 132.899  62.665  1.00  0.00     0.000 C 
BRANCH   2   3
ATOM      3  C   UNL     1      15.961 131.701  62.139  1.00  0.00     0.006 C 
BRANCH   3   4
ATOM      4  C   UNL     1      15.976 131.660  60.608  1.00  0.00     0.053 C 
BRANCH   4   5
ATOM      5  C   UNL     1      14.585 131.781  60.068  1.00  0.00     0.041 C 
ATOM      6  O   UNL     1      14.196 131.018  59.144  1.00  0.00    -0.550 OA
ATOM      7  O   UNL     1      13.702 132.699  60.620  1.00  0.00    -0.550 OA
ENDBRANCH   4   5
ENDBRANCH   3   4
ENDBRANCH   2   3
ENDBRANCH   1   2
BRANCH   1   8
ATOM      8  C   UNL     1      19.217 132.311  63.199  1.00  0.00     0.000 C 
BRANCH   8   9
ATOM      9  C   UNL     1      18.736 132.485  64.648  1.00  0.00    -0.000 C 
BRANCH   9  10
ATOM     10  C   UNL     1      18.717 131.142  65.388  1.00  0.00    -0.000 C 
BRANCH  10  11
ATOM     11  C   UNL     1      18.821 129.969  64.402  1.00  0.00    -0.000 C 
BRANCH  11  12
ATOM     12  C   UNL     1      17.565 129.085  64.401  1.00  0.00    -0.003 C 
ATOM     13  C   UNL     1      16.431 129.667  65.246  1.00  0.00     0.004 C 
ENDBRANCH  11  12
ENDBRANCH  10  11
ENDBRANCH   9  10
ENDBRANCH   8   9
ENDBRANCH   1   8
TORSDOF 9
ENDMDL
