MODEL 1
REMARK VINA RESULT:    -3.583      0.000      0.000
REMARK INTER + INTRA:          -5.676
REMARK INTER:                  -5.049
REMARK INTRA:                  -0.627
REMARK UNBOUND:                -0.627
REMARK SMILES CCCCCCCCC(=O)[O-]
REMARK SMILES IDX 6 1 7 2 8 3 9 4 10 5 11 6 5 7 4 8 3 9 2 10 1 11
REMARK H PARENT
REMARK Flexibility Score: inf
ROOT
ATOM      1  C   UNL     1      36.353  24.213 223.823  1.00  0.00     0.000 C 
ENDROOT
BRANCH   1   2
ATOM      2  C   UNL     1      35.698  23.871 222.472  1.00  0.00     0.006 C 
BRANCH   2   3
ATOM      3  C   UNL     1      36.662  23.893 221.274  1.00  0.00     0.053 C 
BRANCH   3   4
ATOM      4  C   UNL     1      35.938  24.062 219.974  1.00  0.00     0.041 C 
ATOM      5  O   UNL     1      36.582  24.105 218.892  1.00  0.00    -0.550 OA
ATOM      6  O   UNL     1      34.551  24.138 219.952  1.00  0.00    -0.550 OA
ENDBRANCH   3   4
ENDBRANCH   2   3
ENDBRANCH   1   2
BRANCH   1   7
ATOM      7  C   UNL     1      36.840  25.670 223.896  1.00  0.00     0.000 C 
BRANCH   7   8
ATOM      8  C   UNL     1      38.342  25.774 224.207  1.00  0.00    -0.000 C 
BRANCH   8   9
ATOM      9  C   UNL     1      39.042  24.407 224.226  1.00  0.00    -0.000 C 
BRANCH   9  10
ATOM     10  C   UNL     1      40.147  24.343 223.166  1.00  0.00    -0.003 C 
ATOM     11  C   UNL     1      40.293  22.931 222.605  1.00  0.00     0.004 C 
ENDBRANCH   9  10
ENDBRANCH   8   9
ENDBRANCH   7   8
ENDBRANCH   1   7
TORSDOF 7
ENDMDL
MODEL 2
REMARK VINA RESULT:    -3.579      3.071      4.784
REMARK INTER + INTRA:          -5.670
REMARK INTER:                  -5.010
REMARK INTRA:                  -0.660
REMARK UNBOUND:                -0.627
REMARK SMILES CCCCCCCCC(=O)[O-]
REMARK SMILES IDX 6 1 7 2 8 3 9 4 10 5 11 6 5 7 4 8 3 9 2 10 1 11
REMARK H PARENT
REMARK Flexibility Score: inf
ROOT
ATOM      1  C   UNL     1      37.509  24.834 223.420  1.00  0.00     0.000 C 
ENDROOT
BRANCH   1   2
ATOM      2  C   UNL     1      39.003  24.658 223.748  1.00  0.00     0.006 C 
BRANCH   2   3
ATOM      3  C   UNL     1      39.804  23.897 222.679  1.00  0.00     0.053 C 
BRANCH   3   4
ATOM      4  C   UNL     1      40.527  22.717 223.251  1.00  0.00     0.041 C 
ATOM      5  O   UNL     1      40.067  22.122 224.261  1.00  0.00    -0.550 OA
ATOM      6  O   UNL     1      41.691  22.254 222.651  1.00  0.00    -0.550 OA
ENDBRANCH   3   4
ENDBRANCH   2   3
ENDBRANCH   1   2
BRANCH   1   7
ATOM      7  C   UNL     1      36.780  23.493 223.230  1.00  0.00     0.000 C 
BRANCH   7   8
ATOM      8  C   UNL     1      35.749  23.539 222.090  1.00  0.00    -0.000 C 
BRANCH   8   9
ATOM      9  C   UNL     1      36.090  24.590 221.022  1.00  0.00    -0.000 C 
BRANCH   9  10
ATOM     10  C   UNL     1      36.271  23.935 219.648  1.00  0.00    -0.003 C 
ATOM     11  C   UNL     1      37.577  23.147 219.579  1.00  0.00     0.004 C 
ENDBRANCH   9  10
ENDBRANCH   8   9
ENDBRANCH   7   8
ENDBRANCH   1   7
TORSDOF 7
ENDMDL
MODEL 3
REMARK VINA RESULT:    -3.503      3.622      5.507
REMARK INTER + INTRA:          -5.563
REMARK INTER:                  -5.193
REMARK INTRA:                  -0.371
REMARK UNBOUND:                -0.627
REMARK SMILES CCCCCCCCC(=O)[O-]
REMARK SMILES IDX 6 1 7 2 8 3 9 4 10 5 11 6 5 7 4 8 3 9 2 10 1 11
REMARK H PARENT
REMARK Flexibility Score: inf
ROOT
ATOM      1  C   UNL     1      39.302  23.527 222.246  1.00  0.00     0.000 C 
ENDROOT
BRANCH   1   2
ATOM      2  C   UNL     1      40.273  24.285 223.169  1.00  0.00     0.006 C 
BRANCH   2   3
ATOM      3  C   UNL     1      40.839  23.445 224.325  1.00  0.00     0.053 C 
BRANCH   3   4
ATOM      4  C   UNL     1      41.238  22.072 223.879  1.00  0.00     0.041 C 
ATOM      5  O   UNL     1      42.237  21.915 223.129  1.00  0.00    -0.550 OA
ATOM      6  O   UNL     1      40.526  20.962 224.319  1.00  0.00    -0.550 OA
ENDBRANCH   3   4
ENDBRANCH   2   3
ENDBRANCH   1   2
BRANCH   1   7
ATOM      7  C   UNL     1      37.844  23.597 222.730  1.00  0.00     0.000 C 
BRANCH   7   8
ATOM      8  C   UNL     1      36.835  23.553 221.571  1.00  0.00    -0.000 C 
BRANCH   8   9
ATOM      9  C   UNL     1      37.501  23.284 220.213  1.00  0.00    -0.000 C 
BRANCH   9  10
ATOM     10  C   UNL     1      36.612  23.769 219.061  1.00  0.00    -0.003 C 
ATOM     11  C   UNL     1      35.256  24.245 219.574  1.00  0.00     0.004 C 
ENDBRANCH   9  10
ENDBRANCH   8   9
ENDBRANCH   7   8
ENDBRANCH   1   7
TORSDOF 7
ENDMDL
MODEL 4
REMARK VINA RESULT:    -3.389      3.147      4.861
REMARK INTER + INTRA:          -5.402
REMARK INTER:                  -4.963
REMARK INTRA:                  -0.439
REMARK UNBOUND:                -0.627
REMARK SMILES CCCCCCCCC(=O)[O-]
REMARK SMILES IDX 6 1 7 2 8 3 9 4 10 5 11 6 5 7 4 8 3 9 2 10 1 11
REMARK H PARENT
REMARK Flexibility Score: inf
ROOT
ATOM      1  C   UNL     1      36.347  25.314 224.264  1.00  0.00     0.000 C 
ENDROOT
BRANCH   1   2
ATOM      2  C   UNL     1      37.674  26.020 223.930  1.00  0.00     0.006 C 
BRANCH   2   3
ATOM      3  C   UNL     1      38.676  26.076 225.095  1.00  0.00     0.053 C 
BRANCH   3   4
ATOM      4  C   UNL     1      39.728  25.017 224.982  1.00  0.00     0.041 C 
ATOM      5  O   UNL     1      40.530  24.818 225.933  1.00  0.00    -0.550 OA
ATOM      6  O   UNL     1      39.803  24.226 223.842  1.00  0.00    -0.550 OA
ENDBRANCH   3   4
ENDBRANCH   2   3
ENDBRANCH   1   2
BRANCH   1   7
ATOM      7  C   UNL     1      36.152  24.010 223.472  1.00  0.00     0.000 C 
BRANCH   7   8
ATOM      8  C   UNL     1      36.290  24.216 221.955  1.00  0.00    -0.000 C 
BRANCH   8   9
ATOM      9  C   UNL     1      37.454  23.417 221.350  1.00  0.00    -0.000 C 
BRANCH   9  10
ATOM     10  C   UNL     1      37.359  23.384 219.820  1.00  0.00    -0.003 C 
ATOM     11  C   UNL     1      36.286  24.344 219.313  1.00  0.00     0.004 C 
ENDBRANCH   9  10
ENDBRANCH   8   9
ENDBRANCH   7   8
ENDBRANCH   1   7
TORSDOF 7
ENDMDL
MODEL 5
REMARK VINA RESULT:    -3.371      3.109      4.783
REMARK INTER + INTRA:          -5.377
REMARK INTER:                  -4.864
REMARK INTRA:                  -0.513
REMARK UNBOUND:                -0.627
REMARK SMILES CCCCCCCCC(=O)[O-]
REMARK SMILES IDX 6 1 7 2 8 3 9 4 10 5 11 6 5 7 4 8 3 9 2 10 1 11
REMARK H PARENT
REMARK Flexibility Score: inf
ROOT
ATOM      1  C   UNL     1      37.452  22.965 223.887  1.00  0.00     0.000 C 
ENDROOT
BRANCH   1   2
ATOM      2  C   UNL     1      38.595  23.851 223.357  1.00  0.00     0.006 C 
BRANCH   2   3
ATOM      3  C   UNL     1      39.387  24.588 224.449  1.00  0.00     0.053 C 
BRANCH   3   4
ATOM      4  C   UNL     1      38.836  25.954 224.719  1.00  0.00     0.041 C 
ATOM      5  O   UNL     1      37.984  26.457 223.940  1.00  0.00    -0.550 OA
ATOM      6  O   UNL     1      39.237  26.657 225.848  1.00  0.00    -0.550 OA
ENDBRANCH   3   4
ENDBRANCH   2   3
ENDBRANCH   1   2
BRANCH   1   7
ATOM      7  C   UNL     1      36.257  22.896 222.921  1.00  0.00     0.000 C 
BRANCH   7   8
ATOM      8  C   UNL     1      36.085  24.186 222.102  1.00  0.00    -0.000 C 
BRANCH   8   9
ATOM      9  C   UNL     1      35.475  23.932 220.715  1.00  0.00    -0.000 C 
BRANCH   9  10
ATOM     10  C   UNL     1      36.469  24.295 219.606  1.00  0.00    -0.003 C 
ATOM     11  C   UNL     1      37.452  23.155 219.351  1.00  0.00     0.004 C 
ENDBRANCH   9  10
ENDBRANCH   8   9
ENDBRANCH   7   8
ENDBRANCH   1   7
TORSDOF 7
ENDMDL
MODEL 6
REMARK VINA RESULT:    -3.353      1.348      2.110
REMARK INTER + INTRA:          -5.352
REMARK INTER:                  -4.850
REMARK INTRA:                  -0.503
REMARK UNBOUND:                -0.627
REMARK SMILES CCCCCCCCC(=O)[O-]
REMARK SMILES IDX 6 1 7 2 8 3 9 4 10 5 11 6 5 7 4 8 3 9 2 10 1 11
REMARK H PARENT
REMARK Flexibility Score: inf
ROOT
ATOM      1  C   UNL     1      37.737  23.028 223.530  1.00  0.00     0.000 C 
ENDROOT
BRANCH   1   2
ATOM      2  C   UNL     1      36.391  23.189 222.801  1.00  0.00     0.006 C 
BRANCH   2   3
ATOM      3  C   UNL     1      36.317  24.405 221.863  1.00  0.00     0.053 C 
BRANCH   3   4
ATOM      4  C   UNL     1      36.336  24.004 220.420  1.00  0.00     0.041 C 
ATOM      5  O   UNL     1      35.288  24.088 219.727  1.00  0.00    -0.550 OA
ATOM      6  O   UNL     1      37.517  23.570 219.832  1.00  0.00    -0.550 OA
ENDBRANCH   3   4
ENDBRANCH   2   3
ENDBRANCH   1   2
BRANCH   1   7
ATOM      7  C   UNL     1      38.636  24.269 223.402  1.00  0.00     0.000 C 
BRANCH   7   8
ATOM      8  C   UNL     1      39.936  23.980 222.633  1.00  0.00    -0.000 C 
BRANCH   8   9
ATOM      9  C   UNL     1      41.102  23.602 223.560  1.00  0.00    -0.000 C 
BRANCH   9  10
ATOM     10  C   UNL     1      41.690  22.240 223.172  1.00  0.00    -0.003 C 
ATOM     11  C   UNL     1      41.152  21.130 224.071  1.00  0.00     0.004 C 
ENDBRANCH   9  10
ENDBRANCH   8   9
ENDBRANCH   7   8
ENDBRANCH   1   7
TORSDOF 7
ENDMDL
MODEL 7
REMARK VINA RESULT:    -3.160      2.142      3.432
REMARK INTER + INTRA:          -5.080
REMARK INTER:                  -4.686
REMARK INTRA:                  -0.395
REMARK UNBOUND:                -0.627
REMARK SMILES CCCCCCCCC(=O)[O-]
REMARK SMILES IDX 6 1 7 2 8 3 9 4 10 5 11 6 5 7 4 8 3 9 2 10 1 11
REMARK H PARENT
REMARK Flexibility Score: inf
ROOT
ATOM      1  C   UNL     1      38.949  24.285 223.463  1.00  0.00     0.000 C 
ENDROOT
BRANCH   1   2
ATOM      2  C   UNL     1      38.118  23.280 224.282  1.00  0.00     0.006 C 
BRANCH   2   3
ATOM      3  C   UNL     1      36.896  22.713 223.542  1.00  0.00     0.053 C 
BRANCH   3   4
ATOM      4  C   UNL     1      36.048  23.795 222.946  1.00  0.00     0.041 C 
ATOM      5  O   UNL     1      35.479  24.635 223.691  1.00  0.00    -0.550 OA
ATOM      6  O   UNL     1      35.913  23.895 221.567  1.00  0.00    -0.550 OA
ENDBRANCH   3   4
ENDBRANCH   2   3
ENDBRANCH   1   2
BRANCH   1   7
ATOM      7  C   UNL     1      40.157  23.632 222.769  1.00  0.00     0.000 C 
BRANCH   7   8
ATOM      8  C   UNL     1      41.395  23.569 223.678  1.00  0.00    -0.000 C 
BRANCH   8   9
ATOM      9  C   UNL     1      41.878  22.131 223.925  1.00  0.00    -0.000 C 
BRANCH   9  10
ATOM     10  C   UNL     1      42.191  21.424 222.601  1.00  0.00    -0.003 C 
ATOM     11  C   UNL     1      41.866  19.935 222.680  1.00  0.00     0.004 C 
ENDBRANCH   9  10
ENDBRANCH   8   9
ENDBRANCH   7   8
ENDBRANCH   1   7
TORSDOF 7
ENDMDL
MODEL 8
REMARK VINA RESULT:    -3.157      1.762      2.267
REMARK INTER + INTRA:          -5.075
REMARK INTER:                  -4.385
REMARK INTRA:                  -0.690
REMARK UNBOUND:                -0.627
REMARK SMILES CCCCCCCCC(=O)[O-]
REMARK SMILES IDX 6 1 7 2 8 3 9 4 10 5 11 6 5 7 4 8 3 9 2 10 1 11
REMARK H PARENT
REMARK Flexibility Score: inf
ROOT
ATOM      1  C   UNL     1      37.004  22.080 224.130  1.00  0.00     0.000 C 
ENDROOT
BRANCH   1   2
ATOM      2  C   UNL     1      36.763  23.501 223.590  1.00  0.00     0.006 C 
BRANCH   2   3
ATOM      3  C   UNL     1      37.056  23.670 222.090  1.00  0.00     0.053 C 
BRANCH   3   4
ATOM      4  C   UNL     1      35.827  24.032 221.315  1.00  0.00     0.041 C 
ATOM      5  O   UNL     1      35.926  24.461 220.135  1.00  0.00    -0.550 OA
ATOM      6  O   UNL     1      34.570  23.866 221.883  1.00  0.00    -0.550 OA
ENDBRANCH   3   4
ENDBRANCH   2   3
ENDBRANCH   1   2
BRANCH   1   7
ATOM      7  C   UNL     1      38.032  22.043 225.273  1.00  0.00     0.000 C 
BRANCH   7   8
ATOM      8  C   UNL     1      39.482  22.033 224.762  1.00  0.00    -0.000 C 
BRANCH   8   9
ATOM      9  C   UNL     1      40.352  23.113 225.421  1.00  0.00    -0.000 C 
BRANCH   9  10
ATOM     10  C   UNL     1      40.417  24.372 224.548  1.00  0.00    -0.003 C 
ATOM     11  C   UNL     1      40.611  24.014 223.077  1.00  0.00     0.004 C 
ENDBRANCH   9  10
ENDBRANCH   8   9
ENDBRANCH   7   8
ENDBRANCH   1   7
TORSDOF 7
ENDMDL
MODEL 9
REMARK VINA RESULT:    -3.055      3.649      5.455
REMARK INTER + INTRA:          -4.932
REMARK INTER:                  -4.447
REMARK INTRA:                  -0.485
REMARK UNBOUND:                -0.627
REMARK SMILES CCCCCCCCC(=O)[O-]
REMARK SMILES IDX 6 1 7 2 8 3 9 4 10 5 11 6 5 7 4 8 3 9 2 10 1 11
REMARK H PARENT
REMARK Flexibility Score: inf
ROOT
ATOM      1  C   UNL     1      40.129  23.963 222.971  1.00  0.00     0.000 C 
ENDROOT
BRANCH   1   2
ATOM      2  C   UNL     1      40.340  22.535 223.507  1.00  0.00     0.006 C 
BRANCH   2   3
ATOM      3  C   UNL     1      41.813  22.120 223.648  1.00  0.00     0.053 C 
BRANCH   3   4
ATOM      4  C   UNL     1      42.137  20.907 222.832  1.00  0.00     0.041 C 
ATOM      5  O   UNL     1      41.628  19.793 223.125  1.00  0.00    -0.550 OA
ATOM      6  O   UNL     1      42.972  21.013 221.727  1.00  0.00    -0.550 OA
ENDBRANCH   3   4
ENDBRANCH   2   3
ENDBRANCH   1   2
BRANCH   1   7
ATOM      7  C   UNL     1      39.085  24.753 223.777  1.00  0.00     0.000 C 
BRANCH   7   8
ATOM      8  C   UNL     1      38.021  23.844 224.414  1.00  0.00    -0.000 C 
BRANCH   8   9
ATOM      9  C   UNL     1      36.618  24.072 223.832  1.00  0.00    -0.000 C 
BRANCH   9  10
ATOM     10  C   UNL     1      36.384  23.187 222.603  1.00  0.00    -0.003 C 
ATOM     11  C   UNL     1      36.337  24.019 221.324  1.00  0.00     0.004 C 
ENDBRANCH   9  10
ENDBRANCH   8   9
ENDBRANCH   7   8
ENDBRANCH   1   7
TORSDOF 7
ENDMDL
