MODEL 1
REMARK VINA RESULT:    -3.593      0.000      0.000
REMARK INTER + INTRA:          -9.643
REMARK INTER:                  -6.954
REMARK INTRA:                  -2.689
REMARK UNBOUND:                -2.689
REMARK SMILES CCCCCCCCCCCCCCCCCC(=O)[O-]
REMARK SMILES IDX 10 1 11 2 12 3 13 4 14 5 15 6 16 7 17 8 18 9 19 10 20 11
REMARK SMILES IDX 9 12 8 13 7 14 6 15 5 16 4 17 3 18 2 19 1 20
REMARK H PARENT
REMARK Flexibility Score: inf
ROOT
ATOM      1  C   UNL     1      -6.892  -5.404   2.949  1.00  0.00     0.000 C 
ENDROOT
BRANCH   1   2
ATOM      2  C   UNL     1      -6.806  -5.884   4.406  1.00  0.00     0.000 C 
BRANCH   2   3
ATOM      3  C   UNL     1      -5.733  -5.136   5.215  1.00  0.00     0.000 C 
BRANCH   3   4
ATOM      4  C   UNL     1      -6.303  -3.927   5.975  1.00  0.00     0.000 C 
BRANCH   4   5
ATOM      5  C   UNL     1      -5.976  -2.584   5.297  1.00  0.00     0.000 C 
BRANCH   5   6
ATOM      6  C   UNL     1      -7.194  -1.699   4.974  1.00  0.00     0.000 C 
BRANCH   6   7
ATOM      7  C   UNL     1      -7.498  -1.624   3.469  1.00  0.00     0.006 C 
BRANCH   7   8
ATOM      8  C   UNL     1      -6.238  -1.812   2.612  1.00  0.00     0.053 C 
BRANCH   8   9
ATOM      9  C   UNL     1      -6.576  -2.090   1.179  1.00  0.00     0.041 C 
ATOM     10  O   UNL     1      -5.661  -2.303   0.341  1.00  0.00    -0.550 OA
ATOM     11  O   UNL     1      -7.905  -2.138   0.775  1.00  0.00    -0.550 OA
ENDBRANCH   8   9
ENDBRANCH   7   8
ENDBRANCH   6   7
ENDBRANCH   5   6
ENDBRANCH   4   5
ENDBRANCH   3   4
ENDBRANCH   2   3
ENDBRANCH   1   2
BRANCH   1  12
ATOM     12  C   UNL     1      -8.351  -5.275   2.499  1.00  0.00     0.000 C 
BRANCH  12  13
ATOM     13  C   UNL     1      -8.493  -5.581   0.999  1.00  0.00    -0.000 C 
BRANCH  13  14
ATOM     14  C   UNL     1      -7.160  -5.983   0.348  1.00  0.00    -0.000 C 
BRANCH  14  15
ATOM     15  C   UNL     1      -7.339  -7.017  -0.777  1.00  0.00    -0.000 C 
BRANCH  15  16
ATOM     16  C   UNL     1      -7.247  -8.464  -0.268  1.00  0.00    -0.000 C 
BRANCH  16  17
ATOM     17  C   UNL     1      -6.444  -8.584   1.040  1.00  0.00    -0.000 C 
BRANCH  17  18
ATOM     18  C   UNL     1      -7.303  -9.060   2.225  1.00  0.00    -0.000 C 
BRANCH  18  19
ATOM     19  C   UNL     1      -6.503  -9.485   3.469  1.00  0.00    -0.003 C 
ATOM     20  C   UNL     1      -5.066  -8.965   3.463  1.00  0.00     0.004 C 
ENDBRANCH  18  19
ENDBRANCH  17  18
ENDBRANCH  16  17
ENDBRANCH  15  16
ENDBRANCH  14  15
ENDBRANCH  13  14
ENDBRANCH  12  13
ENDBRANCH   1  12
TORSDOF 16
ENDMDL
MODEL 2
REMARK VINA RESULT:    -3.526     11.418     13.153
REMARK INTER + INTRA:          -9.513
REMARK INTER:                  -7.658
REMARK INTRA:                  -1.855
REMARK UNBOUND:                -2.689
REMARK SMILES CCCCCCCCCCCCCCCCCC(=O)[O-]
REMARK SMILES IDX 10 1 11 2 12 3 13 4 14 5 15 6 16 7 17 8 18 9 19 10 20 11
REMARK SMILES IDX 9 12 8 13 7 14 6 15 5 16 4 17 3 18 2 19 1 20
REMARK H PARENT
REMARK Flexibility Score: inf
ROOT
ATOM      1  C   UNL     1       2.563  -3.091  -6.313  1.00  0.00     0.000 C 
ENDROOT
BRANCH   1   2
ATOM      2  C   UNL     1       1.296  -2.272  -6.023  1.00  0.00     0.000 C 
BRANCH   2   3
ATOM      3  C   UNL     1       1.088  -1.126  -7.026  1.00  0.00     0.000 C 
BRANCH   3   4
ATOM      4  C   UNL     1       1.658  -1.449  -8.418  1.00  0.00     0.000 C 
BRANCH   4   5
ATOM      5  C   UNL     1       0.604  -1.348  -9.536  1.00  0.00     0.000 C 
BRANCH   5   6
ATOM      6  C   UNL     1      -0.625  -2.258  -9.362  1.00  0.00     0.000 C 
BRANCH   6   7
ATOM      7  C   UNL     1      -1.948  -1.552  -9.702  1.00  0.00     0.006 C 
BRANCH   7   8
ATOM      8  C   UNL     1      -2.088  -0.205  -8.980  1.00  0.00     0.053 C 
BRANCH   8   9
ATOM      9  C   UNL     1      -3.512   0.260  -8.939  1.00  0.00     0.041 C 
ATOM     10  O   UNL     1      -4.446  -0.532  -9.232  1.00  0.00    -0.550 OA
ATOM     11  O   UNL     1      -3.808   1.561  -8.552  1.00  0.00    -0.550 OA
ENDBRANCH   8   9
ENDBRANCH   7   8
ENDBRANCH   6   7
ENDBRANCH   5   6
ENDBRANCH   4   5
ENDBRANCH   3   4
ENDBRANCH   2   3
ENDBRANCH   1   2
BRANCH   1  12
ATOM     12  C   UNL     1       2.254  -4.593  -6.334  1.00  0.00     0.000 C 
BRANCH  12  13
ATOM     13  C   UNL     1       1.096  -4.902  -7.297  1.00  0.00    -0.000 C 
BRANCH  13  14
ATOM     14  C   UNL     1       1.579  -5.216  -8.722  1.00  0.00    -0.000 C 
BRANCH  14  15
ATOM     15  C   UNL     1       0.453  -5.751  -9.624  1.00  0.00    -0.000 C 
BRANCH  15  16
ATOM     16  C   UNL     1       0.435  -7.286  -9.695  1.00  0.00    -0.000 C 
BRANCH  16  17
ATOM     17  C   UNL     1      -0.990  -7.862  -9.761  1.00  0.00    -0.000 C 
BRANCH  17  18
ATOM     18  C   UNL     1      -1.936  -7.235  -8.722  1.00  0.00    -0.000 C 
BRANCH  18  19
ATOM     19  C   UNL     1      -3.434  -7.467  -8.992  1.00  0.00    -0.003 C 
ATOM     20  C   UNL     1      -4.114  -8.304  -7.908  1.00  0.00     0.004 C 
ENDBRANCH  18  19
ENDBRANCH  17  18
ENDBRANCH  16  17
ENDBRANCH  15  16
ENDBRANCH  14  15
ENDBRANCH  13  14
ENDBRANCH  12  13
ENDBRANCH   1  12
TORSDOF 16
ENDMDL
MODEL 3
REMARK VINA RESULT:    -3.505     10.683     12.871
REMARK INTER + INTRA:          -9.472
REMARK INTER:                  -8.097
REMARK INTRA:                  -1.375
REMARK UNBOUND:                -2.689
REMARK SMILES CCCCCCCCCCCCCCCCCC(=O)[O-]
REMARK SMILES IDX 10 1 11 2 12 3 13 4 14 5 15 6 16 7 17 8 18 9 19 10 20 11
REMARK SMILES IDX 9 12 8 13 7 14 6 15 5 16 4 17 3 18 2 19 1 20
REMARK H PARENT
REMARK Flexibility Score: inf
ROOT
ATOM      1  C   UNL     1      -0.298  -5.975  -9.152  1.00  0.00     0.000 C 
ENDROOT
BRANCH   1   2
ATOM      2  C   UNL     1       0.904  -6.609  -9.868  1.00  0.00     0.000 C 
BRANCH   2   3
ATOM      3  C   UNL     1       2.221  -5.866  -9.587  1.00  0.00     0.000 C 
BRANCH   3   4
ATOM      4  C   UNL     1       2.020  -4.621  -8.705  1.00  0.00     0.000 C 
BRANCH   4   5
ATOM      5  C   UNL     1       2.880  -4.646  -7.429  1.00  0.00     0.000 C 
BRANCH   5   6
ATOM      6  C   UNL     1       2.092  -4.634  -6.106  1.00  0.00     0.000 C 
BRANCH   6   7
ATOM      7  C   UNL     1       1.078  -3.480  -6.023  1.00  0.00     0.006 C 
BRANCH   7   8
ATOM      8  C   UNL     1       1.761  -2.106  -6.048  1.00  0.00     0.053 C 
BRANCH   8   9
ATOM      9  C   UNL     1       1.304  -1.279  -7.211  1.00  0.00     0.041 C 
ATOM     10  O   UNL     1       2.078  -1.064  -8.180  1.00  0.00    -0.550 OA
ATOM     11  O   UNL     1       0.013  -0.767  -7.235  1.00  0.00    -0.550 OA
ENDBRANCH   8   9
ENDBRANCH   7   8
ENDBRANCH   6   7
ENDBRANCH   5   6
ENDBRANCH   4   5
ENDBRANCH   3   4
ENDBRANCH   2   3
ENDBRANCH   1   2
BRANCH   1  12
ATOM     12  C   UNL     1      -1.285  -7.049  -8.681  1.00  0.00     0.000 C 
BRANCH  12  13
ATOM     13  C   UNL     1      -1.132  -8.337  -9.506  1.00  0.00    -0.000 C 
BRANCH  13  14
ATOM     14  C   UNL     1      -2.475  -8.865 -10.036  1.00  0.00    -0.000 C 
BRANCH  14  15
ATOM     15  C   UNL     1      -3.071  -9.968  -9.144  1.00  0.00    -0.000 C 
BRANCH  15  16
ATOM     16  C   UNL     1      -4.488  -9.629  -8.656  1.00  0.00    -0.000 C 
BRANCH  16  17
ATOM     17  C   UNL     1      -4.504  -8.490  -7.621  1.00  0.00    -0.000 C 
BRANCH  17  18
ATOM     18  C   UNL     1      -5.090  -7.183  -8.182  1.00  0.00    -0.000 C 
BRANCH  18  19
ATOM     19  C   UNL     1      -6.375  -6.702  -7.484  1.00  0.00    -0.003 C 
ATOM     20  C   UNL     1      -6.593  -5.193  -7.605  1.00  0.00     0.004 C 
ENDBRANCH  18  19
ENDBRANCH  17  18
ENDBRANCH  16  17
ENDBRANCH  15  16
ENDBRANCH  14  15
ENDBRANCH  13  14
ENDBRANCH  12  13
ENDBRANCH   1  12
TORSDOF 16
ENDMDL
MODEL 4
REMARK VINA RESULT:    -3.453      1.987      5.779
REMARK INTER + INTRA:          -9.372
REMARK INTER:                  -6.985
REMARK INTRA:                  -2.387
REMARK UNBOUND:                -2.689
REMARK SMILES CCCCCCCCCCCCCCCCCC(=O)[O-]
REMARK SMILES IDX 10 1 11 2 12 3 13 4 14 5 15 6 16 7 17 8 18 9 19 10 20 11
REMARK SMILES IDX 9 12 8 13 7 14 6 15 5 16 4 17 3 18 2 19 1 20
REMARK H PARENT
REMARK Flexibility Score: inf
ROOT
ATOM      1  C   UNL     1      -5.611  -6.583   4.858  1.00  0.00     0.000 C 
ENDROOT
BRANCH   1   2
ATOM      2  C   UNL     1      -5.793  -8.108   4.845  1.00  0.00     0.000 C 
BRANCH   2   3
ATOM      3  C   UNL     1      -5.018  -8.788   3.705  1.00  0.00     0.000 C 
BRANCH   3   4
ATOM      4  C   UNL     1      -5.787  -8.765   2.372  1.00  0.00     0.000 C 
BRANCH   4   5
ATOM      5  C   UNL     1      -7.213  -9.333   2.494  1.00  0.00     0.000 C 
BRANCH   5   6
ATOM      6  C   UNL     1      -7.951  -9.545   1.160  1.00  0.00     0.000 C 
BRANCH   6   7
ATOM      7  C   UNL     1      -7.215  -8.921  -0.038  1.00  0.00     0.006 C 
BRANCH   7   8
ATOM      8  C   UNL     1      -8.182  -8.464  -1.138  1.00  0.00     0.053 C 
BRANCH   8   9
ATOM      9  C   UNL     1      -7.935  -7.041  -1.540  1.00  0.00     0.041 C 
ATOM     10  O   UNL     1      -6.855  -6.474  -1.231  1.00  0.00    -0.550 OA
ATOM     11  O   UNL     1      -8.890  -6.352  -2.277  1.00  0.00    -0.550 OA
ENDBRANCH   8   9
ENDBRANCH   7   8
ENDBRANCH   6   7
ENDBRANCH   5   6
ENDBRANCH   4   5
ENDBRANCH   3   4
ENDBRANCH   2   3
ENDBRANCH   1   2
BRANCH   1  12
ATOM     12  C   UNL     1      -6.887  -5.882   5.338  1.00  0.00     0.000 C 
BRANCH  12  13
ATOM     13  C   UNL     1      -8.140  -6.579   4.782  1.00  0.00    -0.000 C 
BRANCH  13  14
ATOM     14  C   UNL     1      -8.848  -5.750   3.698  1.00  0.00    -0.000 C 
BRANCH  14  15
ATOM     15  C   UNL     1      -8.295  -6.025   2.289  1.00  0.00    -0.000 C 
BRANCH  15  16
ATOM     16  C   UNL     1      -7.324  -4.933   1.814  1.00  0.00    -0.000 C 
BRANCH  16  17
ATOM     17  C   UNL     1      -7.693  -3.537   2.345  1.00  0.00    -0.000 C 
BRANCH  17  18
ATOM     18  C   UNL     1      -6.519  -2.840   3.055  1.00  0.00    -0.000 C 
BRANCH  18  19
ATOM     19  C   UNL     1      -5.844  -1.723   2.238  1.00  0.00    -0.003 C 
ATOM     20  C   UNL     1      -6.232  -1.746   0.759  1.00  0.00     0.004 C 
ENDBRANCH  18  19
ENDBRANCH  17  18
ENDBRANCH  16  17
ENDBRANCH  15  16
ENDBRANCH  14  15
ENDBRANCH  13  14
ENDBRANCH  12  13
ENDBRANCH   1  12
TORSDOF 16
ENDMDL
MODEL 5
REMARK VINA RESULT:    -3.447     10.231     13.429
REMARK INTER + INTRA:          -9.360
REMARK INTER:                  -7.821
REMARK INTRA:                  -1.539
REMARK UNBOUND:                -2.689
REMARK SMILES CCCCCCCCCCCCCCCCCC(=O)[O-]
REMARK SMILES IDX 10 1 11 2 12 3 13 4 14 5 15 6 16 7 17 8 18 9 19 10 20 11
REMARK SMILES IDX 9 12 8 13 7 14 6 15 5 16 4 17 3 18 2 19 1 20
REMARK H PARENT
REMARK Flexibility Score: inf
ROOT
ATOM      1  C   UNL     1       0.385  -5.530  -9.282  1.00  0.00     0.000 C 
ENDROOT
BRANCH   1   2
ATOM      2  C   UNL     1      -0.739  -6.386  -8.679  1.00  0.00     0.000 C 
BRANCH   2   3
ATOM      3  C   UNL     1      -0.831  -7.781  -9.320  1.00  0.00     0.000 C 
BRANCH   3   4
ATOM      4  C   UNL     1      -2.229  -8.406  -9.175  1.00  0.00     0.000 C 
BRANCH   4   5
ATOM      5  C   UNL     1      -3.263  -7.431  -8.583  1.00  0.00     0.000 C 
BRANCH   5   6
ATOM      6  C   UNL     1      -4.436  -8.092  -7.837  1.00  0.00     0.000 C 
BRANCH   6   7
ATOM      7  C   UNL     1      -5.810  -7.657  -8.374  1.00  0.00     0.006 C 
BRANCH   7   8
ATOM      8  C   UNL     1      -6.680  -7.014  -7.285  1.00  0.00     0.053 C 
BRANCH   8   9
ATOM      9  C   UNL     1      -6.606  -5.518  -7.324  1.00  0.00     0.041 C 
ATOM     10  O   UNL     1      -7.018  -4.837  -6.349  1.00  0.00    -0.550 OA
ATOM     11  O   UNL     1      -6.057  -4.879  -8.428  1.00  0.00    -0.550 OA
ENDBRANCH   8   9
ENDBRANCH   7   8
ENDBRANCH   6   7
ENDBRANCH   5   6
ENDBRANCH   4   5
ENDBRANCH   3   4
ENDBRANCH   2   3
ENDBRANCH   1   2
BRANCH   1  12
ATOM     12  C   UNL     1       1.442  -5.187  -8.225  1.00  0.00     0.000 C 
BRANCH  12  13
ATOM     13  C   UNL     1       0.780  -4.739  -6.912  1.00  0.00    -0.000 C 
BRANCH  13  14
ATOM     14  C   UNL     1       1.767  -4.051  -5.955  1.00  0.00    -0.000 C 
BRANCH  14  15
ATOM     15  C   UNL     1       1.661  -2.517  -5.998  1.00  0.00    -0.000 C 
BRANCH  15  16
ATOM     16  C   UNL     1       2.487  -1.902  -7.139  1.00  0.00    -0.000 C 
BRANCH  16  17
ATOM     17  C   UNL     1       1.612  -1.246  -8.221  1.00  0.00    -0.000 C 
BRANCH  17  18
ATOM     18  C   UNL     1       0.250  -0.773  -7.681  1.00  0.00    -0.000 C 
BRANCH  18  19
ATOM     19  C   UNL     1      -0.912  -0.877  -8.684  1.00  0.00    -0.003 C 
ATOM     20  C   UNL     1      -0.814  -2.107  -9.587  1.00  0.00     0.004 C 
ENDBRANCH  18  19
ENDBRANCH  17  18
ENDBRANCH  16  17
ENDBRANCH  15  16
ENDBRANCH  14  15
ENDBRANCH  13  14
ENDBRANCH  12  13
ENDBRANCH   1  12
TORSDOF 16
ENDMDL
MODEL 6
REMARK VINA RESULT:    -3.420      0.941      2.840
REMARK INTER + INTRA:          -9.308
REMARK INTER:                  -7.143
REMARK INTRA:                  -2.166
REMARK UNBOUND:                -2.689
REMARK SMILES CCCCCCCCCCCCCCCCCC(=O)[O-]
REMARK SMILES IDX 10 1 11 2 12 3 13 4 14 5 15 6 16 7 17 8 18 9 19 10 20 11
REMARK SMILES IDX 9 12 8 13 7 14 6 15 5 16 4 17 3 18 2 19 1 20
REMARK H PARENT
REMARK Flexibility Score: inf
ROOT
ATOM      1  C   UNL     1      -6.102  -7.707   4.622  1.00  0.00     0.000 C 
ENDROOT
BRANCH   1   2
ATOM      2  C   UNL     1      -5.548  -6.344   5.063  1.00  0.00     0.000 C 
BRANCH   2   3
ATOM      3  C   UNL     1      -6.381  -5.699   6.183  1.00  0.00     0.000 C 
BRANCH   3   4
ATOM      4  C   UNL     1      -7.210  -4.501   5.688  1.00  0.00     0.000 C 
BRANCH   4   5
ATOM      5  C   UNL     1      -6.613  -3.145   6.106  1.00  0.00     0.000 C 
BRANCH   5   6
ATOM      6  C   UNL     1      -6.051  -2.292   4.955  1.00  0.00     0.000 C 
BRANCH   6   7
ATOM      7  C   UNL     1      -6.823  -2.478   3.638  1.00  0.00     0.006 C 
BRANCH   7   8
ATOM      8  C   UNL     1      -6.178  -1.714   2.474  1.00  0.00     0.053 C 
BRANCH   8   9
ATOM      9  C   UNL     1      -6.680  -2.194   1.147  1.00  0.00     0.041 C 
ATOM     10  O   UNL     1      -7.896  -2.069   0.846  1.00  0.00    -0.550 OA
ATOM     11  O   UNL     1      -5.799  -2.756   0.232  1.00  0.00    -0.550 OA
ENDBRANCH   8   9
ENDBRANCH   7   8
ENDBRANCH   6   7
ENDBRANCH   5   6
ENDBRANCH   4   5
ENDBRANCH   3   4
ENDBRANCH   2   3
ENDBRANCH   1   2
BRANCH   1  12
ATOM     12  C   UNL     1      -5.085  -8.459   3.756  1.00  0.00     0.000 C 
BRANCH  12  13
ATOM     13  C   UNL     1      -5.749  -9.014   2.486  1.00  0.00    -0.000 C 
BRANCH  13  14
ATOM     14  C   UNL     1      -7.241  -9.328   2.686  1.00  0.00    -0.000 C 
BRANCH  14  15
ATOM     15  C   UNL     1      -8.014  -9.395   1.357  1.00  0.00    -0.000 C 
BRANCH  15  16
ATOM     16  C   UNL     1      -7.113  -9.142   0.138  1.00  0.00    -0.000 C 
BRANCH  16  17
ATOM     17  C   UNL     1      -7.643  -8.018  -0.770  1.00  0.00    -0.000 C 
BRANCH  17  18
ATOM     18  C   UNL     1      -7.038  -6.644  -0.433  1.00  0.00    -0.000 C 
BRANCH  18  19
ATOM     19  C   UNL     1      -7.896  -5.775   0.503  1.00  0.00    -0.003 C 
ATOM     20  C   UNL     1      -7.324  -5.674   1.917  1.00  0.00     0.004 C 
ENDBRANCH  18  19
ENDBRANCH  17  18
ENDBRANCH  16  17
ENDBRANCH  15  16
ENDBRANCH  14  15
ENDBRANCH  13  14
ENDBRANCH  12  13
ENDBRANCH   1  12
TORSDOF 16
ENDMDL
MODEL 7
REMARK VINA RESULT:    -3.394     12.225     14.197
REMARK INTER + INTRA:          -9.257
REMARK INTER:                  -7.817
REMARK INTRA:                  -1.440
REMARK UNBOUND:                -2.689
REMARK SMILES CCCCCCCCCCCCCCCCCC(=O)[O-]
REMARK SMILES IDX 10 1 11 2 12 3 13 4 14 5 15 6 16 7 17 8 18 9 19 10 20 11
REMARK SMILES IDX 9 12 8 13 7 14 6 15 5 16 4 17 3 18 2 19 1 20
REMARK H PARENT
REMARK Flexibility Score: inf
ROOT
ATOM      1  C   UNL     1       1.883  -4.513  -6.119  1.00  0.00     0.000 C 
ENDROOT
BRANCH   1   2
ATOM      2  C   UNL     1       1.129  -3.189  -5.923  1.00  0.00     0.000 C 
BRANCH   2   3
ATOM      3  C   UNL     1       1.929  -1.973  -6.419  1.00  0.00     0.000 C 
BRANCH   3   4
ATOM      4  C   UNL     1       1.107  -1.065  -7.350  1.00  0.00     0.000 C 
BRANCH   4   5
ATOM      5  C   UNL     1       1.258  -1.436  -8.836  1.00  0.00     0.000 C 
BRANCH   5   6
ATOM      6  C   UNL     1       2.659  -1.919  -9.253  1.00  0.00     0.000 C 
BRANCH   6   7
ATOM      7  C   UNL     1       3.646  -0.764  -9.488  1.00  0.00     0.006 C 
BRANCH   7   8
ATOM      8  C   UNL     1       5.107  -1.210  -9.339  1.00  0.00     0.053 C 
BRANCH   8   9
ATOM      9  C   UNL     1       6.051  -0.047  -9.375  1.00  0.00     0.041 C 
ATOM     10  O   UNL     1       5.761   0.985 -10.036  1.00  0.00    -0.550 OA
ATOM     11  O   UNL     1       7.239  -0.093  -8.656  1.00  0.00    -0.550 OA
ENDBRANCH   8   9
ENDBRANCH   7   8
ENDBRANCH   6   7
ENDBRANCH   5   6
ENDBRANCH   4   5
ENDBRANCH   3   4
ENDBRANCH   2   3
ENDBRANCH   1   2
BRANCH   1  12
ATOM     12  C   UNL     1       1.970  -4.881  -7.605  1.00  0.00     0.000 C 
BRANCH  12  13
ATOM     13  C   UNL     1       0.685  -5.583  -8.073  1.00  0.00    -0.000 C 
BRANCH  13  14
ATOM     14  C   UNL     1      -0.029  -4.821  -9.201  1.00  0.00    -0.000 C 
BRANCH  14  15
ATOM     15  C   UNL     1      -1.091  -5.676  -9.914  1.00  0.00    -0.000 C 
BRANCH  15  16
ATOM     16  C   UNL     1      -1.575  -6.852  -9.050  1.00  0.00    -0.000 C 
BRANCH  16  17
ATOM     17  C   UNL     1      -3.028  -7.256  -9.357  1.00  0.00    -0.000 C 
BRANCH  17  18
ATOM     18  C   UNL     1      -3.674  -8.068  -8.220  1.00  0.00    -0.000 C 
BRANCH  18  19
ATOM     19  C   UNL     1      -5.130  -7.683  -7.902  1.00  0.00    -0.003 C 
ATOM     20  C   UNL     1      -5.551  -6.357  -8.535  1.00  0.00     0.004 C 
ENDBRANCH  18  19
ENDBRANCH  17  18
ENDBRANCH  16  17
ENDBRANCH  15  16
ENDBRANCH  14  15
ENDBRANCH  13  14
ENDBRANCH  12  13
ENDBRANCH   1  12
TORSDOF 16
ENDMDL
MODEL 8
REMARK VINA RESULT:    -3.394      1.897      5.738
REMARK INTER + INTRA:          -9.256
REMARK INTER:                  -6.679
REMARK INTRA:                  -2.578
REMARK UNBOUND:                -2.689
REMARK SMILES CCCCCCCCCCCCCCCCCC(=O)[O-]
REMARK SMILES IDX 10 1 11 2 12 3 13 4 14 5 15 6 16 7 17 8 18 9 19 10 20 11
REMARK SMILES IDX 9 12 8 13 7 14 6 15 5 16 4 17 3 18 2 19 1 20
REMARK H PARENT
REMARK Flexibility Score: inf
ROOT
ATOM      1  C   UNL     1      -7.265  -6.793   4.557  1.00  0.00     0.000 C 
ENDROOT
BRANCH   1   2
ATOM      2  C   UNL     1      -5.777  -6.836   4.182  1.00  0.00     0.000 C 
BRANCH   2   3
ATOM      3  C   UNL     1      -5.198  -8.260   4.215  1.00  0.00     0.000 C 
BRANCH   3   4
ATOM      4  C   UNL     1      -6.058  -9.265   3.430  1.00  0.00     0.000 C 
BRANCH   4   5
ATOM      5  C   UNL     1      -6.069  -8.990   1.915  1.00  0.00     0.000 C 
BRANCH   5   6
ATOM      6  C   UNL     1      -7.417  -9.238   1.213  1.00  0.00     0.000 C 
BRANCH   6   7
ATOM      7  C   UNL     1      -7.279  -9.394  -0.311  1.00  0.00     0.006 C 
BRANCH   7   8
ATOM      8  C   UNL     1      -8.385  -8.651  -1.072  1.00  0.00     0.053 C 
BRANCH   8   9
ATOM      9  C   UNL     1      -8.051  -7.203  -1.266  1.00  0.00     0.041 C 
ATOM     10  O   UNL     1      -8.961  -6.369  -1.513  1.00  0.00    -0.550 OA
ATOM     11  O   UNL     1      -6.735  -6.772  -1.147  1.00  0.00    -0.550 OA
ENDBRANCH   8   9
ENDBRANCH   7   8
ENDBRANCH   6   7
ENDBRANCH   5   6
ENDBRANCH   4   5
ENDBRANCH   3   4
ENDBRANCH   2   3
ENDBRANCH   1   2
BRANCH   1  12
ATOM     12  C   UNL     1      -8.074  -6.020   3.508  1.00  0.00     0.000 C 
BRANCH  12  13
ATOM     13  C   UNL     1      -7.206  -5.681   2.286  1.00  0.00    -0.000 C 
BRANCH  13  14
ATOM     14  C   UNL     1      -7.828  -4.585   1.404  1.00  0.00    -0.000 C 
BRANCH  14  15
ATOM     15  C   UNL     1      -6.974  -3.306   1.361  1.00  0.00    -0.000 C 
BRANCH  15  16
ATOM     16  C   UNL     1      -7.607  -2.149   2.151  1.00  0.00    -0.000 C 
BRANCH  16  17
ATOM     17  C   UNL     1      -7.218  -2.164   3.640  1.00  0.00    -0.000 C 
BRANCH  17  18
ATOM     18  C   UNL     1      -5.765  -2.613   3.872  1.00  0.00    -0.000 C 
BRANCH  18  19
ATOM     19  C   UNL     1      -5.502  -3.258   5.245  1.00  0.00    -0.003 C 
ATOM     20  C   UNL     1      -6.777  -3.460   6.064  1.00  0.00     0.004 C 
ENDBRANCH  18  19
ENDBRANCH  17  18
ENDBRANCH  16  17
ENDBRANCH  15  16
ENDBRANCH  14  15
ENDBRANCH  13  14
ENDBRANCH  12  13
ENDBRANCH   1  12
TORSDOF 16
ENDMDL
MODEL 9
REMARK VINA RESULT:    -3.385     11.687     13.840
REMARK INTER + INTRA:          -9.240
REMARK INTER:                  -7.369
REMARK INTRA:                  -1.870
REMARK UNBOUND:                -2.689
REMARK SMILES CCCCCCCCCCCCCCCCCC(=O)[O-]
REMARK SMILES IDX 10 1 11 2 12 3 13 4 14 5 15 6 16 7 17 8 18 9 19 10 20 11
REMARK SMILES IDX 9 12 8 13 7 14 6 15 5 16 4 17 3 18 2 19 1 20
REMARK H PARENT
REMARK Flexibility Score: inf
ROOT
ATOM      1  C   UNL     1       0.357  -0.841  -7.040  1.00  0.00     0.000 C 
ENDROOT
BRANCH   1   2
ATOM      2  C   UNL     1       0.329  -0.754  -8.573  1.00  0.00     0.000 C 
BRANCH   2   3
ATOM      3  C   UNL     1      -0.464  -1.903  -9.218  1.00  0.00     0.000 C 
BRANCH   3   4
ATOM      4  C   UNL     1      -1.797  -1.432  -9.825  1.00  0.00     0.000 C 
BRANCH   4   5
ATOM      5  C   UNL     1      -2.154   0.015  -9.438  1.00  0.00     0.000 C 
BRANCH   5   6
ATOM      6  C   UNL     1      -3.610   0.233  -8.985  1.00  0.00     0.000 C 
BRANCH   6   7
ATOM      7  C   UNL     1      -4.461  -1.045  -9.067  1.00  0.00     0.006 C 
BRANCH   7   8
ATOM      8  C   UNL     1      -5.965  -0.739  -9.088  1.00  0.00     0.053 C 
BRANCH   8   9
ATOM      9  C   UNL     1      -6.638  -1.175  -7.821  1.00  0.00     0.041 C 
ATOM     10  O   UNL     1      -6.517  -2.359  -7.413  1.00  0.00    -0.550 OA
ATOM     11  O   UNL     1      -7.378  -0.263  -7.079  1.00  0.00    -0.550 OA
ENDBRANCH   8   9
ENDBRANCH   7   8
ENDBRANCH   6   7
ENDBRANCH   5   6
ENDBRANCH   4   5
ENDBRANCH   3   4
ENDBRANCH   2   3
ENDBRANCH   1   2
BRANCH   1  12
ATOM     12  C   UNL     1       1.662  -1.480  -6.550  1.00  0.00     0.000 C 
BRANCH  12  13
ATOM     13  C   UNL     1       1.380  -2.746  -5.727  1.00  0.00    -0.000 C 
BRANCH  13  14
ATOM     14  C   UNL     1       1.200  -3.995  -6.604  1.00  0.00    -0.000 C 
BRANCH  14  15
ATOM     15  C   UNL     1       2.468  -4.866  -6.659  1.00  0.00    -0.000 C 
BRANCH  15  16
ATOM     16  C   UNL     1       3.095  -4.903  -8.062  1.00  0.00    -0.000 C 
BRANCH  16  17
ATOM     17  C   UNL     1       2.256  -4.151  -9.109  1.00  0.00    -0.000 C 
BRANCH  17  18
ATOM     18  C   UNL     1       3.084  -3.143  -9.925  1.00  0.00    -0.000 C 
BRANCH  18  19
ATOM     19  C   UNL     1       3.834  -2.095  -9.083  1.00  0.00    -0.003 C 
ATOM     20  C   UNL     1       5.073  -1.539  -9.785  1.00  0.00     0.004 C 
ENDBRANCH  18  19
ENDBRANCH  17  18
ENDBRANCH  16  17
ENDBRANCH  15  16
ENDBRANCH  14  15
ENDBRANCH  13  14
ENDBRANCH  12  13
ENDBRANCH   1  12
TORSDOF 16
ENDMDL
