MODEL 1
REMARK VINA RESULT:    -0.304      0.000      0.000
REMARK INTER + INTRA:          -0.629
REMARK INTER:                  -0.588
REMARK INTRA:                  -0.042
REMARK UNBOUND:                -0.042
REMARK SMILES CCCCCCCCCCCCCCCCCC(=O)[O-]
REMARK SMILES IDX 10 1 11 2 12 3 13 4 14 5 15 6 16 7 17 8 18 9 19 10 20 11
REMARK SMILES IDX 9 12 8 13 7 14 6 15 5 16 4 17 3 18 2 19 1 20
REMARK H PARENT
REMARK Flexibility Score: inf
ROOT
ATOM      1  C   UNL     1      24.866  35.823  18.358  1.00  0.00     0.000 C 
ENDROOT
BRANCH   1   2
ATOM      2  C   UNL     1      26.125  35.176  18.961  1.00  0.00     0.000 C 
BRANCH   2   3
ATOM      3  C   UNL     1      27.205  34.875  17.908  1.00  0.00     0.000 C 
BRANCH   3   4
ATOM      4  C   UNL     1      28.639  35.284  18.305  1.00  0.00     0.000 C 
BRANCH   4   5
ATOM      5  C   UNL     1      29.022  36.715  17.875  1.00  0.00     0.000 C 
BRANCH   5   6
ATOM      6  C   UNL     1      28.552  37.773  18.886  1.00  0.00     0.000 C 
BRANCH   6   7
ATOM      7  C   UNL     1      29.417  37.750  20.151  1.00  0.00     0.006 C 
BRANCH   7   8
ATOM      8  C   UNL     1      29.921  36.335  20.447  1.00  0.00     0.053 C 
BRANCH   8   9
ATOM      9  C   UNL     1      31.412  36.277  20.340  1.00  0.00     0.041 C 
ATOM     10  O   UNL     1      32.125  37.115  20.954  1.00  0.00    -0.550 OA
ATOM     11  O   UNL     1      32.017  35.267  19.603  1.00  0.00    -0.550 OA
ENDBRANCH   8   9
ENDBRANCH   7   8
ENDBRANCH   6   7
ENDBRANCH   5   6
ENDBRANCH   4   5
ENDBRANCH   3   4
ENDBRANCH   2   3
ENDBRANCH   1   2
BRANCH   1  12
ATOM     12  C   UNL     1      23.573  35.129  18.814  1.00  0.00     0.000 C 
BRANCH  12  13
ATOM     13  C   UNL     1      23.024  35.701  20.133  1.00  0.00    -0.000 C 
BRANCH  13  14
ATOM     14  C   UNL     1      23.213  37.224  20.248  1.00  0.00    -0.000 C 
BRANCH  14  15
ATOM     15  C   UNL     1      22.652  37.854  21.537  1.00  0.00    -0.000 C 
BRANCH  15  16
ATOM     16  C   UNL     1      23.521  39.001  22.074  1.00  0.00    -0.000 C 
BRANCH  16  17
ATOM     17  C   UNL     1      23.432  39.084  23.607  1.00  0.00    -0.000 C 
BRANCH  17  18
ATOM     18  C   UNL     1      22.630  37.923  24.215  1.00  0.00    -0.000 C 
BRANCH  18  19
ATOM     19  C   UNL     1      22.857  37.776  25.727  1.00  0.00    -0.003 C 
ATOM     20  C   UNL     1      23.953  38.719  26.211  1.00  0.00     0.004 C 
ENDBRANCH  18  19
ENDBRANCH  17  18
ENDBRANCH  16  17
ENDBRANCH  15  16
ENDBRANCH  14  15
ENDBRANCH  13  14
ENDBRANCH  12  13
ENDBRANCH   1  12
TORSDOF 16
ENDMDL
MODEL 2
REMARK VINA RESULT:    -0.205      3.142      7.599
REMARK INTER + INTRA:          -0.437
REMARK INTER:                   0.446
REMARK INTRA:                  -0.883
REMARK UNBOUND:                -0.042
REMARK SMILES CCCCCCCCCCCCCCCCCC(=O)[O-]
REMARK SMILES IDX 10 1 11 2 12 3 13 4 14 5 15 6 16 7 17 8 18 9 19 10 20 11
REMARK SMILES IDX 9 12 8 13 7 14 6 15 5 16 4 17 3 18 2 19 1 20
REMARK H PARENT
REMARK Flexibility Score: inf
ROOT
ATOM      1  C   UNL     1      23.475  37.401  20.082  1.00  0.00     0.000 C 
ENDROOT
BRANCH   1   2
ATOM      2  C   UNL     1      22.742  37.791  21.377  1.00  0.00     0.000 C 
BRANCH   2   3
ATOM      3  C   UNL     1      21.962  36.620  21.999  1.00  0.00     0.000 C 
BRANCH   3   4
ATOM      4  C   UNL     1      22.425  36.200  23.409  1.00  0.00     0.000 C 
BRANCH   4   5
ATOM      5  C   UNL     1      22.186  37.274  24.491  1.00  0.00     0.000 C 
BRANCH   5   6
ATOM      6  C   UNL     1      23.426  37.500  25.371  1.00  0.00     0.000 C 
BRANCH   6   7
ATOM      7  C   UNL     1      23.912  38.951  25.276  1.00  0.00     0.006 C 
BRANCH   7   8
ATOM      8  C   UNL     1      23.507  39.581  23.940  1.00  0.00     0.053 C 
BRANCH   8   9
ATOM      9  C   UNL     1      24.127  40.934  23.790  1.00  0.00     0.041 C 
ATOM     10  O   UNL     1      23.835  41.858  24.593  1.00  0.00    -0.550 OA
ATOM     11  O   UNL     1      25.066  41.161  22.791  1.00  0.00    -0.550 OA
ENDBRANCH   8   9
ENDBRANCH   7   8
ENDBRANCH   6   7
ENDBRANCH   5   6
ENDBRANCH   4   5
ENDBRANCH   3   4
ENDBRANCH   2   3
ENDBRANCH   1   2
BRANCH   1  12
ATOM     12  C   UNL     1      23.525  35.880  19.871  1.00  0.00     0.000 C 
BRANCH  12  13
ATOM     13  C   UNL     1      23.848  35.491  18.418  1.00  0.00    -0.000 C 
BRANCH  13  14
ATOM     14  C   UNL     1      25.223  36.005  17.953  1.00  0.00    -0.000 C 
BRANCH  14  15
ATOM     15  C   UNL     1      26.329  34.936  17.888  1.00  0.00    -0.000 C 
BRANCH  15  16
ATOM     16  C   UNL     1      27.744  35.534  17.875  1.00  0.00    -0.000 C 
BRANCH  16  17
ATOM     17  C   UNL     1      27.692  37.064  18.015  1.00  0.00    -0.000 C 
BRANCH  17  18
ATOM     18  C   UNL     1      28.928  37.633  18.728  1.00  0.00    -0.000 C 
BRANCH  18  19
ATOM     19  C   UNL     1      30.232  36.956  18.283  1.00  0.00    -0.003 C 
ATOM     20  C   UNL     1      31.449  37.737  18.770  1.00  0.00     0.004 C 
ENDBRANCH  18  19
ENDBRANCH  17  18
ENDBRANCH  16  17
ENDBRANCH  15  16
ENDBRANCH  14  15
ENDBRANCH  13  14
ENDBRANCH  12  13
ENDBRANCH   1  12
TORSDOF 16
ENDMDL
MODEL 3
REMARK VINA RESULT:    -0.161      3.011      7.552
REMARK INTER + INTRA:          -0.354
REMARK INTER:                   0.334
REMARK INTRA:                  -0.688
REMARK UNBOUND:                -0.042
REMARK SMILES CCCCCCCCCCCCCCCCCC(=O)[O-]
REMARK SMILES IDX 10 1 11 2 12 3 13 4 14 5 15 6 16 7 17 8 18 9 19 10 20 11
REMARK SMILES IDX 9 12 8 13 7 14 6 15 5 16 4 17 3 18 2 19 1 20
REMARK H PARENT
REMARK Flexibility Score: inf
ROOT
ATOM      1  C   UNL     1      23.573  37.320  20.062  1.00  0.00     0.000 C 
ENDROOT
BRANCH   1   2
ATOM      2  C   UNL     1      22.676  37.634  21.273  1.00  0.00     0.000 C 
BRANCH   2   3
ATOM      3  C   UNL     1      22.005  36.380  21.860  1.00  0.00     0.000 C 
BRANCH   3   4
ATOM      4  C   UNL     1      22.395  36.049  23.315  1.00  0.00     0.000 C 
BRANCH   4   5
ATOM      5  C   UNL     1      22.216  37.228  24.294  1.00  0.00     0.000 C 
BRANCH   5   6
ATOM      6  C   UNL     1      23.284  37.235  25.399  1.00  0.00     0.000 C 
BRANCH   6   7
ATOM      7  C   UNL     1      24.255  38.408  25.219  1.00  0.00     0.006 C 
BRANCH   7   8
ATOM      8  C   UNL     1      23.504  39.695  24.864  1.00  0.00     0.053 C 
BRANCH   8   9
ATOM      9  C   UNL     1      24.098  40.328  23.645  1.00  0.00     0.041 C 
ATOM     10  O   UNL     1      24.337  39.633  22.622  1.00  0.00    -0.550 OA
ATOM     11  O   UNL     1      24.341  41.695  23.622  1.00  0.00    -0.550 OA
ENDBRANCH   8   9
ENDBRANCH   7   8
ENDBRANCH   6   7
ENDBRANCH   5   6
ENDBRANCH   4   5
ENDBRANCH   3   4
ENDBRANCH   2   3
ENDBRANCH   1   2
BRANCH   1  12
ATOM     12  C   UNL     1      23.536  35.833  19.674  1.00  0.00     0.000 C 
BRANCH  12  13
ATOM     13  C   UNL     1      23.856  35.599  18.187  1.00  0.00    -0.000 C 
BRANCH  13  14
ATOM     14  C   UNL     1      25.251  34.987  17.965  1.00  0.00    -0.000 C 
BRANCH  14  15
ATOM     15  C   UNL     1      26.402  36.008  17.877  1.00  0.00    -0.000 C 
BRANCH  15  16
ATOM     16  C   UNL     1      27.771  35.403  18.223  1.00  0.00    -0.000 C 
BRANCH  16  17
ATOM     17  C   UNL     1      28.842  36.500  18.330  1.00  0.00    -0.000 C 
BRANCH  17  18
ATOM     18  C   UNL     1      30.199  35.956  18.804  1.00  0.00    -0.000 C 
BRANCH  18  19
ATOM     19  C   UNL     1      30.730  36.691  20.043  1.00  0.00    -0.003 C 
ATOM     20  C   UNL     1      32.031  36.066  20.536  1.00  0.00     0.004 C 
ENDBRANCH  18  19
ENDBRANCH  17  18
ENDBRANCH  16  17
ENDBRANCH  15  16
ENDBRANCH  14  15
ENDBRANCH  13  14
ENDBRANCH  12  13
ENDBRANCH   1  12
TORSDOF 16
ENDMDL
MODEL 4
REMARK VINA RESULT:     0.045      3.471      7.826
REMARK INTER + INTRA:           0.045
REMARK INTER:                   0.784
REMARK INTRA:                  -0.739
REMARK UNBOUND:                -0.042
REMARK SMILES CCCCCCCCCCCCCCCCCC(=O)[O-]
REMARK SMILES IDX 10 1 11 2 12 3 13 4 14 5 15 6 16 7 17 8 18 9 19 10 20 11
REMARK SMILES IDX 9 12 8 13 7 14 6 15 5 16 4 17 3 18 2 19 1 20
REMARK H PARENT
REMARK Flexibility Score: inf
ROOT
ATOM      1  C   UNL     1      24.207  36.069  18.596  1.00  0.00     0.000 C 
ENDROOT
BRANCH   1   2
ATOM      2  C   UNL     1      23.622  35.400  19.852  1.00  0.00     0.000 C 
BRANCH   2   3
ATOM      3  C   UNL     1      22.256  35.979  20.256  1.00  0.00     0.000 C 
BRANCH   3   4
ATOM      4  C   UNL     1      22.126  36.373  21.742  1.00  0.00     0.000 C 
BRANCH   4   5
ATOM      5  C   UNL     1      22.396  37.867  22.018  1.00  0.00     0.000 C 
BRANCH   5   6
ATOM      6  C   UNL     1      22.330  38.203  23.516  1.00  0.00     0.000 C 
BRANCH   6   7
ATOM      7  C   UNL     1      23.200  37.244  24.336  1.00  0.00     0.006 C 
BRANCH   7   8
ATOM      8  C   UNL     1      22.961  37.432  25.837  1.00  0.00     0.053 C 
BRANCH   8   9
ATOM      9  C   UNL     1      23.263  38.840  26.243  1.00  0.00     0.041 C 
ATOM     10  O   UNL     1      22.823  39.294  27.332  1.00  0.00    -0.550 OA
ATOM     11  O   UNL     1      24.070  39.636  25.440  1.00  0.00    -0.550 OA
ENDBRANCH   8   9
ENDBRANCH   7   8
ENDBRANCH   6   7
ENDBRANCH   5   6
ENDBRANCH   4   5
ENDBRANCH   3   4
ENDBRANCH   2   3
ENDBRANCH   1   2
BRANCH   1  12
ATOM     12  C   UNL     1      25.228  35.175  17.875  1.00  0.00     0.000 C 
BRANCH  12  13
ATOM     13  C   UNL     1      26.603  35.166  18.566  1.00  0.00    -0.000 C 
BRANCH  13  14
ATOM     14  C   UNL     1      27.614  36.116  17.897  1.00  0.00    -0.000 C 
BRANCH  14  15
ATOM     15  C   UNL     1      27.993  37.353  18.733  1.00  0.00    -0.000 C 
BRANCH  15  16
ATOM     16  C   UNL     1      29.282  38.035  18.247  1.00  0.00    -0.000 C 
BRANCH  16  17
ATOM     17  C   UNL     1      30.409  37.007  18.065  1.00  0.00    -0.000 C 
BRANCH  17  18
ATOM     18  C   UNL     1      31.542  37.185  19.087  1.00  0.00    -0.000 C 
BRANCH  18  19
ATOM     19  C   UNL     1      31.282  36.428  20.397  1.00  0.00    -0.003 C 
ATOM     20  C   UNL     1      30.620  35.080  20.129  1.00  0.00     0.004 C 
ENDBRANCH  18  19
ENDBRANCH  17  18
ENDBRANCH  16  17
ENDBRANCH  15  16
ENDBRANCH  14  15
ENDBRANCH  13  14
ENDBRANCH  12  13
ENDBRANCH   1  12
TORSDOF 16
ENDMDL
MODEL 5
REMARK VINA RESULT:     0.768      1.287      2.713
REMARK INTER + INTRA:           1.445
REMARK INTER:                   2.491
REMARK INTRA:                  -1.047
REMARK UNBOUND:                -0.042
REMARK SMILES CCCCCCCCCCCCCCCCCC(=O)[O-]
REMARK SMILES IDX 10 1 11 2 12 3 13 4 14 5 15 6 16 7 17 8 18 9 19 10 20 11
REMARK SMILES IDX 9 12 8 13 7 14 6 15 5 16 4 17 3 18 2 19 1 20
REMARK H PARENT
REMARK Flexibility Score: inf
ROOT
ATOM      1  C   UNL     1      23.881  37.531  20.146  1.00  0.00     0.000 C 
ENDROOT
BRANCH   1   2
ATOM      2  C   UNL     1      23.658  36.238  19.341  1.00  0.00     0.000 C 
BRANCH   2   3
ATOM      3  C   UNL     1      24.799  35.945  18.352  1.00  0.00     0.000 C 
BRANCH   3   4
ATOM      4  C   UNL     1      25.864  34.950  18.856  1.00  0.00     0.000 C 
BRANCH   4   5
ATOM      5  C   UNL     1      27.123  34.878  17.968  1.00  0.00     0.000 C 
BRANCH   5   6
ATOM      6  C   UNL     1      27.953  36.171  18.030  1.00  0.00     0.000 C 
BRANCH   6   7
ATOM      7  C   UNL     1      28.442  36.445  19.457  1.00  0.00     0.006 C 
BRANCH   7   8
ATOM      8  C   UNL     1      29.050  35.186  20.082  1.00  0.00     0.053 C 
BRANCH   8   9
ATOM      9  C   UNL     1      30.536  35.183  19.912  1.00  0.00     0.041 C 
ATOM     10  O   UNL     1      31.044  35.288  18.764  1.00  0.00    -0.550 OA
ATOM     11  O   UNL     1      31.363  35.114  21.026  1.00  0.00    -0.550 OA
ENDBRANCH   8   9
ENDBRANCH   7   8
ENDBRANCH   6   7
ENDBRANCH   5   6
ENDBRANCH   4   5
ENDBRANCH   3   4
ENDBRANCH   2   3
ENDBRANCH   1   2
BRANCH   1  12
ATOM     12  C   UNL     1      22.747  37.803  21.146  1.00  0.00     0.000 C 
BRANCH  12  13
ATOM     13  C   UNL     1      22.121  36.511  21.702  1.00  0.00    -0.000 C 
BRANCH  13  14
ATOM     14  C   UNL     1      22.441  36.284  23.190  1.00  0.00    -0.000 C 
BRANCH  14  15
ATOM     15  C   UNL     1      22.310  37.534  24.081  1.00  0.00    -0.000 C 
BRANCH  15  16
ATOM     16  C   UNL     1      23.135  37.441  25.373  1.00  0.00    -0.000 C 
BRANCH  16  17
ATOM     17  C   UNL     1      24.114  38.621  25.483  1.00  0.00    -0.000 C 
BRANCH  17  18
ATOM     18  C   UNL     1      23.651  39.849  24.683  1.00  0.00    -0.000 C 
BRANCH  18  19
ATOM     19  C   UNL     1      24.492  40.082  23.420  1.00  0.00    -0.003 C 
ATOM     20  C   UNL     1      24.807  41.563  23.237  1.00  0.00     0.004 C 
ENDBRANCH  18  19
ENDBRANCH  17  18
ENDBRANCH  16  17
ENDBRANCH  15  16
ENDBRANCH  14  15
ENDBRANCH  13  14
ENDBRANCH  12  13
ENDBRANCH   1  12
TORSDOF 16
ENDMDL
