MODEL 1
REMARK VINA RESULT:    -4.265      0.000      0.000
REMARK INTER + INTRA:          -4.390
REMARK INTER:                  -4.390
REMARK INTRA:                   0.000
REMARK UNBOUND:                 0.000
REMARK SMILES Nc1ncnc2nc[nH]c12
REMARK SMILES IDX 8 1 7 2 6 3 5 4 4 5 3 6 2 7 10 8 9 9 1 11
REMARK H PARENT 9 10 1 12 1 13
REMARK Flexibility Score: inf
ROOT
ATOM      1  C   UNL     1      96.551  -4.238  -4.495  1.00  0.00     0.199 A 
ATOM      2  N   UNL     1      97.340  -3.232  -4.030  1.00  0.00    -0.217 NA
ATOM      3  C   UNL     1      98.188  -3.038  -5.054  1.00  0.00     0.182 A 
ATOM      4  N   UNL     1      99.195  -2.135  -5.110  1.00  0.00    -0.215 NA
ATOM      5  C   UNL     1      99.956  -2.087  -6.245  1.00  0.00     0.226 A 
ATOM      6  N   UNL     1      99.700  -2.934  -7.292  1.00  0.00    -0.217 NA
ATOM      7  C   UNL     1      98.685  -3.848  -7.237  1.00  0.00     0.152 A 
ATOM      8  C   UNL     1      97.919  -3.884  -6.075  1.00  0.00     0.127 A 
ATOM      9  N   UNL     1      96.880  -4.659  -5.743  1.00  0.00    -0.340 N 
ATOM     10  H   UNL     1      96.420  -5.411  -6.302  1.00  0.00     0.168 HD
ENDROOT
BRANCH   7  11
ATOM     11  N   UNL     1      98.436  -4.720  -8.340  1.00  0.00    -0.382 N 
ATOM     12  H   UNL     1      97.884  -4.406  -9.168  1.00  0.00     0.158 HD
ATOM     13  H   UNL     1      98.809  -5.695  -8.329  1.00  0.00     0.158 HD
ENDBRANCH   7  11
TORSDOF 1
ENDMDL
MODEL 2
REMARK VINA RESULT:    -4.201      8.360     10.320
REMARK INTER + INTRA:          -4.324
REMARK INTER:                  -4.324
REMARK INTRA:                   0.000
REMARK UNBOUND:                 0.000
REMARK SMILES Nc1ncnc2nc[nH]c12
REMARK SMILES IDX 8 1 7 2 6 3 5 4 4 5 3 6 2 7 10 8 9 9 1 11
REMARK H PARENT 9 10 1 12 1 13
REMARK Flexibility Score: inf
ROOT
ATOM      1  C   UNL     1     102.299   5.839  -5.216  1.00  0.00     0.199 A 
ATOM      2  N   UNL     1     101.947   4.528  -5.123  1.00  0.00    -0.217 NA
ATOM      3  C   UNL     1     101.642   4.406  -3.820  1.00  0.00     0.182 A 
ATOM      4  N   UNL     1     101.226   3.284  -3.188  1.00  0.00    -0.215 NA
ATOM      5  C   UNL     1     100.963   3.357  -1.848  1.00  0.00     0.226 A 
ATOM      6  N   UNL     1     101.120   4.539  -1.171  1.00  0.00    -0.217 NA
ATOM      7  C   UNL     1     101.542   5.673  -1.806  1.00  0.00     0.152 A 
ATOM      8  C   UNL     1     101.805   5.582  -3.170  1.00  0.00     0.127 A 
ATOM      9  N   UNL     1     102.223   6.510  -4.039  1.00  0.00    -0.340 N 
ATOM     10  H   UNL     1     102.441   7.516  -3.866  1.00  0.00     0.168 HD
ENDROOT
BRANCH   7  11
ATOM     11  N   UNL     1     101.698   6.893  -1.080  1.00  0.00    -0.382 N 
ATOM     12  H   UNL     1     102.032   7.764  -1.547  1.00  0.00     0.158 HD
ATOM     13  H   UNL     1     101.477   6.926  -0.060  1.00  0.00     0.158 HD
ENDBRANCH   7  11
TORSDOF 1
ENDMDL
MODEL 3
REMARK VINA RESULT:    -4.152      0.954      3.014
REMARK INTER + INTRA:          -4.274
REMARK INTER:                  -4.274
REMARK INTRA:                   0.000
REMARK UNBOUND:                 0.000
REMARK SMILES Nc1ncnc2nc[nH]c12
REMARK SMILES IDX 8 1 7 2 6 3 5 4 4 5 3 6 2 7 10 8 9 9 1 11
REMARK H PARENT 9 10 1 12 1 13
REMARK Flexibility Score: inf
ROOT
ATOM      1  C   UNL     1      99.223  -3.712  -7.558  1.00  0.00     0.199 A 
ATOM      2  N   UNL     1      99.698  -2.697  -6.787  1.00  0.00    -0.217 NA
ATOM      3  C   UNL     1      98.855  -2.714  -5.741  1.00  0.00     0.182 A 
ATOM      4  N   UNL     1      98.882  -1.892  -4.666  1.00  0.00    -0.215 NA
ATOM      5  C   UNL     1      97.934  -2.065  -3.696  1.00  0.00     0.226 A 
ATOM      6  N   UNL     1      96.984  -3.046  -3.819  1.00  0.00    -0.217 NA
ATOM      7  C   UNL     1      96.953  -3.877  -4.903  1.00  0.00     0.152 A 
ATOM      8  C   UNL     1      97.926  -3.688  -5.881  1.00  0.00     0.127 A 
ATOM      9  N   UNL     1      98.140  -4.338  -7.032  1.00  0.00    -0.340 N 
ATOM     10  H   UNL     1      97.608  -5.139  -7.439  1.00  0.00     0.168 HD
ENDROOT
BRANCH   7  11
ATOM     11  N   UNL     1      95.955  -4.892  -5.009  1.00  0.00    -0.382 N 
ATOM     12  H   UNL     1      95.371  -5.168  -4.189  1.00  0.00     0.158 HD
ATOM     13  H   UNL     1      95.796  -5.377  -5.920  1.00  0.00     0.158 HD
ENDBRANCH   7  11
TORSDOF 1
ENDMDL
MODEL 4
REMARK VINA RESULT:    -4.108      7.871      9.679
REMARK INTER + INTRA:          -4.228
REMARK INTER:                  -4.228
REMARK INTRA:                   0.000
REMARK UNBOUND:                 0.000
REMARK SMILES Nc1ncnc2nc[nH]c12
REMARK SMILES IDX 8 1 7 2 6 3 5 4 4 5 3 6 2 7 10 8 9 9 1 11
REMARK H PARENT 9 10 1 12 1 13
REMARK Flexibility Score: inf
ROOT
ATOM      1  C   UNL     1     101.088   3.697  -5.185  1.00  0.00     0.199 A 
ATOM      2  N   UNL     1     101.995   4.710  -5.123  1.00  0.00    -0.217 NA
ATOM      3  C   UNL     1     101.946   5.057  -3.826  1.00  0.00     0.182 A 
ATOM      4  N   UNL     1     102.665   6.033  -3.222  1.00  0.00    -0.215 NA
ATOM      5  C   UNL     1     102.477   6.239  -1.884  1.00  0.00     0.226 A 
ATOM      6  N   UNL     1     101.582   5.474  -1.180  1.00  0.00    -0.217 NA
ATOM      7  C   UNL     1     100.854   4.489  -1.788  1.00  0.00     0.152 A 
ATOM      8  C   UNL     1     101.058   4.292  -3.151  1.00  0.00     0.127 A 
ATOM      9  N   UNL     1     100.498   3.418  -3.996  1.00  0.00    -0.340 N 
ATOM     10  H   UNL     1      99.778   2.688  -3.799  1.00  0.00     0.168 HD
ENDROOT
BRANCH   7  11
ATOM     11  N   UNL     1      99.928   3.705  -1.035  1.00  0.00    -0.382 N 
ATOM     12  H   UNL     1      98.900   3.777  -1.194  1.00  0.00     0.158 HD
ATOM     13  H   UNL     1     100.276   3.044  -0.306  1.00  0.00     0.158 HD
ENDBRANCH   7  11
TORSDOF 1
ENDMDL
MODEL 5
REMARK VINA RESULT:    -4.054      1.309      2.449
REMARK INTER + INTRA:          -4.172
REMARK INTER:                  -4.172
REMARK INTRA:                   0.000
REMARK UNBOUND:                 0.000
REMARK SMILES Nc1ncnc2nc[nH]c12
REMARK SMILES IDX 8 1 7 2 6 3 5 4 4 5 3 6 2 7 10 8 9 9 1 11
REMARK H PARENT 9 10 1 12 1 13
REMARK Flexibility Score: inf
ROOT
ATOM      1  C   UNL     1      97.807  -1.400  -3.125  1.00  0.00     0.199 A 
ATOM      2  N   UNL     1      98.871  -1.167  -3.941  1.00  0.00    -0.217 NA
ATOM      3  C   UNL     1      98.744  -2.139  -4.859  1.00  0.00     0.182 A 
ATOM      4  N   UNL     1      99.558  -2.364  -5.917  1.00  0.00    -0.215 NA
ATOM      5  C   UNL     1      99.265  -3.410  -6.747  1.00  0.00     0.226 A 
ATOM      6  N   UNL     1      98.173  -4.204  -6.507  1.00  0.00    -0.217 NA
ATOM      7  C   UNL     1      97.350  -3.980  -5.439  1.00  0.00     0.152 A 
ATOM      8  C   UNL     1      97.662  -2.911  -4.604  1.00  0.00     0.127 A 
ATOM      9  N   UNL     1      97.049  -2.460  -3.503  1.00  0.00    -0.340 N 
ATOM     10  H   UNL     1      96.191  -2.826  -3.037  1.00  0.00     0.168 HD
ENDROOT
BRANCH   7  11
ATOM     11  N   UNL     1      96.218  -4.821  -5.209  1.00  0.00    -0.382 N 
ATOM     12  H   UNL     1      96.045  -5.670  -5.790  1.00  0.00     0.158 HD
ATOM     13  H   UNL     1      95.543  -4.590  -4.448  1.00  0.00     0.158 HD
ENDBRANCH   7  11
TORSDOF 1
ENDMDL
MODEL 6
REMARK VINA RESULT:    -4.009      8.265     10.042
REMARK INTER + INTRA:          -4.126
REMARK INTER:                  -4.126
REMARK INTRA:                   0.000
REMARK UNBOUND:                 0.000
REMARK SMILES Nc1ncnc2nc[nH]c12
REMARK SMILES IDX 8 1 7 2 6 3 5 4 4 5 3 6 2 7 10 8 9 9 1 11
REMARK H PARENT 9 10 1 12 1 13
REMARK Flexibility Score: inf
ROOT
ATOM      1  C   UNL     1     102.006   6.695  -1.355  1.00  0.00     0.199 A 
ATOM      2  N   UNL     1     101.545   5.452  -1.050  1.00  0.00    -0.217 NA
ATOM      3  C   UNL     1     101.534   4.849  -2.251  1.00  0.00     0.182 A 
ATOM      4  N   UNL     1     101.151   3.578  -2.514  1.00  0.00    -0.215 NA
ATOM      5  C   UNL     1     101.211   3.140  -3.808  1.00  0.00     0.226 A 
ATOM      6  N   UNL     1     101.647   3.974  -4.806  1.00  0.00    -0.217 NA
ATOM      7  C   UNL     1     102.032   5.259  -4.543  1.00  0.00     0.152 A 
ATOM      8  C   UNL     1     101.966   5.689  -3.220  1.00  0.00     0.127 A 
ATOM      9  N   UNL     1     102.273   6.871  -2.674  1.00  0.00    -0.340 N 
ATOM     10  H   UNL     1     102.634   7.732  -3.140  1.00  0.00     0.168 HD
ENDROOT
BRANCH   7  11
ATOM     11  N   UNL     1     102.483   6.109  -5.598  1.00  0.00    -0.382 N 
ATOM     12  H   UNL     1     103.035   5.734  -6.400  1.00  0.00     0.158 HD
ATOM     13  H   UNL     1     102.263   7.129  -5.576  1.00  0.00     0.158 HD
ENDBRANCH   7  11
TORSDOF 1
ENDMDL
MODEL 7
REMARK VINA RESULT:    -3.948      7.753      9.720
REMARK INTER + INTRA:          -4.063
REMARK INTER:                  -4.063
REMARK INTRA:                   0.000
REMARK UNBOUND:                 0.000
REMARK SMILES Nc1ncnc2nc[nH]c12
REMARK SMILES IDX 8 1 7 2 6 3 5 4 4 5 3 6 2 7 10 8 9 9 1 11
REMARK H PARENT 9 10 1 12 1 13
REMARK Flexibility Score: inf
ROOT
ATOM      1  C   UNL     1     102.365   6.470  -1.947  1.00  0.00     0.199 A 
ATOM      2  N   UNL     1     102.676   5.900  -3.143  1.00  0.00    -0.217 NA
ATOM      3  C   UNL     1     101.812   4.872  -3.202  1.00  0.00     0.182 A 
ATOM      4  N   UNL     1     101.698   3.968  -4.203  1.00  0.00    -0.215 NA
ATOM      5  C   UNL     1     100.754   2.987  -4.083  1.00  0.00     0.226 A 
ATOM      6  N   UNL     1      99.949   2.928  -2.974  1.00  0.00    -0.217 NA
ATOM      7  C   UNL     1     100.062   3.839  -1.962  1.00  0.00     0.152 A 
ATOM      8  C   UNL     1     101.029   4.832  -2.100  1.00  0.00     0.127 A 
ATOM      9  N   UNL     1     101.362   5.840  -1.285  1.00  0.00    -0.340 N 
ATOM     10  H   UNL     1     100.955   6.093  -0.358  1.00  0.00     0.168 HD
ENDROOT
BRANCH   7  11
ATOM     11  N   UNL     1      99.212   3.758  -0.817  1.00  0.00    -0.382 N 
ATOM     12  H   UNL     1      98.345   3.178  -0.824  1.00  0.00     0.158 HD
ATOM     13  H   UNL     1      99.453   4.287   0.051  1.00  0.00     0.158 HD
ENDBRANCH   7  11
TORSDOF 1
ENDMDL
MODEL 8
REMARK VINA RESULT:    -3.868     19.681     21.557
REMARK INTER + INTRA:          -3.981
REMARK INTER:                  -3.981
REMARK INTRA:                   0.000
REMARK UNBOUND:                 0.000
REMARK SMILES Nc1ncnc2nc[nH]c12
REMARK SMILES IDX 8 1 7 2 6 3 5 4 4 5 3 6 2 7 10 8 9 9 1 11
REMARK H PARENT 9 10 1 12 1 13
REMARK Flexibility Score: inf
ROOT
ATOM      1  C   UNL     1     116.020   8.549   4.119  1.00  0.00     0.199 A 
ATOM      2  N   UNL     1     115.914   7.316   4.683  1.00  0.00    -0.217 NA
ATOM      3  C   UNL     1     114.757   6.866   4.167  1.00  0.00     0.182 A 
ATOM      4  N   UNL     1     114.176   5.667   4.409  1.00  0.00    -0.215 NA
ATOM      5  C   UNL     1     112.991   5.387   3.788  1.00  0.00     0.226 A 
ATOM      6  N   UNL     1     112.413   6.302   2.945  1.00  0.00    -0.217 NA
ATOM      7  C   UNL     1     112.997   7.513   2.700  1.00  0.00     0.152 A 
ATOM      8  C   UNL     1     114.204   7.783   3.340  1.00  0.00     0.127 A 
ATOM      9  N   UNL     1     114.991   8.864   3.293  1.00  0.00    -0.340 N 
ATOM     10  H   UNL     1     114.856   9.747   2.753  1.00  0.00     0.168 HD
ENDROOT
BRANCH   7  11
ATOM     11  N   UNL     1     112.377   8.450   1.819  1.00  0.00    -0.382 N 
ATOM     12  H   UNL     1     112.579   9.472   1.882  1.00  0.00     0.158 HD
ATOM     13  H   UNL     1     111.705   8.118   1.092  1.00  0.00     0.158 HD
ENDBRANCH   7  11
TORSDOF 1
ENDMDL
MODEL 9
REMARK VINA RESULT:    -3.753     19.965     21.793
REMARK INTER + INTRA:          -3.863
REMARK INTER:                  -3.863
REMARK INTRA:                   0.000
REMARK UNBOUND:                 0.000
REMARK SMILES Nc1ncnc2nc[nH]c12
REMARK SMILES IDX 8 1 7 2 6 3 5 4 4 5 3 6 2 7 10 8 9 9 1 11
REMARK H PARENT 9 10 1 12 1 13
REMARK Flexibility Score: inf
ROOT
ATOM      1  C   UNL     1     112.420   7.001   2.274  1.00  0.00     0.199 A 
ATOM      2  N   UNL     1     112.952   5.891   2.854  1.00  0.00    -0.217 NA
ATOM      3  C   UNL     1     114.041   6.384   3.468  1.00  0.00     0.182 A 
ATOM      4  N   UNL     1     114.941   5.689   4.202  1.00  0.00    -0.215 NA
ATOM      5  C   UNL     1     115.991   6.370   4.751  1.00  0.00     0.226 A 
ATOM      6  N   UNL     1     116.122   7.721   4.557  1.00  0.00    -0.217 NA
ATOM      7  C   UNL     1     115.216   8.426   3.816  1.00  0.00     0.152 A 
ATOM      8  C   UNL     1     114.152   7.717   3.263  1.00  0.00     0.127 A 
ATOM      9  N   UNL     1     113.131   8.133   2.506  1.00  0.00    -0.340 N 
ATOM     10  H   UNL     1     112.919   9.097   2.167  1.00  0.00     0.168 HD
ENDROOT
BRANCH   7  11
ATOM     11  N   UNL     1     115.373   9.833   3.628  1.00  0.00    -0.382 N 
ATOM     12  H   UNL     1     115.371  10.258   2.675  1.00  0.00     0.158 HD
ATOM     13  H   UNL     1     115.494  10.460   4.454  1.00  0.00     0.158 HD
ENDBRANCH   7  11
TORSDOF 1
ENDMDL
