MODEL 1
REMARK VINA RESULT:    -4.072      0.000      0.000
REMARK INTER + INTRA:          -4.330
REMARK INTER:                  -4.310
REMARK INTRA:                  -0.020
REMARK UNBOUND:                -0.020
REMARK SMILES O=C([O-])c1cccnc1
REMARK SMILES IDX 4 1 5 2 9 3 6 4 8 5 7 6 2 7 1 8 3 9
REMARK H PARENT
REMARK Flexibility Score: inf
ROOT
ATOM      1  C   UNL     1     -12.803 -27.498 -17.551  1.00  0.00     0.016 A 
ATOM      2  C   UNL     1     -13.598 -26.665 -18.354  1.00  0.00     0.013 A 
ATOM      3  C   UNL     1     -13.389 -28.651 -16.999  1.00  0.00     0.120 A 
ATOM      4  C   UNL     1     -14.937 -26.988 -18.591  1.00  0.00     0.021 A 
ATOM      5  N   UNL     1     -14.695 -28.942 -17.245  1.00  0.00    -0.264 NA
ATOM      6  C   UNL     1     -15.472 -28.143 -18.021  1.00  0.00     0.111 A 
ENDROOT
BRANCH   1   7
ATOM      7  C   UNL     1     -11.386 -27.165 -17.293  1.00  0.00     0.073 C 
ATOM      8  O   UNL     1     -10.651 -26.731 -18.221  1.00  0.00    -0.545 OA
ATOM      9  O   UNL     1     -10.843 -27.326 -16.024  1.00  0.00    -0.545 OA
ENDBRANCH   1   7
TORSDOF 1
ENDMDL
MODEL 2
REMARK VINA RESULT:    -4.041     12.277     13.376
REMARK INTER + INTRA:          -4.298
REMARK INTER:                  -4.274
REMARK INTRA:                  -0.024
REMARK UNBOUND:                -0.020
REMARK SMILES O=C([O-])c1cccnc1
REMARK SMILES IDX 4 1 5 2 9 3 6 4 8 5 7 6 2 7 1 8 3 9
REMARK H PARENT
REMARK Flexibility Score: inf
ROOT
ATOM      1  C   UNL     1     -25.869 -24.645 -17.832  1.00  0.00     0.016 A 
ATOM      2  C   UNL     1     -25.144 -25.585 -18.582  1.00  0.00     0.013 A 
ATOM      3  C   UNL     1     -25.156 -23.672 -17.110  1.00  0.00     0.120 A 
ATOM      4  C   UNL     1     -23.747 -25.540 -18.602  1.00  0.00     0.021 A 
ATOM      5  N   UNL     1     -23.796 -23.651 -17.146  1.00  0.00    -0.264 NA
ATOM      6  C   UNL     1     -23.085 -24.555 -17.869  1.00  0.00     0.111 A 
ENDROOT
BRANCH   1   7
ATOM      7  C   UNL     1     -27.347 -24.684 -17.804  1.00  0.00     0.073 C 
ATOM      8  O   UNL     1     -27.984 -25.408 -18.615  1.00  0.00    -0.545 OA
ATOM      9  O   UNL     1     -28.055 -23.922 -16.883  1.00  0.00    -0.545 OA
ENDBRANCH   1   7
TORSDOF 1
ENDMDL
MODEL 3
REMARK VINA RESULT:    -4.031     12.355     13.476
REMARK INTER + INTRA:          -4.287
REMARK INTER:                  -4.264
REMARK INTRA:                  -0.023
REMARK UNBOUND:                -0.020
REMARK SMILES O=C([O-])c1cccnc1
REMARK SMILES IDX 4 1 5 2 9 3 6 4 8 5 7 6 2 7 1 8 3 9
REMARK H PARENT
REMARK Flexibility Score: inf
ROOT
ATOM      1  C   UNL     1     -25.923 -24.552 -17.742  1.00  0.00     0.016 A 
ATOM      2  C   UNL     1     -25.151 -25.530 -18.390  1.00  0.00     0.013 A 
ATOM      3  C   UNL     1     -25.257 -23.504 -17.082  1.00  0.00     0.120 A 
ATOM      4  C   UNL     1     -23.756 -25.449 -18.371  1.00  0.00     0.021 A 
ATOM      5  N   UNL     1     -23.898 -23.449 -17.078  1.00  0.00    -0.264 NA
ATOM      6  C   UNL     1     -23.142 -24.389 -17.703  1.00  0.00     0.111 A 
ENDROOT
BRANCH   1   7
ATOM      7  C   UNL     1     -27.400 -24.629 -17.755  1.00  0.00     0.073 C 
ATOM      8  O   UNL     1     -28.082 -23.974 -16.922  1.00  0.00    -0.545 OA
ATOM      9  O   UNL     1     -28.056 -25.423 -18.687  1.00  0.00    -0.545 OA
ENDBRANCH   1   7
TORSDOF 1
ENDMDL
MODEL 4
REMARK VINA RESULT:    -4.013     11.473     12.571
REMARK INTER + INTRA:          -4.268
REMARK INTER:                  -4.249
REMARK INTRA:                  -0.019
REMARK UNBOUND:                -0.020
REMARK SMILES O=C([O-])c1cccnc1
REMARK SMILES IDX 4 1 5 2 9 3 6 4 8 5 7 6 2 7 1 8 3 9
REMARK H PARENT
REMARK Flexibility Score: inf
ROOT
ATOM      1  C   UNL     1     -24.941 -25.043 -17.929  1.00  0.00     0.016 A 
ATOM      2  C   UNL     1     -25.964 -25.825 -18.489  1.00  0.00     0.013 A 
ATOM      3  C   UNL     1     -25.300 -23.892 -17.205  1.00  0.00     0.120 A 
ATOM      4  C   UNL     1     -27.301 -25.455 -18.322  1.00  0.00     0.021 A 
ATOM      5  N   UNL     1     -26.609 -23.554 -17.058  1.00  0.00    -0.264 NA
ATOM      6  C   UNL     1     -27.606 -24.304 -17.595  1.00  0.00     0.111 A 
ENDROOT
BRANCH   1   7
ATOM      7  C   UNL     1     -23.523 -25.424 -18.100  1.00  0.00     0.073 C 
ATOM      8  O   UNL     1     -22.743 -25.451 -17.110  1.00  0.00    -0.545 OA
ATOM      9  O   UNL     1     -23.029 -25.760 -19.355  1.00  0.00    -0.545 OA
ENDBRANCH   1   7
TORSDOF 1
ENDMDL
MODEL 5
REMARK VINA RESULT:    -3.884     11.253     12.287
REMARK INTER + INTRA:          -4.132
REMARK INTER:                  -4.108
REMARK INTRA:                  -0.023
REMARK UNBOUND:                -0.020
REMARK SMILES O=C([O-])c1cccnc1
REMARK SMILES IDX 4 1 5 2 9 3 6 4 8 5 7 6 2 7 1 8 3 9
REMARK H PARENT
REMARK Flexibility Score: inf
ROOT
ATOM      1  C   UNL     1     -24.678 -24.841 -17.857  1.00  0.00     0.016 A 
ATOM      2  C   UNL     1     -25.308 -23.780 -17.189  1.00  0.00     0.013 A 
ATOM      3  C   UNL     1     -25.481 -25.788 -18.516  1.00  0.00     0.120 A 
ATOM      4  C   UNL     1     -26.702 -23.681 -17.187  1.00  0.00     0.021 A 
ATOM      5  N   UNL     1     -26.836 -25.668 -18.500  1.00  0.00    -0.264 NA
ATOM      6  C   UNL     1     -27.456 -24.645 -17.856  1.00  0.00     0.111 A 
ENDROOT
BRANCH   1   7
ATOM      7  C   UNL     1     -23.203 -24.956 -17.865  1.00  0.00     0.073 C 
ATOM      8  O   UNL     1     -22.506 -24.306 -17.041  1.00  0.00    -0.545 OA
ATOM      9  O   UNL     1     -22.565 -25.784 -18.781  1.00  0.00    -0.545 OA
ENDBRANCH   1   7
TORSDOF 1
ENDMDL
MODEL 6
REMARK VINA RESULT:    -3.775      1.721      2.149
REMARK INTER + INTRA:          -4.016
REMARK INTER:                  -3.999
REMARK INTRA:                  -0.018
REMARK UNBOUND:                -0.020
REMARK SMILES O=C([O-])c1cccnc1
REMARK SMILES IDX 4 1 5 2 9 3 6 4 8 5 7 6 2 7 1 8 3 9
REMARK H PARENT
REMARK Flexibility Score: inf
ROOT
ATOM      1  C   UNL     1     -14.051 -26.899 -17.530  1.00  0.00     0.016 A 
ATOM      2  C   UNL     1     -14.731 -26.973 -18.756  1.00  0.00     0.013 A 
ATOM      3  C   UNL     1     -14.770 -26.501 -16.389  1.00  0.00     0.120 A 
ATOM      4  C   UNL     1     -16.091 -26.658 -18.824  1.00  0.00     0.021 A 
ATOM      5  N   UNL     1     -16.093 -26.199 -16.483  1.00  0.00    -0.264 NA
ATOM      6  C   UNL     1     -16.761 -26.269 -17.664  1.00  0.00     0.111 A 
ENDROOT
BRANCH   1   7
ATOM      7  C   UNL     1     -12.612 -27.230 -17.447  1.00  0.00     0.073 C 
ATOM      8  O   UNL     1     -12.213 -28.167 -16.705  1.00  0.00    -0.545 OA
ATOM      9  O   UNL     1     -11.679 -26.512 -18.186  1.00  0.00    -0.545 OA
ENDBRANCH   1   7
TORSDOF 1
ENDMDL
MODEL 7
REMARK VINA RESULT:    -3.530     10.016     11.124
REMARK INTER + INTRA:          -3.757
REMARK INTER:                  -3.737
REMARK INTRA:                  -0.020
REMARK UNBOUND:                -0.020
REMARK SMILES O=C([O-])c1cccnc1
REMARK SMILES IDX 4 1 5 2 9 3 6 4 8 5 7 6 2 7 1 8 3 9
REMARK H PARENT
REMARK Flexibility Score: inf
ROOT
ATOM      1  C   UNL     1     -23.632 -25.364 -17.841  1.00  0.00     0.016 A 
ATOM      2  C   UNL     1     -22.927 -25.507 -16.635  1.00  0.00     0.013 A 
ATOM      3  C   UNL     1     -22.963 -25.652 -19.044  1.00  0.00     0.120 A 
ATOM      4  C   UNL     1     -21.595 -25.926 -16.647  1.00  0.00     0.021 A 
ATOM      5  N   UNL     1     -21.665 -26.058 -19.028  1.00  0.00    -0.264 NA
ATOM      6  C   UNL     1     -20.975 -26.199 -17.867  1.00  0.00     0.111 A 
ENDROOT
BRANCH   1   7
ATOM      7  C   UNL     1     -25.043 -24.921 -17.841  1.00  0.00     0.073 C 
ATOM      8  O   UNL     1     -25.893 -25.489 -18.577  1.00  0.00    -0.545 OA
ATOM      9  O   UNL     1     -25.452 -23.871 -17.027  1.00  0.00    -0.545 OA
ENDBRANCH   1   7
TORSDOF 1
ENDMDL
MODEL 8
REMARK VINA RESULT:    -3.516     11.504     11.735
REMARK INTER + INTRA:          -3.742
REMARK INTER:                  -3.726
REMARK INTRA:                  -0.016
REMARK UNBOUND:                -0.020
REMARK SMILES O=C([O-])c1cccnc1
REMARK SMILES IDX 4 1 5 2 9 3 6 4 8 5 7 6 2 7 1 8 3 9
REMARK H PARENT
REMARK Flexibility Score: inf
ROOT
ATOM      1  C   UNL     1     -11.690 -35.306 -25.711  1.00  0.00     0.016 A 
ATOM      2  C   UNL     1     -12.616 -34.328 -26.107  1.00  0.00     0.013 A 
ATOM      3  C   UNL     1     -10.855 -35.872 -26.689  1.00  0.00     0.120 A 
ATOM      4  C   UNL     1     -12.693 -33.936 -27.446  1.00  0.00     0.021 A 
ATOM      5  N   UNL     1     -10.950 -35.473 -27.987  1.00  0.00    -0.264 NA
ATOM      6  C   UNL     1     -11.842 -34.528 -28.381  1.00  0.00     0.111 A 
ENDROOT
BRANCH   1   7
ATOM      7  C   UNL     1     -11.601 -35.728 -24.296  1.00  0.00     0.073 C 
ATOM      8  O   UNL     1     -10.708 -35.256 -23.542  1.00  0.00    -0.545 OA
ATOM      9  O   UNL     1     -12.501 -36.650 -23.777  1.00  0.00    -0.545 OA
ENDBRANCH   1   7
TORSDOF 1
ENDMDL
MODEL 9
REMARK VINA RESULT:    -3.508     10.973     11.485
REMARK INTER + INTRA:          -3.733
REMARK INTER:                  -3.717
REMARK INTRA:                  -0.016
REMARK UNBOUND:                -0.020
REMARK SMILES O=C([O-])c1cccnc1
REMARK SMILES IDX 4 1 5 2 9 3 6 4 8 5 7 6 2 7 1 8 3 9
REMARK H PARENT
REMARK Flexibility Score: inf
ROOT
ATOM      1  C   UNL     1     -11.937 -35.843 -24.958  1.00  0.00     0.016 A 
ATOM      2  C   UNL     1     -11.127 -35.527 -23.856  1.00  0.00     0.013 A 
ATOM      3  C   UNL     1     -12.750 -36.987 -24.885  1.00  0.00     0.120 A 
ATOM      4  C   UNL     1     -11.139 -36.341 -22.721  1.00  0.00     0.021 A 
ATOM      5  N   UNL     1     -12.743 -37.763 -23.768  1.00  0.00    -0.264 NA
ATOM      6  C   UNL     1     -11.963 -37.467 -22.696  1.00  0.00     0.111 A 
ENDROOT
BRANCH   1   7
ATOM      7  C   UNL     1     -11.931 -34.988 -26.166  1.00  0.00     0.073 C 
ATOM      8  O   UNL     1     -12.609 -33.927 -26.202  1.00  0.00    -0.545 OA
ATOM      9  O   UNL     1     -11.177 -35.344 -27.277  1.00  0.00    -0.545 OA
ENDBRANCH   1   7
TORSDOF 1
ENDMDL
