MODEL 1
REMARK VINA RESULT:    -3.025      0.000      0.000
REMARK INTER + INTRA:          -3.843
REMARK INTER:                  -3.644
REMARK INTRA:                  -0.198
REMARK UNBOUND:                -0.198
REMARK SMILES OCC(O)CO
REMARK SMILES IDX 3 1 5 2 6 3 2 5 1 6 4 8
REMARK H PARENT 6 4 1 7 4 9
REMARK Flexibility Score: inf
ROOT
ATOM      1  C   UNL     1      -5.815   3.116  10.807  1.00  0.00     0.165 C 
ENDROOT
BRANCH   1   2
ATOM      2  C   UNL     1      -5.119   1.857  11.348  1.00  0.00     0.190 C 
BRANCH   2   3
ATOM      3  O   UNL     1      -5.815   0.694  10.984  1.00  0.00    -0.394 OA
ATOM      4  H   UNL     1      -5.478   0.426  10.090  1.00  0.00     0.210 HD
ENDBRANCH   2   3
ENDBRANCH   1   2
BRANCH   1   5
ATOM      5  C   UNL     1      -5.186   3.596   9.486  1.00  0.00     0.190 C 
BRANCH   5   6
ATOM      6  O   UNL     1      -4.953   2.517   8.620  1.00  0.00    -0.394 OA
ATOM      7  H   UNL     1      -5.813   2.032   8.531  1.00  0.00     0.210 HD
ENDBRANCH   5   6
ENDBRANCH   1   5
BRANCH   1   8
ATOM      8  O   UNL     1      -7.179   2.844  10.614  1.00  0.00    -0.388 OA
ATOM      9  H   UNL     1      -7.256   1.873  10.425  1.00  0.00     0.211 HD
ENDBRANCH   1   8
TORSDOF 5
ENDMDL
MODEL 2
REMARK VINA RESULT:    -2.735      1.164      3.072
REMARK INTER + INTRA:          -3.494
REMARK INTER:                  -3.287
REMARK INTRA:                  -0.207
REMARK UNBOUND:                -0.198
REMARK SMILES OCC(O)CO
REMARK SMILES IDX 3 1 5 2 6 3 2 5 1 6 4 8
REMARK H PARENT 6 4 1 7 4 9
REMARK Flexibility Score: inf
ROOT
ATOM      1  C   UNL     1      -5.024   3.545   9.682  1.00  0.00     0.165 C 
ENDROOT
BRANCH   1   2
ATOM      2  C   UNL     1      -5.680   4.761   9.010  1.00  0.00     0.190 C 
BRANCH   2   3
ATOM      3  O   UNL     1      -7.074   4.609   8.932  1.00  0.00    -0.394 OA
ATOM      4  H   UNL     1      -7.439   5.476   8.616  1.00  0.00     0.210 HD
ENDBRANCH   2   3
ENDBRANCH   1   2
BRANCH   1   5
ATOM      5  C   UNL     1      -5.731   3.164  10.996  1.00  0.00     0.190 C 
BRANCH   5   6
ATOM      6  O   UNL     1      -6.938   2.496  10.741  1.00  0.00    -0.394 OA
ATOM      7  H   UNL     1      -6.771   1.889   9.975  1.00  0.00     0.210 HD
ENDBRANCH   5   6
ENDBRANCH   1   5
BRANCH   1   8
ATOM      8  O   UNL     1      -5.048   2.457   8.795  1.00  0.00    -0.388 OA
ATOM      9  H   UNL     1      -4.248   1.905   8.994  1.00  0.00     0.211 HD
ENDBRANCH   1   8
TORSDOF 5
ENDMDL
MODEL 3
REMARK VINA RESULT:    -2.715      0.806      2.584
REMARK INTER + INTRA:          -3.469
REMARK INTER:                  -3.255
REMARK INTRA:                  -0.214
REMARK UNBOUND:                -0.198
REMARK SMILES OCC(O)CO
REMARK SMILES IDX 3 1 5 2 6 3 2 5 1 6 4 8
REMARK H PARENT 6 4 1 7 4 9
REMARK Flexibility Score: inf
ROOT
ATOM      1  C   UNL     1      -4.875   2.815  10.701  1.00  0.00     0.165 C 
ENDROOT
BRANCH   1   2
ATOM      2  C   UNL     1      -5.922   3.899  11.000  1.00  0.00     0.190 C 
BRANCH   2   3
ATOM      3  O   UNL     1      -7.226   3.397  10.870  1.00  0.00    -0.394 OA
ATOM      4  H   UNL     1      -7.367   2.765  11.622  1.00  0.00     0.210 HD
ENDBRANCH   2   3
ENDBRANCH   1   2
BRANCH   1   5
ATOM      5  C   UNL     1      -5.108   1.546  11.540  1.00  0.00     0.190 C 
BRANCH   5   6
ATOM      6  O   UNL     1      -5.938   0.641  10.862  1.00  0.00    -0.394 OA
ATOM      7  H   UNL     1      -6.530   0.232  11.544  1.00  0.00     0.210 HD
ENDBRANCH   5   6
ENDBRANCH   1   5
BRANCH   1   8
ATOM      8  O   UNL     1      -4.915   2.498   9.335  1.00  0.00    -0.388 OA
ATOM      9  H   UNL     1      -5.793   2.807   8.992  1.00  0.00     0.211 HD
ENDBRANCH   1   8
TORSDOF 5
ENDMDL
MODEL 4
REMARK VINA RESULT:    -2.663      1.213      2.820
REMARK INTER + INTRA:          -3.406
REMARK INTER:                  -3.190
REMARK INTRA:                  -0.217
REMARK UNBOUND:                -0.198
REMARK SMILES OCC(O)CO
REMARK SMILES IDX 3 1 5 2 6 3 2 5 1 6 4 8
REMARK H PARENT 6 4 1 7 4 9
REMARK Flexibility Score: inf
ROOT
ATOM      1  C   UNL     1      -5.597   2.278  11.251  1.00  0.00     0.165 C 
ENDROOT
BRANCH   1   2
ATOM      2  C   UNL     1      -5.260   3.188  10.059  1.00  0.00     0.190 C 
BRANCH   2   3
ATOM      3  O   UNL     1      -6.381   3.390   9.240  1.00  0.00    -0.394 OA
ATOM      4  H   UNL     1      -6.047   3.763   8.383  1.00  0.00     0.210 HD
ENDBRANCH   2   3
ENDBRANCH   1   2
BRANCH   1   5
ATOM      5  C   UNL     1      -6.998   2.570  11.817  1.00  0.00     0.190 C 
BRANCH   5   6
ATOM      6  O   UNL     1      -7.962   1.741  11.225  1.00  0.00    -0.394 OA
ATOM      7  H   UNL     1      -8.068   0.956  11.822  1.00  0.00     0.210 HD
ENDBRANCH   5   6
ENDBRANCH   1   5
BRANCH   1   8
ATOM      8  O   UNL     1      -5.516   0.936  10.846  1.00  0.00    -0.388 OA
ATOM      9  H   UNL     1      -4.630   0.817  10.416  1.00  0.00     0.211 HD
ENDBRANCH   1   8
TORSDOF 5
ENDMDL
MODEL 5
REMARK VINA RESULT:    -2.584      2.085      2.721
REMARK INTER + INTRA:          -3.311
REMARK INTER:                  -3.098
REMARK INTRA:                  -0.214
REMARK UNBOUND:                -0.198
REMARK SMILES OCC(O)CO
REMARK SMILES IDX 3 1 5 2 6 3 2 5 1 6 4 8
REMARK H PARENT 6 4 1 7 4 9
REMARK Flexibility Score: inf
ROOT
ATOM      1  C   UNL     1      -6.723   1.747  11.810  1.00  0.00     0.165 C 
ENDROOT
BRANCH   1   2
ATOM      2  C   UNL     1      -7.623   0.508  11.931  1.00  0.00     0.190 C 
BRANCH   2   3
ATOM      3  O   UNL     1      -7.208  -0.511  11.058  1.00  0.00    -0.394 OA
ATOM      4  H   UNL     1      -6.932  -0.069  10.214  1.00  0.00     0.210 HD
ENDBRANCH   2   3
ENDBRANCH   1   2
BRANCH   1   5
ATOM      5  C   UNL     1      -5.248   1.365  11.590  1.00  0.00     0.190 C 
BRANCH   5   6
ATOM      6  O   UNL     1      -4.876   0.298  12.421  1.00  0.00    -0.394 OA
ATOM      7  H   UNL     1      -5.397   0.396  13.259  1.00  0.00     0.210 HD
ENDBRANCH   5   6
ENDBRANCH   1   5
BRANCH   1   8
ATOM      8  O   UNL     1      -7.173   2.544  10.746  1.00  0.00    -0.388 OA
ATOM      9  H   UNL     1      -6.976   3.486  10.988  1.00  0.00     0.211 HD
ENDBRANCH   1   8
TORSDOF 5
ENDMDL
MODEL 6
REMARK VINA RESULT:    -2.540      1.183      2.540
REMARK INTER + INTRA:          -3.259
REMARK INTER:                  -3.043
REMARK INTRA:                  -0.215
REMARK UNBOUND:                -0.198
REMARK SMILES OCC(O)CO
REMARK SMILES IDX 3 1 5 2 6 3 2 5 1 6 4 8
REMARK H PARENT 6 4 1 7 4 9
REMARK Flexibility Score: inf
ROOT
ATOM      1  C   UNL     1      -5.735   3.678  10.596  1.00  0.00     0.165 C 
ENDROOT
BRANCH   1   2
ATOM      2  C   UNL     1      -5.088   3.912   9.221  1.00  0.00     0.190 C 
BRANCH   2   3
ATOM      3  O   UNL     1      -4.877   2.700   8.546  1.00  0.00    -0.394 OA
ATOM      4  H   UNL     1      -5.765   2.271   8.441  1.00  0.00     0.210 HD
ENDBRANCH   2   3
ENDBRANCH   1   2
BRANCH   1   5
ATOM      5  C   UNL     1      -5.099   2.486  11.334  1.00  0.00     0.190 C 
BRANCH   5   6
ATOM      6  O   UNL     1      -5.626   1.271  10.872  1.00  0.00    -0.394 OA
ATOM      7  H   UNL     1      -4.949   0.883  10.258  1.00  0.00     0.210 HD
ENDBRANCH   5   6
ENDBRANCH   1   5
BRANCH   1   8
ATOM      8  O   UNL     1      -5.607   4.841  11.371  1.00  0.00    -0.388 OA
ATOM      9  H   UNL     1      -6.299   5.478  11.051  1.00  0.00     0.211 HD
ENDBRANCH   1   8
TORSDOF 5
ENDMDL
MODEL 7
REMARK VINA RESULT:    -2.528      1.493      1.618
REMARK INTER + INTRA:          -3.243
REMARK INTER:                  -3.020
REMARK INTRA:                  -0.223
REMARK UNBOUND:                -0.198
REMARK SMILES OCC(O)CO
REMARK SMILES IDX 3 1 5 2 6 3 2 5 1 6 4 8
REMARK H PARENT 6 4 1 7 4 9
REMARK Flexibility Score: inf
ROOT
ATOM      1  C   UNL     1      -6.757   2.328  11.789  1.00  0.00     0.165 C 
ENDROOT
BRANCH   1   2
ATOM      2  C   UNL     1      -5.503   1.446  11.685  1.00  0.00     0.190 C 
BRANCH   2   3
ATOM      3  O   UNL     1      -5.230   1.105  10.351  1.00  0.00    -0.394 OA
ATOM      4  H   UNL     1      -5.821   0.340  10.124  1.00  0.00     0.210 HD
ENDBRANCH   2   3
ENDBRANCH   1   2
BRANCH   1   5
ATOM      5  C   UNL     1      -6.571   3.676  11.069  1.00  0.00     0.190 C 
BRANCH   5   6
ATOM      6  O   UNL     1      -6.692   3.524   9.680  1.00  0.00    -0.394 OA
ATOM      7  H   UNL     1      -7.169   2.667   9.528  1.00  0.00     0.210 HD
ENDBRANCH   5   6
ENDBRANCH   1   5
BRANCH   1   8
ATOM      8  O   UNL     1      -7.852   1.642  11.242  1.00  0.00    -0.388 OA
ATOM      9  H   UNL     1      -8.119   2.133  10.422  1.00  0.00     0.211 HD
ENDBRANCH   1   8
TORSDOF 5
ENDMDL
MODEL 8
REMARK VINA RESULT:    -2.511      8.671      9.002
REMARK INTER + INTRA:          -3.223
REMARK INTER:                  -3.001
REMARK INTRA:                  -0.223
REMARK UNBOUND:                -0.198
REMARK SMILES OCC(O)CO
REMARK SMILES IDX 3 1 5 2 6 3 2 5 1 6 4 8
REMARK H PARENT 6 4 1 7 4 9
REMARK Flexibility Score: inf
ROOT
ATOM      1  C   UNL     1      -9.811  -1.783   3.378  1.00  0.00     0.165 C 
ENDROOT
BRANCH   1   2
ATOM      2  C   UNL     1      -9.018  -1.231   2.183  1.00  0.00     0.190 C 
BRANCH   2   3
ATOM      3  O   UNL     1      -7.870  -0.544   2.606  1.00  0.00    -0.394 OA
ATOM      4  H   UNL     1      -7.664   0.129   1.907  1.00  0.00     0.210 HD
ENDBRANCH   2   3
ENDBRANCH   1   2
BRANCH   1   5
ATOM      5  C   UNL     1      -9.204  -3.093   3.913  1.00  0.00     0.190 C 
BRANCH   5   6
ATOM      6  O   UNL     1      -7.929  -2.871   4.453  1.00  0.00    -0.394 OA
ATOM      7  H   UNL     1      -7.279  -3.287   3.829  1.00  0.00     0.210 HD
ENDBRANCH   5   6
ENDBRANCH   1   5
BRANCH   1   8
ATOM      8  O   UNL     1      -9.841  -0.820   4.398  1.00  0.00    -0.388 OA
ATOM      9  H   UNL     1      -8.909  -0.714   4.723  1.00  0.00     0.211 HD
ENDBRANCH   1   8
TORSDOF 5
ENDMDL
MODEL 9
REMARK VINA RESULT:    -2.484      6.191      7.018
REMARK INTER + INTRA:          -3.190
REMARK INTER:                  -2.976
REMARK INTRA:                  -0.215
REMARK UNBOUND:                -0.198
REMARK SMILES OCC(O)CO
REMARK SMILES IDX 3 1 5 2 6 3 2 5 1 6 4 8
REMARK H PARENT 6 4 1 7 4 9
REMARK Flexibility Score: inf
ROOT
ATOM      1  C   UNL     1      -6.785   7.031  15.179  1.00  0.00     0.165 C 
ENDROOT
BRANCH   1   2
ATOM      2  C   UNL     1      -7.168   8.398  14.590  1.00  0.00     0.190 C 
BRANCH   2   3
ATOM      3  O   UNL     1      -6.029   9.170  14.314  1.00  0.00    -0.394 OA
ATOM      4  H   UNL     1      -5.632   9.419  15.188  1.00  0.00     0.210 HD
ENDBRANCH   2   3
ENDBRANCH   1   2
BRANCH   1   5
ATOM      5  C   UNL     1      -6.001   6.171  14.170  1.00  0.00     0.190 C 
BRANCH   5   6
ATOM      6  O   UNL     1      -6.051   6.733  12.886  1.00  0.00    -0.394 OA
ATOM      7  H   UNL     1      -6.966   7.099  12.772  1.00  0.00     0.210 HD
ENDBRANCH   5   6
ENDBRANCH   1   5
BRANCH   1   8
ATOM      8  O   UNL     1      -6.019   7.224  16.338  1.00  0.00    -0.388 OA
ATOM      9  H   UNL     1      -6.365   8.043  16.780  1.00  0.00     0.211 HD
ENDBRANCH   1   8
TORSDOF 5
ENDMDL
