MODEL 1
REMARK VINA RESULT:    -5.682      0.000      0.000
REMARK INTER + INTRA:          -7.140
REMARK INTER:                  -6.845
REMARK INTRA:                  -0.295
REMARK UNBOUND:                -0.295
REMARK SMILES O=c1c(O)c(-c2ccc(O)c(O)c2)oc2cc(O)cc(O)c12
REMARK SMILES IDX 5 1 3 2 2 3 1 4 22 5 20 6 19 7 17 8 16 9 15 10 14 11 6 12
REMARK SMILES IDX 7 13 8 14 9 15 13 16 11 17 10 18 12 20 4 22 21 24 18 26
REMARK H PARENT 10 19 12 21 4 23 21 25 18 27
REMARK Flexibility Score: inf
ROOT
ATOM      1  C   UNL     1      72.329 -79.873  32.494  1.00  0.00     0.180 A 
ATOM      2  C   UNL     1      71.446 -79.152  33.317  1.00  0.00     0.208 A 
ATOM      3  C   UNL     1      70.566 -79.857  34.153  1.00  0.00     0.238 A 
ATOM      4  O   UNL     1      69.741 -79.208  34.847  1.00  0.00    -0.285 OA
ATOM      5  C   UNL     1      70.590 -81.273  34.168  1.00  0.00     0.111 A 
ATOM      6  C   UNL     1      69.772 -82.089  35.006  1.00  0.00     0.134 A 
ATOM      7  C   UNL     1      69.786 -83.479  34.844  1.00  0.00     0.093 A 
ATOM      8  C   UNL     1      70.639 -84.087  33.919  1.00  0.00     0.123 A 
ATOM      9  C   UNL     1      71.486 -83.303  33.138  1.00  0.00     0.094 A 
ATOM     10  C   UNL     1      71.467 -81.911  33.253  1.00  0.00     0.146 A 
ATOM     11  O   UNL     1      72.282 -81.200  32.483  1.00  0.00    -0.452 OA
ENDROOT
BRANCH   1  12
ATOM     12  C   UNL     1      73.303 -79.200  31.604  1.00  0.00     0.025 A 
ATOM     13  C   UNL     1      74.625 -79.021  32.037  1.00  0.00     0.016 A 
ATOM     14  C   UNL     1      75.555 -78.370  31.223  1.00  0.00     0.051 A 
ATOM     15  C   UNL     1      75.175 -77.875  29.972  1.00  0.00     0.157 A 
ATOM     16  C   UNL     1      72.916 -78.683  30.354  1.00  0.00     0.062 A 
ATOM     17  C   UNL     1      73.848 -78.028  29.536  1.00  0.00     0.158 A 
BRANCH  15  18
ATOM     18  O   UNL     1      76.125 -77.231  29.179  1.00  0.00    -0.504 OA
ATOM     19  H   UNL     1      77.100 -77.507  29.177  1.00  0.00     0.293 HD
ENDBRANCH  15  18
BRANCH  17  20
ATOM     20  O   UNL     1      73.458 -77.524  28.295  1.00  0.00    -0.504 OA
ATOM     21  H   UNL     1      73.107 -78.129  27.563  1.00  0.00     0.293 HD
ENDBRANCH  17  20
ENDBRANCH   1  12
BRANCH   2  22
ATOM     22  O   UNL     1      71.424 -77.756  33.270  1.00  0.00    -0.502 OA
ATOM     23  H   UNL     1      72.261 -77.201  33.139  1.00  0.00     0.293 HD
ENDBRANCH   2  22
BRANCH   6  24
ATOM     24  O   UNL     1      68.953 -81.588  36.023  1.00  0.00    -0.507 OA
ATOM     25  H   UNL     1      68.876 -81.985  36.947  1.00  0.00     0.293 HD
ENDBRANCH   6  24
BRANCH   8  26
ATOM     26  O   UNL     1      70.660 -85.472  33.774  1.00  0.00    -0.508 OA
ATOM     27  H   UNL     1      70.905 -85.910  32.894  1.00  0.00     0.293 HD
ENDBRANCH   8  26
TORSDOF 6
ENDMDL
MODEL 2
REMARK VINA RESULT:    -5.137      1.452      6.672
REMARK INTER + INTRA:          -6.483
REMARK INTER:                  -6.196
REMARK INTRA:                  -0.287
REMARK UNBOUND:                -0.295
REMARK SMILES O=c1c(O)c(-c2ccc(O)c(O)c2)oc2cc(O)cc(O)c12
REMARK SMILES IDX 5 1 3 2 2 3 1 4 22 5 20 6 19 7 17 8 16 9 15 10 14 11 6 12
REMARK SMILES IDX 7 13 8 14 9 15 13 16 11 17 10 18 12 20 4 22 21 24 18 26
REMARK H PARENT 10 19 12 21 4 23 21 25 18 27
REMARK Flexibility Score: inf
ROOT
ATOM      1  C   UNL     1      71.562 -80.686  32.281  1.00  0.00     0.180 A 
ATOM      2  C   UNL     1      70.821 -79.633  32.845  1.00  0.00     0.208 A 
ATOM      3  C   UNL     1      71.186 -78.309  32.551  1.00  0.00     0.238 A 
ATOM      4  O   UNL     1      70.553 -77.370  33.100  1.00  0.00    -0.285 OA
ATOM      5  C   UNL     1      72.278 -78.056  31.685  1.00  0.00     0.111 A 
ATOM      6  C   UNL     1      72.710 -76.755  31.286  1.00  0.00     0.134 A 
ATOM      7  C   UNL     1      73.882 -76.618  30.531  1.00  0.00     0.093 A 
ATOM      8  C   UNL     1      74.599 -77.739  30.106  1.00  0.00     0.123 A 
ATOM      9  C   UNL     1      74.151 -79.015  30.439  1.00  0.00     0.094 A 
ATOM     10  C   UNL     1      73.006 -79.182  31.222  1.00  0.00     0.146 A 
ATOM     11  O   UNL     1      72.620 -80.415  31.527  1.00  0.00    -0.452 OA
ENDROOT
BRANCH   1  12
ATOM     12  C   UNL     1      71.222 -82.106  32.525  1.00  0.00     0.025 A 
ATOM     13  C   UNL     1      70.477 -82.812  31.569  1.00  0.00     0.016 A 
ATOM     14  C   UNL     1      70.127 -84.147  31.788  1.00  0.00     0.051 A 
ATOM     15  C   UNL     1      70.502 -84.791  32.971  1.00  0.00     0.157 A 
ATOM     16  C   UNL     1      71.581 -82.749  33.724  1.00  0.00     0.062 A 
ATOM     17  C   UNL     1      71.228 -84.089  33.946  1.00  0.00     0.158 A 
BRANCH  15  18
ATOM     18  O   UNL     1      70.140 -86.125  33.161  1.00  0.00    -0.504 OA
ATOM     19  H   UNL     1      69.532 -86.614  32.516  1.00  0.00     0.293 HD
ENDBRANCH  15  18
BRANCH  17  20
ATOM     20  O   UNL     1      71.593 -84.721  35.135  1.00  0.00    -0.504 OA
ATOM     21  H   UNL     1      72.548 -85.013  35.309  1.00  0.00     0.293 HD
ENDBRANCH  17  20
ENDBRANCH   1  12
BRANCH   2  22
ATOM     22  O   UNL     1      69.761 -79.905  33.713  1.00  0.00    -0.502 OA
ATOM     23  H   UNL     1      68.796 -79.927  33.405  1.00  0.00     0.293 HD
ENDBRANCH   2  22
BRANCH   6  24
ATOM     24  O   UNL     1      72.017 -75.578  31.580  1.00  0.00    -0.507 OA
ATOM     25  H   UNL     1      71.559 -74.994  30.896  1.00  0.00     0.293 HD
ENDBRANCH   6  24
BRANCH   8  26
ATOM     26  O   UNL     1      75.755 -77.595  29.341  1.00  0.00    -0.508 OA
ATOM     27  H   UNL     1      76.016 -78.281  28.642  1.00  0.00     0.293 HD
ENDBRANCH   8  26
TORSDOF 6
ENDMDL
