MODEL 1
REMARK VINA RESULT:    -4.165      0.000      0.000
REMARK INTER + INTRA:         -11.694
REMARK INTER:                  -9.034
REMARK INTRA:                  -2.660
REMARK UNBOUND:                -2.660
REMARK SMILES CCCCCCCCCCCCCCCCCCCCCC(=O)[O-]
REMARK SMILES IDX 12 1 11 2 10 3 9 4 8 5 7 6 6 7 5 8 4 9 3 10 2 11 1 12 13 13
REMARK SMILES IDX 14 14 15 15 16 16 17 17 18 18 19 19 20 20 21 21 22 22 23 23
REMARK SMILES IDX 24 24
REMARK H PARENT
REMARK Flexibility Score: inf
ROOT
ATOM      1  C   UNL     1      40.764  23.031 223.016  1.00  0.00     0.000 C 
ENDROOT
BRANCH   1   2
ATOM      2  C   UNL     1      41.283  21.729 222.384  1.00  0.00     0.000 C 
BRANCH   2   3
ATOM      3  C   UNL     1      42.536  21.190 223.097  1.00  0.00     0.000 C 
BRANCH   3   4
ATOM      4  C   UNL     1      42.551  19.656 223.187  1.00  0.00    -0.000 C 
BRANCH   4   5
ATOM      5  C   UNL     1      42.602  19.146 224.635  1.00  0.00    -0.000 C 
BRANCH   5   6
ATOM      6  C   UNL     1      41.999  20.174 225.601  1.00  0.00    -0.000 C 
BRANCH   6   7
ATOM      7  C   UNL     1      40.636  19.700 226.125  1.00  0.00    -0.000 C 
BRANCH   7   8
ATOM      8  C   UNL     1      39.461  20.488 225.524  1.00  0.00    -0.000 C 
BRANCH   8   9
ATOM      9  C   UNL     1      38.099  19.838 225.823  1.00  0.00    -0.000 C 
BRANCH   9  10
ATOM     10  C   UNL     1      38.233  18.389 226.319  1.00  0.00    -0.000 C 
BRANCH  10  11
ATOM     11  C   UNL     1      37.678  18.194 227.737  1.00  0.00    -0.003 C 
ATOM     12  C   UNL     1      36.884  16.895 227.843  1.00  0.00     0.004 C 
ENDBRANCH  10  11
ENDBRANCH   9  10
ENDBRANCH   8   9
ENDBRANCH   7   8
ENDBRANCH   6   7
ENDBRANCH   5   6
ENDBRANCH   4   5
ENDBRANCH   3   4
ENDBRANCH   2   3
ENDBRANCH   1   2
BRANCH   1  13
ATOM     13  C   UNL     1      41.633  23.501 224.196  1.00  0.00     0.000 C 
BRANCH  13  14
ATOM     14  C   UNL     1      40.799  23.954 225.407  1.00  0.00     0.000 C 
BRANCH  14  15
ATOM     15  C   UNL     1      39.304  24.198 225.111  1.00  0.00     0.000 C 
BRANCH  15  16
ATOM     16  C   UNL     1      38.861  25.674 225.164  1.00  0.00     0.000 C 
BRANCH  16  17
ATOM     17  C   UNL     1      37.595  26.006 224.346  1.00  0.00     0.000 C 
BRANCH  17  18
ATOM     18  C   UNL     1      36.341  25.202 224.732  1.00  0.00     0.000 C 
BRANCH  18  19
ATOM     19  C   UNL     1      35.784  24.370 223.564  1.00  0.00     0.000 C 
BRANCH  19  20
ATOM     20  C   UNL     1      36.415  24.748 222.215  1.00  0.00     0.006 C 
BRANCH  20  21
ATOM     21  C   UNL     1      37.157  23.579 221.555  1.00  0.00     0.053 C 
BRANCH  21  22
ATOM     22  C   UNL     1      36.986  23.623 220.068  1.00  0.00     0.041 C 
ATOM     23  O   UNL     1      36.378  24.584 219.529  1.00  0.00    -0.550 OA
ATOM     24  O   UNL     1      37.548  22.630 219.275  1.00  0.00    -0.550 OA
ENDBRANCH  21  22
ENDBRANCH  20  21
ENDBRANCH  19  20
ENDBRANCH  18  19
ENDBRANCH  17  18
ENDBRANCH  16  17
ENDBRANCH  15  16
ENDBRANCH  14  15
ENDBRANCH  13  14
ENDBRANCH   1  13
TORSDOF 20
ENDMDL
MODEL 2
REMARK VINA RESULT:    -4.087      3.680      6.912
REMARK INTER + INTRA:         -11.525
REMARK INTER:                  -8.060
REMARK INTRA:                  -3.465
REMARK UNBOUND:                -2.660
REMARK SMILES CCCCCCCCCCCCCCCCCCCCCC(=O)[O-]
REMARK SMILES IDX 12 1 11 2 10 3 9 4 8 5 7 6 6 7 5 8 4 9 3 10 2 11 1 12 13 13
REMARK SMILES IDX 14 14 15 15 16 16 17 17 18 18 19 19 20 20 21 21 22 22 23 23
REMARK SMILES IDX 24 24
REMARK H PARENT
REMARK Flexibility Score: inf
ROOT
ATOM      1  C   UNL     1      41.644  24.162 224.900  1.00  0.00     0.000 C 
ENDROOT
BRANCH   1   2
ATOM      2  C   UNL     1      41.818  22.910 224.024  1.00  0.00     0.000 C 
BRANCH   2   3
ATOM      3  C   UNL     1      40.796  22.854 222.875  1.00  0.00     0.000 C 
BRANCH   3   4
ATOM      4  C   UNL     1      39.832  24.051 222.879  1.00  0.00    -0.000 C 
BRANCH   4   5
ATOM      5  C   UNL     1      38.371  23.640 222.642  1.00  0.00    -0.000 C 
BRANCH   5   6
ATOM      6  C   UNL     1      37.406  24.664 223.253  1.00  0.00    -0.000 C 
BRANCH   6   7
ATOM      7  C   UNL     1      38.123  25.546 224.285  1.00  0.00    -0.000 C 
BRANCH   7   8
ATOM      8  C   UNL     1      37.730  25.207 225.732  1.00  0.00    -0.000 C 
BRANCH   8   9
ATOM      9  C   UNL     1      38.492  26.055 226.765  1.00  0.00    -0.000 C 
BRANCH   9  10
ATOM     10  C   UNL     1      39.601  26.907 226.127  1.00  0.00    -0.000 C 
BRANCH  10  11
ATOM     11  C   UNL     1      40.191  27.937 227.100  1.00  0.00    -0.003 C 
ATOM     12  C   UNL     1      41.123  28.906 226.377  1.00  0.00     0.004 C 
ENDBRANCH  10  11
ENDBRANCH   9  10
ENDBRANCH   8   9
ENDBRANCH   7   8
ENDBRANCH   6   7
ENDBRANCH   5   6
ENDBRANCH   4   5
ENDBRANCH   3   4
ENDBRANCH   2   3
ENDBRANCH   1   2
BRANCH   1  13
ATOM     13  C   UNL     1      42.267  23.995 226.297  1.00  0.00     0.000 C 
BRANCH  13  14
ATOM     14  C   UNL     1      41.216  23.737 227.390  1.00  0.00     0.000 C 
BRANCH  14  15
ATOM     15  C   UNL     1      40.638  22.307 227.410  1.00  0.00     0.000 C 
BRANCH  15  16
ATOM     16  C   UNL     1      39.165  22.192 226.967  1.00  0.00     0.000 C 
BRANCH  16  17
ATOM     17  C   UNL     1      38.943  21.477 225.618  1.00  0.00     0.000 C 
BRANCH  17  18
ATOM     18  C   UNL     1      37.481  21.104 225.310  1.00  0.00     0.000 C 
BRANCH  18  19
ATOM     19  C   UNL     1      36.979  19.919 226.151  1.00  0.00     0.000 C 
BRANCH  19  20
ATOM     20  C   UNL     1      37.525  18.570 225.658  1.00  0.00     0.006 C 
BRANCH  20  21
ATOM     21  C   UNL     1      38.499  17.922 226.652  1.00  0.00     0.053 C 
BRANCH  21  22
ATOM     22  C   UNL     1      37.794  17.579 227.927  1.00  0.00     0.041 C 
ATOM     23  O   UNL     1      36.929  16.665 227.946  1.00  0.00    -0.550 OA
ATOM     24  O   UNL     1      38.134  18.232 229.105  1.00  0.00    -0.550 OA
ENDBRANCH  21  22
ENDBRANCH  20  21
ENDBRANCH  19  20
ENDBRANCH  18  19
ENDBRANCH  17  18
ENDBRANCH  16  17
ENDBRANCH  15  16
ENDBRANCH  14  15
ENDBRANCH  13  14
ENDBRANCH   1  13
TORSDOF 20
ENDMDL
MODEL 3
REMARK VINA RESULT:    -4.049      1.672      2.488
REMARK INTER + INTRA:         -11.444
REMARK INTER:                  -7.730
REMARK INTRA:                  -3.714
REMARK UNBOUND:                -2.660
REMARK SMILES CCCCCCCCCCCCCCCCCCCCCC(=O)[O-]
REMARK SMILES IDX 12 1 11 2 10 3 9 4 8 5 7 6 6 7 5 8 4 9 3 10 2 11 1 12 13 13
REMARK SMILES IDX 14 14 15 15 16 16 17 17 18 18 19 19 20 20 21 21 22 22 23 23
REMARK SMILES IDX 24 24
REMARK H PARENT
REMARK Flexibility Score: inf
ROOT
ATOM      1  C   UNL     1      40.629  21.586 224.092  1.00  0.00     0.000 C 
ENDROOT
BRANCH   1   2
ATOM      2  C   UNL     1      41.566  20.367 224.084  1.00  0.00     0.000 C 
BRANCH   2   3
ATOM      3  C   UNL     1      42.002  19.955 225.501  1.00  0.00     0.000 C 
BRANCH   3   4
ATOM      4  C   UNL     1      42.169  21.158 226.443  1.00  0.00    -0.000 C 
BRANCH   4   5
ATOM      5  C   UNL     1      41.327  21.033 227.722  1.00  0.00    -0.000 C 
BRANCH   5   6
ATOM      6  C   UNL     1      40.401  22.244 227.891  1.00  0.00    -0.000 C 
BRANCH   6   7
ATOM      7  C   UNL     1      38.938  21.799 228.039  1.00  0.00    -0.000 C 
BRANCH   7   8
ATOM      8  C   UNL     1      38.728  20.319 227.685  1.00  0.00    -0.000 C 
BRANCH   8   9
ATOM      9  C   UNL     1      38.021  20.130 226.331  1.00  0.00    -0.000 C 
BRANCH   9  10
ATOM     10  C   UNL     1      37.890  18.651 225.934  1.00  0.00    -0.000 C 
BRANCH  10  11
ATOM     11  C   UNL     1      36.572  18.024 226.408  1.00  0.00    -0.003 C 
ATOM     12  C   UNL     1      36.765  17.257 227.714  1.00  0.00     0.004 C 
ENDBRANCH  10  11
ENDBRANCH   9  10
ENDBRANCH   8   9
ENDBRANCH   7   8
ENDBRANCH   6   7
ENDBRANCH   5   6
ENDBRANCH   4   5
ENDBRANCH   3   4
ENDBRANCH   2   3
ENDBRANCH   1   2
BRANCH   1  13
ATOM     13  C   UNL     1      40.905  22.550 222.924  1.00  0.00     0.000 C 
BRANCH  13  14
ATOM     14  C   UNL     1      40.926  24.024 223.363  1.00  0.00     0.000 C 
BRANCH  14  15
ATOM     15  C   UNL     1      41.656  24.296 224.694  1.00  0.00     0.000 C 
BRANCH  15  16
ATOM     16  C   UNL     1      40.853  25.122 225.721  1.00  0.00     0.000 C 
BRANCH  16  17
ATOM     17  C   UNL     1      39.422  25.496 225.283  1.00  0.00     0.000 C 
BRANCH  17  18
ATOM     18  C   UNL     1      38.332  25.260 226.344  1.00  0.00     0.000 C 
BRANCH  18  19
ATOM     19  C   UNL     1      37.228  24.304 225.861  1.00  0.00     0.000 C 
BRANCH  19  20
ATOM     20  C   UNL     1      37.676  23.432 224.678  1.00  0.00     0.006 C 
BRANCH  20  21
ATOM     21  C   UNL     1      36.554  23.187 223.660  1.00  0.00     0.053 C 
BRANCH  21  22
ATOM     22  C   UNL     1      36.670  24.142 222.513  1.00  0.00     0.041 C 
ATOM     23  O   UNL     1      36.711  25.382 222.723  1.00  0.00    -0.550 OA
ATOM     24  O   UNL     1      36.789  23.657 221.215  1.00  0.00    -0.550 OA
ENDBRANCH  21  22
ENDBRANCH  20  21
ENDBRANCH  19  20
ENDBRANCH  18  19
ENDBRANCH  17  18
ENDBRANCH  16  17
ENDBRANCH  15  16
ENDBRANCH  14  15
ENDBRANCH  13  14
ENDBRANCH   1  13
TORSDOF 20
ENDMDL
MODEL 4
REMARK VINA RESULT:    -4.013      1.772      3.972
REMARK INTER + INTRA:         -11.366
REMARK INTER:                  -8.026
REMARK INTRA:                  -3.340
REMARK UNBOUND:                -2.660
REMARK SMILES CCCCCCCCCCCCCCCCCCCCCC(=O)[O-]
REMARK SMILES IDX 12 1 11 2 10 3 9 4 8 5 7 6 6 7 5 8 4 9 3 10 2 11 1 12 13 13
REMARK SMILES IDX 14 14 15 15 16 16 17 17 18 18 19 19 20 20 21 21 22 22 23 23
REMARK SMILES IDX 24 24
REMARK H PARENT
REMARK Flexibility Score: inf
ROOT
ATOM      1  C   UNL     1      41.349  20.828 227.764  1.00  0.00     0.000 C 
ENDROOT
BRANCH   1   2
ATOM      2  C   UNL     1      40.068  21.620 228.072  1.00  0.00     0.000 C 
BRANCH   2   3
ATOM      3  C   UNL     1      38.957  20.732 228.659  1.00  0.00     0.000 C 
BRANCH   3   4
ATOM      4  C   UNL     1      39.476  19.772 229.741  1.00  0.00    -0.000 C 
BRANCH   4   5
ATOM      5  C   UNL     1      38.735  18.426 229.747  1.00  0.00    -0.000 C 
BRANCH   5   6
ATOM      6  C   UNL     1      39.619  17.309 229.178  1.00  0.00    -0.000 C 
BRANCH   6   7
ATOM      7  C   UNL     1      39.085  16.822 227.824  1.00  0.00    -0.000 C 
BRANCH   7   8
ATOM      8  C   UNL     1      39.740  17.540 226.633  1.00  0.00    -0.000 C 
BRANCH   8   9
ATOM      9  C   UNL     1      38.750  18.432 225.864  1.00  0.00    -0.000 C 
BRANCH   9  10
ATOM     10  C   UNL     1      37.296  18.225 226.315  1.00  0.00    -0.000 C 
BRANCH  10  11
ATOM     11  C   UNL     1      36.393  19.419 225.971  1.00  0.00    -0.003 C 
ATOM     12  C   UNL     1      37.207  20.579 225.404  1.00  0.00     0.004 C 
ENDBRANCH  10  11
ENDBRANCH   9  10
ENDBRANCH   8   9
ENDBRANCH   7   8
ENDBRANCH   6   7
ENDBRANCH   5   6
ENDBRANCH   4   5
ENDBRANCH   3   4
ENDBRANCH   2   3
ENDBRANCH   1   2
BRANCH   1  13
ATOM     13  C   UNL     1      42.065  21.332 226.499  1.00  0.00     0.000 C 
BRANCH  13  14
ATOM     14  C   UNL     1      41.918  20.369 225.308  1.00  0.00     0.000 C 
BRANCH  14  15
ATOM     15  C   UNL     1      40.944  20.839 224.208  1.00  0.00     0.000 C 
BRANCH  15  16
ATOM     16  C   UNL     1      40.959  22.357 223.929  1.00  0.00     0.000 C 
BRANCH  16  17
ATOM     17  C   UNL     1      39.695  23.116 224.381  1.00  0.00     0.000 C 
BRANCH  17  18
ATOM     18  C   UNL     1      39.314  24.325 223.508  1.00  0.00     0.000 C 
BRANCH  18  19
ATOM     19  C   UNL     1      37.796  24.571 223.462  1.00  0.00     0.000 C 
BRANCH  19  20
ATOM     20  C   UNL     1      37.016  23.359 222.929  1.00  0.00     0.006 C 
BRANCH  20  21
ATOM     21  C   UNL     1      35.953  23.743 221.891  1.00  0.00     0.053 C 
BRANCH  21  22
ATOM     22  C   UNL     1      36.575  23.904 220.540  1.00  0.00     0.041 C 
ATOM     23  O   UNL     1      37.594  23.234 220.228  1.00  0.00    -0.550 OA
ATOM     24  O   UNL     1      35.995  24.753 219.605  1.00  0.00    -0.550 OA
ENDBRANCH  21  22
ENDBRANCH  20  21
ENDBRANCH  19  20
ENDBRANCH  18  19
ENDBRANCH  17  18
ENDBRANCH  16  17
ENDBRANCH  15  16
ENDBRANCH  14  15
ENDBRANCH  13  14
ENDBRANCH   1  13
TORSDOF 20
ENDMDL
MODEL 5
REMARK VINA RESULT:    -3.989      3.390      6.613
REMARK INTER + INTRA:         -11.313
REMARK INTER:                  -7.606
REMARK INTRA:                  -3.706
REMARK UNBOUND:                -2.660
REMARK SMILES CCCCCCCCCCCCCCCCCCCCCC(=O)[O-]
REMARK SMILES IDX 12 1 11 2 10 3 9 4 8 5 7 6 6 7 5 8 4 9 3 10 2 11 1 12 13 13
REMARK SMILES IDX 14 14 15 15 16 16 17 17 18 18 19 19 20 20 21 21 22 22 23 23
REMARK SMILES IDX 24 24
REMARK H PARENT
REMARK Flexibility Score: inf
ROOT
ATOM      1  C   UNL     1      36.034  24.506 223.346  1.00  0.00     0.000 C 
ENDROOT
BRANCH   1   2
ATOM      2  C   UNL     1      37.066  23.451 222.916  1.00  0.00     0.000 C 
BRANCH   2   3
ATOM      3  C   UNL     1      37.465  22.517 224.072  1.00  0.00     0.000 C 
BRANCH   3   4
ATOM      4  C   UNL     1      38.987  22.334 224.186  1.00  0.00    -0.000 C 
BRANCH   4   5
ATOM      5  C   UNL     1      39.769  23.236 223.219  1.00  0.00    -0.000 C 
BRANCH   5   6
ATOM      6  C   UNL     1      41.224  23.401 223.676  1.00  0.00    -0.000 C 
BRANCH   6   7
ATOM      7  C   UNL     1      41.465  22.682 225.011  1.00  0.00    -0.000 C 
BRANCH   7   8
ATOM      8  C   UNL     1      42.309  23.512 225.991  1.00  0.00    -0.000 C 
BRANCH   8   9
ATOM      9  C   UNL     1      42.371  25.000 225.602  1.00  0.00    -0.000 C 
BRANCH   9  10
ATOM     10  C   UNL     1      42.238  25.933 226.817  1.00  0.00    -0.000 C 
BRANCH  10  11
ATOM     11  C   UNL     1      42.773  27.345 226.541  1.00  0.00    -0.003 C 
ATOM     12  C   UNL     1      43.865  27.724 227.538  1.00  0.00     0.004 C 
ENDBRANCH  10  11
ENDBRANCH   9  10
ENDBRANCH   8   9
ENDBRANCH   7   8
ENDBRANCH   6   7
ENDBRANCH   5   6
ENDBRANCH   4   5
ENDBRANCH   3   4
ENDBRANCH   2   3
ENDBRANCH   1   2
BRANCH   1  13
ATOM     13  C   UNL     1      36.538  25.388 224.502  1.00  0.00     0.000 C 
BRANCH  13  14
ATOM     14  C   UNL     1      37.809  26.175 224.140  1.00  0.00     0.000 C 
BRANCH  14  15
ATOM     15  C   UNL     1      38.889  26.207 225.241  1.00  0.00     0.000 C 
BRANCH  15  16
ATOM     16  C   UNL     1      38.402  25.790 226.644  1.00  0.00     0.000 C 
BRANCH  16  17
ATOM     17  C   UNL     1      38.979  24.458 227.166  1.00  0.00     0.000 C 
BRANCH  17  18
ATOM     18  C   UNL     1      37.931  23.429 227.626  1.00  0.00     0.000 C 
BRANCH  18  19
ATOM     19  C   UNL     1      38.560  22.102 228.084  1.00  0.00     0.000 C 
BRANCH  19  20
ATOM     20  C   UNL     1      37.911  20.879 227.417  1.00  0.00     0.006 C 
BRANCH  20  21
ATOM     21  C   UNL     1      38.239  19.564 228.137  1.00  0.00     0.053 C 
BRANCH  21  22
ATOM     22  C   UNL     1      37.709  18.397 227.363  1.00  0.00     0.041 C 
ATOM     23  O   UNL     1      38.485  17.478 226.992  1.00  0.00    -0.550 OA
ATOM     24  O   UNL     1      36.348  18.300 227.100  1.00  0.00    -0.550 OA
ENDBRANCH  21  22
ENDBRANCH  20  21
ENDBRANCH  19  20
ENDBRANCH  18  19
ENDBRANCH  17  18
ENDBRANCH  16  17
ENDBRANCH  15  16
ENDBRANCH  14  15
ENDBRANCH  13  14
ENDBRANCH   1  13
TORSDOF 20
ENDMDL
MODEL 6
REMARK VINA RESULT:    -3.946      3.072      4.900
REMARK INTER + INTRA:         -11.219
REMARK INTER:                  -7.642
REMARK INTRA:                  -3.577
REMARK UNBOUND:                -2.660
REMARK SMILES CCCCCCCCCCCCCCCCCCCCCC(=O)[O-]
REMARK SMILES IDX 12 1 11 2 10 3 9 4 8 5 7 6 6 7 5 8 4 9 3 10 2 11 1 12 13 13
REMARK SMILES IDX 14 14 15 15 16 16 17 17 18 18 19 19 20 20 21 21 22 22 23 23
REMARK SMILES IDX 24 24
REMARK H PARENT
REMARK Flexibility Score: inf
ROOT
ATOM      1  C   UNL     1      39.121  24.452 223.599  1.00  0.00     0.000 C 
ENDROOT
BRANCH   1   2
ATOM      2  C   UNL     1      40.497  24.100 223.010  1.00  0.00     0.000 C 
BRANCH   2   3
ATOM      3  C   UNL     1      40.625  22.604 222.674  1.00  0.00     0.000 C 
BRANCH   3   4
ATOM      4  C   UNL     1      42.014  22.038 223.010  1.00  0.00    -0.000 C 
BRANCH   4   5
ATOM      5  C   UNL     1      42.321  20.732 222.262  1.00  0.00    -0.000 C 
BRANCH   5   6
ATOM      6  C   UNL     1      41.802  19.517 223.043  1.00  0.00    -0.000 C 
BRANCH   6   7
ATOM      7  C   UNL     1      42.567  19.347 224.364  1.00  0.00    -0.000 C 
BRANCH   7   8
ATOM      8  C   UNL     1      41.655  19.456 225.596  1.00  0.00    -0.000 C 
BRANCH   8   9
ATOM      9  C   UNL     1      40.162  19.373 225.235  1.00  0.00    -0.000 C 
BRANCH   9  10
ATOM     10  C   UNL     1      39.294  18.907 226.416  1.00  0.00    -0.000 C 
BRANCH  10  11
ATOM     11  C   UNL     1      37.973  18.269 225.964  1.00  0.00    -0.003 C 
ATOM     12  C   UNL     1      36.888  19.326 225.775  1.00  0.00     0.004 C 
ENDBRANCH  10  11
ENDBRANCH   9  10
ENDBRANCH   8   9
ENDBRANCH   7   8
ENDBRANCH   6   7
ENDBRANCH   5   6
ENDBRANCH   4   5
ENDBRANCH   3   4
ENDBRANCH   2   3
ENDBRANCH   1   2
BRANCH   1  13
ATOM     13  C   UNL     1      38.047  23.406 223.256  1.00  0.00     0.000 C 
BRANCH  13  14
ATOM     14  C   UNL     1      37.456  22.728 224.505  1.00  0.00     0.000 C 
BRANCH  14  15
ATOM     15  C   UNL     1      37.869  23.367 225.847  1.00  0.00     0.000 C 
BRANCH  15  16
ATOM     16  C   UNL     1      38.730  22.469 226.759  1.00  0.00     0.000 C 
BRANCH  16  17
ATOM     17  C   UNL     1      40.014  23.129 227.301  1.00  0.00     0.000 C 
BRANCH  17  18
ATOM     18  C   UNL     1      41.277  22.894 226.452  1.00  0.00     0.000 C 
BRANCH  18  19
ATOM     19  C   UNL     1      42.422  23.856 226.809  1.00  0.00     0.000 C 
BRANCH  19  20
ATOM     20  C   UNL     1      42.585  24.989 225.783  1.00  0.00     0.006 C 
BRANCH  20  21
ATOM     21  C   UNL     1      42.468  26.384 226.412  1.00  0.00     0.053 C 
BRANCH  21  22
ATOM     22  C   UNL     1      41.069  26.629 226.883  1.00  0.00     0.041 C 
ATOM     23  O   UNL     1      40.136  26.771 226.050  1.00  0.00    -0.550 OA
ATOM     24  O   UNL     1      40.787  26.647 228.244  1.00  0.00    -0.550 OA
ENDBRANCH  21  22
ENDBRANCH  20  21
ENDBRANCH  19  20
ENDBRANCH  18  19
ENDBRANCH  17  18
ENDBRANCH  16  17
ENDBRANCH  15  16
ENDBRANCH  14  15
ENDBRANCH  13  14
ENDBRANCH   1  13
TORSDOF 20
ENDMDL
MODEL 7
REMARK VINA RESULT:    -3.944      1.730      3.697
REMARK INTER + INTRA:         -11.215
REMARK INTER:                  -7.857
REMARK INTRA:                  -3.358
REMARK UNBOUND:                -2.660
REMARK SMILES CCCCCCCCCCCCCCCCCCCCCC(=O)[O-]
REMARK SMILES IDX 12 1 11 2 10 3 9 4 8 5 7 6 6 7 5 8 4 9 3 10 2 11 1 12 13 13
REMARK SMILES IDX 14 14 15 15 16 16 17 17 18 18 19 19 20 20 21 21 22 22 23 23
REMARK SMILES IDX 24 24
REMARK H PARENT
REMARK Flexibility Score: inf
ROOT
ATOM      1  C   UNL     1      40.313  20.248 224.954  1.00  0.00     0.000 C 
ENDROOT
BRANCH   1   2
ATOM      2  C   UNL     1      38.891  20.757 225.238  1.00  0.00     0.000 C 
BRANCH   2   3
ATOM      3  C   UNL     1      38.816  21.597 226.525  1.00  0.00     0.000 C 
BRANCH   3   4
ATOM      4  C   UNL     1      37.914  20.961 227.595  1.00  0.00    -0.000 C 
BRANCH   4   5
ATOM      5  C   UNL     1      37.227  19.677 227.107  1.00  0.00    -0.000 C 
BRANCH   5   6
ATOM      6  C   UNL     1      37.695  18.461 227.918  1.00  0.00    -0.000 C 
BRANCH   6   7
ATOM      7  C   UNL     1      38.625  17.569 227.082  1.00  0.00    -0.000 C 
BRANCH   7   8
ATOM      8  C   UNL     1      39.989  17.339 227.752  1.00  0.00    -0.000 C 
BRANCH   8   9
ATOM      9  C   UNL     1      40.305  18.396 228.824  1.00  0.00    -0.000 C 
BRANCH   9  10
ATOM     10  C   UNL     1      41.307  19.454 228.334  1.00  0.00    -0.000 C 
BRANCH  10  11
ATOM     11  C   UNL     1      41.298  20.724 229.196  1.00  0.00    -0.003 C 
ATOM     12  C   UNL     1      42.216  21.793 228.609  1.00  0.00     0.004 C 
ENDBRANCH  10  11
ENDBRANCH   9  10
ENDBRANCH   8   9
ENDBRANCH   7   8
ENDBRANCH   6   7
ENDBRANCH   5   6
ENDBRANCH   4   5
ENDBRANCH   3   4
ENDBRANCH   2   3
ENDBRANCH   1   2
BRANCH   1  13
ATOM     13  C   UNL     1      41.364  21.371 225.006  1.00  0.00     0.000 C 
BRANCH  13  14
ATOM     14  C   UNL     1      41.539  22.085 223.655  1.00  0.00     0.000 C 
BRANCH  14  15
ATOM     15  C   UNL     1      41.378  23.619 223.705  1.00  0.00     0.000 C 
BRANCH  15  16
ATOM     16  C   UNL     1      39.989  24.143 223.286  1.00  0.00     0.000 C 
BRANCH  16  17
ATOM     17  C   UNL     1      39.240  24.945 224.371  1.00  0.00     0.000 C 
BRANCH  17  18
ATOM     18  C   UNL     1      37.779  24.520 224.603  1.00  0.00     0.000 C 
BRANCH  18  19
ATOM     19  C   UNL     1      36.865  24.853 223.412  1.00  0.00     0.000 C 
BRANCH  19  20
ATOM     20  C   UNL     1      36.167  23.610 222.836  1.00  0.00     0.006 C 
BRANCH  20  21
ATOM     21  C   UNL     1      35.436  23.894 221.517  1.00  0.00     0.053 C 
BRANCH  21  22
ATOM     22  C   UNL     1      36.413  23.994 220.388  1.00  0.00     0.041 C 
ATOM     23  O   UNL     1      36.177  24.752 219.412  1.00  0.00    -0.550 OA
ATOM     24  O   UNL     1      37.610  23.289 220.441  1.00  0.00    -0.550 OA
ENDBRANCH  21  22
ENDBRANCH  20  21
ENDBRANCH  19  20
ENDBRANCH  18  19
ENDBRANCH  17  18
ENDBRANCH  16  17
ENDBRANCH  15  16
ENDBRANCH  14  15
ENDBRANCH  13  14
ENDBRANCH   1  13
TORSDOF 20
ENDMDL
MODEL 8
REMARK VINA RESULT:    -3.910      3.324      7.336
REMARK INTER + INTRA:         -11.141
REMARK INTER:                  -7.214
REMARK INTRA:                  -3.927
REMARK UNBOUND:                -2.660
REMARK SMILES CCCCCCCCCCCCCCCCCCCCCC(=O)[O-]
REMARK SMILES IDX 12 1 11 2 10 3 9 4 8 5 7 6 6 7 5 8 4 9 3 10 2 11 1 12 13 13
REMARK SMILES IDX 14 14 15 15 16 16 17 17 18 18 19 19 20 20 21 21 22 22 23 23
REMARK SMILES IDX 24 24
REMARK H PARENT
REMARK Flexibility Score: inf
ROOT
ATOM      1  C   UNL     1      40.128  22.955 226.739  1.00  0.00     0.000 C 
ENDROOT
BRANCH   1   2
ATOM      2  C   UNL     1      39.266  21.686 226.840  1.00  0.00     0.000 C 
BRANCH   2   3
ATOM      3  C   UNL     1      38.219  21.598 225.715  1.00  0.00     0.000 C 
BRANCH   3   4
ATOM      4  C   UNL     1      37.568  22.956 225.405  1.00  0.00    -0.000 C 
BRANCH   4   5
ATOM      5  C   UNL     1      37.550  23.278 223.903  1.00  0.00    -0.000 C 
BRANCH   5   6
ATOM      6  C   UNL     1      38.005  24.720 223.644  1.00  0.00    -0.000 C 
BRANCH   6   7
ATOM      7  C   UNL     1      38.069  25.518 224.955  1.00  0.00    -0.000 C 
BRANCH   7   8
ATOM      8  C   UNL     1      39.457  26.126 225.213  1.00  0.00    -0.000 C 
BRANCH   8   9
ATOM      9  C   UNL     1      39.489  27.014 226.469  1.00  0.00    -0.000 C 
BRANCH   9  10
ATOM     10  C   UNL     1      40.898  27.540 226.786  1.00  0.00    -0.000 C 
BRANCH  10  11
ATOM     11  C   UNL     1      41.913  26.412 227.020  1.00  0.00    -0.003 C 
ATOM     12  C   UNL     1      43.103  26.537 226.072  1.00  0.00     0.004 C 
ENDBRANCH  10  11
ENDBRANCH   9  10
ENDBRANCH   8   9
ENDBRANCH   7   8
ENDBRANCH   6   7
ENDBRANCH   5   6
ENDBRANCH   4   5
ENDBRANCH   3   4
ENDBRANCH   2   3
ENDBRANCH   1   2
BRANCH   1  13
ATOM     13  C   UNL     1      41.525  22.674 226.159  1.00  0.00     0.000 C 
BRANCH  13  14
ATOM     14  C   UNL     1      41.726  23.292 224.764  1.00  0.00     0.000 C 
BRANCH  14  15
ATOM     15  C   UNL     1      41.177  22.449 223.595  1.00  0.00     0.000 C 
BRANCH  15  16
ATOM     16  C   UNL     1      42.208  21.522 222.918  1.00  0.00     0.000 C 
BRANCH  16  17
ATOM     17  C   UNL     1      41.851  20.022 222.940  1.00  0.00     0.000 C 
BRANCH  17  18
ATOM     18  C   UNL     1      41.016  19.568 224.151  1.00  0.00     0.000 C 
BRANCH  18  19
ATOM     19  C   UNL     1      41.880  19.009 225.294  1.00  0.00     0.000 C 
BRANCH  19  20
ATOM     20  C   UNL     1      41.039  18.479 226.467  1.00  0.00     0.006 C 
BRANCH  20  21
ATOM     21  C   UNL     1      39.636  18.029 226.040  1.00  0.00     0.053 C 
BRANCH  21  22
ATOM     22  C   UNL     1      38.723  17.965 227.225  1.00  0.00     0.041 C 
ATOM     23  O   UNL     1      37.599  17.408 227.129  1.00  0.00    -0.550 OA
ATOM     24  O   UNL     1      39.139  18.474 228.450  1.00  0.00    -0.550 OA
ENDBRANCH  21  22
ENDBRANCH  20  21
ENDBRANCH  19  20
ENDBRANCH  18  19
ENDBRANCH  17  18
ENDBRANCH  16  17
ENDBRANCH  15  16
ENDBRANCH  14  15
ENDBRANCH  13  14
ENDBRANCH   1  13
TORSDOF 20
ENDMDL
MODEL 9
REMARK VINA RESULT:    -3.907      3.743      7.368
REMARK INTER + INTRA:         -11.136
REMARK INTER:                  -7.834
REMARK INTRA:                  -3.302
REMARK UNBOUND:                -2.660
REMARK SMILES CCCCCCCCCCCCCCCCCCCCCC(=O)[O-]
REMARK SMILES IDX 12 1 11 2 10 3 9 4 8 5 7 6 6 7 5 8 4 9 3 10 2 11 1 12 13 13
REMARK SMILES IDX 14 14 15 15 16 16 17 17 18 18 19 19 20 20 21 21 22 22 23 23
REMARK SMILES IDX 24 24
REMARK H PARENT
REMARK Flexibility Score: inf
ROOT
ATOM      1  C   UNL     1      41.476  23.718 224.430  1.00  0.00     0.000 C 
ENDROOT
BRANCH   1   2
ATOM      2  C   UNL     1      41.919  24.546 225.647  1.00  0.00     0.000 C 
BRANCH   2   3
ATOM      3  C   UNL     1      40.853  25.569 226.078  1.00  0.00     0.000 C 
BRANCH   3   4
ATOM      4  C   UNL     1      39.684  24.921 226.838  1.00  0.00    -0.000 C 
BRANCH   4   5
ATOM      5  C   UNL     1      38.322  25.204 226.186  1.00  0.00    -0.000 C 
BRANCH   5   6
ATOM      6  C   UNL     1      38.468  26.171 225.004  1.00  0.00    -0.000 C 
BRANCH   6   7
ATOM      7  C   UNL     1      38.181  25.460 223.674  1.00  0.00    -0.000 C 
BRANCH   7   8
ATOM      8  C   UNL     1      36.796  24.793 223.644  1.00  0.00    -0.000 C 
BRANCH   8   9
ATOM      9  C   UNL     1      36.567  23.967 222.366  1.00  0.00    -0.000 C 
BRANCH   9  10
ATOM     10  C   UNL     1      35.099  23.979 221.910  1.00  0.00    -0.000 C 
BRANCH  10  11
ATOM     11  C   UNL     1      34.952  23.971 220.382  1.00  0.00    -0.003 C 
ATOM     12  C   UNL     1      36.256  24.383 219.702  1.00  0.00     0.004 C 
ENDBRANCH  10  11
ENDBRANCH   9  10
ENDBRANCH   8   9
ENDBRANCH   7   8
ENDBRANCH   6   7
ENDBRANCH   5   6
ENDBRANCH   4   5
ENDBRANCH   3   4
ENDBRANCH   2   3
ENDBRANCH   1   2
BRANCH   1  13
ATOM     13  C   UNL     1      41.716  22.210 224.624  1.00  0.00     0.000 C 
BRANCH  13  14
ATOM     14  C   UNL     1      40.466  21.366 224.317  1.00  0.00     0.000 C 
BRANCH  14  15
ATOM     15  C   UNL     1      39.124  22.103 224.497  1.00  0.00     0.000 C 
BRANCH  15  16
ATOM     16  C   UNL     1      38.048  21.319 225.277  1.00  0.00     0.000 C 
BRANCH  16  17
ATOM     17  C   UNL     1      38.560  20.578 226.530  1.00  0.00     0.000 C 
BRANCH  17  18
ATOM     18  C   UNL     1      39.101  21.486 227.648  1.00  0.00     0.000 C 
BRANCH  18  19
ATOM     19  C   UNL     1      40.526  21.106 228.087  1.00  0.00     0.000 C 
BRANCH  19  20
ATOM     20  C   UNL     1      40.913  19.679 227.669  1.00  0.00     0.006 C 
BRANCH  20  21
ATOM     21  C   UNL     1      40.920  18.694 228.846  1.00  0.00     0.053 C 
BRANCH  21  22
ATOM     22  C   UNL     1      39.632  17.933 228.899  1.00  0.00     0.041 C 
ATOM     23  O   UNL     1      39.561  16.773 228.417  1.00  0.00    -0.550 OA
ATOM     24  O   UNL     1      38.525  18.486 229.532  1.00  0.00    -0.550 OA
ENDBRANCH  21  22
ENDBRANCH  20  21
ENDBRANCH  19  20
ENDBRANCH  18  19
ENDBRANCH  17  18
ENDBRANCH  16  17
ENDBRANCH  15  16
ENDBRANCH  14  15
ENDBRANCH  13  14
ENDBRANCH   1  13
TORSDOF 20
ENDMDL
