MODEL 1
REMARK VINA RESULT:    -5.019      0.000      0.000
REMARK INTER + INTRA:          -7.611
REMARK INTER:                  -7.659
REMARK INTRA:                   0.048
REMARK UNBOUND:                 0.048
REMARK SMILES CC1=CCC[C@@H](C)C(=O)C[C@@H](C(C)C)C(=O)C1
REMARK SMILES IDX 8 1 9 2 6 3 7 4 5 5 4 6 3 7 2 8 1 9 10 11 11 12 15 13 16 14
REMARK SMILES IDX 17 15 12 17 13 18 14 19
REMARK H PARENT
REMARK Flexibility Score: 70.00
ROOT
ATOM      1  C   UNL     1     -13.512 -15.630  30.475  1.00  0.00     0.136 C 
ATOM      2  O   UNL     1     -14.266 -14.728  30.135  1.00  0.00    -0.299 OA
ENDROOT
BRANCH   1   3
ATOM      3  C   UNL     1     -13.545 -16.062  31.935  1.00  0.00     0.053 C 
ATOM      4  C   UNL     1     -14.621 -15.246  32.667  1.00  0.00     0.016 C 
BRANCH   3   5
ATOM      5  C   UNL     1     -12.212 -15.974  32.728  1.00  0.00     0.015 C 
BRANCH   5   6
ATOM      6  C   UNL     1     -11.145 -17.047  32.421  1.00  0.00     0.028 C 
BRANCH   6   7
ATOM      7  C   UNL     1     -11.681 -18.457  32.450  1.00  0.00    -0.028 C 
ATOM      8  C   UNL     1     -11.812 -19.276  31.379  1.00  0.00    -0.070 CG0
ATOM      9  C   UNL     1     -12.394 -20.647  31.609  1.00  0.00     0.039 C 
ATOM     10  G   UNL     1     -11.442 -18.881  29.959  1.00  0.00     0.000 G0
ENDBRANCH   6   7
ENDBRANCH   5   6
ENDBRANCH   3   5
ENDBRANCH   1   3
BRANCH   1  11
ATOM     11  C   UNL     1     -12.580 -16.200  29.425  1.00  0.00     0.087 C 
BRANCH  11  12
ATOM     12  C   UNL     1     -13.208 -17.378  28.630  1.00  0.00     0.066 C 
BRANCH  12  13
ATOM     13  C   UNL     1     -12.644 -18.727  29.069  1.00  0.00     0.140 C 
ATOM     14  O   UNL     1     -13.195 -19.745  28.671  1.00  0.00    -0.299 OA
BRANCH  13  15
ATOM     15  C   UNL     1     -11.432 -18.870  29.956  1.00  0.00     0.106 CG0
ATOM     16  G   UNL     1     -11.833 -19.270  31.367  1.00  0.00     0.000 G0
ENDBRANCH  13  15
ENDBRANCH  12  13
BRANCH  12  17
ATOM     17  C   UNL     1     -13.119 -17.170  27.085  1.00  0.00    -0.006 C 
ATOM     18  C   UNL     1     -13.911 -15.927  26.639  1.00  0.00     0.008 C 
ATOM     19  C   UNL     1     -11.661 -17.029  26.611  1.00  0.00     0.008 C 
ENDBRANCH  12  17
ENDBRANCH  11  12
ENDBRANCH   1  11
TORSDOF 1
ENDMDL
MODEL 2
REMARK VINA RESULT:    -4.992      1.957      3.541
REMARK INTER + INTRA:          -7.570
REMARK INTER:                  -7.808
REMARK INTRA:                   0.238
REMARK UNBOUND:                 0.048
REMARK SMILES CC1=CCC[C@@H](C)C(=O)C[C@@H](C(C)C)C(=O)C1
REMARK SMILES IDX 8 1 9 2 6 3 7 4 5 5 4 6 3 7 2 8 1 9 10 11 11 12 15 13 16 14
REMARK SMILES IDX 17 15 12 17 13 18 14 19
REMARK H PARENT
REMARK Flexibility Score: 70.00
ROOT
ATOM      1  C   UNL     1     -12.882 -19.544  29.519  1.00  0.00     0.136 C 
ATOM      2  O   UNL     1     -12.929 -20.651  29.000  1.00  0.00    -0.299 OA
ENDROOT
BRANCH   1   3
ATOM      3  C   UNL     1     -12.606 -19.480  31.016  1.00  0.00     0.053 C 
ATOM      4  C   UNL     1     -12.479 -20.912  31.556  1.00  0.00     0.016 C 
BRANCH   3   5
ATOM      5  C   UNL     1     -13.623 -18.695  31.889  1.00  0.00     0.015 C 
BRANCH   5   6
ATOM      6  C   UNL     1     -13.492 -17.156  31.900  1.00  0.00     0.028 C 
BRANCH   6   7
ATOM      7  C   UNL     1     -12.120 -16.670  32.299  1.00  0.00    -0.028 C 
ATOM      8  C   UNL     1     -11.206 -16.113  31.469  1.00  0.00    -0.070 CG0
ATOM      9  C   UNL     1      -9.876 -15.712  32.056  1.00  0.00     0.039 C 
ATOM     10  G   UNL     1     -11.428 -15.904  29.980  1.00  0.00     0.000 G0
ENDBRANCH   6   7
ENDBRANCH   5   6
ENDBRANCH   3   5
ENDBRANCH   1   3
BRANCH   1  11
ATOM     11  C   UNL     1     -13.153 -18.342  28.637  1.00  0.00     0.087 C 
BRANCH  11  12
ATOM     12  C   UNL     1     -11.857 -17.709  28.059  1.00  0.00     0.066 C 
BRANCH  12  13
ATOM     13  C   UNL     1     -10.994 -17.079  29.149  1.00  0.00     0.140 C 
ATOM     14  O   UNL     1      -9.882 -17.547  29.354  1.00  0.00    -0.299 OA
BRANCH  13  15
ATOM     15  C   UNL     1     -11.436 -15.896  29.976  1.00  0.00     0.106 CG0
ATOM     16  G   UNL     1     -11.209 -16.151  31.456  1.00  0.00     0.000 G0
ENDBRANCH  13  15
ENDBRANCH  12  13
BRANCH  12  17
ATOM     17  C   UNL     1     -12.148 -16.722  26.885  1.00  0.00    -0.006 C 
ATOM     18  C   UNL     1     -11.368 -17.112  25.616  1.00  0.00     0.008 C 
ATOM     19  C   UNL     1     -13.649 -16.662  26.547  1.00  0.00     0.008 C 
ENDBRANCH  12  17
ENDBRANCH  11  12
ENDBRANCH   1  11
TORSDOF 1
ENDMDL
MODEL 3
REMARK VINA RESULT:    -4.777      1.758      2.277
REMARK INTER + INTRA:          -7.243
REMARK INTER:                  -7.301
REMARK INTRA:                   0.058
REMARK UNBOUND:                 0.048
REMARK SMILES CC1=CCC[C@@H](C)C(=O)C[C@@H](C(C)C)C(=O)C1
REMARK SMILES IDX 8 1 9 2 6 3 7 4 5 5 4 6 3 7 2 8 1 9 10 11 11 12 15 13 16 14
REMARK SMILES IDX 17 15 12 17 13 18 14 19
REMARK H PARENT
REMARK Flexibility Score: 70.00
ROOT
ATOM      1  C   UNL     1     -11.948 -16.106  31.308  1.00  0.00     0.136 C 
ATOM      2  O   UNL     1     -11.090 -15.990  32.173  1.00  0.00    -0.299 OA
ENDROOT
BRANCH   1   3
ATOM      3  C   UNL     1     -13.338 -16.548  31.750  1.00  0.00     0.053 C 
ATOM      4  C   UNL     1     -13.961 -15.433  32.603  1.00  0.00     0.016 C 
BRANCH   3   5
ATOM      5  C   UNL     1     -13.440 -17.894  32.518  1.00  0.00     0.015 C 
BRANCH   5   6
ATOM      6  C   UNL     1     -12.735 -19.114  31.885  1.00  0.00     0.028 C 
BRANCH   6   7
ATOM      7  C   UNL     1     -13.460 -19.676  30.687  1.00  0.00    -0.028 C 
ATOM      8  C   UNL     1     -13.003 -19.674  29.413  1.00  0.00    -0.070 CG0
ATOM      9  C   UNL     1     -13.892 -20.264  28.346  1.00  0.00     0.039 C 
ATOM     10  G   UNL     1     -11.670 -19.080  28.990  1.00  0.00     0.000 G0
ENDBRANCH   6   7
ENDBRANCH   5   6
ENDBRANCH   3   5
ENDBRANCH   1   3
BRANCH   1  11
ATOM     11  C   UNL     1     -11.538 -15.849  29.873  1.00  0.00     0.087 C 
BRANCH  11  12
ATOM     12  C   UNL     1     -12.470 -16.544  28.841  1.00  0.00     0.066 C 
BRANCH  12  13
ATOM     13  C   UNL     1     -11.824 -17.787  28.235  1.00  0.00     0.140 C 
ATOM     14  O   UNL     1     -11.411 -17.725  27.085  1.00  0.00    -0.299 OA
BRANCH  13  15
ATOM     15  C   UNL     1     -11.654 -19.084  28.987  1.00  0.00     0.106 CG0
ATOM     16  G   UNL     1     -13.000 -19.651  29.406  1.00  0.00     0.000 G0
ENDBRANCH  13  15
ENDBRANCH  12  13
BRANCH  12  17
ATOM     17  C   UNL     1     -12.997 -15.556  27.753  1.00  0.00    -0.006 C 
ATOM     18  C   UNL     1     -13.852 -16.284  26.700  1.00  0.00     0.008 C 
ATOM     19  C   UNL     1     -13.830 -14.417  28.370  1.00  0.00     0.008 C 
ENDBRANCH  12  17
ENDBRANCH  11  12
ENDBRANCH   1  11
TORSDOF 1
ENDMDL
MODEL 4
REMARK VINA RESULT:    -4.469      1.730      4.141
REMARK INTER + INTRA:          -6.772
REMARK INTER:                  -7.058
REMARK INTRA:                   0.286
REMARK UNBOUND:                 0.048
REMARK SMILES CC1=CCC[C@@H](C)C(=O)C[C@@H](C(C)C)C(=O)C1
REMARK SMILES IDX 8 1 9 2 6 3 7 4 5 5 4 6 3 7 2 8 1 9 10 11 11 12 15 13 16 14
REMARK SMILES IDX 17 15 12 17 13 18 14 19
REMARK H PARENT
REMARK Flexibility Score: 70.00
ROOT
ATOM      1  C   UNL     1     -12.224 -15.924  29.298  1.00  0.00     0.136 C 
ATOM      2  O   UNL     1     -11.145 -15.618  29.787  1.00  0.00    -0.299 OA
ENDROOT
BRANCH   1   3
ATOM      3  C   UNL     1     -12.224 -16.461  27.873  1.00  0.00     0.053 C 
ATOM      4  C   UNL     1     -13.439 -15.887  27.129  1.00  0.00     0.016 C 
BRANCH   3   5
ATOM      5  C   UNL     1     -12.203 -18.004  27.700  1.00  0.00     0.015 C 
BRANCH   5   6
ATOM      6  C   UNL     1     -13.224 -18.814  28.529  1.00  0.00     0.028 C 
BRANCH   6   7
ATOM      7  C   UNL     1     -12.588 -19.689  29.581  1.00  0.00    -0.028 C 
ATOM      8  C   UNL     1     -12.771 -19.578  30.918  1.00  0.00    -0.070 CG0
ATOM      9  C   UNL     1     -12.024 -20.536  31.812  1.00  0.00     0.039 C 
ATOM     10  G   UNL     1     -13.652 -18.525  31.570  1.00  0.00     0.000 G0
ENDBRANCH   6   7
ENDBRANCH   5   6
ENDBRANCH   3   5
ENDBRANCH   1   3
BRANCH   1  11
ATOM     11  C   UNL     1     -13.465 -15.693  30.135  1.00  0.00     0.087 C 
BRANCH  11  12
ATOM     12  C   UNL     1     -13.214 -15.875  31.658  1.00  0.00     0.066 C 
BRANCH  12  13
ATOM     13  C   UNL     1     -12.828 -17.311  32.005  1.00  0.00     0.140 C 
ATOM     14  O   UNL     1     -11.814 -17.497  32.664  1.00  0.00    -0.299 OA
BRANCH  13  15
ATOM     15  C   UNL     1     -13.643 -18.511  31.591  1.00  0.00     0.106 CG0
ATOM     16  G   UNL     1     -12.768 -19.560  30.924  1.00  0.00     0.000 G0
ENDBRANCH  13  15
ENDBRANCH  12  13
BRANCH  12  17
ATOM     17  C   UNL     1     -14.402 -15.352  32.526  1.00  0.00    -0.006 C 
ATOM     18  C   UNL     1     -13.900 -14.659  33.806  1.00  0.00     0.008 C 
ATOM     19  C   UNL     1     -15.292 -14.369  31.743  1.00  0.00     0.008 C 
ENDBRANCH  12  17
ENDBRANCH  11  12
ENDBRANCH   1  11
TORSDOF 1
ENDMDL
MODEL 5
REMARK VINA RESULT:    -4.285      2.226      4.364
REMARK INTER + INTRA:          -6.491
REMARK INTER:                  -6.212
REMARK INTRA:                  -0.279
REMARK UNBOUND:                 0.048
REMARK SMILES CC1=CCC[C@@H](C)C(=O)C[C@@H](C(C)C)C(=O)C1
REMARK SMILES IDX 8 1 9 2 6 3 7 4 5 5 4 6 3 7 2 8 1 9 10 11 11 12 15 13 16 14
REMARK SMILES IDX 17 15 12 17 13 18 14 19
REMARK H PARENT
REMARK Flexibility Score: 70.00
ROOT
ATOM      1  C   UNL     1     -13.411 -16.903  32.071  1.00  0.00     0.136 C 
ATOM      2  O   UNL     1     -14.283 -17.389  32.779  1.00  0.00    -0.299 OA
ENDROOT
BRANCH   1   3
ATOM      3  C   UNL     1     -13.678 -15.527  31.473  1.00  0.00     0.053 C 
ATOM      4  C   UNL     1     -14.818 -14.861  32.257  1.00  0.00     0.016 C 
BRANCH   3   5
ATOM      5  C   UNL     1     -14.002 -15.468  29.955  1.00  0.00     0.015 C 
BRANCH   5   6
ATOM      6  C   UNL     1     -12.869 -14.996  29.017  1.00  0.00     0.028 C 
BRANCH   6   7
ATOM      7  C   UNL     1     -12.479 -16.019  27.980  1.00  0.00    -0.028 C 
ATOM      8  C   UNL     1     -11.294 -16.674  27.921  1.00  0.00    -0.070 CG0
ATOM      9  C   UNL     1     -11.084 -17.646  26.787  1.00  0.00     0.039 C 
ATOM     10  G   UNL     1     -10.156 -16.458  28.904  1.00  0.00     0.000 G0
ENDBRANCH   6   7
ENDBRANCH   5   6
ENDBRANCH   3   5
ENDBRANCH   1   3
BRANCH   1  11
ATOM     11  C   UNL     1     -12.170 -17.733  31.814  1.00  0.00     0.087 C 
BRANCH  11  12
ATOM     12  C   UNL     1     -10.934 -16.873  31.429  1.00  0.00     0.066 C 
BRANCH  12  13
ATOM     13  C   UNL     1     -10.295 -17.344  30.125  1.00  0.00     0.140 C 
ATOM     14  O   UNL     1      -9.897 -18.499  30.057  1.00  0.00    -0.299 OA
BRANCH  13  15
ATOM     15  C   UNL     1     -10.142 -16.462  28.910  1.00  0.00     0.106 CG0
ATOM     16  G   UNL     1     -11.289 -16.674  27.935  1.00  0.00     0.000 G0
ENDBRANCH  13  15
ENDBRANCH  12  13
BRANCH  12  17
ATOM     17  C   UNL     1      -9.900 -16.761  32.592  1.00  0.00    -0.006 C 
ATOM     18  C   UNL     1     -10.191 -15.543  33.488  1.00  0.00     0.008 C 
ATOM     19  C   UNL     1      -9.883 -18.028  33.466  1.00  0.00     0.008 C 
ENDBRANCH  12  17
ENDBRANCH  11  12
ENDBRANCH   1  11
TORSDOF 1
ENDMDL
MODEL 6
REMARK VINA RESULT:    -4.059      1.893      4.329
REMARK INTER + INTRA:          -6.147
REMARK INTER:                  -6.738
REMARK INTRA:                   0.591
REMARK UNBOUND:                 0.048
REMARK SMILES CC1=CCC[C@@H](C)C(=O)C[C@@H](C(C)C)C(=O)C1
REMARK SMILES IDX 8 1 9 2 6 3 7 4 5 5 4 6 3 7 2 8 1 9 10 11 11 12 15 13 16 14
REMARK SMILES IDX 17 15 12 17 13 18 14 19
REMARK H PARENT
REMARK Flexibility Score: 70.00
ROOT
ATOM      1  C   UNL     1     -11.694 -16.262  28.675  1.00  0.00     0.136 C 
ATOM      2  O   UNL     1     -12.498 -15.395  28.360  1.00  0.00    -0.299 OA
ENDROOT
BRANCH   1   3
ATOM      3  C   UNL     1     -11.678 -17.541  27.848  1.00  0.00     0.053 C 
ATOM      4  C   UNL     1     -11.020 -17.243  26.492  1.00  0.00     0.016 C 
BRANCH   3   5
ATOM      5  C   UNL     1     -13.042 -18.244  27.609  1.00  0.00     0.015 C 
BRANCH   5   6
ATOM      6  C   UNL     1     -13.860 -18.625  28.862  1.00  0.00     0.028 C 
BRANCH   6   7
ATOM      7  C   UNL     1     -13.146 -19.586  29.780  1.00  0.00    -0.028 C 
ATOM      8  C   UNL     1     -12.931 -19.403  31.105  1.00  0.00    -0.070 CG0
ATOM      9  C   UNL     1     -12.171 -20.473  31.848  1.00  0.00     0.039 C 
ATOM     10  G   UNL     1     -13.375 -18.170  31.874  1.00  0.00     0.000 G0
ENDBRANCH   6   7
ENDBRANCH   5   6
ENDBRANCH   3   5
ENDBRANCH   1   3
BRANCH   1  11
ATOM     11  C   UNL     1     -10.823 -16.005  29.888  1.00  0.00     0.087 C 
BRANCH  11  12
ATOM     12  C   UNL     1     -11.124 -16.971  31.067  1.00  0.00     0.066 C 
BRANCH  12  13
ATOM     13  C   UNL     1     -12.595 -16.934  31.474  1.00  0.00     0.140 C 
ATOM     14  O   UNL     1     -13.177 -15.857  31.456  1.00  0.00    -0.299 OA
BRANCH  13  15
ATOM     15  C   UNL     1     -13.374 -18.161  31.882  1.00  0.00     0.106 CG0
ATOM     16  G   UNL     1     -12.918 -19.381  31.099  1.00  0.00     0.000 G0
ENDBRANCH  13  15
ENDBRANCH  12  13
BRANCH  12  17
ATOM     17  C   UNL     1     -10.166 -16.749  32.280  1.00  0.00    -0.006 C 
ATOM     18  C   UNL     1     -10.701 -15.660  33.227  1.00  0.00     0.008 C 
ATOM     19  C   UNL     1      -9.951 -18.045  33.083  1.00  0.00     0.008 C 
ENDBRANCH  12  17
ENDBRANCH  11  12
ENDBRANCH   1  11
TORSDOF 1
ENDMDL
MODEL 7
REMARK VINA RESULT:    -3.854      1.568      2.189
REMARK INTER + INTRA:          -5.833
REMARK INTER:                  -6.477
REMARK INTRA:                   0.643
REMARK UNBOUND:                 0.048
REMARK SMILES CC1=CCC[C@@H](C)C(=O)C[C@@H](C(C)C)C(=O)C1
REMARK SMILES IDX 8 1 9 2 6 3 7 4 5 5 4 6 3 7 2 8 1 9 10 11 11 12 15 13 16 14
REMARK SMILES IDX 17 15 12 17 13 18 14 19
REMARK H PARENT
REMARK Flexibility Score: 70.00
ROOT
ATOM      1  C   UNL     1     -10.559 -16.348  29.923  1.00  0.00     0.136 C 
ATOM      2  O   UNL     1     -10.388 -15.251  29.409  1.00  0.00    -0.299 OA
ENDROOT
BRANCH   1   3
ATOM      3  C   UNL     1     -10.375 -16.453  31.432  1.00  0.00     0.053 C 
ATOM      4  C   UNL     1      -9.877 -17.867  31.770  1.00  0.00     0.016 C 
BRANCH   3   5
ATOM      5  C   UNL     1     -11.605 -16.120  32.319  1.00  0.00     0.015 C 
BRANCH   5   6
ATOM      6  C   UNL     1     -12.832 -17.049  32.188  1.00  0.00     0.028 C 
BRANCH   6   7
ATOM      7  C   UNL     1     -12.496 -18.514  32.312  1.00  0.00    -0.028 C 
ATOM      8  C   UNL     1     -12.901 -19.493  31.468  1.00  0.00    -0.070 CG0
ATOM      9  C   UNL     1     -12.479 -20.907  31.777  1.00  0.00     0.039 C 
ATOM     10  G   UNL     1     -13.784 -19.255  30.255  1.00  0.00     0.000 G0
ENDBRANCH   6   7
ENDBRANCH   5   6
ENDBRANCH   3   5
ENDBRANCH   1   3
BRANCH   1  11
ATOM     11  C   UNL     1     -10.889 -17.510  29.009  1.00  0.00     0.087 C 
BRANCH  11  12
ATOM     12  C   UNL     1     -12.404 -17.611  28.678  1.00  0.00     0.066 C 
BRANCH  12  13
ATOM     13  C   UNL     1     -12.972 -18.987  29.015  1.00  0.00     0.140 C 
ATOM     14  O   UNL     1     -12.742 -19.915  28.251  1.00  0.00    -0.299 OA
BRANCH  13  15
ATOM     15  C   UNL     1     -13.789 -19.266  30.253  1.00  0.00     0.106 CG0
ATOM     16  G   UNL     1     -12.893 -19.492  31.459  1.00  0.00     0.000 G0
ENDBRANCH  13  15
ENDBRANCH  12  13
BRANCH  12  17
ATOM     17  C   UNL     1     -12.724 -17.178  27.212  1.00  0.00    -0.006 C 
ATOM     18  C   UNL     1     -13.473 -15.834  27.174  1.00  0.00     0.008 C 
ATOM     19  C   UNL     1     -11.448 -17.062  26.359  1.00  0.00     0.008 C 
ENDBRANCH  12  17
ENDBRANCH  11  12
ENDBRANCH   1  11
TORSDOF 1
ENDMDL
MODEL 8
REMARK VINA RESULT:    -3.737      1.781      4.700
REMARK INTER + INTRA:          -5.654
REMARK INTER:                  -6.091
REMARK INTRA:                   0.437
REMARK UNBOUND:                 0.048
REMARK SMILES CC1=CCC[C@@H](C)C(=O)C[C@@H](C(C)C)C(=O)C1
REMARK SMILES IDX 8 1 9 2 6 3 7 4 5 5 4 6 3 7 2 8 1 9 10 11 11 12 15 13 16 14
REMARK SMILES IDX 17 15 12 17 13 18 14 19
REMARK H PARENT
REMARK Flexibility Score: 70.00
ROOT
ATOM      1  C   UNL     1     -12.910 -18.366  28.146  1.00  0.00     0.136 C 
ATOM      2  O   UNL     1     -13.997 -18.905  28.308  1.00  0.00    -0.299 OA
ENDROOT
BRANCH   1   3
ATOM      3  C   UNL     1     -12.815 -17.277  27.085  1.00  0.00     0.053 C 
ATOM      4  C   UNL     1     -11.342 -17.103  26.687  1.00  0.00     0.016 C 
BRANCH   3   5
ATOM      5  C   UNL     1     -13.414 -15.889  27.442  1.00  0.00     0.015 C 
BRANCH   5   6
ATOM      6  C   UNL     1     -12.851 -15.188  28.698  1.00  0.00     0.028 C 
BRANCH   6   7
ATOM      7  C   UNL     1     -13.660 -15.445  29.945  1.00  0.00    -0.028 C 
ATOM      8  C   UNL     1     -13.159 -15.756  31.164  1.00  0.00    -0.070 CG0
ATOM      9  C   UNL     1     -14.136 -16.000  32.286  1.00  0.00     0.039 C 
ATOM     10  G   UNL     1     -11.675 -15.909  31.457  1.00  0.00     0.000 G0
ENDBRANCH   6   7
ENDBRANCH   5   6
ENDBRANCH   3   5
ENDBRANCH   1   3
BRANCH   1  11
ATOM     11  C   UNL     1     -11.747 -18.865  28.980  1.00  0.00     0.087 C 
BRANCH  11  12
ATOM     12  C   UNL     1     -11.813 -18.393  30.458  1.00  0.00     0.066 C 
BRANCH  12  13
ATOM     13  C   UNL     1     -11.076 -17.073  30.670  1.00  0.00     0.140 C 
ATOM     14  O   UNL     1      -9.967 -16.939  30.170  1.00  0.00    -0.299 OA
BRANCH  13  15
ATOM     15  C   UNL     1     -11.653 -15.918  31.451  1.00  0.00     0.106 CG0
ATOM     16  G   UNL     1     -13.141 -15.767  31.184  1.00  0.00     0.000 G0
ENDBRANCH  13  15
ENDBRANCH  12  13
BRANCH  12  17
ATOM     17  C   UNL     1     -11.351 -19.499  31.459  1.00  0.00    -0.006 C 
ATOM     18  C   UNL     1     -10.796 -18.886  32.757  1.00  0.00     0.008 C 
ATOM     19  C   UNL     1     -12.498 -20.463  31.814  1.00  0.00     0.008 C 
ENDBRANCH  12  17
ENDBRANCH  11  12
ENDBRANCH   1  11
TORSDOF 1
ENDMDL
MODEL 9
REMARK VINA RESULT:    -3.721      1.717      4.766
REMARK INTER + INTRA:          -5.630
REMARK INTER:                  -6.154
REMARK INTRA:                   0.524
REMARK UNBOUND:                 0.048
REMARK SMILES CC1=CCC[C@@H](C)C(=O)C[C@@H](C(C)C)C(=O)C1
REMARK SMILES IDX 8 1 9 2 6 3 7 4 5 5 4 6 3 7 2 8 1 9 10 11 11 12 15 13 16 14
REMARK SMILES IDX 17 15 12 17 13 18 14 19
REMARK H PARENT
REMARK Flexibility Score: 70.00
ROOT
ATOM      1  C   UNL     1     -11.633 -18.466  32.050  1.00  0.00     0.136 C 
ATOM      2  O   UNL     1     -10.690 -18.926  32.680  1.00  0.00    -0.299 OA
ENDROOT
BRANCH   1   3
ATOM      3  C   UNL     1     -12.543 -19.451  31.327  1.00  0.00     0.053 C 
ATOM      4  C   UNL     1     -12.366 -20.840  31.958  1.00  0.00     0.016 C 
BRANCH   3   5
ATOM      5  C   UNL     1     -12.378 -19.566  29.787  1.00  0.00     0.015 C 
BRANCH   5   6
ATOM      6  C   UNL     1     -13.583 -19.139  28.921  1.00  0.00     0.028 C 
BRANCH   6   7
ATOM      7  C   UNL     1     -13.201 -18.301  27.726  1.00  0.00    -0.028 C 
ATOM      8  C   UNL     1     -12.461 -17.167  27.758  1.00  0.00    -0.070 CG0
ATOM      9  C   UNL     1     -12.206 -16.456  26.453  1.00  0.00     0.039 C 
ATOM     10  G   UNL     1     -11.908 -16.552  29.033  1.00  0.00     0.000 G0
ENDBRANCH   6   7
ENDBRANCH   5   6
ENDBRANCH   3   5
ENDBRANCH   1   3
BRANCH   1  11
ATOM     11  C   UNL     1     -11.779 -16.959  32.003  1.00  0.00     0.087 C 
BRANCH  11  12
ATOM     12  C   UNL     1     -13.134 -16.499  31.397  1.00  0.00     0.066 C 
BRANCH  12  13
ATOM     13  C   UNL     1     -12.985 -16.042  29.948  1.00  0.00     0.140 C 
ATOM     14  O   UNL     1     -13.785 -15.227  29.510  1.00  0.00    -0.299 OA
BRANCH  13  15
ATOM     15  C   UNL     1     -11.890 -16.533  29.033  1.00  0.00     0.106 CG0
ATOM     16  G   UNL     1     -12.470 -17.164  27.778  1.00  0.00     0.000 G0
ENDBRANCH  13  15
ENDBRANCH  12  13
BRANCH  12  17
ATOM     17  C   UNL     1     -13.854 -15.436  32.285  1.00  0.00    -0.006 C 
ATOM     18  C   UNL     1     -15.220 -15.947  32.777  1.00  0.00     0.008 C 
ATOM     19  C   UNL     1     -13.003 -15.038  33.505  1.00  0.00     0.008 C 
ENDBRANCH  12  17
ENDBRANCH  11  12
ENDBRANCH   1  11
TORSDOF 1
ENDMDL
