MODEL 1
REMARK VINA RESULT:    -3.680      0.000      0.000
REMARK INTER + INTRA:          -8.775
REMARK INTER:                  -6.907
REMARK INTRA:                  -1.868
REMARK UNBOUND:                -1.868
REMARK SMILES CCCCCCCCC=CCCCCCCCC(=O)[O-]
REMARK SMILES IDX 10 1 9 2 11 3 12 4 13 5 14 6 15 7 16 8 17 9 18 10 19 11
REMARK SMILES IDX 20 12 8 13 7 14 6 15 5 16 4 17 3 18 2 19 1 20
REMARK H PARENT
REMARK Flexibility Score: inf
ROOT
ATOM      1  C   UNL     1      11.534  21.226  19.939  1.00  0.00    -0.031 C 
ATOM      2  C   UNL     1      11.896  22.478  19.624  1.00  0.00    -0.031 C 
ENDROOT
BRANCH   1   3
ATOM      3  C   UNL     1      10.490  20.946  20.988  1.00  0.00     0.027 C 
BRANCH   3   4
ATOM      4  C   UNL     1       9.192  21.727  20.734  1.00  0.00     0.004 C 
BRANCH   4   5
ATOM      5  C   UNL     1       8.299  21.048  19.681  1.00  0.00     0.000 C 
BRANCH   5   6
ATOM      6  C   UNL     1       6.873  21.638  19.661  1.00  0.00     0.000 C 
BRANCH   6   7
ATOM      7  C   UNL     1       5.872  20.862  20.540  1.00  0.00     0.000 C 
BRANCH   7   8
ATOM      8  C   UNL     1       5.583  21.504  21.908  1.00  0.00     0.006 C 
BRANCH   8   9
ATOM      9  C   UNL     1       6.307  20.795  23.059  1.00  0.00     0.053 C 
BRANCH   9  10
ATOM     10  C   UNL     1       5.317  20.239  24.034  1.00  0.00     0.041 C 
ATOM     11  O   UNL     1       5.232  18.995  24.210  1.00  0.00    -0.550 OA
ATOM     12  O   UNL     1       4.460  21.092  24.717  1.00  0.00    -0.550 OA
ENDBRANCH   9  10
ENDBRANCH   8   9
ENDBRANCH   7   8
ENDBRANCH   6   7
ENDBRANCH   5   6
ENDBRANCH   4   5
ENDBRANCH   3   4
ENDBRANCH   1   3
BRANCH   2  13
ATOM     13  C   UNL     1      12.905  22.736  18.539  1.00  0.00     0.027 C 
BRANCH  13  14
ATOM     14  C   UNL     1      12.243  22.713  17.155  1.00  0.00     0.004 C 
BRANCH  14  15
ATOM     15  C   UNL     1      12.760  21.570  16.264  1.00  0.00     0.000 C 
BRANCH  15  16
ATOM     16  C   UNL     1      11.711  20.499  15.904  1.00  0.00     0.000 C 
BRANCH  16  17
ATOM     17  C   UNL     1      10.392  20.579  16.698  1.00  0.00    -0.000 C 
BRANCH  17  18
ATOM     18  C   UNL     1       9.233  19.752  16.115  1.00  0.00    -0.000 C 
BRANCH  18  19
ATOM     19  C   UNL     1       8.864  18.545  16.989  1.00  0.00    -0.003 C 
ATOM     20  C   UNL     1       9.937  18.280  18.041  1.00  0.00     0.004 C 
ENDBRANCH  18  19
ENDBRANCH  17  18
ENDBRANCH  16  17
ENDBRANCH  15  16
ENDBRANCH  14  15
ENDBRANCH  13  14
ENDBRANCH   2  13
TORSDOF 15
ENDMDL
MODEL 2
REMARK VINA RESULT:    -3.641     20.073     21.865
REMARK INTER + INTRA:          -8.702
REMARK INTER:                  -6.003
REMARK INTRA:                  -2.699
REMARK UNBOUND:                -1.868
REMARK SMILES CCCCCCCCC=CCCCCCCCC(=O)[O-]
REMARK SMILES IDX 10 1 9 2 11 3 12 4 13 5 14 6 15 7 16 8 17 9 18 10 19 11
REMARK SMILES IDX 20 12 8 13 7 14 6 15 5 16 4 17 3 18 2 19 1 20
REMARK H PARENT
REMARK Flexibility Score: inf
ROOT
ATOM      1  C   UNL     1      11.510   4.246  32.132  1.00  0.00    -0.031 C 
ATOM      2  C   UNL     1      11.806   3.177  32.884  1.00  0.00    -0.031 C 
ENDROOT
BRANCH   1   3
ATOM      3  C   UNL     1      10.280   4.286  31.264  1.00  0.00     0.027 C 
BRANCH   3   4
ATOM      4  C   UNL     1       9.400   3.041  31.452  1.00  0.00     0.004 C 
BRANCH   4   5
ATOM      5  C   UNL     1       7.978   3.243  30.900  1.00  0.00     0.000 C 
BRANCH   5   6
ATOM      6  C   UNL     1       7.379   4.601  31.321  1.00  0.00     0.000 C 
BRANCH   6   7
ATOM      7  C   UNL     1       6.451   4.510  32.550  1.00  0.00     0.000 C 
BRANCH   7   8
ATOM      8  C   UNL     1       5.487   5.698  32.718  1.00  0.00     0.006 C 
BRANCH   8   9
ATOM      9  C   UNL     1       4.515   5.510  33.889  1.00  0.00     0.053 C 
BRANCH   9  10
ATOM     10  C   UNL     1       5.243   5.615  35.192  1.00  0.00     0.041 C 
ATOM     11  O   UNL     1       5.373   4.601  35.928  1.00  0.00    -0.550 OA
ATOM     12  O   UNL     1       5.741   6.840  35.615  1.00  0.00    -0.550 OA
ENDBRANCH   9  10
ENDBRANCH   8   9
ENDBRANCH   7   8
ENDBRANCH   6   7
ENDBRANCH   5   6
ENDBRANCH   4   5
ENDBRANCH   3   4
ENDBRANCH   1   3
BRANCH   2  13
ATOM     13  C   UNL     1      13.014   3.178  33.781  1.00  0.00     0.027 C 
BRANCH  13  14
ATOM     14  C   UNL     1      12.608   2.994  35.250  1.00  0.00     0.004 C 
BRANCH  14  15
ATOM     15  C   UNL     1      12.670   4.303  36.056  1.00  0.00     0.000 C 
BRANCH  15  16
ATOM     16  C   UNL     1      11.347   5.092  36.122  1.00  0.00     0.000 C 
BRANCH  16  17
ATOM     17  C   UNL     1      10.071   4.249  35.925  1.00  0.00    -0.000 C 
BRANCH  17  18
ATOM     18  C   UNL     1       9.070   4.818  34.904  1.00  0.00    -0.000 C 
BRANCH  18  19
ATOM     19  C   UNL     1       8.993   6.351  34.937  1.00  0.00    -0.003 C 
ATOM     20  C   UNL     1       9.206   6.942  33.546  1.00  0.00     0.004 C 
ENDBRANCH  18  19
ENDBRANCH  17  18
ENDBRANCH  16  17
ENDBRANCH  15  16
ENDBRANCH  14  15
ENDBRANCH  13  14
ENDBRANCH   2  13
TORSDOF 15
ENDMDL
MODEL 3
REMARK VINA RESULT:    -3.640     17.814     20.822
REMARK INTER + INTRA:          -8.700
REMARK INTER:                  -6.950
REMARK INTRA:                  -1.750
REMARK UNBOUND:                -1.868
REMARK SMILES CCCCCCCCC=CCCCCCCCC(=O)[O-]
REMARK SMILES IDX 10 1 9 2 11 3 12 4 13 5 14 6 15 7 16 8 17 9 18 10 19 11
REMARK SMILES IDX 20 12 8 13 7 14 6 15 5 16 4 17 3 18 2 19 1 20
REMARK H PARENT
REMARK Flexibility Score: inf
ROOT
ATOM      1  C   UNL     1      11.499   4.468  32.174  1.00  0.00    -0.031 C 
ATOM      2  C   UNL     1      11.540   3.273  32.778  1.00  0.00    -0.031 C 
ENDROOT
BRANCH   1   3
ATOM      3  C   UNL     1      10.406   4.825  31.200  1.00  0.00     0.027 C 
BRANCH   3   4
ATOM      4  C   UNL     1       9.400   3.679  31.017  1.00  0.00     0.004 C 
BRANCH   4   5
ATOM      5  C   UNL     1       7.948   4.183  30.945  1.00  0.00     0.000 C 
BRANCH   5   6
ATOM      6  C   UNL     1       7.431   4.256  29.492  1.00  0.00     0.000 C 
BRANCH   6   7
ATOM      7  C   UNL     1       5.954   4.687  29.385  1.00  0.00     0.000 C 
BRANCH   7   8
ATOM      8  C   UNL     1       5.449   4.904  27.948  1.00  0.00     0.006 C 
BRANCH   8   9
ATOM      9  C   UNL     1       5.575   6.363  27.490  1.00  0.00     0.053 C 
BRANCH   9  10
ATOM     10  C   UNL     1       4.230   7.017  27.455  1.00  0.00     0.041 C 
ATOM     11  O   UNL     1       3.187   6.328  27.605  1.00  0.00    -0.550 OA
ATOM     12  O   UNL     1       4.126   8.381  27.216  1.00  0.00    -0.550 OA
ENDBRANCH   9  10
ENDBRANCH   8   9
ENDBRANCH   7   8
ENDBRANCH   6   7
ENDBRANCH   5   6
ENDBRANCH   4   5
ENDBRANCH   3   4
ENDBRANCH   1   3
BRANCH   2  13
ATOM     13  C   UNL     1      12.613   2.956  33.783  1.00  0.00     0.027 C 
BRANCH  13  14
ATOM     14  C   UNL     1      12.052   2.979  35.212  1.00  0.00     0.004 C 
BRANCH  14  15
ATOM     15  C   UNL     1      12.471   4.232  35.999  1.00  0.00     0.000 C 
BRANCH  15  16
ATOM     16  C   UNL     1      11.407   5.345  36.067  1.00  0.00     0.000 C 
BRANCH  16  17
ATOM     17  C   UNL     1       9.947   4.854  36.122  1.00  0.00    -0.000 C 
BRANCH  17  18
ATOM     18  C   UNL     1       9.121   5.130  34.853  1.00  0.00    -0.000 C 
BRANCH  18  19
ATOM     19  C   UNL     1       8.567   6.560  34.803  1.00  0.00    -0.003 C 
ATOM     20  C   UNL     1       9.186   7.350  33.653  1.00  0.00     0.004 C 
ENDBRANCH  18  19
ENDBRANCH  17  18
ENDBRANCH  16  17
ENDBRANCH  15  16
ENDBRANCH  14  15
ENDBRANCH  13  14
ENDBRANCH   2  13
TORSDOF 15
ENDMDL
MODEL 4
REMARK VINA RESULT:    -3.607      8.567     11.552
REMARK INTER + INTRA:          -8.639
REMARK INTER:                  -7.148
REMARK INTRA:                  -1.491
REMARK UNBOUND:                -1.868
REMARK SMILES CCCCCCCCC=CCCCCCCCC(=O)[O-]
REMARK SMILES IDX 10 1 9 2 11 3 12 4 13 5 14 6 15 7 16 8 17 9 18 10 19 11
REMARK SMILES IDX 20 12 8 13 7 14 6 15 5 16 4 17 3 18 2 19 1 20
REMARK H PARENT
REMARK Flexibility Score: inf
ROOT
ATOM      1  C   UNL     1       0.268  12.282  20.181  1.00  0.00    -0.031 C 
ATOM      2  C   UNL     1       0.119  12.726  18.925  1.00  0.00    -0.031 C 
ENDROOT
BRANCH   1   3
ATOM      3  C   UNL     1       0.119  13.199  21.367  1.00  0.00     0.027 C 
BRANCH   3   4
ATOM      4  C   UNL     1       1.028  12.785  22.534  1.00  0.00     0.004 C 
BRANCH   4   5
ATOM      5  C   UNL     1       0.750  11.348  23.009  1.00  0.00     0.000 C 
BRANCH   5   6
ATOM      6  C   UNL     1       2.002  10.686  23.621  1.00  0.00     0.000 C 
BRANCH   6   7
ATOM      7  C   UNL     1       1.921  10.511  25.151  1.00  0.00     0.000 C 
BRANCH   7   8
ATOM      8  C   UNL     1       2.723  11.544  25.961  1.00  0.00     0.006 C 
BRANCH   8   9
ATOM      9  C   UNL     1       1.825  12.563  26.674  1.00  0.00     0.053 C 
BRANCH   9  10
ATOM     10  C   UNL     1       2.177  13.954  26.250  1.00  0.00     0.041 C 
ATOM     11  O   UNL     1       3.213  14.165  25.567  1.00  0.00    -0.550 OA
ATOM     12  O   UNL     1       1.383  15.023  26.644  1.00  0.00    -0.550 OA
ENDBRANCH   9  10
ENDBRANCH   8   9
ENDBRANCH   7   8
ENDBRANCH   6   7
ENDBRANCH   5   6
ENDBRANCH   4   5
ENDBRANCH   3   4
ENDBRANCH   1   3
BRANCH   2  13
ATOM     13  C   UNL     1       0.224  11.782  17.759  1.00  0.00     0.027 C 
BRANCH  13  14
ATOM     14  C   UNL     1       0.939  12.448  16.575  1.00  0.00     0.004 C 
BRANCH  14  15
ATOM     15  C   UNL     1       2.136  13.313  17.008  1.00  0.00     0.000 C 
BRANCH  15  16
ATOM     16  C   UNL     1       2.132  14.753  16.457  1.00  0.00     0.000 C 
BRANCH  16  17
ATOM     17  C   UNL     1       3.263  15.659  16.983  1.00  0.00    -0.000 C 
BRANCH  17  18
ATOM     18  C   UNL     1       2.794  16.859  17.824  1.00  0.00    -0.000 C 
BRANCH  18  19
ATOM     19  C   UNL     1       1.467  16.595  18.549  1.00  0.00    -0.003 C 
ATOM     20  C   UNL     1       1.704  16.193  20.002  1.00  0.00     0.004 C 
ENDBRANCH  18  19
ENDBRANCH  17  18
ENDBRANCH  16  17
ENDBRANCH  15  16
ENDBRANCH  14  15
ENDBRANCH  13  14
ENDBRANCH   2  13
TORSDOF 15
ENDMDL
MODEL 5
REMARK VINA RESULT:    -3.595      2.490      4.296
REMARK INTER + INTRA:          -8.615
REMARK INTER:                  -6.059
REMARK INTRA:                  -2.556
REMARK UNBOUND:                -1.868
REMARK SMILES CCCCCCCCC=CCCCCCCCC(=O)[O-]
REMARK SMILES IDX 10 1 9 2 11 3 12 4 13 5 14 6 15 7 16 8 17 9 18 10 19 11
REMARK SMILES IDX 20 12 8 13 7 14 6 15 5 16 4 17 3 18 2 19 1 20
REMARK H PARENT
REMARK Flexibility Score: inf
ROOT
ATOM      1  C   UNL     1      10.019  20.124  18.980  1.00  0.00    -0.031 C 
ATOM      2  C   UNL     1      10.246  20.719  20.159  1.00  0.00    -0.031 C 
ENDROOT
BRANCH   1   3
ATOM      3  C   UNL     1      10.380  18.682  18.739  1.00  0.00     0.027 C 
BRANCH   3   4
ATOM      4  C   UNL     1       9.453  18.019  17.709  1.00  0.00     0.004 C 
BRANCH   4   5
ATOM      5  C   UNL     1       9.006  18.999  16.611  1.00  0.00     0.000 C 
BRANCH   5   6
ATOM      6  C   UNL     1       7.689  18.557  15.939  1.00  0.00     0.000 C 
BRANCH   6   7
ATOM      7  C   UNL     1       6.502  19.497  16.230  1.00  0.00     0.000 C 
BRANCH   7   8
ATOM      8  C   UNL     1       6.746  20.511  17.362  1.00  0.00     0.006 C 
BRANCH   8   9
ATOM      9  C   UNL     1       6.241  20.012  18.722  1.00  0.00     0.053 C 
BRANCH   9  10
ATOM     10  C   UNL     1       4.858  20.519  18.983  1.00  0.00     0.041 C 
ATOM     11  O   UNL     1       4.156  20.007  19.894  1.00  0.00    -0.550 OA
ATOM     12  O   UNL     1       4.327  21.530  18.192  1.00  0.00    -0.550 OA
ENDBRANCH   9  10
ENDBRANCH   8   9
ENDBRANCH   7   8
ENDBRANCH   6   7
ENDBRANCH   5   6
ENDBRANCH   4   5
ENDBRANCH   3   4
ENDBRANCH   1   3
BRANCH   2  13
ATOM     13  C   UNL     1       9.832  22.146  20.393  1.00  0.00     0.027 C 
BRANCH  13  14
ATOM     14  C   UNL     1      11.033  23.005  20.812  1.00  0.00     0.004 C 
BRANCH  14  15
ATOM     15  C   UNL     1      12.384  22.341  20.495  1.00  0.00     0.000 C 
BRANCH  15  16
ATOM     16  C   UNL     1      13.151  22.958  19.309  1.00  0.00     0.000 C 
BRANCH  16  17
ATOM     17  C   UNL     1      12.363  23.034  17.986  1.00  0.00    -0.000 C 
BRANCH  17  18
ATOM     18  C   UNL     1      12.685  21.919  16.975  1.00  0.00    -0.000 C 
BRANCH  18  19
ATOM     19  C   UNL     1      11.526  21.641  16.007  1.00  0.00    -0.003 C 
ATOM     20  C   UNL     1      10.341  22.560  16.290  1.00  0.00     0.004 C 
ENDBRANCH  18  19
ENDBRANCH  17  18
ENDBRANCH  16  17
ENDBRANCH  15  16
ENDBRANCH  14  15
ENDBRANCH  13  14
ENDBRANCH   2  13
TORSDOF 15
ENDMDL
MODEL 6
REMARK VINA RESULT:    -3.584      2.554      3.146
REMARK INTER + INTRA:          -8.596
REMARK INTER:                  -6.346
REMARK INTRA:                  -2.250
REMARK UNBOUND:                -1.868
REMARK SMILES CCCCCCCCC=CCCCCCCCC(=O)[O-]
REMARK SMILES IDX 10 1 9 2 11 3 12 4 13 5 14 6 15 7 16 8 17 9 18 10 19 11
REMARK SMILES IDX 20 12 8 13 7 14 6 15 5 16 4 17 3 18 2 19 1 20
REMARK H PARENT
REMARK Flexibility Score: inf
ROOT
ATOM      1  C   UNL     1      11.545  21.311  19.680  1.00  0.00    -0.031 C 
ATOM      2  C   UNL     1      12.082  22.534  19.564  1.00  0.00    -0.031 C 
ENDROOT
BRANCH   1   3
ATOM      3  C   UNL     1      10.570  20.977  20.779  1.00  0.00     0.027 C 
BRANCH   3   4
ATOM      4  C   UNL     1       9.126  21.339  20.399  1.00  0.00     0.004 C 
BRANCH   4   5
ATOM      5  C   UNL     1       8.574  22.499  21.245  1.00  0.00     0.000 C 
BRANCH   5   6
ATOM      6  C   UNL     1       7.076  22.319  21.571  1.00  0.00     0.000 C 
BRANCH   6   7
ATOM      7  C   UNL     1       6.517  20.942  21.157  1.00  0.00     0.000 C 
BRANCH   7   8
ATOM      8  C   UNL     1       5.602  20.964  19.921  1.00  0.00     0.006 C 
BRANCH   8   9
ATOM      9  C   UNL     1       6.077  20.013  18.816  1.00  0.00     0.053 C 
BRANCH   9  10
ATOM     10  C   UNL     1       5.239  20.180  17.588  1.00  0.00     0.041 C 
ATOM     11  O   UNL     1       4.277  20.993  17.583  1.00  0.00    -0.550 OA
ATOM     12  O   UNL     1       5.492  19.408  16.462  1.00  0.00    -0.550 OA
ENDBRANCH   9  10
ENDBRANCH   8   9
ENDBRANCH   7   8
ENDBRANCH   6   7
ENDBRANCH   5   6
ENDBRANCH   4   5
ENDBRANCH   3   4
ENDBRANCH   1   3
BRANCH   2  13
ATOM     13  C   UNL     1      13.015  22.859  18.431  1.00  0.00     0.027 C 
BRANCH  13  14
ATOM     14  C   UNL     1      12.296  22.755  17.079  1.00  0.00     0.004 C 
BRANCH  14  15
ATOM     15  C   UNL     1      12.738  21.532  16.258  1.00  0.00     0.000 C 
BRANCH  15  16
ATOM     16  C   UNL     1      11.640  20.478  16.016  1.00  0.00     0.000 C 
BRANCH  16  17
ATOM     17  C   UNL     1      10.211  21.039  15.879  1.00  0.00    -0.000 C 
BRANCH  17  18
ATOM     18  C   UNL     1       9.207  20.520  16.924  1.00  0.00    -0.000 C 
BRANCH  18  19
ATOM     19  C   UNL     1       9.062  18.992  16.901  1.00  0.00    -0.003 C 
ATOM     20  C   UNL     1       9.637  18.367  18.169  1.00  0.00     0.004 C 
ENDBRANCH  18  19
ENDBRANCH  17  18
ENDBRANCH  16  17
ENDBRANCH  15  16
ENDBRANCH  14  15
ENDBRANCH  13  14
ENDBRANCH   2  13
TORSDOF 15
ENDMDL
MODEL 7
REMARK VINA RESULT:    -3.517     18.114     21.227
REMARK INTER + INTRA:          -8.469
REMARK INTER:                  -6.089
REMARK INTRA:                  -2.379
REMARK UNBOUND:                -1.868
REMARK SMILES CCCCCCCCC=CCCCCCCCC(=O)[O-]
REMARK SMILES IDX 10 1 9 2 11 3 12 4 13 5 14 6 15 7 16 8 17 9 18 10 19 11
REMARK SMILES IDX 20 12 8 13 7 14 6 15 5 16 4 17 3 18 2 19 1 20
REMARK H PARENT
REMARK Flexibility Score: inf
ROOT
ATOM      1  C   UNL     1       8.859   3.721  32.265  1.00  0.00    -0.031 C 
ATOM      2  C   UNL     1      10.025   3.212  32.685  1.00  0.00    -0.031 C 
ENDROOT
BRANCH   1   3
ATOM      3  C   UNL     1       7.540   3.133  32.693  1.00  0.00     0.027 C 
BRANCH   3   4
ATOM      4  C   UNL     1       6.608   4.191  33.303  1.00  0.00     0.004 C 
BRANCH   4   5
ATOM      5  C   UNL     1       6.455   5.425  32.397  1.00  0.00     0.000 C 
BRANCH   5   6
ATOM      6  C   UNL     1       5.085   5.458  31.688  1.00  0.00     0.000 C 
BRANCH   6   7
ATOM      7  C   UNL     1       5.039   4.617  30.395  1.00  0.00     0.000 C 
BRANCH   7   8
ATOM      8  C   UNL     1       6.253   4.798  29.467  1.00  0.00     0.006 C 
BRANCH   8   9
ATOM      9  C   UNL     1       5.890   4.652  27.983  1.00  0.00     0.053 C 
BRANCH   9  10
ATOM     10  C   UNL     1       5.148   5.860  27.507  1.00  0.00     0.041 C 
ATOM     11  O   UNL     1       5.772   6.915  27.220  1.00  0.00    -0.550 OA
ATOM     12  O   UNL     1       3.762   5.836  27.419  1.00  0.00    -0.550 OA
ENDBRANCH   9  10
ENDBRANCH   8   9
ENDBRANCH   7   8
ENDBRANCH   6   7
ENDBRANCH   5   6
ENDBRANCH   4   5
ENDBRANCH   3   4
ENDBRANCH   1   3
BRANCH   2  13
ATOM     13  C   UNL     1      11.330   3.845  32.284  1.00  0.00     0.027 C 
BRANCH  13  14
ATOM     14  C   UNL     1      12.466   3.401  33.215  1.00  0.00     0.004 C 
BRANCH  14  15
ATOM     15  C   UNL     1      11.972   3.011  34.619  1.00  0.00     0.000 C 
BRANCH  15  16
ATOM     16  C   UNL     1      12.423   3.952  35.753  1.00  0.00     0.000 C 
BRANCH  16  17
ATOM     17  C   UNL     1      11.541   5.198  35.961  1.00  0.00    -0.000 C 
BRANCH  17  18
ATOM     18  C   UNL     1      10.032   4.913  36.068  1.00  0.00    -0.000 C 
BRANCH  18  19
ATOM     19  C   UNL     1       9.181   5.897  35.252  1.00  0.00    -0.003 C 
ATOM     20  C   UNL     1      10.031   6.632  34.219  1.00  0.00     0.004 C 
ENDBRANCH  18  19
ENDBRANCH  17  18
ENDBRANCH  16  17
ENDBRANCH  15  16
ENDBRANCH  14  15
ENDBRANCH  13  14
ENDBRANCH   2  13
TORSDOF 15
ENDMDL
MODEL 8
REMARK VINA RESULT:    -3.500     19.703     21.531
REMARK INTER + INTRA:          -8.438
REMARK INTER:                  -5.620
REMARK INTRA:                  -2.817
REMARK UNBOUND:                -1.868
REMARK SMILES CCCCCCCCC=CCCCCCCCC(=O)[O-]
REMARK SMILES IDX 10 1 9 2 11 3 12 4 13 5 14 6 15 7 16 8 17 9 18 10 19 11
REMARK SMILES IDX 20 12 8 13 7 14 6 15 5 16 4 17 3 18 2 19 1 20
REMARK H PARENT
REMARK Flexibility Score: inf
ROOT
ATOM      1  C   UNL     1       9.432   3.833  30.687  1.00  0.00    -0.031 C 
ATOM      2  C   UNL     1      10.456   4.691  30.579  1.00  0.00    -0.031 C 
ENDROOT
BRANCH   1   3
ATOM      3  C   UNL     1       8.000   4.296  30.611  1.00  0.00     0.027 C 
BRANCH   3   4
ATOM      4  C   UNL     1       7.332   4.333  31.993  1.00  0.00     0.004 C 
BRANCH   4   5
ATOM      5  C   UNL     1       7.819   3.194  32.907  1.00  0.00     0.000 C 
BRANCH   5   6
ATOM      6  C   UNL     1       6.933   3.037  34.161  1.00  0.00     0.000 C 
BRANCH   6   7
ATOM      7  C   UNL     1       7.478   3.782  35.397  1.00  0.00     0.000 C 
BRANCH   7   8
ATOM      8  C   UNL     1       6.495   4.782  36.031  1.00  0.00     0.006 C 
BRANCH   8   9
ATOM      9  C   UNL     1       6.356   6.073  35.215  1.00  0.00     0.053 C 
BRANCH   9  10
ATOM     10  C   UNL     1       4.941   6.257  34.767  1.00  0.00     0.041 C 
ATOM     11  O   UNL     1       4.204   7.110  35.328  1.00  0.00    -0.550 OA
ATOM     12  O   UNL     1       4.422   5.458  33.757  1.00  0.00    -0.550 OA
ENDBRANCH   9  10
ENDBRANCH   8   9
ENDBRANCH   7   8
ENDBRANCH   6   7
ENDBRANCH   5   6
ENDBRANCH   4   5
ENDBRANCH   3   4
ENDBRANCH   1   3
BRANCH   2  13
ATOM     13  C   UNL     1      11.877   4.199  30.608  1.00  0.00     0.027 C 
BRANCH  13  14
ATOM     14  C   UNL     1      12.014   2.967  31.513  1.00  0.00     0.004 C 
BRANCH  14  15
ATOM     15  C   UNL     1      12.467   3.321  32.941  1.00  0.00     0.000 C 
BRANCH  15  16
ATOM     16  C   UNL     1      11.333   3.405  33.982  1.00  0.00     0.000 C 
BRANCH  16  17
ATOM     17  C   UNL     1      11.565   4.413  35.125  1.00  0.00    -0.000 C 
BRANCH  17  18
ATOM     18  C   UNL     1      10.581   5.596  35.156  1.00  0.00    -0.000 C 
BRANCH  18  19
ATOM     19  C   UNL     1      10.099   6.006  33.757  1.00  0.00    -0.003 C 
ATOM     20  C   UNL     1       9.518   7.417  33.768  1.00  0.00     0.004 C 
ENDBRANCH  18  19
ENDBRANCH  17  18
ENDBRANCH  16  17
ENDBRANCH  15  16
ENDBRANCH  14  15
ENDBRANCH  13  14
ENDBRANCH   2  13
TORSDOF 15
ENDMDL
MODEL 9
REMARK VINA RESULT:    -3.422      9.110     12.876
REMARK INTER + INTRA:          -8.291
REMARK INTER:                  -6.402
REMARK INTRA:                  -1.889
REMARK UNBOUND:                -1.868
REMARK SMILES CCCCCCCCC=CCCCCCCCC(=O)[O-]
REMARK SMILES IDX 10 1 9 2 11 3 12 4 13 5 14 6 15 7 16 8 17 9 18 10 19 11
REMARK SMILES IDX 20 12 8 13 7 14 6 15 5 16 4 17 3 18 2 19 1 20
REMARK H PARENT
REMARK Flexibility Score: inf
ROOT
ATOM      1  C   UNL     1       0.960  13.089  21.495  1.00  0.00    -0.031 C 
ATOM      2  C   UNL     1       0.544  14.003  22.383  1.00  0.00    -0.031 C 
ENDROOT
BRANCH   1   3
ATOM      3  C   UNL     1      -0.008  12.358  20.601  1.00  0.00     0.027 C 
BRANCH   3   4
ATOM      4  C   UNL     1      -0.005  12.915  19.170  1.00  0.00     0.004 C 
BRANCH   4   5
ATOM      5  C   UNL     1       0.189  11.812  18.115  1.00  0.00     0.000 C 
BRANCH   5   6
ATOM      6  C   UNL     1       0.542  12.391  16.728  1.00  0.00     0.000 C 
BRANCH   6   7
ATOM      7  C   UNL     1       1.974  12.957  16.643  1.00  0.00     0.000 C 
BRANCH   7   8
ATOM      8  C   UNL     1       2.057  14.491  16.571  1.00  0.00     0.006 C 
BRANCH   8   9
ATOM      9  C   UNL     1       2.938  15.089  17.675  1.00  0.00     0.053 C 
BRANCH   9  10
ATOM     10  C   UNL     1       2.181  16.128  18.441  1.00  0.00     0.041 C 
ATOM     11  O   UNL     1       1.964  15.975  19.672  1.00  0.00    -0.550 OA
ATOM     12  O   UNL     1       1.678  17.245  17.787  1.00  0.00    -0.550 OA
ENDBRANCH   9  10
ENDBRANCH   8   9
ENDBRANCH   7   8
ENDBRANCH   6   7
ENDBRANCH   5   6
ENDBRANCH   4   5
ENDBRANCH   3   4
ENDBRANCH   1   3
BRANCH   2  13
ATOM     13  C   UNL     1       1.532  14.756  23.231  1.00  0.00     0.027 C 
BRANCH  13  14
ATOM     14  C   UNL     1       1.941  13.935  24.460  1.00  0.00     0.004 C 
BRANCH  14  15
ATOM     15  C   UNL     1       0.735  13.371  25.232  1.00  0.00     0.000 C 
BRANCH  15  16
ATOM     16  C   UNL     1       0.721  11.838  25.390  1.00  0.00     0.000 C 
BRANCH  16  17
ATOM     17  C   UNL     1       1.995  11.117  24.905  1.00  0.00    -0.000 C 
BRANCH  17  18
ATOM     18  C   UNL     1       1.838  10.339  23.587  1.00  0.00    -0.000 C 
BRANCH  18  19
ATOM     19  C   UNL     1       0.391   9.901  23.323  1.00  0.00    -0.003 C 
ATOM     20  C   UNL     1       0.213   8.408  23.584  1.00  0.00     0.004 C 
ENDBRANCH  18  19
ENDBRANCH  17  18
ENDBRANCH  16  17
ENDBRANCH  15  16
ENDBRANCH  14  15
ENDBRANCH  13  14
ENDBRANCH   2  13
TORSDOF 15
ENDMDL
