MODEL 1
REMARK VINA RESULT:    -4.129      0.000      0.000
REMARK INTER + INTRA:          -5.631
REMARK INTER:                  -5.336
REMARK INTRA:                  -0.294
REMARK UNBOUND:                -0.294
REMARK SMILES CCCCCCC(=O)[O-]
REMARK SMILES IDX 5 1 6 2 7 3 8 4 9 5 4 6 3 7 2 8 1 9
REMARK H PARENT
REMARK Flexibility Score: inf
ROOT
ATOM      1  C   UNL     1      13.430  34.247  13.969  1.00  0.00     0.006 C 
ENDROOT
BRANCH   1   2
ATOM      2  C   UNL     1      14.290  34.965  12.920  1.00  0.00     0.053 C 
BRANCH   2   3
ATOM      3  C   UNL     1      13.612  36.218  12.461  1.00  0.00     0.041 C 
ATOM      4  O   UNL     1      12.761  36.784  13.196  1.00  0.00    -0.550 OA
ATOM      5  O   UNL     1      13.957  36.788  11.243  1.00  0.00    -0.550 OA
ENDBRANCH   2   3
ENDBRANCH   1   2
BRANCH   1   6
ATOM      6  C   UNL     1      13.157  32.778  13.607  1.00  0.00     0.000 C 
BRANCH   6   7
ATOM      7  C   UNL     1      13.831  32.360  12.288  1.00  0.00    -0.000 C 
BRANCH   7   8
ATOM      8  C   UNL     1      14.858  31.234  12.485  1.00  0.00    -0.003 C 
ATOM      9  C   UNL     1      16.167  31.726  13.101  1.00  0.00     0.004 C 
ENDBRANCH   7   8
ENDBRANCH   6   7
ENDBRANCH   1   6
TORSDOF 5
ENDMDL
MODEL 2
REMARK VINA RESULT:    -4.082     12.328     13.960
REMARK INTER + INTRA:          -5.569
REMARK INTER:                  -5.356
REMARK INTRA:                  -0.213
REMARK UNBOUND:                -0.294
REMARK SMILES CCCCCCC(=O)[O-]
REMARK SMILES IDX 5 1 6 2 7 3 8 4 9 5 4 6 3 7 2 8 1 9
REMARK H PARENT
REMARK Flexibility Score: inf
ROOT
ATOM      1  C   UNL     1       2.320  43.971  12.078  1.00  0.00     0.006 C 
ENDROOT
BRANCH   1   2
ATOM      2  C   UNL     1       3.804  44.342  11.965  1.00  0.00     0.053 C 
BRANCH   2   3
ATOM      3  C   UNL     1       4.039  45.188  10.754  1.00  0.00     0.041 C 
ATOM      4  O   UNL     1       4.106  46.441  10.859  1.00  0.00    -0.550 OA
ATOM      5  O   UNL     1       4.235  44.591   9.516  1.00  0.00    -0.550 OA
ENDBRANCH   2   3
ENDBRANCH   1   2
BRANCH   1   6
ATOM      6  C   UNL     1       2.086  42.451  12.074  1.00  0.00     0.000 C 
BRANCH   6   7
ATOM      7  C   UNL     1       3.391  41.654  11.899  1.00  0.00    -0.000 C 
BRANCH   7   8
ATOM      8  C   UNL     1       3.334  40.278  12.580  1.00  0.00    -0.003 C 
ATOM      9  C   UNL     1       4.679  39.850  13.167  1.00  0.00     0.004 C 
ENDBRANCH   7   8
ENDBRANCH   6   7
ENDBRANCH   1   6
TORSDOF 5
ENDMDL
MODEL 3
REMARK VINA RESULT:    -4.054     11.907     14.062
REMARK INTER + INTRA:          -5.533
REMARK INTER:                  -5.282
REMARK INTRA:                  -0.252
REMARK UNBOUND:                -0.294
REMARK SMILES CCCCCCC(=O)[O-]
REMARK SMILES IDX 5 1 6 2 7 3 8 4 9 5 4 6 3 7 2 8 1 9
REMARK H PARENT
REMARK Flexibility Score: inf
ROOT
ATOM      1  C   UNL     1       2.738  42.111  11.750  1.00  0.00     0.006 C 
ENDROOT
BRANCH   1   2
ATOM      2  C   UNL     1       4.063  41.505  12.229  1.00  0.00     0.053 C 
BRANCH   2   3
ATOM      3  C   UNL     1       3.826  40.171  12.865  1.00  0.00     0.041 C 
ATOM      4  O   UNL     1       4.745  39.606  13.515  1.00  0.00    -0.550 OA
ATOM      5  O   UNL     1       2.575  39.573  12.781  1.00  0.00    -0.550 OA
ENDBRANCH   2   3
ENDBRANCH   1   2
BRANCH   1   6
ATOM      6  C   UNL     1       2.577  43.584  12.159  1.00  0.00     0.000 C 
BRANCH   6   7
ATOM      7  C   UNL     1       3.921  44.331  12.219  1.00  0.00    -0.000 C 
BRANCH   7   8
ATOM      8  C   UNL     1       3.992  45.493  11.217  1.00  0.00    -0.003 C 
ATOM      9  C   UNL     1       4.167  45.021   9.773  1.00  0.00     0.004 C 
ENDBRANCH   7   8
ENDBRANCH   6   7
ENDBRANCH   1   6
TORSDOF 5
ENDMDL
MODEL 4
REMARK VINA RESULT:    -4.054     14.095     15.336
REMARK INTER + INTRA:          -5.533
REMARK INTER:                  -5.354
REMARK INTRA:                  -0.179
REMARK UNBOUND:                -0.294
REMARK SMILES CCCCCCC(=O)[O-]
REMARK SMILES IDX 5 1 6 2 7 3 8 4 9 5 4 6 3 7 2 8 1 9
REMARK H PARENT
REMARK Flexibility Score: inf
ROOT
ATOM      1  C   UNL     1       4.149  44.649  11.754  1.00  0.00     0.006 C 
ENDROOT
BRANCH   1   2
ATOM      2  C   UNL     1       2.925  43.798  12.120  1.00  0.00     0.053 C 
BRANCH   2   3
ATOM      3  C   UNL     1       2.915  42.531  11.324  1.00  0.00     0.041 C 
ATOM      4  O   UNL     1       2.975  41.416  11.907  1.00  0.00    -0.550 OA
ATOM      5  O   UNL     1       2.790  42.579   9.942  1.00  0.00    -0.550 OA
ENDBRANCH   2   3
ENDBRANCH   1   2
BRANCH   1   6
ATOM      6  C   UNL     1       3.787  45.870  10.892  1.00  0.00     0.000 C 
BRANCH   6   7
ATOM      7  C   UNL     1       4.519  45.874   9.539  1.00  0.00    -0.000 C 
BRANCH   7   8
ATOM      8  C   UNL     1       4.890  47.292   9.076  1.00  0.00    -0.003 C 
ATOM      9  C   UNL     1       6.368  47.618   9.288  1.00  0.00     0.004 C 
ENDBRANCH   7   8
ENDBRANCH   6   7
ENDBRANCH   1   6
TORSDOF 5
ENDMDL
MODEL 5
REMARK VINA RESULT:    -3.964     13.947     15.167
REMARK INTER + INTRA:          -5.417
REMARK INTER:                  -5.184
REMARK INTRA:                  -0.233
REMARK UNBOUND:                -0.294
REMARK SMILES CCCCCCC(=O)[O-]
REMARK SMILES IDX 5 1 6 2 7 3 8 4 9 5 4 6 3 7 2 8 1 9
REMARK H PARENT
REMARK Flexibility Score: inf
ROOT
ATOM      1  C   UNL     1       4.115  43.821  10.162  1.00  0.00     0.006 C 
ENDROOT
BRANCH   1   2
ATOM      2  C   UNL     1       2.873  42.922  10.229  1.00  0.00     0.053 C 
BRANCH   2   3
ATOM      3  C   UNL     1       2.741  42.316  11.591  1.00  0.00     0.041 C 
ATOM      4  O   UNL     1       1.721  42.547  12.293  1.00  0.00    -0.550 OA
ATOM      5  O   UNL     1       3.722  41.455  12.066  1.00  0.00    -0.550 OA
ENDBRANCH   2   3
ENDBRANCH   1   2
BRANCH   1   6
ATOM      6  C   UNL     1       4.152  44.865  11.290  1.00  0.00     0.000 C 
BRANCH   6   7
ATOM      7  C   UNL     1       3.977  46.303  10.769  1.00  0.00    -0.000 C 
BRANCH   7   8
ATOM      8  C   UNL     1       4.665  46.524   9.413  1.00  0.00    -0.003 C 
ATOM      9  C   UNL     1       5.911  47.403   9.516  1.00  0.00     0.004 C 
ENDBRANCH   7   8
ENDBRANCH   6   7
ENDBRANCH   1   6
TORSDOF 5
ENDMDL
MODEL 6
REMARK VINA RESULT:    -3.962     14.498     15.384
REMARK INTER + INTRA:          -5.415
REMARK INTER:                  -5.176
REMARK INTRA:                  -0.239
REMARK UNBOUND:                -0.294
REMARK SMILES CCCCCCC(=O)[O-]
REMARK SMILES IDX 5 1 6 2 7 3 8 4 9 5 4 6 3 7 2 8 1 9
REMARK H PARENT
REMARK Flexibility Score: inf
ROOT
ATOM      1  C   UNL     1       3.970  45.937  11.048  1.00  0.00     0.006 C 
ENDROOT
BRANCH   1   2
ATOM      2  C   UNL     1       4.532  45.833   9.624  1.00  0.00     0.053 C 
BRANCH   2   3
ATOM      3  C   UNL     1       4.952  47.182   9.130  1.00  0.00     0.041 C 
ATOM      4  O   UNL     1       6.010  47.713   9.561  1.00  0.00    -0.550 OA
ATOM      5  O   UNL     1       4.204  47.830   8.157  1.00  0.00    -0.550 OA
ENDBRANCH   2   3
ENDBRANCH   1   2
BRANCH   1   6
ATOM      6  C   UNL     1       4.170  44.646  11.860  1.00  0.00     0.000 C 
BRANCH   6   7
ATOM      7  C   UNL     1       2.860  43.863  12.055  1.00  0.00    -0.000 C 
BRANCH   7   8
ATOM      8  C   UNL     1       2.879  42.501  11.344  1.00  0.00    -0.003 C 
ATOM      9  C   UNL     1       2.698  42.619   9.830  1.00  0.00     0.004 C 
ENDBRANCH   7   8
ENDBRANCH   6   7
ENDBRANCH   1   6
TORSDOF 5
ENDMDL
MODEL 7
REMARK VINA RESULT:    -3.918     14.306     15.242
REMARK INTER + INTRA:          -5.358
REMARK INTER:                  -5.124
REMARK INTRA:                  -0.234
REMARK UNBOUND:                -0.294
REMARK SMILES CCCCCCC(=O)[O-]
REMARK SMILES IDX 5 1 6 2 7 3 8 4 9 5 4 6 3 7 2 8 1 9
REMARK H PARENT
REMARK Flexibility Score: inf
ROOT
ATOM      1  C   UNL     1       3.511  45.160   9.581  1.00  0.00     0.006 C 
ENDROOT
BRANCH   1   2
ATOM      2  C   UNL     1       4.675  45.884  10.270  1.00  0.00     0.053 C 
BRANCH   2   3
ATOM      3  C   UNL     1       5.190  46.987   9.399  1.00  0.00     0.041 C 
ATOM      4  O   UNL     1       4.440  47.516   8.536  1.00  0.00    -0.550 OA
ATOM      5  O   UNL     1       6.481  47.467   9.574  1.00  0.00    -0.550 OA
ENDBRANCH   2   3
ENDBRANCH   1   2
BRANCH   1   6
ATOM      6  C   UNL     1       3.845  43.701   9.228  1.00  0.00     0.000 C 
BRANCH   6   7
ATOM      7  C   UNL     1       2.781  42.712   9.734  1.00  0.00    -0.000 C 
BRANCH   7   8
ATOM      8  C   UNL     1       2.956  42.372  11.223  1.00  0.00    -0.003 C 
ATOM      9  C   UNL     1       1.836  42.937  12.096  1.00  0.00     0.004 C 
ENDBRANCH   7   8
ENDBRANCH   6   7
ENDBRANCH   1   6
TORSDOF 5
ENDMDL
MODEL 8
REMARK VINA RESULT:    -3.873     12.213     14.356
REMARK INTER + INTRA:          -5.300
REMARK INTER:                  -5.055
REMARK INTRA:                  -0.245
REMARK UNBOUND:                -0.294
REMARK SMILES CCCCCCC(=O)[O-]
REMARK SMILES IDX 5 1 6 2 7 3 8 4 9 5 4 6 3 7 2 8 1 9
REMARK H PARENT
REMARK Flexibility Score: inf
ROOT
ATOM      1  C   UNL     1       3.836  42.256  11.874  1.00  0.00     0.006 C 
ENDROOT
BRANCH   1   2
ATOM      2  C   UNL     1       2.974  41.019  12.160  1.00  0.00     0.053 C 
BRANCH   2   3
ATOM      3  C   UNL     1       3.794  39.954  12.818  1.00  0.00     0.041 C 
ATOM      4  O   UNL     1       3.355  38.776  12.900  1.00  0.00    -0.550 OA
ATOM      5  O   UNL     1       5.064  40.249  13.295  1.00  0.00    -0.550 OA
ENDBRANCH   2   3
ENDBRANCH   1   2
BRANCH   1   6
ATOM      6  C   UNL     1       3.085  43.574  12.128  1.00  0.00     0.000 C 
BRANCH   6   7
ATOM      7  C   UNL     1       1.577  43.457  11.848  1.00  0.00    -0.000 C 
BRANCH   7   8
ATOM      8  C   UNL     1       1.121  44.369  10.698  1.00  0.00    -0.003 C 
ATOM      9  C   UNL     1       1.713  43.963   9.348  1.00  0.00     0.004 C 
ENDBRANCH   7   8
ENDBRANCH   6   7
ENDBRANCH   1   6
TORSDOF 5
ENDMDL
MODEL 9
REMARK VINA RESULT:    -3.805      1.171      2.065
REMARK INTER + INTRA:          -5.211
REMARK INTER:                  -4.908
REMARK INTRA:                  -0.304
REMARK UNBOUND:                -0.294
REMARK SMILES CCCCCCC(=O)[O-]
REMARK SMILES IDX 5 1 6 2 7 3 8 4 9 5 4 6 3 7 2 8 1 9
REMARK H PARENT
REMARK Flexibility Score: inf
ROOT
ATOM      1  C   UNL     1      15.007  34.363  13.776  1.00  0.00     0.006 C 
ENDROOT
BRANCH   1   2
ATOM      2  C   UNL     1      13.541  34.789  13.618  1.00  0.00     0.053 C 
BRANCH   2   3
ATOM      3  C   UNL     1      13.448  36.053  12.824  1.00  0.00     0.041 C 
ATOM      4  O   UNL     1      14.063  36.161  11.729  1.00  0.00    -0.550 OA
ATOM      5  O   UNL     1      12.644  37.095  13.266  1.00  0.00    -0.550 OA
ENDBRANCH   2   3
ENDBRANCH   1   2
BRANCH   1   6
ATOM      6  C   UNL     1      15.268  32.935  13.270  1.00  0.00     0.000 C 
BRANCH   6   7
ATOM      7  C   UNL     1      13.989  32.244  12.767  1.00  0.00    -0.000 C 
BRANCH   7   8
ATOM      8  C   UNL     1      13.640  30.988  13.580  1.00  0.00    -0.003 C 
ATOM      9  C   UNL     1      12.291  31.096  14.291  1.00  0.00     0.004 C 
ENDBRANCH   7   8
ENDBRANCH   6   7
ENDBRANCH   1   6
TORSDOF 5
ENDMDL
