MODEL 1
REMARK VINA RESULT:    -5.172      0.000      0.000
REMARK INTER + INTRA:          -7.382
REMARK INTER:                  -6.986
REMARK INTRA:                  -0.396
REMARK UNBOUND:                -0.396
REMARK SMILES CCCCCCC=CC(=O)[O-]
REMARK SMILES IDX 5 1 6 2 7 3 8 4 9 5 10 6 11 7 4 8 3 9 2 10 1 11
REMARK H PARENT
REMARK Flexibility Score: inf
ROOT
ATOM      1  C   UNL     1      10.547 -46.522  37.288  1.00  0.00     0.004 C 
ENDROOT
BRANCH   1   2
ATOM      2  C   UNL     1      11.927 -46.324  37.942  1.00  0.00     0.027 C 
BRANCH   2   3
ATOM      3  C   UNL     1      12.946 -45.760  36.986  1.00  0.00    -0.025 C 
ATOM      4  C   UNL     1      14.252 -46.075  36.944  1.00  0.00     0.020 C 
BRANCH   4   5
ATOM      5  C   UNL     1      14.946 -47.074  37.782  1.00  0.00     0.064 C 
ATOM      6  O   UNL     1      15.302 -46.825  38.963  1.00  0.00    -0.545 OA
ATOM      7  O   UNL     1      15.183 -48.338  37.261  1.00  0.00    -0.545 OA
ENDBRANCH   4   5
ENDBRANCH   2   3
ENDBRANCH   1   2
BRANCH   1   8
ATOM      8  C   UNL     1      10.492 -46.124  35.803  1.00  0.00     0.000 C 
BRANCH   8   9
ATOM      9  C   UNL     1       9.363 -46.835  35.035  1.00  0.00    -0.000 C 
BRANCH   9  10
ATOM     10  C   UNL     1       8.783 -48.026  35.812  1.00  0.00    -0.003 C 
ATOM     11  C   UNL     1       8.405 -49.195  34.902  1.00  0.00     0.004 C 
ENDBRANCH   9  10
ENDBRANCH   8   9
ENDBRANCH   1   8
TORSDOF 6
ENDMDL
MODEL 2
REMARK VINA RESULT:    -5.152      1.203      1.714
REMARK INTER + INTRA:          -7.356
REMARK INTER:                  -6.796
REMARK INTRA:                  -0.560
REMARK UNBOUND:                -0.396
REMARK SMILES CCCCCCC=CC(=O)[O-]
REMARK SMILES IDX 5 1 6 2 7 3 8 4 9 5 10 6 11 7 4 8 3 9 2 10 1 11
REMARK H PARENT
REMARK Flexibility Score: inf
ROOT
ATOM      1  C   UNL     1      10.542 -46.218  38.770  1.00  0.00     0.004 C 
ENDROOT
BRANCH   1   2
ATOM      2  C   UNL     1      11.938 -46.799  38.472  1.00  0.00     0.027 C 
BRANCH   2   3
ATOM      3  C   UNL     1      12.658 -46.046  37.383  1.00  0.00    -0.025 C 
ATOM      4  C   UNL     1      13.963 -46.148  37.081  1.00  0.00     0.020 C 
BRANCH   4   5
ATOM      5  C   UNL     1      14.946 -47.055  37.709  1.00  0.00     0.064 C 
ATOM      6  O   UNL     1      15.377 -46.868  38.876  1.00  0.00    -0.545 OA
ATOM      7  O   UNL     1      15.383 -48.165  37.000  1.00  0.00    -0.545 OA
ENDBRANCH   4   5
ENDBRANCH   2   3
ENDBRANCH   1   2
BRANCH   1   8
ATOM      8  C   UNL     1       9.407 -47.256  38.722  1.00  0.00     0.000 C 
BRANCH   8   9
ATOM      9  C   UNL     1       8.963 -47.588  37.286  1.00  0.00    -0.000 C 
BRANCH   9  10
ATOM     10  C   UNL     1       8.852 -46.338  36.400  1.00  0.00    -0.003 C 
ATOM     11  C   UNL     1       9.634 -46.470  35.094  1.00  0.00     0.004 C 
ENDBRANCH   9  10
ENDBRANCH   8   9
ENDBRANCH   1   8
TORSDOF 6
ENDMDL
MODEL 3
REMARK VINA RESULT:    -5.133      3.534      5.838
REMARK INTER + INTRA:          -7.330
REMARK INTER:                  -7.058
REMARK INTRA:                  -0.272
REMARK UNBOUND:                -0.396
REMARK SMILES CCCCCCC=CC(=O)[O-]
REMARK SMILES IDX 5 1 6 2 7 3 8 4 9 5 10 6 11 7 4 8 3 9 2 10 1 11
REMARK H PARENT
REMARK Flexibility Score: inf
ROOT
ATOM      1  C   UNL     1      12.909 -46.041  37.328  1.00  0.00     0.004 C 
ENDROOT
BRANCH   1   2
ATOM      2  C   UNL     1      11.370 -46.044  37.266  1.00  0.00     0.027 C 
BRANCH   2   3
ATOM      3  C   UNL     1      10.847 -46.009  35.853  1.00  0.00    -0.025 C 
ATOM      4  C   UNL     1       9.558 -46.088  35.484  1.00  0.00     0.020 C 
BRANCH   4   5
ATOM      5  C   UNL     1       8.386 -46.167  36.381  1.00  0.00     0.064 C 
ATOM      6  O   UNL     1       7.736 -47.233  36.540  1.00  0.00    -0.545 OA
ATOM      7  O   UNL     1       8.012 -45.038  37.097  1.00  0.00    -0.545 OA
ENDBRANCH   4   5
ENDBRANCH   2   3
ENDBRANCH   1   2
BRANCH   1   8
ATOM      8  C   UNL     1      13.493 -46.895  38.468  1.00  0.00     0.000 C 
BRANCH   8   9
ATOM      9  C   UNL     1      14.998 -47.169  38.299  1.00  0.00    -0.000 C 
BRANCH   9  10
ATOM     10  C   UNL     1      15.300 -48.075  37.096  1.00  0.00    -0.003 C 
ATOM     11  C   UNL     1      16.084 -47.356  35.999  1.00  0.00     0.004 C 
ENDBRANCH   9  10
ENDBRANCH   8   9
ENDBRANCH   1   8
TORSDOF 6
ENDMDL
MODEL 4
REMARK VINA RESULT:    -5.040      1.844      2.535
REMARK INTER + INTRA:          -7.204
REMARK INTER:                  -6.972
REMARK INTRA:                  -0.232
REMARK UNBOUND:                -0.396
REMARK SMILES CCCCCCC=CC(=O)[O-]
REMARK SMILES IDX 5 1 6 2 7 3 8 4 9 5 10 6 11 7 4 8 3 9 2 10 1 11
REMARK H PARENT
REMARK Flexibility Score: inf
ROOT
ATOM      1  C   UNL     1      10.480 -46.196  38.020  1.00  0.00     0.004 C 
ENDROOT
BRANCH   1   2
ATOM      2  C   UNL     1      11.962 -46.593  38.154  1.00  0.00     0.027 C 
BRANCH   2   3
ATOM      3  C   UNL     1      12.843 -45.892  37.153  1.00  0.00    -0.025 C 
ATOM      4  C   UNL     1      14.150 -46.127  36.946  1.00  0.00     0.020 C 
BRANCH   4   5
ATOM      5  C   UNL     1      14.977 -47.155  37.611  1.00  0.00     0.064 C 
ATOM      6  O   UNL     1      15.351 -48.200  37.017  1.00  0.00    -0.545 OA
ATOM      7  O   UNL     1      15.382 -46.946  38.922  1.00  0.00    -0.545 OA
ENDBRANCH   4   5
ENDBRANCH   2   3
ENDBRANCH   1   2
BRANCH   1   8
ATOM      8  C   UNL     1       9.521 -47.058  38.861  1.00  0.00     0.000 C 
BRANCH   8   9
ATOM      9  C   UNL     1       8.645 -47.987  38.002  1.00  0.00    -0.000 C 
BRANCH   9  10
ATOM     10  C   UNL     1       7.226 -48.148  38.568  1.00  0.00    -0.003 C 
ATOM     11  C   UNL     1       6.750 -46.910  39.326  1.00  0.00     0.004 C 
ENDBRANCH   9  10
ENDBRANCH   8   9
ENDBRANCH   1   8
TORSDOF 6
ENDMDL
MODEL 5
REMARK VINA RESULT:    -5.017      3.315      5.569
REMARK INTER + INTRA:          -7.173
REMARK INTER:                  -6.835
REMARK INTRA:                  -0.338
REMARK UNBOUND:                -0.396
REMARK SMILES CCCCCCC=CC(=O)[O-]
REMARK SMILES IDX 5 1 6 2 7 3 8 4 9 5 10 6 11 7 4 8 3 9 2 10 1 11
REMARK H PARENT
REMARK Flexibility Score: inf
ROOT
ATOM      1  C   UNL     1      11.986 -47.054  39.607  1.00  0.00     0.004 C 
ENDROOT
BRANCH   1   2
ATOM      2  C   UNL     1      10.806 -46.672  38.695  1.00  0.00     0.027 C 
BRANCH   2   3
ATOM      3  C   UNL     1       9.625 -47.594  38.857  1.00  0.00    -0.025 C 
ATOM      4  C   UNL     1       8.635 -47.776  37.967  1.00  0.00     0.020 C 
BRANCH   4   5
ATOM      5  C   UNL     1       8.526 -47.158  36.630  1.00  0.00     0.064 C 
ATOM      6  O   UNL     1       7.964 -46.046  36.450  1.00  0.00    -0.545 OA
ATOM      7  O   UNL     1       9.090 -47.809  35.542  1.00  0.00    -0.545 OA
ENDBRANCH   4   5
ENDBRANCH   2   3
ENDBRANCH   1   2
BRANCH   1   8
ATOM      8  C   UNL     1      13.324 -47.224  38.865  1.00  0.00     0.000 C 
BRANCH   8   9
ATOM      9  C   UNL     1      13.394 -46.403  37.566  1.00  0.00    -0.000 C 
BRANCH   9  10
ATOM     10  C   UNL     1      14.753 -46.531  36.861  1.00  0.00    -0.003 C 
ATOM     11  C   UNL     1      15.341 -47.938  36.967  1.00  0.00     0.004 C 
ENDBRANCH   9  10
ENDBRANCH   8   9
ENDBRANCH   1   8
TORSDOF 6
ENDMDL
MODEL 6
REMARK VINA RESULT:    -4.967      3.464      5.580
REMARK INTER + INTRA:          -7.105
REMARK INTER:                  -6.568
REMARK INTRA:                  -0.537
REMARK UNBOUND:                -0.396
REMARK SMILES CCCCCCC=CC(=O)[O-]
REMARK SMILES IDX 5 1 6 2 7 3 8 4 9 5 10 6 11 7 4 8 3 9 2 10 1 11
REMARK H PARENT
REMARK Flexibility Score: inf
ROOT
ATOM      1  C   UNL     1      10.254 -47.012  38.891  1.00  0.00     0.004 C 
ENDROOT
BRANCH   1   2
ATOM      2  C   UNL     1       9.594 -47.173  37.509  1.00  0.00     0.027 C 
BRANCH   2   3
ATOM      3  C   UNL     1      10.247 -46.319  36.452  1.00  0.00    -0.025 C 
ATOM      4  C   UNL     1       9.906 -46.269  35.153  1.00  0.00     0.020 C 
BRANCH   4   5
ATOM      5  C   UNL     1       8.792 -46.991  34.505  1.00  0.00     0.064 C 
ATOM      6  O   UNL     1       8.982 -48.005  33.784  1.00  0.00    -0.545 OA
ATOM      7  O   UNL     1       7.493 -46.555  34.724  1.00  0.00    -0.545 OA
ENDBRANCH   4   5
ENDBRANCH   2   3
ENDBRANCH   1   2
BRANCH   1   8
ATOM      8  C   UNL     1      11.632 -46.329  38.854  1.00  0.00     0.000 C 
BRANCH   8   9
ATOM      9  C   UNL     1      12.786 -47.293  39.182  1.00  0.00    -0.000 C 
BRANCH   9  10
ATOM     10  C   UNL     1      14.056 -46.987  38.374  1.00  0.00    -0.003 C 
ATOM     11  C   UNL     1      13.767 -46.202  37.095  1.00  0.00     0.004 C 
ENDBRANCH   9  10
ENDBRANCH   8   9
ENDBRANCH   1   8
TORSDOF 6
ENDMDL
MODEL 7
REMARK VINA RESULT:    -4.874      4.374      5.615
REMARK INTER + INTRA:          -6.980
REMARK INTER:                  -6.184
REMARK INTRA:                  -0.796
REMARK UNBOUND:                -0.396
REMARK SMILES CCCCCCC=CC(=O)[O-]
REMARK SMILES IDX 5 1 6 2 7 3 8 4 9 5 10 6 11 7 4 8 3 9 2 10 1 11
REMARK H PARENT
REMARK Flexibility Score: inf
ROOT
ATOM      1  C   UNL     1       9.200 -43.832  33.284  1.00  0.00     0.004 C 
ENDROOT
BRANCH   1   2
ATOM      2  C   UNL     1      10.283 -44.926  33.347  1.00  0.00     0.027 C 
BRANCH   2   3
ATOM      3  C   UNL     1      10.518 -45.430  34.747  1.00  0.00    -0.025 C 
ATOM      4  C   UNL     1       9.799 -46.371  35.382  1.00  0.00     0.020 C 
BRANCH   4   5
ATOM      5  C   UNL     1       8.671 -47.145  34.823  1.00  0.00     0.064 C 
ATOM      6  O   UNL     1       7.472 -46.852  35.071  1.00  0.00    -0.545 OA
ATOM      7  O   UNL     1       8.942 -48.208  33.974  1.00  0.00    -0.545 OA
ENDBRANCH   4   5
ENDBRANCH   2   3
ENDBRANCH   1   2
BRANCH   1   8
ATOM      8  C   UNL     1       8.106 -44.091  32.233  1.00  0.00     0.000 C 
BRANCH   8   9
ATOM      9  C   UNL     1       8.386 -45.336  31.373  1.00  0.00    -0.000 C 
BRANCH   9  10
ATOM     10  C   UNL     1       7.263 -46.380  31.465  1.00  0.00    -0.003 C 
ATOM     11  C   UNL     1       5.985 -45.818  32.086  1.00  0.00     0.004 C 
ENDBRANCH   9  10
ENDBRANCH   8   9
ENDBRANCH   1   8
TORSDOF 6
ENDMDL
MODEL 8
REMARK VINA RESULT:    -4.852      4.821      6.292
REMARK INTER + INTRA:          -6.950
REMARK INTER:                  -6.625
REMARK INTRA:                  -0.325
REMARK UNBOUND:                -0.396
REMARK SMILES CCCCCCC=CC(=O)[O-]
REMARK SMILES IDX 5 1 6 2 7 3 8 4 9 5 10 6 11 7 4 8 3 9 2 10 1 11
REMARK H PARENT
REMARK Flexibility Score: inf
ROOT
ATOM      1  C   UNL     1       9.602 -46.768  35.659  1.00  0.00     0.004 C 
ENDROOT
BRANCH   1   2
ATOM      2  C   UNL     1       9.442 -46.255  34.216  1.00  0.00     0.027 C 
BRANCH   2   3
ATOM      3  C   UNL     1      10.083 -44.908  34.005  1.00  0.00    -0.025 C 
ATOM      4  C   UNL     1       9.611 -43.919  33.227  1.00  0.00     0.020 C 
BRANCH   4   5
ATOM      5  C   UNL     1       8.345 -43.924  32.466  1.00  0.00     0.064 C 
ATOM      6  O   UNL     1       7.329 -43.291  32.854  1.00  0.00    -0.545 OA
ATOM      7  O   UNL     1       8.285 -44.622  31.268  1.00  0.00    -0.545 OA
ENDBRANCH   4   5
ENDBRANCH   2   3
ENDBRANCH   1   2
BRANCH   1   8
ATOM      8  C   UNL     1      10.805 -46.169  36.409  1.00  0.00     0.000 C 
BRANCH   8   9
ATOM      9  C   UNL     1      10.478 -45.808  37.869  1.00  0.00    -0.000 C 
BRANCH   9  10
ATOM     10  C   UNL     1      10.494 -47.033  38.796  1.00  0.00    -0.003 C 
ATOM     11  C   UNL     1      11.771 -47.125  39.630  1.00  0.00     0.004 C 
ENDBRANCH   9  10
ENDBRANCH   8   9
ENDBRANCH   1   8
TORSDOF 6
ENDMDL
