MODEL 1
REMARK VINA RESULT:    -6.301      0.000      0.000
REMARK INTER + INTRA:          -8.018
REMARK INTER:                  -7.774
REMARK INTRA:                  -0.244
REMARK UNBOUND:                -0.244
REMARK SMILES Oc1cc(O)c2cc(O)c(-c3cc(O)c(O)c(O)c3)[o+]c2c1.[Cl-]
REMARK SMILES IDX 10 1 20 2 21 3 22 4 2 5 3 6 4 7 6 8 7 9 8 10 11 11 12 12
REMARK SMILES IDX 13 13 19 14 15 15 17 16 14 17 16 19 18 21 9 23 1 25 5 27
REMARK H PARENT 14 18 16 20 18 22 9 24 1 26 5 28
REMARK Flexibility Score: inf
ROOT
ATOM      1  C   UNL     1      20.912  33.296  31.198  1.00  0.00     0.402 A 
ATOM      2  O   UNL     1      21.640  34.085  31.984  1.00  0.00    -0.202 OA
ATOM      3  C   UNL     1      21.785  33.882  33.289  1.00  0.00     0.368 A 
ATOM      4  C   UNL     1      22.574  34.765  34.031  1.00  0.00     0.162 A 
ATOM      5  C   UNL     1      22.746  34.574  35.403  1.00  0.00     0.128 A 
ATOM      6  C   UNL     1      22.127  33.494  36.039  1.00  0.00     0.093 A 
ATOM      7  C   UNL     1      21.332  32.595  35.318  1.00  0.00     0.136 A 
ATOM      8  C   UNL     1      21.152  32.786  33.923  1.00  0.00     0.125 A 
ATOM      9  C   UNL     1      20.362  31.943  33.124  1.00  0.00     0.078 A 
ATOM     10  C   UNL     1      20.229  32.200  31.755  1.00  0.00     0.223 A 
ENDROOT
BRANCH   1  11
ATOM     11  C   UNL     1      20.836  33.622  29.755  1.00  0.00     0.091 A 
ATOM     12  C   UNL     1      21.966  33.537  28.927  1.00  0.00     0.068 A 
ATOM     13  C   UNL     1      21.879  33.871  27.570  1.00  0.00     0.162 A 
ATOM     14  C   UNL     1      19.627  34.080  29.214  1.00  0.00     0.068 A 
ATOM     15  C   UNL     1      20.662  34.307  27.024  1.00  0.00     0.200 A 
ATOM     16  C   UNL     1      19.524  34.416  27.858  1.00  0.00     0.162 A 
BRANCH  13  17
ATOM     17  O   UNL     1      23.003  33.777  26.751  1.00  0.00    -0.504 OA
ATOM     18  H   UNL     1      22.922  33.601  25.756  1.00  0.00     0.293 HD
ENDBRANCH  13  17
BRANCH  15  19
ATOM     19  O   UNL     1      20.628  34.619  25.664  1.00  0.00    -0.502 OA
ATOM     20  H   UNL     1      20.694  35.558  25.297  1.00  0.00     0.293 HD
ENDBRANCH  15  19
BRANCH  16  21
ATOM     21  O   UNL     1      18.283  34.853  27.389  1.00  0.00    -0.504 OA
ATOM     22  H   UNL     1      17.718  34.342  26.727  1.00  0.00     0.293 HD
ENDBRANCH  16  21
ENDBRANCH   1  11
BRANCH  10  23
ATOM     23  O   UNL     1      19.406  31.393  30.970  1.00  0.00    -0.500 OA
ATOM     24  H   UNL     1      18.951  31.747  30.136  1.00  0.00     0.294 HD
ENDBRANCH  10  23
BRANCH   5  25
ATOM     25  O   UNL     1      23.536  35.466  36.125  1.00  0.00    -0.507 OA
ATOM     26  H   UNL     1      24.526  35.301  36.267  1.00  0.00     0.293 HD
ENDBRANCH   5  25
BRANCH   7  27
ATOM     27  O   UNL     1      20.750  31.539  36.025  1.00  0.00    -0.507 OA
ATOM     28  H   UNL     1      19.811  31.549  36.398  1.00  0.00     0.293 HD
ENDBRANCH   7  27
TORSDOF 7
ENDMDL
MODEL 2
REMARK VINA RESULT:    -6.112     10.231     14.228
REMARK INTER + INTRA:          -7.786
REMARK INTER:                  -7.559
REMARK INTRA:                  -0.227
REMARK UNBOUND:                -0.244
REMARK SMILES Oc1cc(O)c2cc(O)c(-c3cc(O)c(O)c(O)c3)[o+]c2c1.[Cl-]
REMARK SMILES IDX 10 1 20 2 21 3 22 4 2 5 3 6 4 7 6 8 7 9 8 10 11 11 12 12
REMARK SMILES IDX 13 13 19 14 15 15 17 16 14 17 16 19 18 21 9 23 1 25 5 27
REMARK H PARENT 14 18 16 20 18 22 9 24 1 26 5 28
REMARK Flexibility Score: inf
ROOT
ATOM      1  C   UNL     1      23.374  30.386  18.177  1.00  0.00     0.402 A 
ATOM      2  O   UNL     1      23.375  30.907  19.402  1.00  0.00    -0.202 OA
ATOM      3  C   UNL     1      22.612  31.933  19.759  1.00  0.00     0.368 A 
ATOM      4  C   UNL     1      22.682  32.408  21.072  1.00  0.00     0.162 A 
ATOM      5  C   UNL     1      21.889  33.483  21.476  1.00  0.00     0.128 A 
ATOM      6  C   UNL     1      21.019  34.089  20.564  1.00  0.00     0.093 A 
ATOM      7  C   UNL     1      20.931  33.632  19.243  1.00  0.00     0.136 A 
ATOM      8  C   UNL     1      21.737  32.541  18.828  1.00  0.00     0.125 A 
ATOM      9  C   UNL     1      21.724  32.025  17.520  1.00  0.00     0.078 A 
ATOM     10  C   UNL     1      22.551  30.949  17.184  1.00  0.00     0.223 A 
ENDROOT
BRANCH   1  11
ATOM     11  C   UNL     1      24.264  29.234  17.904  1.00  0.00     0.091 A 
ATOM     12  C   UNL     1      24.078  27.999  18.545  1.00  0.00     0.068 A 
ATOM     13  C   UNL     1      24.944  26.929  18.290  1.00  0.00     0.162 A 
ATOM     14  C   UNL     1      25.350  29.393  17.032  1.00  0.00     0.068 A 
ATOM     15  C   UNL     1      26.016  27.082  17.399  1.00  0.00     0.200 A 
ATOM     16  C   UNL     1      26.223  28.331  16.766  1.00  0.00     0.162 A 
BRANCH  13  17
ATOM     17  O   UNL     1      24.748  25.703  18.924  1.00  0.00    -0.504 OA
ATOM     18  H   UNL     1      25.520  25.074  19.114  1.00  0.00     0.293 HD
ENDBRANCH  13  17
BRANCH  15  19
ATOM     19  O   UNL     1      26.845  25.981  17.175  1.00  0.00    -0.502 OA
ATOM     20  H   UNL     1      27.099  25.642  16.258  1.00  0.00     0.293 HD
ENDBRANCH  15  19
BRANCH  16  21
ATOM     21  O   UNL     1      27.275  28.562  15.877  1.00  0.00    -0.504 OA
ATOM     22  H   UNL     1      28.234  28.302  16.056  1.00  0.00     0.293 HD
ENDBRANCH  16  21
ENDBRANCH   1  11
BRANCH  10  23
ATOM     23  O   UNL     1      22.575  30.468  15.875  1.00  0.00    -0.500 OA
ATOM     24  H   UNL     1      22.045  30.911  15.135  1.00  0.00     0.294 HD
ENDBRANCH  10  23
BRANCH   5  25
ATOM     25  O   UNL     1      21.974  33.941  22.789  1.00  0.00    -0.507 OA
ATOM     26  H   UNL     1      21.179  33.901  23.416  1.00  0.00     0.293 HD
ENDBRANCH   5  25
BRANCH   7  27
ATOM     27  O   UNL     1      20.036  34.289  18.393  1.00  0.00    -0.507 OA
ATOM     28  H   UNL     1      19.300  33.831  17.875  1.00  0.00     0.293 HD
ENDBRANCH   7  27
TORSDOF 7
ENDMDL
MODEL 3
REMARK VINA RESULT:    -5.839     15.110     18.288
REMARK INTER + INTRA:          -7.448
REMARK INTER:                  -7.597
REMARK INTRA:                   0.149
REMARK UNBOUND:                -0.244
REMARK SMILES Oc1cc(O)c2cc(O)c(-c3cc(O)c(O)c(O)c3)[o+]c2c1.[Cl-]
REMARK SMILES IDX 10 1 20 2 21 3 22 4 2 5 3 6 4 7 6 8 7 9 8 10 11 11 12 12
REMARK SMILES IDX 13 13 19 14 15 15 17 16 14 17 16 19 18 21 9 23 1 25 5 27
REMARK H PARENT 14 18 16 20 18 22 9 24 1 26 5 28
REMARK Flexibility Score: inf
ROOT
ATOM      1  C   UNL     1      18.020  21.253  20.893  1.00  0.00     0.402 A 
ATOM      2  O   UNL     1      18.360  20.160  20.215  1.00  0.00    -0.202 OA
ATOM      3  C   UNL     1      18.498  20.134  18.894  1.00  0.00     0.368 A 
ATOM      4  C   UNL     1      18.861  18.938  18.270  1.00  0.00     0.162 A 
ATOM      5  C   UNL     1      19.016  18.883  16.885  1.00  0.00     0.128 A 
ATOM      6  C   UNL     1      18.808  20.031  16.114  1.00  0.00     0.093 A 
ATOM      7  C   UNL     1      18.443  21.243  16.714  1.00  0.00     0.136 A 
ATOM      8  C   UNL     1      18.282  21.302  18.123  1.00  0.00     0.125 A 
ATOM      9  C   UNL     1      17.906  22.470  18.808  1.00  0.00     0.078 A 
ATOM     10  C   UNL     1      17.762  22.449  20.199  1.00  0.00     0.223 A 
ENDROOT
BRANCH   1  11
ATOM     11  C   UNL     1      17.908  21.156  22.367  1.00  0.00     0.091 A 
ATOM     12  C   UNL     1      16.937  21.882  23.075  1.00  0.00     0.068 A 
ATOM     13  C   UNL     1      16.862  21.794  24.470  1.00  0.00     0.162 A 
ATOM     14  C   UNL     1      18.825  20.370  23.078  1.00  0.00     0.068 A 
ATOM     15  C   UNL     1      17.765  20.988  25.179  1.00  0.00     0.200 A 
ATOM     16  C   UNL     1      18.761  20.271  24.474  1.00  0.00     0.162 A 
BRANCH  13  17
ATOM     17  O   UNL     1      15.890  22.510  25.166  1.00  0.00    -0.504 OA
ATOM     18  H   UNL     1      15.952  23.516  25.281  1.00  0.00     0.293 HD
ENDBRANCH  13  17
BRANCH  15  19
ATOM     19  O   UNL     1      17.641  20.929  26.569  1.00  0.00    -0.502 OA
ATOM     20  H   UNL     1      18.020  21.620  27.200  1.00  0.00     0.293 HD
ENDBRANCH  15  19
BRANCH  16  21
ATOM     21  O   UNL     1      19.701  19.459  25.111  1.00  0.00    -0.504 OA
ATOM     22  H   UNL     1      19.789  18.465  24.954  1.00  0.00     0.293 HD
ENDBRANCH  16  21
ENDBRANCH   1  11
BRANCH  10  23
ATOM     23  O   UNL     1      17.342  23.594  20.876  1.00  0.00    -0.500 OA
ATOM     24  H   UNL     1      17.980  24.147  21.436  1.00  0.00     0.294 HD
ENDBRANCH  10  23
BRANCH   5  25
ATOM     25  O   UNL     1      19.379  17.679  16.283  1.00  0.00    -0.507 OA
ATOM     26  H   UNL     1      19.904  16.973  16.786  1.00  0.00     0.293 HD
ENDBRANCH   5  25
BRANCH   7  27
ATOM     27  O   UNL     1      18.257  22.346  15.876  1.00  0.00    -0.507 OA
ATOM     28  H   UNL     1      17.667  23.136  16.095  1.00  0.00     0.293 HD
ENDBRANCH   7  27
TORSDOF 7
ENDMDL
MODEL 4
REMARK VINA RESULT:    -5.639     18.286     19.240
REMARK INTER + INTRA:          -7.201
REMARK INTER:                  -7.501
REMARK INTRA:                   0.300
REMARK UNBOUND:                -0.244
REMARK SMILES Oc1cc(O)c2cc(O)c(-c3cc(O)c(O)c(O)c3)[o+]c2c1.[Cl-]
REMARK SMILES IDX 10 1 20 2 21 3 22 4 2 5 3 6 4 7 6 8 7 9 8 10 11 11 12 12
REMARK SMILES IDX 13 13 19 14 15 15 17 16 14 17 16 19 18 21 9 23 1 25 5 27
REMARK H PARENT 14 18 16 20 18 22 9 24 1 26 5 28
REMARK Flexibility Score: inf
ROOT
ATOM      1  C   UNL     1      28.916  16.385  27.345  1.00  0.00     0.402 A 
ATOM      2  O   UNL     1      27.856  16.366  28.149  1.00  0.00    -0.202 OA
ATOM      3  C   UNL     1      27.944  16.251  29.470  1.00  0.00     0.368 A 
ATOM      4  C   UNL     1      26.773  16.243  30.232  1.00  0.00     0.162 A 
ATOM      5  C   UNL     1      26.836  16.127  31.621  1.00  0.00     0.128 A 
ATOM      6  C   UNL     1      28.078  16.018  32.256  1.00  0.00     0.093 A 
ATOM      7  C   UNL     1      29.266  16.023  31.515  1.00  0.00     0.136 A 
ATOM      8  C   UNL     1      29.206  16.139  30.102  1.00  0.00     0.125 A 
ATOM      9  C   UNL     1      30.345  16.140  29.278  1.00  0.00     0.078 A 
ATOM     10  C   UNL     1      30.206  16.253  27.891  1.00  0.00     0.223 A 
ENDROOT
BRANCH   1  11
ATOM     11  C   UNL     1      28.688  16.528  25.888  1.00  0.00     0.091 A 
ATOM     12  C   UNL     1      29.654  16.123  24.954  1.00  0.00     0.068 A 
ATOM     13  C   UNL     1      29.428  16.287  23.582  1.00  0.00     0.162 A 
ATOM     14  C   UNL     1      27.508  17.132  25.431  1.00  0.00     0.068 A 
ATOM     15  C   UNL     1      28.237  16.870  23.125  1.00  0.00     0.200 A 
ATOM     16  C   UNL     1      27.268  17.301  24.062  1.00  0.00     0.162 A 
BRANCH  13  17
ATOM     17  O   UNL     1      30.389  15.875  22.660  1.00  0.00    -0.504 OA
ATOM     18  H   UNL     1      31.380  15.966  22.849  1.00  0.00     0.293 HD
ENDBRANCH  13  17
BRANCH  15  19
ATOM     19  O   UNL     1      28.059  17.003  21.746  1.00  0.00    -0.502 OA
ATOM     20  H   UNL     1      27.894  17.883  21.279  1.00  0.00     0.293 HD
ENDBRANCH  15  19
BRANCH  16  21
ATOM     21  O   UNL     1      26.065  17.900  23.683  1.00  0.00    -0.504 OA
ATOM     22  H   UNL     1      25.574  17.689  22.826  1.00  0.00     0.293 HD
ENDBRANCH  16  21
ENDBRANCH   1  11
BRANCH  10  23
ATOM     23  O   UNL     1      31.331  16.204  27.070  1.00  0.00    -0.500 OA
ATOM     24  H   UNL     1      32.206  15.803  27.387  1.00  0.00     0.294 HD
ENDBRANCH  10  23
BRANCH   5  25
ATOM     25  O   UNL     1      25.656  16.121  32.362  1.00  0.00    -0.507 OA
ATOM     26  H   UNL     1      24.803  16.531  32.002  1.00  0.00     0.293 HD
ENDBRANCH   5  25
BRANCH   7  27
ATOM     27  O   UNL     1      30.466  15.914  32.223  1.00  0.00    -0.507 OA
ATOM     28  H   UNL     1      30.531  15.728  33.213  1.00  0.00     0.293 HD
ENDBRANCH   7  27
TORSDOF 7
ENDMDL
MODEL 5
REMARK VINA RESULT:    -5.592     15.653     18.010
REMARK INTER + INTRA:          -7.143
REMARK INTER:                  -6.883
REMARK INTRA:                  -0.260
REMARK UNBOUND:                -0.244
REMARK SMILES Oc1cc(O)c2cc(O)c(-c3cc(O)c(O)c(O)c3)[o+]c2c1.[Cl-]
REMARK SMILES IDX 10 1 20 2 21 3 22 4 2 5 3 6 4 7 6 8 7 9 8 10 11 11 12 12
REMARK SMILES IDX 13 13 19 14 15 15 17 16 14 17 16 19 18 21 9 23 1 25 5 27
REMARK H PARENT 14 18 16 20 18 22 9 24 1 26 5 28
REMARK Flexibility Score: inf
ROOT
ATOM      1  C   UNL     1      17.721  21.478  19.016  1.00  0.00     0.402 A 
ATOM      2  O   UNL     1      17.423  21.241  20.291  1.00  0.00    -0.202 OA
ATOM      3  C   UNL     1      16.987  22.179  21.125  1.00  0.00     0.368 A 
ATOM      4  C   UNL     1      16.697  21.833  22.447  1.00  0.00     0.162 A 
ATOM      5  C   UNL     1      16.234  22.796  23.343  1.00  0.00     0.128 A 
ATOM      6  C   UNL     1      16.058  24.117  22.917  1.00  0.00     0.093 A 
ATOM      7  C   UNL     1      16.341  24.490  21.597  1.00  0.00     0.136 A 
ATOM      8  C   UNL     1      16.814  23.513  20.684  1.00  0.00     0.125 A 
ATOM      9  C   UNL     1      17.136  23.799  19.346  1.00  0.00     0.078 A 
ATOM     10  C   UNL     1      17.602  22.783  18.505  1.00  0.00     0.223 A 
ENDROOT
BRANCH   1  11
ATOM     11  C   UNL     1      18.189  20.345  18.184  1.00  0.00     0.091 A 
ATOM     12  C   UNL     1      17.333  19.287  17.842  1.00  0.00     0.068 A 
ATOM     13  C   UNL     1      17.801  18.214  17.073  1.00  0.00     0.162 A 
ATOM     14  C   UNL     1      19.530  20.296  17.777  1.00  0.00     0.068 A 
ATOM     15  C   UNL     1      19.136  18.179  16.646  1.00  0.00     0.200 A 
ATOM     16  C   UNL     1      20.011  19.231  17.006  1.00  0.00     0.162 A 
BRANCH  13  17
ATOM     17  O   UNL     1      16.942  17.171  16.730  1.00  0.00    -0.504 OA
ATOM     18  H   UNL     1      16.954  16.756  15.805  1.00  0.00     0.293 HD
ENDBRANCH  13  17
BRANCH  15  19
ATOM     19  O   UNL     1      19.549  17.090  15.875  1.00  0.00    -0.502 OA
ATOM     20  H   UNL     1      20.255  16.427  16.163  1.00  0.00     0.293 HD
ENDBRANCH  15  19
BRANCH  16  21
ATOM     21  O   UNL     1      21.355  19.258  16.627  1.00  0.00    -0.504 OA
ATOM     22  H   UNL     1      22.116  18.965  17.223  1.00  0.00     0.293 HD
ENDBRANCH  16  21
ENDBRANCH   1  11
BRANCH  10  23
ATOM     23  O   UNL     1      17.968  23.075  17.192  1.00  0.00    -0.500 OA
ATOM     24  H   UNL     1      18.467  23.925  16.954  1.00  0.00     0.294 HD
ENDBRANCH  10  23
BRANCH   5  25
ATOM     25  O   UNL     1      15.951  22.431  24.658  1.00  0.00    -0.507 OA
ATOM     26  H   UNL     1      15.140  21.869  24.888  1.00  0.00     0.293 HD
ENDBRANCH   5  25
BRANCH   7  27
ATOM     27  O   UNL     1      16.136  25.828  21.248  1.00  0.00    -0.507 OA
ATOM     28  H   UNL     1      16.534  26.273  20.434  1.00  0.00     0.293 HD
ENDBRANCH   7  27
TORSDOF 7
ENDMDL
MODEL 6
REMARK VINA RESULT:    -5.520     14.789     17.893
REMARK INTER + INTRA:          -7.055
REMARK INTER:                  -7.093
REMARK INTRA:                   0.038
REMARK UNBOUND:                -0.244
REMARK SMILES Oc1cc(O)c2cc(O)c(-c3cc(O)c(O)c(O)c3)[o+]c2c1.[Cl-]
REMARK SMILES IDX 10 1 20 2 21 3 22 4 2 5 3 6 4 7 6 8 7 9 8 10 11 11 12 12
REMARK SMILES IDX 13 13 19 14 15 15 17 16 14 17 16 19 18 21 9 23 1 25 5 27
REMARK H PARENT 14 18 16 20 18 22 9 24 1 26 5 28
REMARK Flexibility Score: inf
ROOT
ATOM      1  C   UNL     1      17.862  20.933  20.913  1.00  0.00     0.402 A 
ATOM      2  O   UNL     1      17.772  22.070  20.226  1.00  0.00    -0.202 OA
ATOM      3  C   UNL     1      17.761  22.122  18.899  1.00  0.00     0.368 A 
ATOM      4  C   UNL     1      17.661  23.365  18.267  1.00  0.00     0.162 A 
ATOM      5  C   UNL     1      17.643  23.449  16.875  1.00  0.00     0.128 A 
ATOM      6  C   UNL     1      17.726  22.284  16.105  1.00  0.00     0.093 A 
ATOM      7  C   UNL     1      17.828  21.027  16.713  1.00  0.00     0.136 A 
ATOM      8  C   UNL     1      17.848  20.937  18.129  1.00  0.00     0.125 A 
ATOM      9  C   UNL     1      17.961  19.721  18.824  1.00  0.00     0.078 A 
ATOM     10  C   UNL     1      17.979  19.713  20.223  1.00  0.00     0.223 A 
ENDROOT
BRANCH   1  11
ATOM     11  C   UNL     1      17.855  21.006  22.392  1.00  0.00     0.091 A 
ATOM     12  C   UNL     1      18.750  20.250  23.165  1.00  0.00     0.068 A 
ATOM     13  C   UNL     1      18.712  20.316  24.563  1.00  0.00     0.162 A 
ATOM     14  C   UNL     1      16.897  21.800  23.039  1.00  0.00     0.068 A 
ATOM     15  C   UNL     1      17.769  21.129  25.208  1.00  0.00     0.200 A 
ATOM     16  C   UNL     1      16.849  21.877  24.436  1.00  0.00     0.162 A 
BRANCH  13  17
ATOM     17  O   UNL     1      19.609  19.569  25.324  1.00  0.00    -0.504 OA
ATOM     18  H   UNL     1      19.796  18.594  25.119  1.00  0.00     0.293 HD
ENDBRANCH  13  17
BRANCH  15  19
ATOM     19  O   UNL     1      17.780  21.164  26.604  1.00  0.00    -0.502 OA
ATOM     20  H   UNL     1      17.083  20.723  27.187  1.00  0.00     0.293 HD
ENDBRANCH  15  19
BRANCH  16  21
ATOM     21  O   UNL     1      15.875  22.699  25.008  1.00  0.00    -0.504 OA
ATOM     22  H   UNL     1      15.956  23.702  25.082  1.00  0.00     0.293 HD
ENDBRANCH  16  21
ENDBRANCH   1  11
BRANCH  10  23
ATOM     23  O   UNL     1      18.140  18.512  20.913  1.00  0.00    -0.500 OA
ATOM     24  H   UNL     1      18.470  17.672  20.452  1.00  0.00     0.294 HD
ENDBRANCH  10  23
BRANCH   5  25
ATOM     25  O   UNL     1      17.543  24.698  16.265  1.00  0.00    -0.507 OA
ATOM     26  H   UNL     1      18.166  25.459  16.510  1.00  0.00     0.293 HD
ENDBRANCH   5  25
BRANCH   7  27
ATOM     27  O   UNL     1      17.904  19.911  15.875  1.00  0.00    -0.507 OA
ATOM     28  H   UNL     1      17.618  18.978  16.138  1.00  0.00     0.293 HD
ENDBRANCH   7  27
TORSDOF 7
ENDMDL
MODEL 7
REMARK VINA RESULT:    -5.468     14.662     17.887
REMARK INTER + INTRA:          -6.990
REMARK INTER:                  -7.162
REMARK INTRA:                   0.172
REMARK UNBOUND:                -0.244
REMARK SMILES Oc1cc(O)c2cc(O)c(-c3cc(O)c(O)c(O)c3)[o+]c2c1.[Cl-]
REMARK SMILES IDX 10 1 20 2 21 3 22 4 2 5 3 6 4 7 6 8 7 9 8 10 11 11 12 12
REMARK SMILES IDX 13 13 19 14 15 15 17 16 14 17 16 19 18 21 9 23 1 25 5 27
REMARK H PARENT 14 18 16 20 18 22 9 24 1 26 5 28
REMARK Flexibility Score: inf
ROOT
ATOM      1  C   UNL     1      17.678  21.815  20.999  1.00  0.00     0.402 A 
ATOM      2  O   UNL     1      17.938  20.813  20.162  1.00  0.00    -0.202 OA
ATOM      3  C   UNL     1      17.922  20.943  18.841  1.00  0.00     0.368 A 
ATOM      4  C   UNL     1      18.211  19.832  18.044  1.00  0.00     0.162 A 
ATOM      5  C   UNL     1      18.205  19.940  16.653  1.00  0.00     0.128 A 
ATOM      6  C   UNL     1      17.908  21.167  16.051  1.00  0.00     0.093 A 
ATOM      7  C   UNL     1      17.614  22.296  16.827  1.00  0.00     0.136 A 
ATOM      8  C   UNL     1      17.617  22.189  18.241  1.00  0.00     0.125 A 
ATOM      9  C   UNL     1      17.322  23.263  19.097  1.00  0.00     0.078 A 
ATOM     10  C   UNL     1      17.340  23.080  20.484  1.00  0.00     0.223 A 
ENDROOT
BRANCH   1  11
ATOM     11  C   UNL     1      17.737  21.546  22.454  1.00  0.00     0.091 A 
ATOM     12  C   UNL     1      18.668  20.644  22.993  1.00  0.00     0.068 A 
ATOM     13  C   UNL     1      18.694  20.387  24.369  1.00  0.00     0.162 A 
ATOM     14  C   UNL     1      16.808  22.158  23.307  1.00  0.00     0.068 A 
ATOM     15  C   UNL     1      17.779  21.018  25.225  1.00  0.00     0.200 A 
ATOM     16  C   UNL     1      16.823  21.912  24.686  1.00  0.00     0.162 A 
BRANCH  13  17
ATOM     17  O   UNL     1      19.626  19.496  24.898  1.00  0.00    -0.504 OA
ATOM     18  H   UNL     1      19.602  18.507  24.676  1.00  0.00     0.293 HD
ENDBRANCH  13  17
BRANCH  15  19
ATOM     19  O   UNL     1      17.853  20.732  26.590  1.00  0.00    -0.502 OA
ATOM     20  H   UNL     1      17.188  21.062  27.274  1.00  0.00     0.293 HD
ENDBRANCH  15  19
BRANCH  16  21
ATOM     21  O   UNL     1      15.875  22.568  25.473  1.00  0.00    -0.504 OA
ATOM     22  H   UNL     1      15.206  22.096  26.063  1.00  0.00     0.293 HD
ENDBRANCH  16  21
ENDBRANCH   1  11
BRANCH  10  23
ATOM     23  O   UNL     1      17.000  24.132  21.333  1.00  0.00    -0.500 OA
ATOM     24  H   UNL     1      17.259  25.089  21.126  1.00  0.00     0.294 HD
ENDBRANCH  10  23
BRANCH   5  25
ATOM     25  O   UNL     1      18.496  18.820  15.876  1.00  0.00    -0.507 OA
ATOM     26  H   UNL     1      17.806  18.411  15.258  1.00  0.00     0.293 HD
ENDBRANCH   5  25
BRANCH   7  27
ATOM     27  O   UNL     1      17.331  23.486  16.150  1.00  0.00    -0.507 OA
ATOM     28  H   UNL     1      16.530  23.626  15.551  1.00  0.00     0.293 HD
ENDBRANCH   7  27
TORSDOF 7
ENDMDL
MODEL 8
REMARK VINA RESULT:    -5.327     12.487     16.662
REMARK INTER + INTRA:          -6.816
REMARK INTER:                  -6.698
REMARK INTRA:                  -0.118
REMARK UNBOUND:                -0.244
REMARK SMILES Oc1cc(O)c2cc(O)c(-c3cc(O)c(O)c(O)c3)[o+]c2c1.[Cl-]
REMARK SMILES IDX 10 1 20 2 21 3 22 4 2 5 3 6 4 7 6 8 7 9 8 10 11 11 12 12
REMARK SMILES IDX 13 13 19 14 15 15 17 16 14 17 16 19 18 21 9 23 1 25 5 27
REMARK H PARENT 14 18 16 20 18 22 9 24 1 26 5 28
REMARK Flexibility Score: inf
ROOT
ATOM      1  C   UNL     1      32.047  34.787  21.252  1.00  0.00     0.402 A 
ATOM      2  O   UNL     1      33.174  34.299  20.738  1.00  0.00    -0.202 OA
ATOM      3  C   UNL     1      33.412  34.231  19.434  1.00  0.00     0.368 A 
ATOM      4  C   UNL     1      34.628  33.704  18.990  1.00  0.00     0.162 A 
ATOM      5  C   UNL     1      34.906  33.623  17.626  1.00  0.00     0.128 A 
ATOM      6  C   UNL     1      33.964  34.072  16.694  1.00  0.00     0.093 A 
ATOM      7  C   UNL     1      32.738  34.605  17.113  1.00  0.00     0.136 A 
ATOM      8  C   UNL     1      32.451  34.686  18.500  1.00  0.00     0.125 A 
ATOM      9  C   UNL     1      31.243  35.193  19.009  1.00  0.00     0.078 A 
ATOM     10  C   UNL     1      31.029  35.237  20.391  1.00  0.00     0.223 A 
ENDROOT
BRANCH   1  11
ATOM     11  C   UNL     1      31.905  34.819  22.725  1.00  0.00     0.091 A 
ATOM     12  C   UNL     1      32.848  35.468  23.537  1.00  0.00     0.068 A 
ATOM     13  C   UNL     1      32.707  35.468  24.930  1.00  0.00     0.162 A 
ATOM     14  C   UNL     1      30.839  34.138  23.330  1.00  0.00     0.068 A 
ATOM     15  C   UNL     1      31.626  34.807  25.532  1.00  0.00     0.200 A 
ATOM     16  C   UNL     1      30.684  34.131  24.722  1.00  0.00     0.162 A 
BRANCH  13  17
ATOM     17  O   UNL     1      33.643  36.122  25.729  1.00  0.00    -0.504 OA
ATOM     18  H   UNL     1      34.629  35.890  25.690  1.00  0.00     0.293 HD
ENDBRANCH  13  17
BRANCH  15  19
ATOM     19  O   UNL     1      31.529  34.844  26.925  1.00  0.00    -0.502 OA
ATOM     20  H   UNL     1      32.207  35.288  27.528  1.00  0.00     0.293 HD
ENDBRANCH  15  19
BRANCH  16  21
ATOM     21  O   UNL     1      29.590  33.442  25.250  1.00  0.00    -0.504 OA
ATOM     22  H   UNL     1      28.961  33.824  25.941  1.00  0.00     0.293 HD
ENDBRANCH  16  21
ENDBRANCH   1  11
BRANCH  10  23
ATOM     23  O   UNL     1      29.813  35.693  20.896  1.00  0.00    -0.500 OA
ATOM     24  H   UNL     1      29.261  36.390  20.408  1.00  0.00     0.294 HD
ENDBRANCH  10  23
BRANCH   5  25
ATOM     25  O   UNL     1      36.125  33.094  17.204  1.00  0.00    -0.507 OA
ATOM     26  H   UNL     1      36.404  32.150  17.446  1.00  0.00     0.293 HD
ENDBRANCH   5  25
BRANCH   7  27
ATOM     27  O   UNL     1      31.852  35.035  16.121  1.00  0.00    -0.507 OA
ATOM     28  H   UNL     1      31.753  35.994  15.820  1.00  0.00     0.293 HD
ENDBRANCH   7  27
TORSDOF 7
ENDMDL
MODEL 9
REMARK VINA RESULT:    -5.322     12.465     16.719
REMARK INTER + INTRA:          -6.811
REMARK INTER:                  -6.694
REMARK INTRA:                  -0.117
REMARK UNBOUND:                -0.244
REMARK SMILES Oc1cc(O)c2cc(O)c(-c3cc(O)c(O)c(O)c3)[o+]c2c1.[Cl-]
REMARK SMILES IDX 10 1 20 2 21 3 22 4 2 5 3 6 4 7 6 8 7 9 8 10 11 11 12 12
REMARK SMILES IDX 13 13 19 14 15 15 17 16 14 17 16 19 18 21 9 23 1 25 5 27
REMARK H PARENT 14 18 16 20 18 22 9 24 1 26 5 28
REMARK Flexibility Score: inf
ROOT
ATOM      1  C   UNL     1      31.983  34.768  21.198  1.00  0.00     0.402 A 
ATOM      2  O   UNL     1      33.116  34.297  20.683  1.00  0.00    -0.202 OA
ATOM      3  C   UNL     1      33.374  34.278  19.380  1.00  0.00     0.368 A 
ATOM      4  C   UNL     1      34.596  33.766  18.935  1.00  0.00     0.162 A 
ATOM      5  C   UNL     1      34.894  33.738  17.573  1.00  0.00     0.128 A 
ATOM      6  C   UNL     1      33.967  34.225  16.645  1.00  0.00     0.093 A 
ATOM      7  C   UNL     1      32.736  34.743  17.066  1.00  0.00     0.136 A 
ATOM      8  C   UNL     1      32.428  34.772  18.450  1.00  0.00     0.125 A 
ATOM      9  C   UNL     1      31.213  35.261  18.961  1.00  0.00     0.078 A 
ATOM     10  C   UNL     1      30.979  35.252  20.339  1.00  0.00     0.223 A 
ENDROOT
BRANCH   1  11
ATOM     11  C   UNL     1      31.818  34.743  22.669  1.00  0.00     0.091 A 
ATOM     12  C   UNL     1      30.725  34.100  23.271  1.00  0.00     0.068 A 
ATOM     13  C   UNL     1      30.575  34.106  24.663  1.00  0.00     0.162 A 
ATOM     14  C   UNL     1      32.739  35.423  23.478  1.00  0.00     0.068 A 
ATOM     15  C   UNL     1      31.511  34.767  25.473  1.00  0.00     0.200 A 
ATOM     16  C   UNL     1      32.603  35.437  24.872  1.00  0.00     0.162 A 
BRANCH  13  17
ATOM     17  O   UNL     1      29.492  33.459  25.255  1.00  0.00    -0.504 OA
ATOM     18  H   UNL     1      28.845  33.952  25.860  1.00  0.00     0.293 HD
ENDBRANCH  13  17
BRANCH  15  19
ATOM     19  O   UNL     1      31.319  34.736  26.856  1.00  0.00    -0.502 OA
ATOM     20  H   UNL     1      31.964  35.129  27.526  1.00  0.00     0.293 HD
ENDBRANCH  15  19
BRANCH  16  21
ATOM     21  O   UNL     1      33.567  36.125  25.612  1.00  0.00    -0.504 OA
ATOM     22  H   UNL     1      34.537  36.203  25.343  1.00  0.00     0.293 HD
ENDBRANCH  16  21
ENDBRANCH   1  11
BRANCH  10  23
ATOM     23  O   UNL     1      29.755  35.692  20.844  1.00  0.00    -0.500 OA
ATOM     24  H   UNL     1      29.128  36.267  20.294  1.00  0.00     0.294 HD
ENDBRANCH  10  23
BRANCH   5  25
ATOM     25  O   UNL     1      36.118  33.222  17.149  1.00  0.00    -0.507 OA
ATOM     26  H   UNL     1      36.939  33.810  17.067  1.00  0.00     0.293 HD
ENDBRANCH   5  25
BRANCH   7  27
ATOM     27  O   UNL     1      31.865  35.214  16.078  1.00  0.00    -0.507 OA
ATOM     28  H   UNL     1      31.970  36.095  15.596  1.00  0.00     0.293 HD
ENDBRANCH   7  27
TORSDOF 7
ENDMDL
