MODEL 1
REMARK VINA RESULT:    -4.435      0.000      0.000
REMARK INTER + INTRA:          -6.927
REMARK INTER:                  -5.991
REMARK INTRA:                  -0.935
REMARK UNBOUND:                -0.935
REMARK SMILES CC(=O)CCC=C(C)CCC=C(C)C
REMARK SMILES IDX 7 1 6 2 8 3 9 4 10 5 11 6 13 7 12 8 14 9 5 10 4 11 2 12 3 13
REMARK SMILES IDX 1 14
REMARK H PARENT
REMARK Flexibility Score: inf
ROOT
ATOM      1  C   UNL     1       3.375  11.736  -7.381  1.00  0.00    -0.077 C 
ATOM      2  C   UNL     1       2.705  12.514  -6.502  1.00  0.00    -0.028 C 
ATOM      3  C   UNL     1       2.625  10.629  -8.074  1.00  0.00     0.039 C 
ENDROOT
BRANCH   1   4
ATOM      4  C   UNL     1       4.843  11.946  -7.711  1.00  0.00     0.034 C 
BRANCH   4   5
ATOM      5  C   UNL     1       5.039  12.516  -9.125  1.00  0.00     0.032 C 
BRANCH   5   6
ATOM      6  C   UNL     1       5.380  13.987  -9.098  1.00  0.00    -0.028 C 
ATOM      7  C   UNL     1       4.928  16.418  -8.999  1.00  0.00     0.039 C 
ATOM      8  C   UNL     1       4.468  14.984  -9.056  1.00  0.00    -0.080 C 
ATOM      9  C   UNL     1       2.984  14.717  -9.125  1.00  0.00     0.039 C 
ENDBRANCH   5   6
ENDBRANCH   4   5
ENDBRANCH   1   4
BRANCH   2  10
ATOM     10  C   UNL     1       3.345  13.634  -5.714  1.00  0.00     0.035 C 
BRANCH  10  11
ATOM     11  C   UNL     1       2.567  14.943  -5.882  1.00  0.00     0.079 C 
BRANCH  11  12
ATOM     12  C   UNL     1       3.404  16.120  -5.454  1.00  0.00     0.130 C 
ATOM     13  O   UNL     1       4.197  15.992  -4.535  1.00  0.00    -0.300 OA
ATOM     14  C   UNL     1       3.292  17.450  -6.141  1.00  0.00     0.087 C 
ENDBRANCH  11  12
ENDBRANCH  10  11
ENDBRANCH   2  10
TORSDOF 6
ENDMDL
MODEL 2
REMARK VINA RESULT:    -4.077      1.389      2.636
REMARK INTER + INTRA:          -6.443
REMARK INTER:                  -5.562
REMARK INTRA:                  -0.881
REMARK UNBOUND:                -0.935
REMARK SMILES CC(=O)CCC=C(C)CCC=C(C)C
REMARK SMILES IDX 7 1 6 2 8 3 9 4 10 5 11 6 13 7 12 8 14 9 5 10 4 11 2 12 3 13
REMARK SMILES IDX 1 14
REMARK H PARENT
REMARK Flexibility Score: inf
ROOT
ATOM      1  C   UNL     1       2.655  14.061  -8.372  1.00  0.00    -0.077 C 
ATOM      2  C   UNL     1       1.869  14.248  -7.289  1.00  0.00    -0.028 C 
ATOM      3  C   UNL     1       2.541  12.761  -9.125  1.00  0.00     0.039 C 
ENDROOT
BRANCH   1   4
ATOM      4  C   UNL     1       3.631  15.114  -8.870  1.00  0.00     0.034 C 
BRANCH   4   5
ATOM      5  C   UNL     1       5.078  14.596  -8.885  1.00  0.00     0.032 C 
BRANCH   5   6
ATOM      6  C   UNL     1       5.537  14.163  -7.513  1.00  0.00    -0.028 C 
ATOM      7  C   UNL     1       6.174  12.564  -5.735  1.00  0.00     0.039 C 
ATOM      8  C   UNL     1       5.675  12.876  -7.122  1.00  0.00    -0.080 C 
ATOM      9  C   UNL     1       5.287  11.721  -8.014  1.00  0.00     0.039 C 
ENDBRANCH   5   6
ENDBRANCH   4   5
ENDBRANCH   1   4
BRANCH   2  10
ATOM     10  C   UNL     1       1.907  15.488  -6.426  1.00  0.00     0.035 C 
BRANCH  10  11
ATOM     11  C   UNL     1       2.931  15.343  -5.295  1.00  0.00     0.079 C 
BRANCH  11  12
ATOM     12  C   UNL     1       3.936  16.464  -5.338  1.00  0.00     0.130 C 
ATOM     13  O   UNL     1       5.080  16.262  -4.961  1.00  0.00    -0.300 OA
ATOM     14  C   UNL     1       3.566  17.827  -5.845  1.00  0.00     0.087 C 
ENDBRANCH  11  12
ENDBRANCH  10  11
ENDBRANCH   2  10
TORSDOF 6
ENDMDL
MODEL 3
REMARK VINA RESULT:    -3.933      1.680      4.684
REMARK INTER + INTRA:          -6.248
REMARK INTER:                  -5.438
REMARK INTRA:                  -0.810
REMARK UNBOUND:                -0.935
REMARK SMILES CC(=O)CCC=C(C)CCC=C(C)C
REMARK SMILES IDX 7 1 6 2 8 3 9 4 10 5 11 6 13 7 12 8 14 9 5 10 4 11 2 12 3 13
REMARK SMILES IDX 1 14
REMARK H PARENT
REMARK Flexibility Score: inf
ROOT
ATOM      1  C   UNL     1       4.547  14.821  -8.954  1.00  0.00    -0.077 C 
ATOM      2  C   UNL     1       5.588  13.963  -8.867  1.00  0.00    -0.028 C 
ATOM      3  C   UNL     1       4.831  16.300  -8.900  1.00  0.00     0.039 C 
ENDROOT
BRANCH   1   4
ATOM      4  C   UNL     1       3.111  14.355  -9.124  1.00  0.00     0.034 C 
BRANCH   4   5
ATOM      5  C   UNL     1       2.178  14.973  -8.071  1.00  0.00     0.032 C 
BRANCH   5   6
ATOM      6  C   UNL     1       2.572  14.581  -6.667  1.00  0.00    -0.028 C 
ATOM      7  C   UNL     1       3.335  14.945  -4.342  1.00  0.00     0.039 C 
ATOM      8  C   UNL     1       3.001  15.448  -5.723  1.00  0.00    -0.080 C 
ATOM      9  C   UNL     1       3.217  16.913  -6.016  1.00  0.00     0.039 C 
ENDBRANCH   5   6
ENDBRANCH   4   5
ENDBRANCH   1   4
BRANCH   2  10
ATOM     10  C   UNL     1       5.441  12.460  -8.873  1.00  0.00     0.035 C 
BRANCH  10  11
ATOM     11  C   UNL     1       4.867  11.955  -7.546  1.00  0.00     0.079 C 
BRANCH  11  12
ATOM     12  C   UNL     1       3.525  11.302  -7.758  1.00  0.00     0.130 C 
ATOM     13  O   UNL     1       2.716  11.279  -6.843  1.00  0.00    -0.300 OA
ATOM     14  C   UNL     1       3.155  10.686  -9.075  1.00  0.00     0.087 C 
ENDBRANCH  11  12
ENDBRANCH  10  11
ENDBRANCH   2  10
TORSDOF 6
ENDMDL
MODEL 4
REMARK VINA RESULT:    -3.907      1.161      3.356
REMARK INTER + INTRA:          -6.213
REMARK INTER:                  -5.596
REMARK INTRA:                  -0.617
REMARK UNBOUND:                -0.935
REMARK SMILES CC(=O)CCC=C(C)CCC=C(C)C
REMARK SMILES IDX 7 1 6 2 8 3 9 4 10 5 11 6 13 7 12 8 14 9 5 10 4 11 2 12 3 13
REMARK SMILES IDX 1 14
REMARK H PARENT
REMARK Flexibility Score: inf
ROOT
ATOM      1  C   UNL     1       5.005  14.375  -8.130  1.00  0.00    -0.077 C 
ATOM      2  C   UNL     1       3.887  15.105  -8.339  1.00  0.00    -0.028 C 
ATOM      3  C   UNL     1       6.131  14.488  -9.125  1.00  0.00     0.039 C 
ENDROOT
BRANCH   1   4
ATOM      4  C   UNL     1       5.178  13.463  -6.927  1.00  0.00     0.034 C 
BRANCH   4   5
ATOM      5  C   UNL     1       5.685  12.070  -7.329  1.00  0.00     0.032 C 
BRANCH   5   6
ATOM      6  C   UNL     1       4.751  11.388  -8.300  1.00  0.00    -0.028 C 
ATOM      7  C   UNL     1       2.597  10.492  -9.125  1.00  0.00     0.039 C 
ATOM      8  C   UNL     1       3.441  11.152  -8.065  1.00  0.00    -0.080 C 
ATOM      9  C   UNL     1       2.793  11.474  -6.740  1.00  0.00     0.039 C 
ENDBRANCH   5   6
ENDBRANCH   4   5
ENDBRANCH   1   4
BRANCH   2  10
ATOM     10  C   UNL     1       2.673  15.059  -7.440  1.00  0.00     0.035 C 
BRANCH  10  11
ATOM     11  C   UNL     1       2.709  16.187  -6.404  1.00  0.00     0.079 C 
BRANCH  11  12
ATOM     12  C   UNL     1       3.411  15.738  -5.149  1.00  0.00     0.130 C 
ATOM     13  O   UNL     1       4.324  16.411  -4.697  1.00  0.00    -0.300 OA
ATOM     14  C   UNL     1       3.008  14.482  -4.434  1.00  0.00     0.087 C 
ENDBRANCH  11  12
ENDBRANCH  10  11
ENDBRANCH   2  10
TORSDOF 6
ENDMDL
MODEL 5
REMARK VINA RESULT:    -3.896      1.275      2.241
REMARK INTER + INTRA:          -6.197
REMARK INTER:                  -5.401
REMARK INTRA:                  -0.796
REMARK UNBOUND:                -0.935
REMARK SMILES CC(=O)CCC=C(C)CCC=C(C)C
REMARK SMILES IDX 7 1 6 2 8 3 9 4 10 5 11 6 13 7 12 8 14 9 5 10 4 11 2 12 3 13
REMARK SMILES IDX 1 14
REMARK H PARENT
REMARK Flexibility Score: inf
ROOT
ATOM      1  C   UNL     1       2.735  13.415  -6.562  1.00  0.00    -0.077 C 
ATOM      2  C   UNL     1       3.230  13.831  -5.375  1.00  0.00    -0.028 C 
ATOM      3  C   UNL     1       3.002  11.996  -6.991  1.00  0.00     0.039 C 
ENDROOT
BRANCH   1   4
ATOM      4  C   UNL     1       1.907  14.312  -7.467  1.00  0.00     0.034 C 
BRANCH   4   5
ATOM      5  C   UNL     1       2.488  14.389  -8.888  1.00  0.00     0.032 C 
BRANCH   5   6
ATOM      6  C   UNL     1       3.808  15.123  -8.919  1.00  0.00    -0.028 C 
ATOM      7  C   UNL     1       6.262  15.366  -9.116  1.00  0.00     0.039 C 
ATOM      8  C   UNL     1       5.012  14.526  -9.066  1.00  0.00    -0.080 C 
ATOM      9  C   UNL     1       5.162  13.026  -9.125  1.00  0.00     0.039 C 
ENDBRANCH   5   6
ENDBRANCH   4   5
ENDBRANCH   1   4
BRANCH   2  10
ATOM     10  C   UNL     1       3.066  15.236  -4.843  1.00  0.00     0.035 C 
BRANCH  10  11
ATOM     11  C   UNL     1       4.017  16.209  -5.546  1.00  0.00     0.079 C 
BRANCH  11  12
ATOM     12  C   UNL     1       3.348  17.539  -5.774  1.00  0.00     0.130 C 
ATOM     13  O   UNL     1       2.139  17.583  -5.945  1.00  0.00    -0.300 OA
ATOM     14  C   UNL     1       4.132  18.818  -5.788  1.00  0.00     0.087 C 
ENDBRANCH  11  12
ENDBRANCH  10  11
ENDBRANCH   2  10
TORSDOF 6
ENDMDL
MODEL 6
REMARK VINA RESULT:    -3.875      1.503      3.494
REMARK INTER + INTRA:          -6.169
REMARK INTER:                  -5.203
REMARK INTRA:                  -0.966
REMARK UNBOUND:                -0.935
REMARK SMILES CC(=O)CCC=C(C)CCC=C(C)C
REMARK SMILES IDX 7 1 6 2 8 3 9 4 10 5 11 6 13 7 12 8 14 9 5 10 4 11 2 12 3 13
REMARK SMILES IDX 1 14
REMARK H PARENT
REMARK Flexibility Score: inf
ROOT
ATOM      1  C   UNL     1       4.961  14.918  -8.212  1.00  0.00    -0.077 C 
ATOM      2  C   UNL     1       5.155  14.844  -6.877  1.00  0.00    -0.028 C 
ATOM      3  C   UNL     1       6.088  14.511  -9.124  1.00  0.00     0.039 C 
ENDROOT
BRANCH   1   4
ATOM      4  C   UNL     1       3.648  15.375  -8.827  1.00  0.00     0.034 C 
BRANCH   4   5
ATOM      5  C   UNL     1       2.502  14.397  -8.529  1.00  0.00     0.032 C 
BRANCH   5   6
ATOM      6  C   UNL     1       2.756  13.032  -9.125  1.00  0.00    -0.028 C 
ATOM      7  C   UNL     1       3.148  10.589  -9.109  1.00  0.00     0.039 C 
ATOM      8  C   UNL     1       2.935  11.903  -8.403  1.00  0.00    -0.080 C 
ATOM      9  C   UNL     1       2.988  11.915  -6.894  1.00  0.00     0.039 C 
ENDBRANCH   5   6
ENDBRANCH   4   5
ENDBRANCH   1   4
BRANCH   2  10
ATOM     10  C   UNL     1       4.122  15.255  -5.853  1.00  0.00     0.035 C 
BRANCH  10  11
ATOM     11  C   UNL     1       4.415  16.653  -5.301  1.00  0.00     0.079 C 
BRANCH  11  12
ATOM     12  C   UNL     1       3.357  17.632  -5.737  1.00  0.00     0.130 C 
ATOM     13  O   UNL     1       2.272  17.217  -6.116  1.00  0.00    -0.300 OA
ATOM     14  C   UNL     1       3.601  19.112  -5.709  1.00  0.00     0.087 C 
ENDBRANCH  11  12
ENDBRANCH  10  11
ENDBRANCH   2  10
TORSDOF 6
ENDMDL
MODEL 7
REMARK VINA RESULT:    -3.635      1.956      4.092
REMARK INTER + INTRA:          -5.846
REMARK INTER:                  -5.033
REMARK INTRA:                  -0.812
REMARK UNBOUND:                -0.935
REMARK SMILES CC(=O)CCC=C(C)CCC=C(C)C
REMARK SMILES IDX 7 1 6 2 8 3 9 4 10 5 11 6 13 7 12 8 14 9 5 10 4 11 2 12 3 13
REMARK SMILES IDX 1 14
REMARK H PARENT
REMARK Flexibility Score: inf
ROOT
ATOM      1  C   UNL     1       2.398  13.817  -7.673  1.00  0.00    -0.077 C 
ATOM      2  C   UNL     1       2.686  12.507  -7.841  1.00  0.00    -0.028 C 
ATOM      3  C   UNL     1       1.582  14.224  -6.474  1.00  0.00     0.039 C 
ENDROOT
BRANCH   1   4
ATOM      4  C   UNL     1       2.880  14.893  -8.632  1.00  0.00     0.034 C 
BRANCH   4   5
ATOM      5  C   UNL     1       4.148  15.594  -8.120  1.00  0.00     0.032 C 
BRANCH   5   6
ATOM      6  C   UNL     1       3.847  16.958  -7.548  1.00  0.00    -0.028 C 
ATOM      7  C   UNL     1       3.542  18.656  -5.774  1.00  0.00     0.039 C 
ATOM      8  C   UNL     1       3.822  17.246  -6.227  1.00  0.00    -0.080 C 
ATOM      9  C   UNL     1       4.010  16.184  -5.171  1.00  0.00     0.039 C 
ENDBRANCH   5   6
ENDBRANCH   4   5
ENDBRANCH   1   4
BRANCH   2  10
ATOM     10  C   UNL     1       3.464  11.961  -9.015  1.00  0.00     0.035 C 
BRANCH  10  11
ATOM     11  C   UNL     1       4.825  11.415  -8.571  1.00  0.00     0.079 C 
BRANCH  11  12
ATOM     12  C   UNL     1       5.707  12.526  -8.066  1.00  0.00     0.130 C 
ATOM     13  O   UNL     1       6.313  13.224  -8.864  1.00  0.00    -0.300 OA
ATOM     14  C   UNL     1       5.852  12.803  -6.598  1.00  0.00     0.087 C 
ENDBRANCH  11  12
ENDBRANCH  10  11
ENDBRANCH   2  10
TORSDOF 6
ENDMDL
MODEL 8
REMARK VINA RESULT:    -3.260      1.500      4.249
REMARK INTER + INTRA:          -5.339
REMARK INTER:                  -5.126
REMARK INTRA:                  -0.213
REMARK UNBOUND:                -0.935
REMARK SMILES CC(=O)CCC=C(C)CCC=C(C)C
REMARK SMILES IDX 7 1 6 2 8 3 9 4 10 5 11 6 13 7 12 8 14 9 5 10 4 11 2 12 3 13
REMARK SMILES IDX 1 14
REMARK H PARENT
REMARK Flexibility Score: inf
ROOT
ATOM      1  C   UNL     1       4.378  14.697  -8.952  1.00  0.00    -0.077 C 
ATOM      2  C   UNL     1       5.511  13.992  -8.740  1.00  0.00    -0.028 C 
ATOM      3  C   UNL     1       4.484  16.190  -9.124  1.00  0.00     0.039 C 
ENDROOT
BRANCH   1   4
ATOM      4  C   UNL     1       3.009  14.044  -9.042  1.00  0.00     0.034 C 
BRANCH   4   5
ATOM      5  C   UNL     1       2.000  14.686  -8.076  1.00  0.00     0.032 C 
BRANCH   5   6
ATOM      6  C   UNL     1       2.297  14.338  -6.637  1.00  0.00    -0.028 C 
ATOM      7  C   UNL     1       2.935  14.770  -4.286  1.00  0.00     0.039 C 
ATOM      8  C   UNL     1       2.702  15.227  -5.703  1.00  0.00    -0.080 C 
ATOM      9  C   UNL     1       2.990  16.670  -6.039  1.00  0.00     0.039 C 
ENDBRANCH   5   6
ENDBRANCH   4   5
ENDBRANCH   1   4
BRANCH   2  10
ATOM     10  C   UNL     1       5.542  12.498  -8.517  1.00  0.00     0.035 C 
BRANCH  10  11
ATOM     11  C   UNL     1       5.037  12.137  -7.116  1.00  0.00     0.079 C 
BRANCH  11  12
ATOM     12  C   UNL     1       5.776  12.921  -6.064  1.00  0.00     0.130 C 
ATOM     13  O   UNL     1       5.671  14.138  -6.034  1.00  0.00    -0.300 OA
ATOM     14  C   UNL     1       6.636  12.240  -5.040  1.00  0.00     0.087 C 
ENDBRANCH  11  12
ENDBRANCH  10  11
ENDBRANCH   2  10
TORSDOF 6
ENDMDL
MODEL 9
REMARK VINA RESULT:    -2.919      1.936      4.739
REMARK INTER + INTRA:          -4.878
REMARK INTER:                  -4.413
REMARK INTRA:                  -0.465
REMARK UNBOUND:                -0.935
REMARK SMILES CC(=O)CCC=C(C)CCC=C(C)C
REMARK SMILES IDX 7 1 6 2 8 3 9 4 10 5 11 6 13 7 12 8 14 9 5 10 4 11 2 12 3 13
REMARK SMILES IDX 1 14
REMARK H PARENT
REMARK Flexibility Score: inf
ROOT
ATOM      1  C   UNL     1       3.719  16.425  -6.739  1.00  0.00    -0.077 C 
ATOM      2  C   UNL     1       4.117  16.477  -8.029  1.00  0.00    -0.028 C 
ATOM      3  C   UNL     1       3.385  17.717  -6.039  1.00  0.00     0.039 C 
ENDROOT
BRANCH   1   4
ATOM      4  C   UNL     1       3.576  15.119  -5.975  1.00  0.00     0.034 C 
BRANCH   4   5
ATOM      5  C   UNL     1       2.294  14.365  -6.359  1.00  0.00     0.032 C 
BRANCH   5   6
ATOM      6  C   UNL     1       2.559  12.905  -6.638  1.00  0.00    -0.028 C 
ATOM      7  C   UNL     1       2.977  10.902  -8.028  1.00  0.00     0.039 C 
ATOM      8  C   UNL     1       2.678  12.371  -7.874  1.00  0.00    -0.080 C 
ATOM      9  C   UNL     1       2.461  13.186  -9.125  1.00  0.00     0.039 C 
ENDBRANCH   5   6
ENDBRANCH   4   5
ENDBRANCH   1   4
BRANCH   2  10
ATOM     10  C   UNL     1       4.515  15.263  -8.836  1.00  0.00     0.035 C 
BRANCH  10  11
ATOM     11  C   UNL     1       5.929  14.798  -8.475  1.00  0.00     0.079 C 
BRANCH  11  12
ATOM     12  C   UNL     1       5.949  13.318  -8.193  1.00  0.00     0.130 C 
ATOM     13  O   UNL     1       5.929  12.528  -9.123  1.00  0.00    -0.300 OA
ATOM     14  C   UNL     1       6.002  12.791  -6.789  1.00  0.00     0.087 C 
ENDBRANCH  11  12
ENDBRANCH  10  11
ENDBRANCH   2  10
TORSDOF 6
ENDMDL
