MODEL 1
REMARK VINA RESULT:    -4.771      0.000      0.000
REMARK INTER + INTRA:          -4.911
REMARK INTER:                  -4.911
REMARK INTRA:                   0.000
REMARK UNBOUND:                 0.000
REMARK SMILES Nc1ncnc2nc[nH]c12
REMARK SMILES IDX 8 1 7 2 6 3 5 4 4 5 3 6 2 7 10 8 9 9 1 11
REMARK H PARENT 9 10 1 12 1 13
REMARK Flexibility Score: inf
ROOT
ATOM      1  C   UNL     1      23.063  -7.631   0.766  1.00  0.00     0.199 A 
ATOM      2  N   UNL     1      21.888  -8.152   1.214  1.00  0.00    -0.217 NA
ATOM      3  C   UNL     1      21.731  -7.527   2.394  1.00  0.00     0.182 A 
ATOM      4  N   UNL     1      20.705  -7.687   3.262  1.00  0.00    -0.215 NA
ATOM      5  C   UNL     1      20.720  -6.959   4.420  1.00  0.00     0.226 A 
ATOM      6  N   UNL     1      21.752  -6.093   4.685  1.00  0.00    -0.217 NA
ATOM      7  C   UNL     1      22.788  -5.931   3.809  1.00  0.00     0.152 A 
ATOM      8  C   UNL     1      22.757  -6.679   2.635  1.00  0.00     0.127 A 
ATOM      9  N   UNL     1      23.619  -6.728   1.611  1.00  0.00    -0.340 N 
ATOM     10  H   UNL     1      24.511  -6.202   1.483  1.00  0.00     0.168 HD
ENDROOT
BRANCH   7  11
ATOM     11  N   UNL     1      23.850  -5.024   4.106  1.00  0.00    -0.382 N 
ATOM     12  H   UNL     1      24.850  -5.313   4.028  1.00  0.00     0.158 HD
ATOM     13  H   UNL     1      23.635  -4.049   4.410  1.00  0.00     0.158 HD
ENDBRANCH   7  11
TORSDOF 1
ENDMDL
MODEL 2
REMARK VINA RESULT:    -4.719      2.001      2.849
REMARK INTER + INTRA:          -4.856
REMARK INTER:                  -4.856
REMARK INTRA:                   0.000
REMARK UNBOUND:                 0.000
REMARK SMILES Nc1ncnc2nc[nH]c12
REMARK SMILES IDX 8 1 7 2 6 3 5 4 4 5 3 6 2 7 10 8 9 9 1 11
REMARK H PARENT 9 10 1 12 1 13
REMARK Flexibility Score: inf
ROOT
ATOM      1  C   UNL     1      23.204  -8.783   6.073  1.00  0.00     0.199 A 
ATOM      2  N   UNL     1      21.988  -9.050   5.524  1.00  0.00    -0.217 NA
ATOM      3  C   UNL     1      21.778  -7.966   4.756  1.00  0.00     0.182 A 
ATOM      4  N   UNL     1      20.695  -7.723   3.982  1.00  0.00    -0.215 NA
ATOM      5  C   UNL     1      20.661  -6.557   3.268  1.00  0.00     0.226 A 
ATOM      6  N   UNL     1      21.701  -5.665   3.342  1.00  0.00    -0.217 NA
ATOM      7  C   UNL     1      22.795  -5.909   4.123  1.00  0.00     0.152 A 
ATOM      8  C   UNL     1      22.814  -7.101   4.844  1.00  0.00     0.127 A 
ATOM      9  N   UNL     1      23.736  -7.599   5.676  1.00  0.00    -0.340 N 
ATOM     10  H   UNL     1      24.650  -7.185   5.963  1.00  0.00     0.168 HD
ENDROOT
BRANCH   7  11
ATOM     11  N   UNL     1      23.865  -4.966   4.184  1.00  0.00    -0.382 N 
ATOM     12  H   UNL     1      24.222  -4.605   5.097  1.00  0.00     0.158 HD
ATOM     13  H   UNL     1      24.308  -4.621   3.304  1.00  0.00     0.158 HD
ENDBRANCH   7  11
TORSDOF 1
ENDMDL
MODEL 3
REMARK VINA RESULT:    -4.718      1.064      2.936
REMARK INTER + INTRA:          -4.856
REMARK INTER:                  -4.856
REMARK INTRA:                   0.000
REMARK UNBOUND:                 0.000
REMARK SMILES Nc1ncnc2nc[nH]c12
REMARK SMILES IDX 8 1 7 2 6 3 5 4 4 5 3 6 2 7 10 8 9 9 1 11
REMARK H PARENT 9 10 1 12 1 13
REMARK Flexibility Score: inf
ROOT
ATOM      1  C   UNL     1      19.519  -6.253   4.523  1.00  0.00     0.199 A 
ATOM      2  N   UNL     1      19.463  -7.157   3.507  1.00  0.00    -0.217 NA
ATOM      3  C   UNL     1      20.715  -7.115   3.018  1.00  0.00     0.182 A 
ATOM      4  N   UNL     1      21.201  -7.834   1.980  1.00  0.00    -0.215 NA
ATOM      5  C   UNL     1      22.509  -7.652   1.626  1.00  0.00     0.226 A 
ATOM      6  N   UNL     1      23.299  -6.762   2.310  1.00  0.00    -0.217 NA
ATOM      7  C   UNL     1      22.809  -6.035   3.358  1.00  0.00     0.152 A 
ATOM      8  C   UNL     1      21.475  -6.232   3.706  1.00  0.00     0.127 A 
ATOM      9  N   UNL     1      20.735  -5.671   4.670  1.00  0.00    -0.340 N 
ATOM     10  H   UNL     1      21.015  -4.953   5.374  1.00  0.00     0.168 HD
ENDROOT
BRANCH   7  11
ATOM     11  N   UNL     1      23.649  -5.115   4.055  1.00  0.00    -0.382 N 
ATOM     12  H   UNL     1      24.620  -4.910   3.730  1.00  0.00     0.158 HD
ATOM     13  H   UNL     1      23.297  -4.631   4.911  1.00  0.00     0.158 HD
ENDBRANCH   7  11
TORSDOF 1
ENDMDL
MODEL 4
REMARK VINA RESULT:    -4.623      5.822      7.213
REMARK INTER + INTRA:          -4.758
REMARK INTER:                  -4.758
REMARK INTRA:                   0.000
REMARK UNBOUND:                 0.000
REMARK SMILES Nc1ncnc2nc[nH]c12
REMARK SMILES IDX 8 1 7 2 6 3 5 4 4 5 3 6 2 7 10 8 9 9 1 11
REMARK H PARENT 9 10 1 12 1 13
REMARK Flexibility Score: inf
ROOT
ATOM      1  C   UNL     1      18.342 -10.408   8.910  1.00  0.00     0.199 A 
ATOM      2  N   UNL     1      18.531 -10.622   7.580  1.00  0.00    -0.217 NA
ATOM      3  C   UNL     1      18.104  -9.467   7.041  1.00  0.00     0.182 A 
ATOM      4  N   UNL     1      18.076  -9.150   5.726  1.00  0.00    -0.215 NA
ATOM      5  C   UNL     1      17.603  -7.918   5.369  1.00  0.00     0.226 A 
ATOM      6  N   UNL     1      17.172  -7.033   6.325  1.00  0.00    -0.217 NA
ATOM      7  C   UNL     1      17.199  -7.352   7.654  1.00  0.00     0.152 A 
ATOM      8  C   UNL     1      17.683  -8.610   8.000  1.00  0.00     0.127 A 
ATOM      9  N   UNL     1      17.826  -9.188   9.200  1.00  0.00    -0.340 N 
ATOM     10  H   UNL     1      17.597  -8.801  10.142  1.00  0.00     0.168 HD
ENDROOT
BRANCH   7  11
ATOM     11  N   UNL     1      16.745  -6.415   8.631  1.00  0.00    -0.382 N 
ATOM     12  H   UNL     1      15.902  -6.604   9.216  1.00  0.00     0.158 HD
ATOM     13  H   UNL     1      17.259  -5.517   8.773  1.00  0.00     0.158 HD
ENDBRANCH   7  11
TORSDOF 1
ENDMDL
MODEL 5
REMARK VINA RESULT:    -4.533      4.281      5.985
REMARK INTER + INTRA:          -4.665
REMARK INTER:                  -4.665
REMARK INTRA:                   0.000
REMARK UNBOUND:                 0.000
REMARK SMILES Nc1ncnc2nc[nH]c12
REMARK SMILES IDX 8 1 7 2 6 3 5 4 4 5 3 6 2 7 10 8 9 9 1 11
REMARK H PARENT 9 10 1 12 1 13
REMARK Flexibility Score: inf
ROOT
ATOM      1  C   UNL     1      19.548  -6.632   5.132  1.00  0.00     0.199 A 
ATOM      2  N   UNL     1      19.882  -7.935   5.338  1.00  0.00    -0.217 NA
ATOM      3  C   UNL     1      19.168  -8.243   6.434  1.00  0.00     0.182 A 
ATOM      4  N   UNL     1      19.137  -9.438   7.069  1.00  0.00    -0.215 NA
ATOM      5  C   UNL     1      18.345  -9.560   8.177  1.00  0.00     0.226 A 
ATOM      6  N   UNL     1      17.605  -8.495   8.624  1.00  0.00    -0.217 NA
ATOM      7  C   UNL     1      17.635  -7.288   7.985  1.00  0.00     0.152 A 
ATOM      8  C   UNL     1      18.447  -7.180   6.858  1.00  0.00     0.127 A 
ATOM      9  N   UNL     1      18.672  -6.141   6.044  1.00  0.00    -0.340 N 
ATOM     10  H   UNL     1      18.275  -5.177   6.090  1.00  0.00     0.168 HD
ENDROOT
BRANCH   7  11
ATOM     11  N   UNL     1      16.856  -6.193   8.469  1.00  0.00    -0.382 N 
ATOM     12  H   UNL     1      17.025  -5.780   9.413  1.00  0.00     0.158 HD
ATOM     13  H   UNL     1      16.097  -5.789   7.876  1.00  0.00     0.158 HD
ENDBRANCH   7  11
TORSDOF 1
ENDMDL
MODEL 6
REMARK VINA RESULT:    -4.424      1.955      2.225
REMARK INTER + INTRA:          -4.554
REMARK INTER:                  -4.554
REMARK INTRA:                   0.000
REMARK UNBOUND:                 0.000
REMARK SMILES Nc1ncnc2nc[nH]c12
REMARK SMILES IDX 8 1 7 2 6 3 5 4 4 5 3 6 2 7 10 8 9 9 1 11
REMARK H PARENT 9 10 1 12 1 13
REMARK Flexibility Score: inf
ROOT
ATOM      1  C   UNL     1      19.844  -6.481   2.150  1.00  0.00     0.199 A 
ATOM      2  N   UNL     1      19.450  -7.324   3.142  1.00  0.00    -0.217 NA
ATOM      3  C   UNL     1      20.449  -7.203   4.033  1.00  0.00     0.182 A 
ATOM      4  N   UNL     1      20.553  -7.842   5.222  1.00  0.00    -0.215 NA
ATOM      5  C   UNL     1      21.651  -7.588   5.997  1.00  0.00     0.226 A 
ATOM      6  N   UNL     1      22.615  -6.709   5.572  1.00  0.00    -0.217 NA
ATOM      7  C   UNL     1      22.512  -6.065   4.372  1.00  0.00     0.152 A 
ATOM      8  C   UNL     1      21.388  -6.334   3.595  1.00  0.00     0.127 A 
ATOM      9  N   UNL     1      21.025  -5.860   2.397  1.00  0.00    -0.340 N 
ATOM     10  H   UNL     1      21.523  -5.175   1.786  1.00  0.00     0.168 HD
ENDROOT
BRANCH   7  11
ATOM     11  N   UNL     1      23.528  -5.155   3.950  1.00  0.00    -0.382 N 
ATOM     12  H   UNL     1      23.819  -4.349   4.547  1.00  0.00     0.158 HD
ATOM     13  H   UNL     1      23.998  -5.287   3.027  1.00  0.00     0.158 HD
ENDBRANCH   7  11
TORSDOF 1
ENDMDL
MODEL 7
REMARK VINA RESULT:    -4.415      2.660      3.769
REMARK INTER + INTRA:          -4.544
REMARK INTER:                  -4.544
REMARK INTRA:                   0.000
REMARK UNBOUND:                 0.000
REMARK SMILES Nc1ncnc2nc[nH]c12
REMARK SMILES IDX 8 1 7 2 6 3 5 4 4 5 3 6 2 7 10 8 9 9 1 11
REMARK H PARENT 9 10 1 12 1 13
REMARK Flexibility Score: inf
ROOT
ATOM      1  C   UNL     1      22.502  -5.999   4.456  1.00  0.00     0.199 A 
ATOM      2  N   UNL     1      22.502  -7.121   5.226  1.00  0.00    -0.217 NA
ATOM      3  C   UNL     1      21.188  -7.370   5.367  1.00  0.00     0.182 A 
ATOM      4  N   UNL     1      20.629  -8.391   6.057  1.00  0.00    -0.215 NA
ATOM      5  C   UNL     1      19.265  -8.479   6.087  1.00  0.00     0.226 A 
ATOM      6  N   UNL     1      18.493  -7.553   5.433  1.00  0.00    -0.217 NA
ATOM      7  C   UNL     1      19.056  -6.521   4.736  1.00  0.00     0.152 A 
ATOM      8  C   UNL     1      20.446  -6.446   4.716  1.00  0.00     0.127 A 
ATOM      9  N   UNL     1      21.261  -5.562   4.126  1.00  0.00    -0.340 N 
ATOM     10  H   UNL     1      21.013  -4.728   3.549  1.00  0.00     0.168 HD
ENDROOT
BRANCH   7  11
ATOM     11  N   UNL     1      18.232  -5.568   4.063  1.00  0.00    -0.382 N 
ATOM     12  H   UNL     1      17.218  -5.468   4.291  1.00  0.00     0.158 HD
ATOM     13  H   UNL     1      18.641  -4.953   3.324  1.00  0.00     0.158 HD
ENDBRANCH   7  11
TORSDOF 1
ENDMDL
MODEL 8
REMARK VINA RESULT:    -4.352      3.904      5.971
REMARK INTER + INTRA:          -4.480
REMARK INTER:                  -4.480
REMARK INTRA:                   0.000
REMARK UNBOUND:                 0.000
REMARK SMILES Nc1ncnc2nc[nH]c12
REMARK SMILES IDX 8 1 7 2 6 3 5 4 4 5 3 6 2 7 10 8 9 9 1 11
REMARK H PARENT 9 10 1 12 1 13
REMARK Flexibility Score: inf
ROOT
ATOM      1  C   UNL     1      16.923  -7.545   8.034  1.00  0.00     0.199 A 
ATOM      2  N   UNL     1      17.717  -8.650   7.995  1.00  0.00    -0.217 NA
ATOM      3  C   UNL     1      18.590  -8.340   7.021  1.00  0.00     0.182 A 
ATOM      4  N   UNL     1      19.608  -9.111   6.573  1.00  0.00    -0.215 NA
ATOM      5  C   UNL     1      20.394  -8.621   5.567  1.00  0.00     0.226 A 
ATOM      6  N   UNL     1      20.149  -7.382   5.032  1.00  0.00    -0.217 NA
ATOM      7  C   UNL     1      19.121  -6.603   5.482  1.00  0.00     0.152 A 
ATOM      8  C   UNL     1      18.330  -7.116   6.507  1.00  0.00     0.127 A 
ATOM      9  N   UNL     1      17.273  -6.589   7.138  1.00  0.00    -0.340 N 
ATOM     10  H   UNL     1      16.815  -5.663   6.984  1.00  0.00     0.168 HD
ENDROOT
BRANCH   7  11
ATOM     11  N   UNL     1      18.885  -5.316   4.911  1.00  0.00    -0.382 N 
ATOM     12  H   UNL     1      19.670  -4.661   4.701  1.00  0.00     0.158 HD
ATOM     13  H   UNL     1      17.909  -5.011   4.693  1.00  0.00     0.158 HD
ENDBRANCH   7  11
TORSDOF 1
ENDMDL
MODEL 9
REMARK VINA RESULT:    -4.187      2.210      4.047
REMARK INTER + INTRA:          -4.309
REMARK INTER:                  -4.309
REMARK INTRA:                   0.000
REMARK UNBOUND:                 0.000
REMARK SMILES Nc1ncnc2nc[nH]c12
REMARK SMILES IDX 8 1 7 2 6 3 5 4 4 5 3 6 2 7 10 8 9 9 1 11
REMARK H PARENT 9 10 1 12 1 13
REMARK Flexibility Score: inf
ROOT
ATOM      1  C   UNL     1      18.647  -7.261   6.532  1.00  0.00     0.199 A 
ATOM      2  N   UNL     1      18.076  -7.376   5.302  1.00  0.00    -0.217 NA
ATOM      3  C   UNL     1      19.078  -7.002   4.487  1.00  0.00     0.182 A 
ATOM      4  N   UNL     1      19.037  -6.936   3.135  1.00  0.00    -0.215 NA
ATOM      5  C   UNL     1      20.164  -6.529   2.475  1.00  0.00     0.226 A 
ATOM      6  N   UNL     1      21.299  -6.199   3.173  1.00  0.00    -0.217 NA
ATOM      7  C   UNL     1      21.341  -6.265   4.537  1.00  0.00     0.152 A 
ATOM      8  C   UNL     1      20.185  -6.681   5.194  1.00  0.00     0.127 A 
ATOM      9  N   UNL     1      19.936  -6.839   6.499  1.00  0.00    -0.340 N 
ATOM     10  H   UNL     1      20.573  -6.677   7.311  1.00  0.00     0.168 HD
ENDROOT
BRANCH   7  11
ATOM     11  N   UNL     1      22.533  -5.917   5.241  1.00  0.00    -0.382 N 
ATOM     12  H   UNL     1      23.101  -6.637   5.739  1.00  0.00     0.158 HD
ATOM     13  H   UNL     1      22.853  -4.923   5.268  1.00  0.00     0.158 HD
ENDBRANCH   7  11
TORSDOF 1
ENDMDL
