MODEL 1
REMARK VINA RESULT:    -3.685      0.000      0.000
REMARK INTER + INTRA:          -7.942
REMARK INTER:                  -6.701
REMARK INTRA:                  -1.242
REMARK UNBOUND:                -1.242
REMARK SMILES CCCCCCCCCCCCCCCC(=O)[O-]
REMARK SMILES IDX 9 1 10 2 11 3 12 4 13 5 14 6 15 7 16 8 17 9 18 10 8 11 7 12
REMARK SMILES IDX 6 13 5 14 4 15 3 16 2 17 1 18
REMARK H PARENT
REMARK Flexibility Score: inf
ROOT
ATOM      1  C   UNL     1      59.911  45.979  17.751  1.00  0.00     0.000 C 
ENDROOT
BRANCH   1   2
ATOM      2  C   UNL     1      58.605  45.418  18.339  1.00  0.00     0.000 C 
BRANCH   2   3
ATOM      3  C   UNL     1      58.471  43.899  18.135  1.00  0.00     0.000 C 
BRANCH   3   4
ATOM      4  C   UNL     1      57.352  43.528  17.151  1.00  0.00     0.000 C 
BRANCH   4   5
ATOM      5  C   UNL     1      57.686  44.012  15.732  1.00  0.00     0.000 C 
BRANCH   5   6
ATOM      6  C   UNL     1      56.716  45.091  15.218  1.00  0.00     0.006 C 
BRANCH   6   7
ATOM      7  C   UNL     1      57.380  46.453  14.952  1.00  0.00     0.053 C 
BRANCH   7   8
ATOM      8  C   UNL     1      56.647  47.260  13.923  1.00  0.00     0.041 C 
ATOM      9  O   UNL     1      55.536  46.867  13.483  1.00  0.00    -0.550 OA
ATOM     10  O   UNL     1      57.207  48.429  13.422  1.00  0.00    -0.550 OA
ENDBRANCH   7   8
ENDBRANCH   6   7
ENDBRANCH   5   6
ENDBRANCH   4   5
ENDBRANCH   3   4
ENDBRANCH   2   3
ENDBRANCH   1   2
BRANCH   1  11
ATOM     11  C   UNL     1      61.151  45.162  18.157  1.00  0.00     0.000 C 
BRANCH  11  12
ATOM     12  C   UNL     1      61.914  44.509  16.989  1.00  0.00    -0.000 C 
BRANCH  12  13
ATOM     13  C   UNL     1      63.185  45.281  16.598  1.00  0.00    -0.000 C 
BRANCH  13  14
ATOM     14  C   UNL     1      64.164  44.427  15.777  1.00  0.00    -0.000 C 
BRANCH  14  15
ATOM     15  C   UNL     1      63.443  43.458  14.822  1.00  0.00    -0.000 C 
BRANCH  15  16
ATOM     16  C   UNL     1      63.829  41.992  15.066  1.00  0.00    -0.000 C 
BRANCH  16  17
ATOM     17  C   UNL     1      64.459  41.770  16.449  1.00  0.00    -0.003 C 
ATOM     18  C   UNL     1      63.931  40.492  17.095  1.00  0.00     0.004 C 
ENDBRANCH  16  17
ENDBRANCH  15  16
ENDBRANCH  14  15
ENDBRANCH  13  14
ENDBRANCH  12  13
ENDBRANCH  11  12
ENDBRANCH   1  11
TORSDOF 14
ENDMDL
MODEL 2
REMARK VINA RESULT:    -3.607      3.805      7.225
REMARK INTER + INTRA:          -7.800
REMARK INTER:                  -6.473
REMARK INTRA:                  -1.327
REMARK UNBOUND:                -1.242
REMARK SMILES CCCCCCCCCCCCCCCC(=O)[O-]
REMARK SMILES IDX 9 1 10 2 11 3 12 4 13 5 14 6 15 7 16 8 17 9 18 10 8 11 7 12
REMARK SMILES IDX 6 13 5 14 4 15 3 16 2 17 1 18
REMARK H PARENT
REMARK Flexibility Score: inf
ROOT
ATOM      1  C   UNL     1      63.753  44.428  16.411  1.00  0.00     0.000 C 
ENDROOT
BRANCH   1   2
ATOM      2  C   UNL     1      63.766  43.936  14.953  1.00  0.00     0.000 C 
BRANCH   2   3
ATOM      3  C   UNL     1      63.864  42.405  14.848  1.00  0.00     0.000 C 
BRANCH   3   4
ATOM      4  C   UNL     1      64.578  41.771  16.052  1.00  0.00     0.000 C 
BRANCH   4   5
ATOM      5  C   UNL     1      63.858  40.492  16.505  1.00  0.00     0.000 C 
BRANCH   5   6
ATOM      6  C   UNL     1      63.881  40.293  18.031  1.00  0.00     0.006 C 
BRANCH   6   7
ATOM      7  C   UNL     1      63.770  41.602  18.833  1.00  0.00     0.053 C 
BRANCH   7   8
ATOM      8  C   UNL     1      62.611  41.598  19.784  1.00  0.00     0.041 C 
ATOM      9  O   UNL     1      62.016  42.672  20.061  1.00  0.00    -0.550 OA
ATOM     10  O   UNL     1      62.211  40.416  20.393  1.00  0.00    -0.550 OA
ENDBRANCH   7   8
ENDBRANCH   6   7
ENDBRANCH   5   6
ENDBRANCH   4   5
ENDBRANCH   3   4
ENDBRANCH   2   3
ENDBRANCH   1   2
BRANCH   1  11
ATOM     11  C   UNL     1      62.337  44.474  17.015  1.00  0.00     0.000 C 
BRANCH  11  12
ATOM     12  C   UNL     1      61.959  45.806  17.690  1.00  0.00    -0.000 C 
BRANCH  12  13
ATOM     13  C   UNL     1      60.637  45.728  18.472  1.00  0.00    -0.000 C 
BRANCH  13  14
ATOM     14  C   UNL     1      59.700  44.634  17.936  1.00  0.00    -0.000 C 
BRANCH  14  15
ATOM     15  C   UNL     1      58.746  45.157  16.847  1.00  0.00    -0.000 C 
BRANCH  15  16
ATOM     16  C   UNL     1      57.996  44.027  16.127  1.00  0.00    -0.000 C 
BRANCH  16  17
ATOM     17  C   UNL     1      56.706  43.617  16.854  1.00  0.00    -0.003 C 
ATOM     18  C   UNL     1      56.785  42.174  17.342  1.00  0.00     0.004 C 
ENDBRANCH  16  17
ENDBRANCH  15  16
ENDBRANCH  14  15
ENDBRANCH  13  14
ENDBRANCH  12  13
ENDBRANCH  11  12
ENDBRANCH   1  11
TORSDOF 14
ENDMDL
MODEL 3
REMARK VINA RESULT:    -3.591      9.878     12.970
REMARK INTER + INTRA:          -7.771
REMARK INTER:                  -6.300
REMARK INTRA:                  -1.471
REMARK UNBOUND:                -1.242
REMARK SMILES CCCCCCCCCCCCCCCC(=O)[O-]
REMARK SMILES IDX 9 1 10 2 11 3 12 4 13 5 14 6 15 7 16 8 17 9 18 10 8 11 7 12
REMARK SMILES IDX 6 13 5 14 4 15 3 16 2 17 1 18
REMARK H PARENT
REMARK Flexibility Score: inf
ROOT
ATOM      1  C   UNL     1      49.467  45.200  16.042  1.00  0.00     0.000 C 
ENDROOT
BRANCH   1   2
ATOM      2  C   UNL     1      50.468  44.915  14.908  1.00  0.00     0.000 C 
BRANCH   2   3
ATOM      3  C   UNL     1      50.843  46.182  14.122  1.00  0.00     0.000 C 
BRANCH   3   4
ATOM      4  C   UNL     1      51.484  47.262  15.006  1.00  0.00     0.000 C 
BRANCH   4   5
ATOM      5  C   UNL     1      50.632  48.541  15.013  1.00  0.00     0.000 C 
BRANCH   5   6
ATOM      6  C   UNL     1      49.670  48.632  13.815  1.00  0.00     0.006 C 
BRANCH   6   7
ATOM      7  C   UNL     1      49.678  50.000  13.110  1.00  0.00     0.053 C 
BRANCH   7   8
ATOM      8  C   UNL     1      50.595  50.031  11.924  1.00  0.00     0.041 C 
ATOM      9  O   UNL     1      50.484  50.942  11.062  1.00  0.00    -0.550 OA
ATOM     10  O   UNL     1      51.547  49.035  11.750  1.00  0.00    -0.550 OA
ENDBRANCH   7   8
ENDBRANCH   6   7
ENDBRANCH   5   6
ENDBRANCH   4   5
ENDBRANCH   3   4
ENDBRANCH   2   3
ENDBRANCH   1   2
BRANCH   1  11
ATOM     11  C   UNL     1      48.122  45.747  15.530  1.00  0.00     0.000 C 
BRANCH  11  12
ATOM     12  C   UNL     1      47.252  46.440  16.596  1.00  0.00    -0.000 C 
BRANCH  12  13
ATOM     13  C   UNL     1      45.784  45.984  16.561  1.00  0.00    -0.000 C 
BRANCH  13  14
ATOM     14  C   UNL     1      45.625  44.487  16.868  1.00  0.00    -0.000 C 
BRANCH  14  15
ATOM     15  C   UNL     1      45.106  43.689  15.659  1.00  0.00    -0.000 C 
BRANCH  15  16
ATOM     16  C   UNL     1      45.181  42.170  15.878  1.00  0.00    -0.000 C 
BRANCH  16  17
ATOM     17  C   UNL     1      46.278  41.506  15.034  1.00  0.00    -0.003 C 
ATOM     18  C   UNL     1      46.967  42.523  14.129  1.00  0.00     0.004 C 
ENDBRANCH  16  17
ENDBRANCH  15  16
ENDBRANCH  14  15
ENDBRANCH  13  14
ENDBRANCH  12  13
ENDBRANCH  11  12
ENDBRANCH   1  11
TORSDOF 14
ENDMDL
MODEL 4
REMARK VINA RESULT:    -3.477      8.401     11.087
REMARK INTER + INTRA:          -7.565
REMARK INTER:                  -5.836
REMARK INTRA:                  -1.729
REMARK UNBOUND:                -1.242
REMARK SMILES CCCCCCCCCCCCCCCC(=O)[O-]
REMARK SMILES IDX 9 1 10 2 11 3 12 4 13 5 14 6 15 7 16 8 17 9 18 10 8 11 7 12
REMARK SMILES IDX 6 13 5 14 4 15 3 16 2 17 1 18
REMARK H PARENT
REMARK Flexibility Score: inf
ROOT
ATOM      1  C   UNL     1      49.815  49.140  13.438  1.00  0.00     0.000 C 
ENDROOT
BRANCH   1   2
ATOM      2  C   UNL     1      49.760  50.552  12.828  1.00  0.00     0.000 C 
BRANCH   2   3
ATOM      3  C   UNL     1      50.442  50.626  11.451  1.00  0.00     0.000 C 
BRANCH   3   4
ATOM      4  C   UNL     1      51.520  49.548  11.263  1.00  0.00     0.000 C 
BRANCH   4   5
ATOM      5  C   UNL     1      52.915  50.107  11.582  1.00  0.00     0.000 C 
BRANCH   5   6
ATOM      6  C   UNL     1      53.724  49.206  12.532  1.00  0.00     0.006 C 
BRANCH   6   7
ATOM      7  C   UNL     1      54.207  49.918  13.808  1.00  0.00     0.053 C 
BRANCH   7   8
ATOM      8  C   UNL     1      55.674  50.224  13.776  1.00  0.00     0.041 C 
ATOM      9  O   UNL     1      56.281  50.302  12.676  1.00  0.00    -0.550 OA
ATOM     10  O   UNL     1      56.380  50.386  14.962  1.00  0.00    -0.550 OA
ENDBRANCH   7   8
ENDBRANCH   6   7
ENDBRANCH   5   6
ENDBRANCH   4   5
ENDBRANCH   3   4
ENDBRANCH   2   3
ENDBRANCH   1   2
BRANCH   1  11
ATOM     11  C   UNL     1      50.551  49.100  14.790  1.00  0.00     0.000 C 
BRANCH  11  12
ATOM     12  C   UNL     1      51.323  47.798  15.074  1.00  0.00    -0.000 C 
BRANCH  12  13
ATOM     13  C   UNL     1      51.363  46.850  13.863  1.00  0.00    -0.000 C 
BRANCH  13  14
ATOM     14  C   UNL     1      50.599  45.541  14.115  1.00  0.00    -0.000 C 
BRANCH  14  15
ATOM     15  C   UNL     1      50.701  45.070  15.576  1.00  0.00    -0.000 C 
BRANCH  15  16
ATOM     16  C   UNL     1      49.792  43.869  15.874  1.00  0.00    -0.000 C 
BRANCH  16  17
ATOM     17  C   UNL     1      48.459  43.934  15.113  1.00  0.00    -0.003 C 
ATOM     18  C   UNL     1      47.473  44.867  15.810  1.00  0.00     0.004 C 
ENDBRANCH  16  17
ENDBRANCH  15  16
ENDBRANCH  14  15
ENDBRANCH  13  14
ENDBRANCH  12  13
ENDBRANCH  11  12
ENDBRANCH   1  11
TORSDOF 14
ENDMDL
MODEL 5
REMARK VINA RESULT:    -3.458     10.487     12.785
REMARK INTER + INTRA:          -7.530
REMARK INTER:                  -5.182
REMARK INTRA:                  -2.348
REMARK UNBOUND:                -1.242
REMARK SMILES CCCCCCCCCCCCCCCC(=O)[O-]
REMARK SMILES IDX 9 1 10 2 11 3 12 4 13 5 14 6 15 7 16 8 17 9 18 10 8 11 7 12
REMARK SMILES IDX 6 13 5 14 4 15 3 16 2 17 1 18
REMARK H PARENT
REMARK Flexibility Score: inf
ROOT
ATOM      1  C   UNL     1      57.567  31.510  13.503  1.00  0.00     0.000 C 
ENDROOT
BRANCH   1   2
ATOM      2  C   UNL     1      56.941  32.547  12.554  1.00  0.00     0.000 C 
BRANCH   2   3
ATOM      3  C   UNL     1      57.997  33.338  11.765  1.00  0.00     0.000 C 
BRANCH   3   4
ATOM      4  C   UNL     1      58.780  34.325  12.644  1.00  0.00     0.000 C 
BRANCH   4   5
ATOM      5  C   UNL     1      60.294  34.160  12.440  1.00  0.00     0.000 C 
BRANCH   5   6
ATOM      6  C   UNL     1      61.060  33.929  13.755  1.00  0.00     0.006 C 
BRANCH   6   7
ATOM      7  C   UNL     1      60.254  34.281  15.017  1.00  0.00     0.053 C 
BRANCH   7   8
ATOM      8  C   UNL     1      60.840  33.683  16.260  1.00  0.00     0.041 C 
ATOM      9  O   UNL     1      60.101  33.407  17.241  1.00  0.00    -0.550 OA
ATOM     10  O   UNL     1      62.209  33.464  16.352  1.00  0.00    -0.550 OA
ENDBRANCH   7   8
ENDBRANCH   6   7
ENDBRANCH   5   6
ENDBRANCH   4   5
ENDBRANCH   3   4
ENDBRANCH   2   3
ENDBRANCH   1   2
BRANCH   1  11
ATOM     11  C   UNL     1      57.396  31.878  14.989  1.00  0.00     0.000 C 
BRANCH  11  12
ATOM     12  C   UNL     1      56.272  32.888  15.285  1.00  0.00    -0.000 C 
BRANCH  12  13
ATOM     13  C   UNL     1      56.757  34.102  16.095  1.00  0.00    -0.000 C 
BRANCH  13  14
ATOM     14  C   UNL     1      56.603  35.423  15.325  1.00  0.00    -0.000 C 
BRANCH  14  15
ATOM     15  C   UNL     1      55.143  35.708  14.928  1.00  0.00    -0.000 C 
BRANCH  15  16
ATOM     16  C   UNL     1      55.029  36.744  13.801  1.00  0.00    -0.000 C 
BRANCH  16  17
ATOM     17  C   UNL     1      55.104  36.108  12.405  1.00  0.00    -0.003 C 
ATOM     18  C   UNL     1      56.270  36.679  11.603  1.00  0.00     0.004 C 
ENDBRANCH  16  17
ENDBRANCH  15  16
ENDBRANCH  14  15
ENDBRANCH  13  14
ENDBRANCH  12  13
ENDBRANCH  11  12
ENDBRANCH   1  11
TORSDOF 14
ENDMDL
MODEL 6
REMARK VINA RESULT:    -3.450      9.924     11.339
REMARK INTER + INTRA:          -7.516
REMARK INTER:                  -5.332
REMARK INTRA:                  -2.184
REMARK UNBOUND:                -1.242
REMARK SMILES CCCCCCCCCCCCCCCC(=O)[O-]
REMARK SMILES IDX 9 1 10 2 11 3 12 4 13 5 14 6 15 7 16 8 17 9 18 10 8 11 7 12
REMARK SMILES IDX 6 13 5 14 4 15 3 16 2 17 1 18
REMARK H PARENT
REMARK Flexibility Score: inf
ROOT
ATOM      1  C   UNL     1      59.681  33.004  11.939  1.00  0.00     0.000 C 
ENDROOT
BRANCH   1   2
ATOM      2  C   UNL     1      58.156  33.153  11.793  1.00  0.00     0.000 C 
BRANCH   2   3
ATOM      3  C   UNL     1      57.658  34.549  12.206  1.00  0.00     0.000 C 
BRANCH   3   4
ATOM      4  C   UNL     1      56.261  34.517  12.842  1.00  0.00     0.000 C 
BRANCH   4   5
ATOM      5  C   UNL     1      55.928  35.864  13.501  1.00  0.00     0.000 C 
BRANCH   5   6
ATOM      6  C   UNL     1      54.758  36.597  12.821  1.00  0.00     0.006 C 
BRANCH   6   7
ATOM      7  C   UNL     1      53.385  36.302  13.451  1.00  0.00     0.053 C 
BRANCH   7   8
ATOM      8  C   UNL     1      53.307  36.728  14.886  1.00  0.00     0.041 C 
ATOM      9  O   UNL     1      53.447  37.940  15.195  1.00  0.00    -0.550 OA
ATOM     10  O   UNL     1      53.116  35.784  15.887  1.00  0.00    -0.550 OA
ENDBRANCH   7   8
ENDBRANCH   6   7
ENDBRANCH   5   6
ENDBRANCH   4   5
ENDBRANCH   3   4
ENDBRANCH   2   3
ENDBRANCH   1   2
BRANCH   1  11
ATOM     11  C   UNL     1      60.382  34.331  12.286  1.00  0.00     0.000 C 
BRANCH  11  12
ATOM     12  C   UNL     1      61.401  34.247  13.437  1.00  0.00    -0.000 C 
BRANCH  12  13
ATOM     13  C   UNL     1      60.888  33.428  14.633  1.00  0.00    -0.000 C 
BRANCH  13  14
ATOM     14  C   UNL     1      60.185  34.299  15.686  1.00  0.00    -0.000 C 
BRANCH  14  15
ATOM     15  C   UNL     1      58.658  34.105  15.688  1.00  0.00    -0.000 C 
BRANCH  15  16
ATOM     16  C   UNL     1      58.248  32.643  15.456  1.00  0.00    -0.000 C 
BRANCH  16  17
ATOM     17  C   UNL     1      56.780  32.377  15.821  1.00  0.00    -0.003 C 
ATOM     18  C   UNL     1      56.145  33.601  16.472  1.00  0.00     0.004 C 
ENDBRANCH  16  17
ENDBRANCH  15  16
ENDBRANCH  14  15
ENDBRANCH  13  14
ENDBRANCH  12  13
ENDBRANCH  11  12
ENDBRANCH   1  11
TORSDOF 14
ENDMDL
MODEL 7
REMARK VINA RESULT:    -3.450      9.249     11.200
REMARK INTER + INTRA:          -7.516
REMARK INTER:                  -5.714
REMARK INTRA:                  -1.802
REMARK UNBOUND:                -1.242
REMARK SMILES CCCCCCCCCCCCCCCC(=O)[O-]
REMARK SMILES IDX 9 1 10 2 11 3 12 4 13 5 14 6 15 7 16 8 17 9 18 10 8 11 7 12
REMARK SMILES IDX 6 13 5 14 4 15 3 16 2 17 1 18
REMARK H PARENT
REMARK Flexibility Score: inf
ROOT
ATOM      1  C   UNL     1      50.546  48.872  15.038  1.00  0.00     0.000 C 
ENDROOT
BRANCH   1   2
ATOM      2  C   UNL     1      51.620  47.769  15.060  1.00  0.00     0.000 C 
BRANCH   2   3
ATOM      3  C   UNL     1      51.548  46.852  13.828  1.00  0.00     0.000 C 
BRANCH   3   4
ATOM      4  C   UNL     1      50.724  45.580  14.081  1.00  0.00     0.000 C 
BRANCH   4   5
ATOM      5  C   UNL     1      50.993  45.024  15.488  1.00  0.00     0.000 C 
BRANCH   5   6
ATOM      6  C   UNL     1      49.778  44.298  16.093  1.00  0.00     0.006 C 
BRANCH   6   7
ATOM      7  C   UNL     1      48.601  44.129  15.116  1.00  0.00     0.053 C 
BRANCH   7   8
ATOM      8  C   UNL     1      47.426  44.987  15.477  1.00  0.00     0.041 C 
ATOM      9  O   UNL     1      46.255  44.577  15.269  1.00  0.00    -0.550 OA
ATOM     10  O   UNL     1      47.624  46.255  16.009  1.00  0.00    -0.550 OA
ENDBRANCH   7   8
ENDBRANCH   6   7
ENDBRANCH   5   6
ENDBRANCH   4   5
ENDBRANCH   3   4
ENDBRANCH   2   3
ENDBRANCH   1   2
BRANCH   1  11
ATOM     11  C   UNL     1      49.711  48.868  13.744  1.00  0.00     0.000 C 
BRANCH  11  12
ATOM     12  C   UNL     1      49.673  50.210  12.989  1.00  0.00    -0.000 C 
BRANCH  12  13
ATOM     13  C   UNL     1      50.483  50.184  11.681  1.00  0.00    -0.000 C 
BRANCH  13  14
ATOM     14  C   UNL     1      51.886  50.789  11.845  1.00  0.00    -0.000 C 
BRANCH  14  15
ATOM     15  C   UNL     1      52.965  49.719  12.092  1.00  0.00    -0.000 C 
BRANCH  15  16
ATOM     16  C   UNL     1      54.269  50.312  12.645  1.00  0.00    -0.000 C 
BRANCH  16  17
ATOM     17  C   UNL     1      54.511  49.937  14.115  1.00  0.00    -0.003 C 
ATOM     18  C   UNL     1      53.681  50.812  15.049  1.00  0.00     0.004 C 
ENDBRANCH  16  17
ENDBRANCH  15  16
ENDBRANCH  14  15
ENDBRANCH  13  14
ENDBRANCH  12  13
ENDBRANCH  11  12
ENDBRANCH   1  11
TORSDOF 14
ENDMDL
MODEL 8
REMARK VINA RESULT:    -3.429      9.983     12.442
REMARK INTER + INTRA:          -7.478
REMARK INTER:                  -6.643
REMARK INTRA:                  -0.834
REMARK UNBOUND:                -1.242
REMARK SMILES CCCCCCCCCCCCCCCC(=O)[O-]
REMARK SMILES IDX 9 1 10 2 11 3 12 4 13 5 14 6 15 7 16 8 17 9 18 10 8 11 7 12
REMARK SMILES IDX 6 13 5 14 4 15 3 16 2 17 1 18
REMARK H PARENT
REMARK Flexibility Score: inf
ROOT
ATOM      1  C   UNL     1      50.082  46.074  15.145  1.00  0.00     0.000 C 
ENDROOT
BRANCH   1   2
ATOM      2  C   UNL     1      51.189  46.225  14.087  1.00  0.00     0.000 C 
BRANCH   2   3
ATOM      3  C   UNL     1      51.686  47.675  13.956  1.00  0.00     0.000 C 
BRANCH   3   4
ATOM      4  C   UNL     1      50.727  48.691  14.594  1.00  0.00     0.000 C 
BRANCH   4   5
ATOM      5  C   UNL     1      50.029  49.536  13.518  1.00  0.00     0.000 C 
BRANCH   5   6
ATOM      6  C   UNL     1      50.663  49.383  12.123  1.00  0.00     0.006 C 
BRANCH   6   7
ATOM      7  C   UNL     1      50.511  50.626  11.228  1.00  0.00     0.053 C 
BRANCH   7   8
ATOM      8  C   UNL     1      50.971  50.382   9.823  1.00  0.00     0.041 C 
ATOM      9  O   UNL     1      50.146  50.410   8.873  1.00  0.00    -0.550 OA
ATOM     10  O   UNL     1      52.304  50.088   9.564  1.00  0.00    -0.550 OA
ENDBRANCH   7   8
ENDBRANCH   6   7
ENDBRANCH   5   6
ENDBRANCH   4   5
ENDBRANCH   3   4
ENDBRANCH   2   3
ENDBRANCH   1   2
BRANCH   1  11
ATOM     11  C   UNL     1      50.338  44.909  16.118  1.00  0.00     0.000 C 
BRANCH  11  12
ATOM     12  C   UNL     1      49.319  43.757  16.039  1.00  0.00    -0.000 C 
BRANCH  12  13
ATOM     13  C   UNL     1      48.410  43.846  14.801  1.00  0.00    -0.000 C 
BRANCH  13  14
ATOM     14  C   UNL     1      46.999  44.350  15.142  1.00  0.00    -0.000 C 
BRANCH  14  15
ATOM     15  C   UNL     1      46.008  43.200  15.396  1.00  0.00    -0.000 C 
BRANCH  15  16
ATOM     16  C   UNL     1      46.442  41.888  14.727  1.00  0.00    -0.000 C 
BRANCH  16  17
ATOM     17  C   UNL     1      46.519  40.717  15.718  1.00  0.00    -0.003 C 
ATOM     18  C   UNL     1      46.082  39.411  15.062  1.00  0.00     0.004 C 
ENDBRANCH  16  17
ENDBRANCH  15  16
ENDBRANCH  14  15
ENDBRANCH  13  14
ENDBRANCH  12  13
ENDBRANCH  11  12
ENDBRANCH   1  11
TORSDOF 14
ENDMDL
MODEL 9
REMARK VINA RESULT:    -3.421      5.000      9.580
REMARK INTER + INTRA:          -7.462
REMARK INTER:                  -4.989
REMARK INTRA:                  -2.472
REMARK UNBOUND:                -1.242
REMARK SMILES CCCCCCCCCCCCCCCC(=O)[O-]
REMARK SMILES IDX 9 1 10 2 11 3 12 4 13 5 14 6 15 7 16 8 17 9 18 10 8 11 7 12
REMARK SMILES IDX 6 13 5 14 4 15 3 16 2 17 1 18
REMARK H PARENT
REMARK Flexibility Score: inf
ROOT
ATOM      1  C   UNL     1      53.890  48.932  15.671  1.00  0.00     0.000 C 
ENDROOT
BRANCH   1   2
ATOM      2  C   UNL     1      54.992  49.764  14.991  1.00  0.00     0.000 C 
BRANCH   2   3
ATOM      3  C   UNL     1      55.406  49.189  13.626  1.00  0.00     0.000 C 
BRANCH   3   4
ATOM      4  C   UNL     1      55.447  47.654  13.615  1.00  0.00     0.000 C 
BRANCH   4   5
ATOM      5  C   UNL     1      56.894  47.144  13.525  1.00  0.00     0.000 C 
BRANCH   5   6
ATOM      6  C   UNL     1      57.557  46.963  14.903  1.00  0.00     0.006 C 
BRANCH   6   7
ATOM      7  C   UNL     1      56.693  46.190  15.915  1.00  0.00     0.053 C 
BRANCH   7   8
ATOM      8  C   UNL     1      56.901  44.708  15.834  1.00  0.00     0.041 C 
ATOM      9  O   UNL     1      57.978  44.196  16.239  1.00  0.00    -0.550 OA
ATOM     10  O   UNL     1      55.922  43.893  15.279  1.00  0.00    -0.550 OA
ENDBRANCH   7   8
ENDBRANCH   6   7
ENDBRANCH   5   6
ENDBRANCH   4   5
ENDBRANCH   3   4
ENDBRANCH   2   3
ENDBRANCH   1   2
BRANCH   1  11
ATOM     11  C   UNL     1      52.630  49.756  15.993  1.00  0.00     0.000 C 
BRANCH  11  12
ATOM     12  C   UNL     1      52.507  51.085  15.225  1.00  0.00    -0.000 C 
BRANCH  12  13
ATOM     13  C   UNL     1      51.533  51.004  14.037  1.00  0.00    -0.000 C 
BRANCH  13  14
ATOM     14  C   UNL     1      52.251  51.079  12.681  1.00  0.00    -0.000 C 
BRANCH  14  15
ATOM     15  C   UNL     1      52.248  49.731  11.937  1.00  0.00    -0.000 C 
BRANCH  15  16
ATOM     16  C   UNL     1      51.302  48.705  12.578  1.00  0.00    -0.000 C 
BRANCH  16  17
ATOM     17  C   UNL     1      51.992  47.362  12.859  1.00  0.00    -0.003 C 
ATOM     18  C   UNL     1      51.318  46.630  14.016  1.00  0.00     0.004 C 
ENDBRANCH  16  17
ENDBRANCH  15  16
ENDBRANCH  14  15
ENDBRANCH  13  14
ENDBRANCH  12  13
ENDBRANCH  11  12
ENDBRANCH   1  11
TORSDOF 14
ENDMDL
