MODEL 1
REMARK VINA RESULT:    -5.166      0.000      0.000
REMARK INTER + INTRA:         -12.371
REMARK INTER:                  -9.696
REMARK INTRA:                  -2.675
REMARK UNBOUND:                -2.675
REMARK SMILES CCCCCCCCC=CCCCCCCCC(=O)[O-]
REMARK SMILES IDX 10 1 9 2 11 3 12 4 13 5 14 6 15 7 16 8 17 9 18 10 19 11
REMARK SMILES IDX 20 12 8 13 7 14 6 15 5 16 4 17 3 18 2 19 1 20
REMARK H PARENT
REMARK Flexibility Score: inf
ROOT
ATOM      1  C   UNL     1      60.593  59.805  33.276  1.00  0.00    -0.031 C 
ATOM      2  C   UNL     1      59.474  60.424  33.700  1.00  0.00    -0.031 C 
ENDROOT
BRANCH   1   3
ATOM      3  C   UNL     1      61.553  59.044  34.156  1.00  0.00     0.027 C 
BRANCH   3   4
ATOM      4  C   UNL     1      63.010  59.377  33.814  1.00  0.00     0.004 C 
BRANCH   4   5
ATOM      5  C   UNL     1      63.695  60.112  34.970  1.00  0.00     0.000 C 
BRANCH   5   6
ATOM      6  C   UNL     1      62.670  60.528  36.034  1.00  0.00     0.000 C 
BRANCH   6   7
ATOM      7  C   UNL     1      62.504  62.055  36.144  1.00  0.00     0.000 C 
BRANCH   7   8
ATOM      8  C   UNL     1      63.507  62.880  35.318  1.00  0.00     0.006 C 
BRANCH   8   9
ATOM      9  C   UNL     1      62.887  64.148  34.718  1.00  0.00     0.053 C 
BRANCH   9  10
ATOM     10  C   UNL     1      62.674  63.978  33.247  1.00  0.00     0.041 C 
ATOM     11  O   UNL     1      62.718  64.975  32.480  1.00  0.00    -0.550 OA
ATOM     12  O   UNL     1      62.474  62.711  32.717  1.00  0.00    -0.550 OA
ENDBRANCH   9  10
ENDBRANCH   8   9
ENDBRANCH   7   8
ENDBRANCH   6   7
ENDBRANCH   5   6
ENDBRANCH   4   5
ENDBRANCH   3   4
ENDBRANCH   1   3
BRANCH   2  13
ATOM     13  C   UNL     1      58.996  60.480  35.130  1.00  0.00     0.027 C 
BRANCH  13  14
ATOM     14  C   UNL     1      57.490  60.204  35.195  1.00  0.00     0.004 C 
BRANCH  14  15
ATOM     15  C   UNL     1      56.727  61.067  34.180  1.00  0.00     0.000 C 
BRANCH  15  16
ATOM     16  C   UNL     1      56.007  62.257  34.833  1.00  0.00     0.000 C 
BRANCH  16  17
ATOM     17  C   UNL     1      56.480  63.612  34.287  1.00  0.00    -0.000 C 
BRANCH  17  18
ATOM     18  C   UNL     1      57.383  63.421  33.058  1.00  0.00    -0.000 C 
BRANCH  18  19
ATOM     19  C   UNL     1      58.765  64.068  33.230  1.00  0.00    -0.003 C 
ATOM     20  C   UNL     1      59.190  64.188  34.693  1.00  0.00     0.004 C 
ENDBRANCH  18  19
ENDBRANCH  17  18
ENDBRANCH  16  17
ENDBRANCH  15  16
ENDBRANCH  14  15
ENDBRANCH  13  14
ENDBRANCH   2  13
TORSDOF 15
ENDMDL
MODEL 2
REMARK VINA RESULT:    -5.062      1.495      3.447
REMARK INTER + INTRA:         -12.176
REMARK INTER:                  -9.194
REMARK INTRA:                  -2.982
REMARK UNBOUND:                -2.675
REMARK SMILES CCCCCCCCC=CCCCCCCCC(=O)[O-]
REMARK SMILES IDX 10 1 9 2 11 3 12 4 13 5 14 6 15 7 16 8 17 9 18 10 19 11
REMARK SMILES IDX 20 12 8 13 7 14 6 15 5 16 4 17 3 18 2 19 1 20
REMARK H PARENT
REMARK Flexibility Score: inf
ROOT
ATOM      1  C   UNL     1      60.943  62.848  34.868  1.00  0.00    -0.031 C 
ATOM      2  C   UNL     1      59.850  63.636  34.868  1.00  0.00    -0.031 C 
ENDROOT
BRANCH   1   3
ATOM      3  C   UNL     1      61.826  62.584  36.061  1.00  0.00     0.027 C 
BRANCH   3   4
ATOM      4  C   UNL     1      61.354  61.356  36.848  1.00  0.00     0.004 C 
BRANCH   4   5
ATOM      5  C   UNL     1      62.143  60.106  36.447  1.00  0.00     0.000 C 
BRANCH   5   6
ATOM      6  C   UNL     1      61.250  59.120  35.680  1.00  0.00     0.000 C 
BRANCH   6   7
ATOM      7  C   UNL     1      61.827  58.728  34.309  1.00  0.00     0.000 C 
BRANCH   7   8
ATOM      8  C   UNL     1      62.984  59.613  33.811  1.00  0.00     0.006 C 
BRANCH   8   9
ATOM      9  C   UNL     1      62.597  60.482  32.608  1.00  0.00     0.053 C 
BRANCH   9  10
ATOM     10  C   UNL     1      63.680  61.469  32.308  1.00  0.00     0.041 C 
ATOM     11  O   UNL     1      64.872  61.086  32.183  1.00  0.00    -0.550 OA
ATOM     12  O   UNL     1      63.365  62.808  32.118  1.00  0.00    -0.550 OA
ENDBRANCH   9  10
ENDBRANCH   8   9
ENDBRANCH   7   8
ENDBRANCH   6   7
ENDBRANCH   5   6
ENDBRANCH   4   5
ENDBRANCH   3   4
ENDBRANCH   1   3
BRANCH   2  13
ATOM     13  C   UNL     1      59.329  64.404  36.057  1.00  0.00     0.027 C 
BRANCH  13  14
ATOM     14  C   UNL     1      57.904  63.953  36.396  1.00  0.00     0.004 C 
BRANCH  14  15
ATOM     15  C   UNL     1      57.067  63.768  35.122  1.00  0.00     0.000 C 
BRANCH  15  16
ATOM     16  C   UNL     1      56.313  62.430  35.096  1.00  0.00     0.000 C 
BRANCH  16  17
ATOM     17  C   UNL     1      56.906  61.394  36.062  1.00  0.00    -0.000 C 
BRANCH  17  18
ATOM     18  C   UNL     1      57.889  60.466  35.333  1.00  0.00    -0.000 C 
BRANCH  18  19
ATOM     19  C   UNL     1      57.529  60.262  33.854  1.00  0.00    -0.003 C 
ATOM     20  C   UNL     1      58.747  60.308  32.931  1.00  0.00     0.004 C 
ENDBRANCH  18  19
ENDBRANCH  17  18
ENDBRANCH  16  17
ENDBRANCH  15  16
ENDBRANCH  14  15
ENDBRANCH  13  14
ENDBRANCH   2  13
TORSDOF 15
ENDMDL
MODEL 3
REMARK VINA RESULT:    -5.041      1.362      2.036
REMARK INTER + INTRA:         -12.137
REMARK INTER:                  -9.088
REMARK INTRA:                  -3.049
REMARK UNBOUND:                -2.675
REMARK SMILES CCCCCCCCC=CCCCCCCCC(=O)[O-]
REMARK SMILES IDX 10 1 9 2 11 3 12 4 13 5 14 6 15 7 16 8 17 9 18 10 19 11
REMARK SMILES IDX 20 12 8 13 7 14 6 15 5 16 4 17 3 18 2 19 1 20
REMARK H PARENT
REMARK Flexibility Score: inf
ROOT
ATOM      1  C   UNL     1      58.754  60.140  33.011  1.00  0.00    -0.031 C 
ATOM      2  C   UNL     1      57.634  60.130  33.759  1.00  0.00    -0.031 C 
ENDROOT
BRANCH   1   3
ATOM      3  C   UNL     1      60.134  60.485  33.514  1.00  0.00     0.027 C 
BRANCH   3   4
ATOM      4  C   UNL     1      60.914  59.229  33.919  1.00  0.00     0.004 C 
BRANCH   4   5
ATOM      5  C   UNL     1      61.256  59.248  35.412  1.00  0.00     0.000 C 
BRANCH   5   6
ATOM      6  C   UNL     1      61.036  60.648  36.003  1.00  0.00     0.000 C 
BRANCH   6   7
ATOM      7  C   UNL     1      62.340  61.308  36.486  1.00  0.00     0.000 C 
BRANCH   7   8
ATOM      8  C   UNL     1      62.953  62.328  35.510  1.00  0.00     0.006 C 
BRANCH   8   9
ATOM      9  C   UNL     1      64.165  61.774  34.749  1.00  0.00     0.053 C 
BRANCH   9  10
ATOM     10  C   UNL     1      63.784  61.425  33.345  1.00  0.00     0.041 C 
ATOM     11  O   UNL     1      63.223  62.278  32.608  1.00  0.00    -0.550 OA
ATOM     12  O   UNL     1      64.093  60.171  32.834  1.00  0.00    -0.550 OA
ENDBRANCH   9  10
ENDBRANCH   8   9
ENDBRANCH   7   8
ENDBRANCH   6   7
ENDBRANCH   5   6
ENDBRANCH   4   5
ENDBRANCH   3   4
ENDBRANCH   1   3
BRANCH   2  13
ATOM     13  C   UNL     1      57.559  60.478  35.224  1.00  0.00     0.027 C 
BRANCH  13  14
ATOM     14  C   UNL     1      56.465  61.523  35.466  1.00  0.00     0.004 C 
BRANCH  14  15
ATOM     15  C   UNL     1      56.148  62.297  34.178  1.00  0.00     0.000 C 
BRANCH  15  16
ATOM     16  C   UNL     1      56.835  63.670  34.127  1.00  0.00     0.000 C 
BRANCH  16  17
ATOM     17  C   UNL     1      57.870  63.777  32.997  1.00  0.00    -0.000 C 
BRANCH  17  18
ATOM     18  C   UNL     1      59.274  64.034  33.565  1.00  0.00    -0.000 C 
BRANCH  18  19
ATOM     19  C   UNL     1      59.347  63.831  35.086  1.00  0.00    -0.003 C 
ATOM     20  C   UNL     1      60.224  64.870  35.784  1.00  0.00     0.004 C 
ENDBRANCH  18  19
ENDBRANCH  17  18
ENDBRANCH  16  17
ENDBRANCH  15  16
ENDBRANCH  14  15
ENDBRANCH  13  14
ENDBRANCH   2  13
TORSDOF 15
ENDMDL
MODEL 4
REMARK VINA RESULT:    -5.036      2.539      5.558
REMARK INTER + INTRA:         -12.128
REMARK INTER:                  -9.748
REMARK INTRA:                  -2.380
REMARK UNBOUND:                -2.675
REMARK SMILES CCCCCCCCC=CCCCCCCCC(=O)[O-]
REMARK SMILES IDX 10 1 9 2 11 3 12 4 13 5 14 6 15 7 16 8 17 9 18 10 19 11
REMARK SMILES IDX 20 12 8 13 7 14 6 15 5 16 4 17 3 18 2 19 1 20
REMARK H PARENT
REMARK Flexibility Score: inf
ROOT
ATOM      1  C   UNL     1      61.575  64.283  35.002  1.00  0.00    -0.031 C 
ATOM      2  C   UNL     1      62.863  63.920  34.843  1.00  0.00    -0.031 C 
ENDROOT
BRANCH   1   3
ATOM      3  C   UNL     1      60.582  63.597  35.906  1.00  0.00     0.027 C 
BRANCH   3   4
ATOM      4  C   UNL     1      59.563  64.591  36.476  1.00  0.00     0.004 C 
BRANCH   4   5
ATOM      5  C   UNL     1      59.834  66.011  35.969  1.00  0.00     0.000 C 
BRANCH   5   6
ATOM      6  C   UNL     1      59.777  67.022  37.123  1.00  0.00     0.000 C 
BRANCH   6   7
ATOM      7  C   UNL     1      60.966  68.000  37.125  1.00  0.00     0.000 C 
BRANCH   7   8
ATOM      8  C   UNL     1      61.565  68.298  35.739  1.00  0.00     0.006 C 
BRANCH   8   9
ATOM      9  C   UNL     1      62.982  67.738  35.566  1.00  0.00     0.053 C 
BRANCH   9  10
ATOM     10  C   UNL     1      63.353  67.694  34.118  1.00  0.00     0.041 C 
ATOM     11  O   UNL     1      62.539  67.251  33.267  1.00  0.00    -0.550 OA
ATOM     12  O   UNL     1      64.582  68.188  33.701  1.00  0.00    -0.550 OA
ENDBRANCH   9  10
ENDBRANCH   8   9
ENDBRANCH   7   8
ENDBRANCH   6   7
ENDBRANCH   5   6
ENDBRANCH   4   5
ENDBRANCH   3   4
ENDBRANCH   1   3
BRANCH   2  13
ATOM     13  C   UNL     1      63.531  62.754  35.528  1.00  0.00     0.027 C 
BRANCH  13  14
ATOM     14  C   UNL     1      63.962  61.709  34.494  1.00  0.00     0.004 C 
BRANCH  14  15
ATOM     15  C   UNL     1      63.624  60.289  34.971  1.00  0.00     0.000 C 
BRANCH  15  16
ATOM     16  C   UNL     1      62.455  60.260  35.967  1.00  0.00     0.000 C 
BRANCH  16  17
ATOM     17  C   UNL     1      61.287  59.384  35.491  1.00  0.00    -0.000 C 
BRANCH  17  18
ATOM     18  C   UNL     1      60.139  60.250  34.950  1.00  0.00    -0.000 C 
BRANCH  18  19
ATOM     19  C   UNL     1      60.350  60.671  33.488  1.00  0.00    -0.003 C 
ATOM     20  C   UNL     1      59.244  61.590  32.966  1.00  0.00     0.004 C 
ENDBRANCH  18  19
ENDBRANCH  17  18
ENDBRANCH  16  17
ENDBRANCH  15  16
ENDBRANCH  14  15
ENDBRANCH  13  14
ENDBRANCH   2  13
TORSDOF 15
ENDMDL
MODEL 5
REMARK VINA RESULT:    -5.023      1.526      2.179
REMARK INTER + INTRA:         -12.103
REMARK INTER:                  -9.159
REMARK INTRA:                  -2.944
REMARK UNBOUND:                -2.675
REMARK SMILES CCCCCCCCC=CCCCCCCCC(=O)[O-]
REMARK SMILES IDX 10 1 9 2 11 3 12 4 13 5 14 6 15 7 16 8 17 9 18 10 19 11
REMARK SMILES IDX 20 12 8 13 7 14 6 15 5 16 4 17 3 18 2 19 1 20
REMARK H PARENT
REMARK Flexibility Score: inf
ROOT
ATOM      1  C   UNL     1      62.135  60.625  32.839  1.00  0.00    -0.031 C 
ATOM      2  C   UNL     1      60.794  60.746  32.790  1.00  0.00    -0.031 C 
ENDROOT
BRANCH   1   3
ATOM      3  C   UNL     1      62.886  59.565  33.605  1.00  0.00     0.027 C 
BRANCH   3   4
ATOM      4  C   UNL     1      63.648  60.164  34.793  1.00  0.00     0.004 C 
BRANCH   4   5
ATOM      5  C   UNL     1      62.742  60.294  36.021  1.00  0.00     0.000 C 
BRANCH   5   6
ATOM      6  C   UNL     1      62.535  61.769  36.392  1.00  0.00     0.000 C 
BRANCH   6   7
ATOM      7  C   UNL     1      63.447  62.722  35.599  1.00  0.00     0.000 C 
BRANCH   7   8
ATOM      8  C   UNL     1      62.712  63.815  34.802  1.00  0.00     0.006 C 
BRANCH   8   9
ATOM      9  C   UNL     1      61.191  63.772  34.992  1.00  0.00     0.053 C 
BRANCH   9  10
ATOM     10  C   UNL     1      60.668  65.133  35.325  1.00  0.00     0.041 C 
ATOM     11  O   UNL     1      59.948  65.305  36.344  1.00  0.00    -0.550 OA
ATOM     12  O   UNL     1      61.016  66.223  34.538  1.00  0.00    -0.550 OA
ENDBRANCH   9  10
ENDBRANCH   8   9
ENDBRANCH   7   8
ENDBRANCH   6   7
ENDBRANCH   5   6
ENDBRANCH   4   5
ENDBRANCH   3   4
ENDBRANCH   1   3
BRANCH   2  13
ATOM     13  C   UNL     1      59.811  59.852  33.503  1.00  0.00     0.027 C 
BRANCH  13  14
ATOM     14  C   UNL     1      59.332  60.518  34.797  1.00  0.00     0.004 C 
BRANCH  14  15
ATOM     15  C   UNL     1      57.837  60.256  35.032  1.00  0.00     0.000 C 
BRANCH  15  16
ATOM     16  C   UNL     1      56.941  60.969  34.008  1.00  0.00     0.000 C 
BRANCH  16  17
ATOM     17  C   UNL     1      56.402  62.312  34.521  1.00  0.00    -0.000 C 
BRANCH  17  18
ATOM     18  C   UNL     1      57.304  63.471  34.069  1.00  0.00    -0.000 C 
BRANCH  18  19
ATOM     19  C   UNL     1      57.902  63.249  32.672  1.00  0.00    -0.003 C 
ATOM     20  C   UNL     1      58.728  64.437  32.180  1.00  0.00     0.004 C 
ENDBRANCH  18  19
ENDBRANCH  17  18
ENDBRANCH  16  17
ENDBRANCH  15  16
ENDBRANCH  14  15
ENDBRANCH  13  14
ENDBRANCH   2  13
TORSDOF 15
ENDMDL
MODEL 6
REMARK VINA RESULT:    -5.019      1.527      5.235
REMARK INTER + INTRA:         -12.096
REMARK INTER:                  -9.164
REMARK INTRA:                  -2.932
REMARK UNBOUND:                -2.675
REMARK SMILES CCCCCCCCC=CCCCCCCCC(=O)[O-]
REMARK SMILES IDX 10 1 9 2 11 3 12 4 13 5 14 6 15 7 16 8 17 9 18 10 19 11
REMARK SMILES IDX 20 12 8 13 7 14 6 15 5 16 4 17 3 18 2 19 1 20
REMARK H PARENT
REMARK Flexibility Score: inf
ROOT
ATOM      1  C   UNL     1      59.533  60.335  33.883  1.00  0.00    -0.031 C 
ATOM      2  C   UNL     1      60.658  59.752  33.425  1.00  0.00    -0.031 C 
ENDROOT
BRANCH   1   3
ATOM      3  C   UNL     1      59.036  60.270  35.305  1.00  0.00     0.027 C 
BRANCH   3   4
ATOM      4  C   UNL     1      57.504  60.305  35.366  1.00  0.00     0.004 C 
BRANCH   4   5
ATOM      5  C   UNL     1      56.910  60.781  34.036  1.00  0.00     0.000 C 
BRANCH   5   6
ATOM      6  C   UNL     1      56.081  62.058  34.236  1.00  0.00     0.000 C 
BRANCH   6   7
ATOM      7  C   UNL     1      56.538  63.219  33.336  1.00  0.00     0.000 C 
BRANCH   7   8
ATOM      8  C   UNL     1      57.957  63.745  33.622  1.00  0.00     0.006 C 
BRANCH   8   9
ATOM      9  C   UNL     1      58.860  63.735  32.382  1.00  0.00     0.053 C 
BRANCH   9  10
ATOM     10  C   UNL     1      59.264  65.129  32.020  1.00  0.00     0.041 C 
ATOM     11  O   UNL     1      58.869  65.645  30.942  1.00  0.00    -0.550 OA
ATOM     12  O   UNL     1      60.039  65.877  32.897  1.00  0.00    -0.550 OA
ENDBRANCH   9  10
ENDBRANCH   8   9
ENDBRANCH   7   8
ENDBRANCH   6   7
ENDBRANCH   5   6
ENDBRANCH   4   5
ENDBRANCH   3   4
ENDBRANCH   1   3
BRANCH   2  13
ATOM     13  C   UNL     1      61.607  58.919  34.250  1.00  0.00     0.027 C 
BRANCH  13  14
ATOM     14  C   UNL     1      63.021  59.504  34.183  1.00  0.00     0.004 C 
BRANCH  14  15
ATOM     15  C   UNL     1      63.270  60.194  32.833  1.00  0.00     0.000 C 
BRANCH  15  16
ATOM     16  C   UNL     1      63.899  61.586  32.985  1.00  0.00     0.000 C 
BRANCH  16  17
ATOM     17  C   UNL     1      63.500  62.282  34.295  1.00  0.00    -0.000 C 
BRANCH  17  18
ATOM     18  C   UNL     1      62.175  63.040  34.129  1.00  0.00    -0.000 C 
BRANCH  18  19
ATOM     19  C   UNL     1      61.397  63.172  35.447  1.00  0.00    -0.003 C 
ATOM     20  C   UNL     1      61.865  62.187  36.518  1.00  0.00     0.004 C 
ENDBRANCH  18  19
ENDBRANCH  17  18
ENDBRANCH  16  17
ENDBRANCH  15  16
ENDBRANCH  14  15
ENDBRANCH  13  14
ENDBRANCH   2  13
TORSDOF 15
ENDMDL
MODEL 7
REMARK VINA RESULT:    -5.004      2.916      5.666
REMARK INTER + INTRA:         -12.067
REMARK INTER:                  -9.538
REMARK INTRA:                  -2.529
REMARK UNBOUND:                -2.675
REMARK SMILES CCCCCCCCC=CCCCCCCCC(=O)[O-]
REMARK SMILES IDX 10 1 9 2 11 3 12 4 13 5 14 6 15 7 16 8 17 9 18 10 19 11
REMARK SMILES IDX 20 12 8 13 7 14 6 15 5 16 4 17 3 18 2 19 1 20
REMARK H PARENT
REMARK Flexibility Score: inf
ROOT
ATOM      1  C   UNL     1      62.070  64.175  34.235  1.00  0.00    -0.031 C 
ATOM      2  C   UNL     1      61.027  65.012  34.398  1.00  0.00    -0.031 C 
ENDROOT
BRANCH   1   3
ATOM      3  C   UNL     1      63.278  64.103  35.135  1.00  0.00     0.027 C 
BRANCH   3   4
ATOM      4  C   UNL     1      63.598  62.656  35.530  1.00  0.00     0.004 C 
BRANCH   4   5
ATOM      5  C   UNL     1      62.526  62.089  36.465  1.00  0.00     0.000 C 
BRANCH   5   6
ATOM      6  C   UNL     1      62.394  60.570  36.286  1.00  0.00     0.000 C 
BRANCH   6   7
ATOM      7  C   UNL     1      61.525  60.180  35.077  1.00  0.00     0.000 C 
BRANCH   7   8
ATOM      8  C   UNL     1      62.182  59.194  34.094  1.00  0.00     0.006 C 
BRANCH   8   9
ATOM      9  C   UNL     1      63.642  59.543  33.783  1.00  0.00     0.053 C 
BRANCH   9  10
ATOM     10  C   UNL     1      63.718  60.477  32.616  1.00  0.00     0.041 C 
ATOM     11  O   UNL     1      64.808  61.029  32.314  1.00  0.00    -0.550 OA
ATOM     12  O   UNL     1      62.593  60.701  31.833  1.00  0.00    -0.550 OA
ENDBRANCH   9  10
ENDBRANCH   8   9
ENDBRANCH   7   8
ENDBRANCH   6   7
ENDBRANCH   5   6
ENDBRANCH   4   5
ENDBRANCH   3   4
ENDBRANCH   1   3
BRANCH   2  13
ATOM     13  C   UNL     1      60.893  66.034  35.499  1.00  0.00     0.027 C 
BRANCH  13  14
ATOM     14  C   UNL     1      60.573  67.410  34.908  1.00  0.00     0.004 C 
BRANCH  14  15
ATOM     15  C   UNL     1      61.686  68.420  35.228  1.00  0.00     0.000 C 
BRANCH  15  16
ATOM     16  C   UNL     1      62.863  67.787  35.984  1.00  0.00     0.000 C 
BRANCH  16  17
ATOM     17  C   UNL     1      64.143  67.712  35.139  1.00  0.00    -0.000 C 
BRANCH  17  18
ATOM     18  C   UNL     1      63.861  68.111  33.683  1.00  0.00    -0.000 C 
BRANCH  18  19
ATOM     19  C   UNL     1      64.012  66.937  32.704  1.00  0.00    -0.003 C 
ATOM     20  C   UNL     1      62.869  66.853  31.692  1.00  0.00     0.004 C 
ENDBRANCH  18  19
ENDBRANCH  17  18
ENDBRANCH  16  17
ENDBRANCH  15  16
ENDBRANCH  14  15
ENDBRANCH  13  14
ENDBRANCH   2  13
TORSDOF 15
ENDMDL
MODEL 8
REMARK VINA RESULT:    -4.956      3.166      6.209
REMARK INTER + INTRA:         -11.978
REMARK INTER:                  -9.645
REMARK INTRA:                  -2.333
REMARK UNBOUND:                -2.675
REMARK SMILES CCCCCCCCC=CCCCCCCCC(=O)[O-]
REMARK SMILES IDX 10 1 9 2 11 3 12 4 13 5 14 6 15 7 16 8 17 9 18 10 19 11
REMARK SMILES IDX 20 12 8 13 7 14 6 15 5 16 4 17 3 18 2 19 1 20
REMARK H PARENT
REMARK Flexibility Score: inf
ROOT
ATOM      1  C   UNL     1      60.689  64.566  34.370  1.00  0.00    -0.031 C 
ATOM      2  C   UNL     1      61.884  64.011  34.087  1.00  0.00    -0.031 C 
ENDROOT
BRANCH   1   3
ATOM      3  C   UNL     1      60.418  65.515  35.511  1.00  0.00     0.027 C 
BRANCH   3   4
ATOM      4  C   UNL     1      60.626  66.974  35.088  1.00  0.00     0.004 C 
BRANCH   4   5
ATOM      5  C   UNL     1      61.824  67.594  35.814  1.00  0.00     0.000 C 
BRANCH   5   6
ATOM      6  C   UNL     1      62.932  67.964  34.818  1.00  0.00     0.000 C 
BRANCH   6   7
ATOM      7  C   UNL     1      62.488  67.836  33.349  1.00  0.00     0.000 C 
BRANCH   7   8
ATOM      8  C   UNL     1      63.572  68.174  32.309  1.00  0.00     0.006 C 
BRANCH   8   9
ATOM      9  C   UNL     1      64.379  66.947  31.867  1.00  0.00     0.053 C 
BRANCH   9  10
ATOM     10  C   UNL     1      64.383  66.835  30.376  1.00  0.00     0.041 C 
ATOM     11  O   UNL     1      63.752  67.668  29.674  1.00  0.00    -0.550 OA
ATOM     12  O   UNL     1      65.123  65.837  29.757  1.00  0.00    -0.550 OA
ENDBRANCH   9  10
ENDBRANCH   8   9
ENDBRANCH   7   8
ENDBRANCH   6   7
ENDBRANCH   5   6
ENDBRANCH   4   5
ENDBRANCH   3   4
ENDBRANCH   1   3
BRANCH   2  13
ATOM     13  C   UNL     1      63.154  64.229  34.870  1.00  0.00     0.027 C 
BRANCH  13  14
ATOM     14  C   UNL     1      63.678  62.894  35.411  1.00  0.00     0.004 C 
BRANCH  14  15
ATOM     15  C   UNL     1      62.560  62.105  36.109  1.00  0.00     0.000 C 
BRANCH  15  16
ATOM     16  C   UNL     1      62.654  60.593  35.857  1.00  0.00     0.000 C 
BRANCH  16  17
ATOM     17  C   UNL     1      63.730  60.227  34.824  1.00  0.00    -0.000 C 
BRANCH  17  18
ATOM     18  C   UNL     1      63.094  59.617  33.565  1.00  0.00    -0.000 C 
BRANCH  18  19
ATOM     19  C   UNL     1      62.842  60.657  32.463  1.00  0.00    -0.003 C 
ATOM     20  C   UNL     1      64.116  61.378  32.021  1.00  0.00     0.004 C 
ENDBRANCH  18  19
ENDBRANCH  17  18
ENDBRANCH  16  17
ENDBRANCH  15  16
ENDBRANCH  14  15
ENDBRANCH  13  14
ENDBRANCH   2  13
TORSDOF 15
ENDMDL
MODEL 9
REMARK VINA RESULT:    -4.947      1.631      4.973
REMARK INTER + INTRA:         -11.960
REMARK INTER:                  -9.005
REMARK INTRA:                  -2.956
REMARK UNBOUND:                -2.675
REMARK SMILES CCCCCCCCC=CCCCCCCCC(=O)[O-]
REMARK SMILES IDX 10 1 9 2 11 3 12 4 13 5 14 6 15 7 16 8 17 9 18 10 19 11
REMARK SMILES IDX 20 12 8 13 7 14 6 15 5 16 4 17 3 18 2 19 1 20
REMARK H PARENT
REMARK Flexibility Score: inf
ROOT
ATOM      1  C   UNL     1      58.477  60.222  32.992  1.00  0.00    -0.031 C 
ATOM      2  C   UNL     1      59.739  60.247  33.462  1.00  0.00    -0.031 C 
ENDROOT
BRANCH   1   3
ATOM      3  C   UNL     1      57.231  60.240  33.842  1.00  0.00     0.027 C 
BRANCH   3   4
ATOM      4  C   UNL     1      56.620  61.644  33.912  1.00  0.00     0.004 C 
BRANCH   4   5
ATOM      5  C   UNL     1      56.898  62.300  35.268  1.00  0.00     0.000 C 
BRANCH   5   6
ATOM      6  C   UNL     1      57.513  63.695  35.083  1.00  0.00     0.000 C 
BRANCH   6   7
ATOM      7  C   UNL     1      58.445  63.784  33.861  1.00  0.00     0.000 C 
BRANCH   7   8
ATOM      8  C   UNL     1      59.941  63.923  34.192  1.00  0.00     0.006 C 
BRANCH   8   9
ATOM      9  C   UNL     1      60.197  64.671  35.506  1.00  0.00     0.053 C 
BRANCH   9  10
ATOM     10  C   UNL     1      61.093  65.846  35.272  1.00  0.00     0.041 C 
ATOM     11  O   UNL     1      61.007  66.865  36.005  1.00  0.00    -0.550 OA
ATOM     12  O   UNL     1      62.057  65.795  34.274  1.00  0.00    -0.550 OA
ENDBRANCH   9  10
ENDBRANCH   8   9
ENDBRANCH   7   8
ENDBRANCH   6   7
ENDBRANCH   5   6
ENDBRANCH   4   5
ENDBRANCH   3   4
ENDBRANCH   1   3
BRANCH   2  13
ATOM     13  C   UNL     1      60.128  60.280  34.918  1.00  0.00     0.027 C 
BRANCH  13  14
ATOM     14  C   UNL     1      61.320  59.350  35.170  1.00  0.00     0.004 C 
BRANCH  14  15
ATOM     15  C   UNL     1      62.397  60.050  36.012  1.00  0.00     0.000 C 
BRANCH  15  16
ATOM     16  C   UNL     1      62.113  61.546  36.215  1.00  0.00     0.000 C 
BRANCH  16  17
ATOM     17  C   UNL     1      63.278  62.440  35.764  1.00  0.00    -0.000 C 
BRANCH  17  18
ATOM     18  C   UNL     1      63.966  61.855  34.522  1.00  0.00    -0.000 C 
BRANCH  18  19
ATOM     19  C   UNL     1      63.235  62.204  33.217  1.00  0.00    -0.003 C 
ATOM     20  C   UNL     1      63.160  61.028  32.243  1.00  0.00     0.004 C 
ENDBRANCH  18  19
ENDBRANCH  17  18
ENDBRANCH  16  17
ENDBRANCH  15  16
ENDBRANCH  14  15
ENDBRANCH  13  14
ENDBRANCH   2  13
TORSDOF 15
ENDMDL
