MODEL 1
REMARK VINA RESULT:    -3.328      0.000      0.000
REMARK INTER + INTRA:          -3.726
REMARK INTER:                  -3.718
REMARK INTRA:                  -0.009
REMARK UNBOUND:                -0.009
REMARK SMILES CCCC(=O)[O-]
REMARK SMILES IDX 3 1 4 2 5 3 6 4 2 5 1 6
REMARK H PARENT
REMARK Flexibility Score: inf
ROOT
ATOM      1  C   UNL     1      33.544  51.956  58.129  1.00  0.00     0.052 C 
ENDROOT
BRANCH   1   2
ATOM      2  C   UNL     1      34.994  51.583  58.090  1.00  0.00     0.041 C 
ATOM      3  O   UNL     1      35.355  50.491  57.578  1.00  0.00    -0.550 OA
ATOM      4  O   UNL     1      35.946  52.428  58.648  1.00  0.00    -0.550 OA
ENDBRANCH   1   2
BRANCH   1   5
ATOM      5  C   UNL     1      32.646  50.727  58.313  1.00  0.00     0.003 C 
ATOM      6  C   UNL     1      31.360  51.053  59.070  1.00  0.00     0.004 C 
ENDBRANCH   1   5
TORSDOF 2
ENDMDL
MODEL 2
REMARK VINA RESULT:    -3.278      6.440      7.952
REMARK INTER + INTRA:          -3.670
REMARK INTER:                  -3.638
REMARK INTRA:                  -0.033
REMARK UNBOUND:                -0.009
REMARK SMILES CCCC(=O)[O-]
REMARK SMILES IDX 3 1 4 2 5 3 6 4 2 5 1 6
REMARK H PARENT
REMARK Flexibility Score: inf
ROOT
ATOM      1  C   UNL     1      40.306  53.973  60.957  1.00  0.00     0.052 C 
ENDROOT
BRANCH   1   2
ATOM      2  C   UNL     1      39.038  54.692  60.611  1.00  0.00     0.041 C 
ATOM      3  O   UNL     1      38.031  54.047  60.215  1.00  0.00    -0.550 OA
ATOM      4  O   UNL     1      38.978  56.077  60.694  1.00  0.00    -0.550 OA
ENDBRANCH   1   2
BRANCH   1   5
ATOM      5  C   UNL     1      41.409  54.239  59.926  1.00  0.00     0.003 C 
ATOM      6  C   UNL     1      42.617  54.948  60.536  1.00  0.00     0.004 C 
ENDBRANCH   1   5
TORSDOF 2
ENDMDL
MODEL 3
REMARK VINA RESULT:    -3.267      8.004      8.580
REMARK INTER + INTRA:          -3.658
REMARK INTER:                  -3.604
REMARK INTRA:                  -0.053
REMARK UNBOUND:                -0.009
REMARK SMILES CCCC(=O)[O-]
REMARK SMILES IDX 3 1 4 2 5 3 6 4 2 5 1 6
REMARK H PARENT
REMARK Flexibility Score: inf
ROOT
ATOM      1  C   UNL     1      33.020  57.676  63.316  1.00  0.00     0.052 C 
ENDROOT
BRANCH   1   2
ATOM      2  C   UNL     1      33.702  58.763  62.544  1.00  0.00     0.041 C 
ATOM      3  O   UNL     1      33.930  59.878  63.084  1.00  0.00    -0.550 OA
ATOM      4  O   UNL     1      34.056  58.557  61.216  1.00  0.00    -0.550 OA
ENDBRANCH   1   2
BRANCH   1   5
ATOM      5  C   UNL     1      31.570  58.044  63.656  1.00  0.00     0.003 C 
ATOM      6  C   UNL     1      30.611  57.758  62.501  1.00  0.00     0.004 C 
ENDBRANCH   1   5
TORSDOF 2
ENDMDL
MODEL 4
REMARK VINA RESULT:    -3.256      7.433      8.885
REMARK INTER + INTRA:          -3.645
REMARK INTER:                  -3.624
REMARK INTRA:                  -0.022
REMARK UNBOUND:                -0.009
REMARK SMILES CCCC(=O)[O-]
REMARK SMILES IDX 3 1 4 2 5 3 6 4 2 5 1 6
REMARK H PARENT
REMARK Flexibility Score: inf
ROOT
ATOM      1  C   UNL     1      41.468  54.233  59.866  1.00  0.00     0.052 C 
ENDROOT
BRANCH   1   2
ATOM      2  C   UNL     1      40.190  54.308  60.643  1.00  0.00     0.041 C 
ATOM      3  O   UNL     1      39.367  55.235  60.424  1.00  0.00    -0.550 OA
ATOM      4  O   UNL     1      39.922  53.371  61.635  1.00  0.00    -0.550 OA
ENDBRANCH   1   2
BRANCH   1   5
ATOM      5  C   UNL     1      42.636  54.865  60.632  1.00  0.00     0.003 C 
ATOM      6  C   UNL     1      43.256  56.042  59.880  1.00  0.00     0.004 C 
ENDBRANCH   1   5
TORSDOF 2
ENDMDL
MODEL 5
REMARK VINA RESULT:    -3.229      5.598      6.293
REMARK INTER + INTRA:          -3.615
REMARK INTER:                  -3.601
REMARK INTRA:                  -0.014
REMARK UNBOUND:                -0.009
REMARK SMILES CCCC(=O)[O-]
REMARK SMILES IDX 3 1 4 2 5 3 6 4 2 5 1 6
REMARK H PARENT
REMARK Flexibility Score: inf
ROOT
ATOM      1  C   UNL     1      37.929  54.410  60.247  1.00  0.00     0.052 C 
ENDROOT
BRANCH   1   2
ATOM      2  C   UNL     1      39.344  54.573  60.708  1.00  0.00     0.041 C 
ATOM      3  O   UNL     1      40.000  55.600  60.393  1.00  0.00    -0.550 OA
ATOM      4  O   UNL     1      39.952  53.573  61.458  1.00  0.00    -0.550 OA
ENDBRANCH   1   2
BRANCH   1   5
ATOM      5  C   UNL     1      37.305  55.752  59.843  1.00  0.00     0.003 C 
ATOM      6  C   UNL     1      36.106  55.580  58.912  1.00  0.00     0.004 C 
ENDBRANCH   1   5
TORSDOF 2
ENDMDL
MODEL 6
REMARK VINA RESULT:    -3.176      4.947      6.583
REMARK INTER + INTRA:          -3.556
REMARK INTER:                  -3.539
REMARK INTRA:                  -0.017
REMARK UNBOUND:                -0.009
REMARK SMILES CCCC(=O)[O-]
REMARK SMILES IDX 3 1 4 2 5 3 6 4 2 5 1 6
REMARK H PARENT
REMARK Flexibility Score: inf
ROOT
ATOM      1  C   UNL     1      38.682  54.620  60.652  1.00  0.00     0.052 C 
ENDROOT
BRANCH   1   2
ATOM      2  C   UNL     1      37.524  53.689  60.468  1.00  0.00     0.041 C 
ATOM      3  O   UNL     1      37.464  52.613  61.119  1.00  0.00    -0.550 OA
ATOM      4  O   UNL     1      36.525  53.993  59.551  1.00  0.00    -0.550 OA
ENDBRANCH   1   2
BRANCH   1   5
ATOM      5  C   UNL     1      39.923  53.886  61.175  1.00  0.00     0.003 C 
ATOM      6  C   UNL     1      41.165  54.167  60.330  1.00  0.00     0.004 C 
ENDBRANCH   1   5
TORSDOF 2
ENDMDL
MODEL 7
REMARK VINA RESULT:    -3.175      4.774      6.210
REMARK INTER + INTRA:          -3.555
REMARK INTER:                  -3.543
REMARK INTRA:                  -0.012
REMARK UNBOUND:                -0.009
REMARK SMILES CCCC(=O)[O-]
REMARK SMILES IDX 3 1 4 2 5 3 6 4 2 5 1 6
REMARK H PARENT
REMARK Flexibility Score: inf
ROOT
ATOM      1  C   UNL     1      37.186  55.858  59.778  1.00  0.00     0.052 C 
ENDROOT
BRANCH   1   2
ATOM      2  C   UNL     1      36.584  54.506  59.550  1.00  0.00     0.041 C 
ATOM      3  O   UNL     1      35.585  54.375  58.794  1.00  0.00    -0.550 OA
ATOM      4  O   UNL     1      37.105  53.393  60.199  1.00  0.00    -0.550 OA
ENDBRANCH   1   2
BRANCH   1   5
ATOM      5  C   UNL     1      38.449  55.779  60.644  1.00  0.00     0.003 C 
ATOM      6  C   UNL     1      39.450  56.886  60.316  1.00  0.00     0.004 C 
ENDBRANCH   1   5
TORSDOF 2
ENDMDL
MODEL 8
REMARK VINA RESULT:    -3.168      2.325      3.519
REMARK INTER + INTRA:          -3.547
REMARK INTER:                  -3.540
REMARK INTRA:                  -0.006
REMARK UNBOUND:                -0.009
REMARK SMILES CCCC(=O)[O-]
REMARK SMILES IDX 3 1 4 2 5 3 6 4 2 5 1 6
REMARK H PARENT
REMARK Flexibility Score: inf
ROOT
ATOM      1  C   UNL     1      34.860  53.357  58.098  1.00  0.00     0.052 C 
ENDROOT
BRANCH   1   2
ATOM      2  C   UNL     1      34.536  51.895  58.137  1.00  0.00     0.041 C 
ATOM      3  O   UNL     1      35.440  51.040  57.946  1.00  0.00    -0.550 OA
ATOM      4  O   UNL     1      33.229  51.476  58.353  1.00  0.00    -0.550 OA
ENDBRANCH   1   2
BRANCH   1   5
ATOM      5  C   UNL     1      35.973  53.719  59.088  1.00  0.00     0.003 C 
ATOM      6  C   UNL     1      36.200  55.227  59.183  1.00  0.00     0.004 C 
ENDBRANCH   1   5
TORSDOF 2
ENDMDL
MODEL 9
REMARK VINA RESULT:    -3.140      8.415      9.063
REMARK INTER + INTRA:          -3.516
REMARK INTER:                  -3.508
REMARK INTRA:                  -0.008
REMARK UNBOUND:                -0.009
REMARK SMILES CCCC(=O)[O-]
REMARK SMILES IDX 3 1 4 2 5 3 6 4 2 5 1 6
REMARK H PARENT
REMARK Flexibility Score: inf
ROOT
ATOM      1  C   UNL     1      33.322  57.542  63.369  1.00  0.00     0.052 C 
ENDROOT
BRANCH   1   2
ATOM      2  C   UNL     1      31.949  58.096  63.141  1.00  0.00     0.041 C 
ATOM      3  O   UNL     1      31.121  58.147  64.088  1.00  0.00    -0.550 OA
ATOM      4  O   UNL     1      31.573  58.525  61.875  1.00  0.00    -0.550 OA
ENDBRANCH   1   2
BRANCH   1   5
ATOM      5  C   UNL     1      34.380  58.291  62.550  1.00  0.00     0.003 C 
ATOM      6  C   UNL     1      35.653  58.560  63.350  1.00  0.00     0.004 C 
ENDBRANCH   1   5
TORSDOF 2
ENDMDL
