MODEL 1
REMARK VINA RESULT:    -4.124      0.000      0.000
REMARK INTER + INTRA:          -6.268
REMARK INTER:                  -6.293
REMARK INTRA:                   0.026
REMARK UNBOUND:                 0.026
REMARK SMILES CC1=CCC[C@H](C)C(=O)C[C@@H](C(C)C)C(=O)C1
REMARK SMILES IDX 8 1 9 2 6 3 7 4 5 5 4 6 3 7 2 8 1 9 10 11 11 12 15 13 16 14
REMARK SMILES IDX 17 15 12 17 13 18 14 19
REMARK H PARENT
REMARK Flexibility Score: 70.00
ROOT
ATOM      1  C   UNL     1      13.233  19.230  57.789  1.00  0.00     0.136 C 
ATOM      2  O   UNL     1      13.418  18.511  58.760  1.00  0.00    -0.299 OA
ENDROOT
BRANCH   1   3
ATOM      3  C   UNL     1      14.245  19.263  56.656  1.00  0.00     0.053 C 
ATOM      4  C   UNL     1      15.597  19.851  57.093  1.00  0.00     0.016 C 
BRANCH   3   5
ATOM      5  C   UNL     1      14.417  17.871  56.012  1.00  0.00     0.015 C 
BRANCH   5   6
ATOM      6  C   UNL     1      13.748  17.739  54.630  1.00  0.00     0.028 C 
BRANCH   6   7
ATOM      7  C   UNL     1      12.448  16.983  54.739  1.00  0.00    -0.028 C 
ATOM      8  C   UNL     1      11.222  17.558  54.771  1.00  0.00    -0.070 CG0
ATOM      9  C   UNL     1      10.017  16.652  54.816  1.00  0.00     0.039 C 
ATOM     10  G   UNL     1      11.014  19.065  54.783  1.00  0.00     0.000 G0
ENDBRANCH   6   7
ENDBRANCH   5   6
ENDBRANCH   3   5
ENDBRANCH   1   3
BRANCH   1  11
ATOM     11  C   UNL     1      11.984  20.078  57.736  1.00  0.00     0.087 C 
BRANCH  11  12
ATOM     12  C   UNL     1      10.725  19.243  57.386  1.00  0.00     0.066 C 
BRANCH  12  13
ATOM     13  C   UNL     1      10.234  19.541  55.975  1.00  0.00     0.140 C 
ATOM     14  O   UNL     1       9.178  20.136  55.811  1.00  0.00    -0.299 OA
BRANCH  13  15
ATOM     15  C   UNL     1      11.000  19.053  54.770  1.00  0.00     0.106 CG0
ATOM     16  G   UNL     1      11.219  17.547  54.791  1.00  0.00     0.000 G0
ENDBRANCH  13  15
ENDBRANCH  12  13
BRANCH  12  17
ATOM     17  C   UNL     1       9.602  19.402  58.457  1.00  0.00    -0.006 C 
ATOM     18  C   UNL     1       9.731  18.447  59.656  1.00  0.00     0.008 C 
ATOM     19  C   UNL     1       9.494  20.855  58.947  1.00  0.00     0.008 C 
ENDBRANCH  12  17
ENDBRANCH  11  12
ENDBRANCH   1  11
TORSDOF 1
ENDMDL
MODEL 2
REMARK VINA RESULT:    -3.898     10.750     12.489
REMARK INTER + INTRA:          -5.924
REMARK INTER:                  -5.716
REMARK INTRA:                  -0.207
REMARK UNBOUND:                 0.026
REMARK SMILES CC1=CCC[C@H](C)C(=O)C[C@@H](C(C)C)C(=O)C1
REMARK SMILES IDX 8 1 9 2 6 3 7 4 5 5 4 6 3 7 2 8 1 9 10 11 11 12 15 13 16 14
REMARK SMILES IDX 17 15 12 17 13 18 14 19
REMARK H PARENT
REMARK Flexibility Score: 70.00
ROOT
ATOM      1  C   UNL     1      18.045  11.870  52.397  1.00  0.00     0.136 C 
ATOM      2  O   UNL     1      17.350  12.484  53.193  1.00  0.00    -0.299 OA
ENDROOT
BRANCH   1   3
ATOM      3  C   UNL     1      19.322  12.492  51.857  1.00  0.00     0.053 C 
ATOM      4  C   UNL     1      19.045  13.665  50.903  1.00  0.00     0.016 C 
BRANCH   3   5
ATOM      5  C   UNL     1      20.275  12.904  52.997  1.00  0.00     0.015 C 
BRANCH   5   6
ATOM      6  C   UNL     1      20.919  11.711  53.731  1.00  0.00     0.028 C 
BRANCH   6   7
ATOM      7  C   UNL     1      21.571  10.772  52.748  1.00  0.00    -0.028 C 
ATOM      8  C   UNL     1      21.270   9.457  52.623  1.00  0.00    -0.070 CG0
ATOM      9  C   UNL     1      21.969   8.671  51.543  1.00  0.00     0.039 C 
ATOM     10  G   UNL     1      20.280   8.743  53.532  1.00  0.00     0.000 G0
ENDBRANCH   6   7
ENDBRANCH   5   6
ENDBRANCH   3   5
ENDBRANCH   1   3
BRANCH   1  11
ATOM     11  C   UNL     1      17.614  10.488  51.966  1.00  0.00     0.087 C 
BRANCH  11  12
ATOM     12  C   UNL     1      17.769   9.446  53.105  1.00  0.00     0.066 C 
BRANCH  12  13
ATOM     13  C   UNL     1      18.940   8.507  52.845  1.00  0.00     0.140 C 
ATOM     14  O   UNL     1      18.789   7.530  52.125  1.00  0.00    -0.299 OA
BRANCH  13  15
ATOM     15  C   UNL     1      20.272   8.728  53.520  1.00  0.00     0.106 CG0
ATOM     16  G   UNL     1      21.266   9.450  52.622  1.00  0.00     0.000 G0
ENDBRANCH  13  15
ENDBRANCH  12  13
BRANCH  12  17
ATOM     17  C   UNL     1      16.438   8.680  53.380  1.00  0.00    -0.006 C 
ATOM     18  C   UNL     1      15.582   9.285  54.507  1.00  0.00     0.008 C 
ATOM     19  C   UNL     1      15.599   8.531  52.101  1.00  0.00     0.008 C 
ENDBRANCH  12  17
ENDBRANCH  11  12
ENDBRANCH   1  11
TORSDOF 1
ENDMDL
MODEL 3
REMARK VINA RESULT:    -3.844      1.936      4.697
REMARK INTER + INTRA:          -5.841
REMARK INTER:                  -5.618
REMARK INTRA:                  -0.223
REMARK UNBOUND:                 0.026
REMARK SMILES CC1=CCC[C@H](C)C(=O)C[C@@H](C(C)C)C(=O)C1
REMARK SMILES IDX 8 1 9 2 6 3 7 4 5 5 4 6 3 7 2 8 1 9 10 11 11 12 15 13 16 14
REMARK SMILES IDX 17 15 12 17 13 18 14 19
REMARK H PARENT
REMARK Flexibility Score: 70.00
ROOT
ATOM      1  C   UNL     1      11.028  18.543  57.323  1.00  0.00     0.136 C 
ATOM      2  O   UNL     1      12.048  18.661  57.986  1.00  0.00    -0.299 OA
ENDROOT
BRANCH   1   3
ATOM      3  C   UNL     1       9.695  19.018  57.877  1.00  0.00     0.053 C 
ATOM      4  C   UNL     1       9.469  18.566  59.329  1.00  0.00     0.016 C 
BRANCH   3   5
ATOM      5  C   UNL     1       9.534  20.545  57.730  1.00  0.00     0.015 C 
BRANCH   5   6
ATOM      6  C   UNL     1       8.502  20.961  56.663  1.00  0.00     0.028 C 
BRANCH   6   7
ATOM      7  C   UNL     1       9.154  21.795  55.590  1.00  0.00    -0.028 C 
ATOM      8  C   UNL     1       9.603  21.314  54.406  1.00  0.00    -0.070 CG0
ATOM      9  C   UNL     1      10.172  22.296  53.413  1.00  0.00     0.039 C 
ATOM     10  G   UNL     1       9.575  19.835  54.048  1.00  0.00     0.000 G0
ENDBRANCH   6   7
ENDBRANCH   5   6
ENDBRANCH   3   5
ENDBRANCH   1   3
BRANCH   1  11
ATOM     11  C   UNL     1      11.118  17.923  55.949  1.00  0.00     0.087 C 
BRANCH  11  12
ATOM     12  C   UNL     1      11.859  18.841  54.941  1.00  0.00     0.066 C 
BRANCH  12  13
ATOM     13  C   UNL     1      10.951  19.247  53.787  1.00  0.00     0.140 C 
ATOM     14  O   UNL     1      11.355  19.163  52.636  1.00  0.00    -0.299 OA
BRANCH  13  15
ATOM     15  C   UNL     1       9.578  19.817  54.047  1.00  0.00     0.106 CG0
ATOM     16  G   UNL     1       9.622  21.293  54.414  1.00  0.00     0.000 G0
ENDBRANCH  13  15
ENDBRANCH  12  13
BRANCH  12  17
ATOM     17  C   UNL     1      13.200  18.210  54.454  1.00  0.00    -0.006 C 
ATOM     18  C   UNL     1      14.437  18.665  55.248  1.00  0.00     0.008 C 
ATOM     19  C   UNL     1      13.124  16.675  54.428  1.00  0.00     0.008 C 
ENDBRANCH  12  17
ENDBRANCH  11  12
ENDBRANCH   1  11
TORSDOF 1
ENDMDL
MODEL 4
REMARK VINA RESULT:    -3.842      2.124      4.186
REMARK INTER + INTRA:          -5.837
REMARK INTER:                  -5.765
REMARK INTRA:                  -0.072
REMARK UNBOUND:                 0.026
REMARK SMILES CC1=CCC[C@H](C)C(=O)C[C@@H](C(C)C)C(=O)C1
REMARK SMILES IDX 8 1 9 2 6 3 7 4 5 5 4 6 3 7 2 8 1 9 10 11 11 12 15 13 16 14
REMARK SMILES IDX 17 15 12 17 13 18 14 19
REMARK H PARENT
REMARK Flexibility Score: 70.00
ROOT
ATOM      1  C   UNL     1      14.576  18.776  54.513  1.00  0.00     0.136 C 
ATOM      2  O   UNL     1      14.641  19.515  53.541  1.00  0.00    -0.299 OA
ENDROOT
BRANCH   1   3
ATOM      3  C   UNL     1      15.566  18.924  55.656  1.00  0.00     0.053 C 
ATOM      4  C   UNL     1      16.347  20.246  55.588  1.00  0.00     0.016 C 
BRANCH   3   5
ATOM      5  C   UNL     1      14.879  18.744  57.025  1.00  0.00     0.015 C 
BRANCH   5   6
ATOM      6  C   UNL     1      13.891  19.873  57.378  1.00  0.00     0.028 C 
BRANCH   6   7
ATOM      7  C   UNL     1      12.786  19.355  58.263  1.00  0.00    -0.028 C 
ATOM      8  C   UNL     1      11.522  19.099  57.847  1.00  0.00    -0.070 CG0
ATOM      9  C   UNL     1      10.553  18.521  58.847  1.00  0.00     0.039 C 
ATOM     10  G   UNL     1      11.041  19.386  56.433  1.00  0.00     0.000 G0
ENDBRANCH   6   7
ENDBRANCH   5   6
ENDBRANCH   3   5
ENDBRANCH   1   3
BRANCH   1  11
ATOM     11  C   UNL     1      13.495  17.722  54.557  1.00  0.00     0.087 C 
BRANCH  11  12
ATOM     12  C   UNL     1      12.090  18.313  54.268  1.00  0.00     0.066 C 
BRANCH  12  13
ATOM     13  C   UNL     1      11.184  18.216  55.489  1.00  0.00     0.140 C 
ATOM     14  O   UNL     1      10.545  17.193  55.693  1.00  0.00    -0.299 OA
BRANCH  13  15
ATOM     15  C   UNL     1      11.009  19.392  56.418  1.00  0.00     0.106 CG0
ATOM     16  G   UNL     1      11.518  19.104  57.822  1.00  0.00     0.000 G0
ENDBRANCH  13  15
ENDBRANCH  12  13
BRANCH  12  17
ATOM     17  C   UNL     1      11.445  17.688  52.992  1.00  0.00    -0.006 C 
ATOM     18  C   UNL     1      10.262  18.492  52.424  1.00  0.00     0.008 C 
ATOM     19  C   UNL     1      12.492  17.441  51.895  1.00  0.00     0.008 C 
ENDBRANCH  12  17
ENDBRANCH  11  12
ENDBRANCH   1  11
TORSDOF 1
ENDMDL
MODEL 5
REMARK VINA RESULT:    -3.803      1.972      4.329
REMARK INTER + INTRA:          -5.779
REMARK INTER:                  -5.696
REMARK INTRA:                  -0.083
REMARK UNBOUND:                 0.026
REMARK SMILES CC1=CCC[C@H](C)C(=O)C[C@@H](C(C)C)C(=O)C1
REMARK SMILES IDX 8 1 9 2 6 3 7 4 5 5 4 6 3 7 2 8 1 9 10 11 11 12 15 13 16 14
REMARK SMILES IDX 17 15 12 17 13 18 14 19
REMARK H PARENT
REMARK Flexibility Score: 70.00
ROOT
ATOM      1  C   UNL     1      11.499  19.339  56.899  1.00  0.00     0.136 C 
ATOM      2  O   UNL     1      11.300  20.231  57.712  1.00  0.00    -0.299 OA
ENDROOT
BRANCH   1   3
ATOM      3  C   UNL     1      10.461  19.027  55.834  1.00  0.00     0.053 C 
ATOM      4  C   UNL     1       9.187  18.400  56.423  1.00  0.00     0.016 C 
BRANCH   3   5
ATOM      5  C   UNL     1      10.136  20.270  54.981  1.00  0.00     0.015 C 
BRANCH   5   6
ATOM      6  C   UNL     1      10.834  20.281  53.608  1.00  0.00     0.028 C 
BRANCH   6   7
ATOM      7  C   UNL     1      10.782  18.914  52.974  1.00  0.00    -0.028 C 
ATOM      8  C   UNL     1      11.842  18.081  52.852  1.00  0.00    -0.070 CG0
ATOM      9  C   UNL     1      11.604  16.718  52.251  1.00  0.00     0.039 C 
ATOM     10  G   UNL     1      13.252  18.466  53.273  1.00  0.00     0.000 G0
ENDBRANCH   6   7
ENDBRANCH   5   6
ENDBRANCH   3   5
ENDBRANCH   1   3
BRANCH   1  11
ATOM     11  C   UNL     1      12.792  18.562  56.972  1.00  0.00     0.087 C 
BRANCH  11  12
ATOM     12  C   UNL     1      13.761  18.928  55.817  1.00  0.00     0.066 C 
BRANCH  12  13
ATOM     13  C   UNL     1      13.627  17.960  54.649  1.00  0.00     0.140 C 
ATOM     14  O   UNL     1      13.871  16.772  54.812  1.00  0.00    -0.299 OA
BRANCH  13  15
ATOM     15  C   UNL     1      13.261  18.456  53.272  1.00  0.00     0.106 CG0
ATOM     16  G   UNL     1      11.844  18.072  52.873  1.00  0.00     0.000 G0
ENDBRANCH  13  15
ENDBRANCH  12  13
BRANCH  12  17
ATOM     17  C   UNL     1      15.233  19.068  56.313  1.00  0.00    -0.006 C 
ATOM     18  C   UNL     1      16.209  19.608  55.253  1.00  0.00     0.008 C 
ATOM     19  C   UNL     1      15.319  19.917  57.592  1.00  0.00     0.008 C 
ENDBRANCH  12  17
ENDBRANCH  11  12
ENDBRANCH   1  11
TORSDOF 1
ENDMDL
MODEL 6
REMARK VINA RESULT:    -3.732      6.360      8.565
REMARK INTER + INTRA:          -5.670
REMARK INTER:                  -5.708
REMARK INTRA:                   0.038
REMARK UNBOUND:                 0.026
REMARK SMILES CC1=CCC[C@H](C)C(=O)C[C@@H](C(C)C)C(=O)C1
REMARK SMILES IDX 8 1 9 2 6 3 7 4 5 5 4 6 3 7 2 8 1 9 10 11 11 12 15 13 16 14
REMARK SMILES IDX 17 15 12 17 13 18 14 19
REMARK H PARENT
REMARK Flexibility Score: 70.00
ROOT
ATOM      1  C   UNL     1       6.883  25.492  55.729  1.00  0.00     0.136 C 
ATOM      2  O   UNL     1       7.578  26.497  55.792  1.00  0.00    -0.299 OA
ENDROOT
BRANCH   1   3
ATOM      3  C   UNL     1       5.407  25.603  55.390  1.00  0.00     0.053 C 
ATOM      4  C   UNL     1       4.620  26.398  56.445  1.00  0.00     0.016 C 
BRANCH   3   5
ATOM      5  C   UNL     1       5.195  26.180  53.975  1.00  0.00     0.015 C 
BRANCH   5   6
ATOM      6  C   UNL     1       5.404  25.151  52.847  1.00  0.00     0.028 C 
BRANCH   6   7
ATOM      7  C   UNL     1       4.289  24.135  52.841  1.00  0.00    -0.028 C 
ATOM      8  C   UNL     1       4.460  22.803  53.020  1.00  0.00    -0.070 CG0
ATOM      9  C   UNL     1       3.231  21.931  53.052  1.00  0.00     0.039 C 
ATOM     10  G   UNL     1       5.829  22.156  53.169  1.00  0.00     0.000 G0
ENDBRANCH   6   7
ENDBRANCH   5   6
ENDBRANCH   3   5
ENDBRANCH   1   3
BRANCH   1  11
ATOM     11  C   UNL     1       7.519  24.148  55.991  1.00  0.00     0.087 C 
BRANCH  11  12
ATOM     12  C   UNL     1       7.644  23.299  54.698  1.00  0.00     0.066 C 
BRANCH  12  13
ATOM     13  C   UNL     1       6.453  22.365  54.529  1.00  0.00     0.140 C 
ATOM     14  O   UNL     1       6.025  21.743  55.491  1.00  0.00    -0.299 OA
BRANCH  13  15
ATOM     15  C   UNL     1       5.832  22.142  53.171  1.00  0.00     0.106 CG0
ATOM     16  G   UNL     1       4.473  22.812  53.036  1.00  0.00     0.000 G0
ENDBRANCH  13  15
ENDBRANCH  12  13
BRANCH  12  17
ATOM     17  C   UNL     1       9.009  22.547  54.623  1.00  0.00    -0.006 C 
ATOM     18  C   UNL     1       9.973  23.093  53.555  1.00  0.00     0.008 C 
ATOM     19  C   UNL     1       9.706  22.507  55.993  1.00  0.00     0.008 C 
ENDBRANCH  12  17
ENDBRANCH  11  12
ENDBRANCH   1  11
TORSDOF 1
ENDMDL
MODEL 7
REMARK VINA RESULT:    -3.671      1.715      4.198
REMARK INTER + INTRA:          -5.576
REMARK INTER:                  -5.542
REMARK INTRA:                  -0.034
REMARK UNBOUND:                 0.026
REMARK SMILES CC1=CCC[C@H](C)C(=O)C[C@@H](C(C)C)C(=O)C1
REMARK SMILES IDX 8 1 9 2 6 3 7 4 5 5 4 6 3 7 2 8 1 9 10 11 11 12 15 13 16 14
REMARK SMILES IDX 17 15 12 17 13 18 14 19
REMARK H PARENT
REMARK Flexibility Score: 70.00
ROOT
ATOM      1  C   UNL     1      11.671  19.244  57.523  1.00  0.00     0.136 C 
ATOM      2  O   UNL     1      11.645  20.465  57.458  1.00  0.00    -0.299 OA
ENDROOT
BRANCH   1   3
ATOM      3  C   UNL     1      10.486  18.482  58.092  1.00  0.00     0.053 C 
ATOM      4  C   UNL     1      10.506  18.430  59.629  1.00  0.00     0.016 C 
BRANCH   3   5
ATOM      5  C   UNL     1       9.149  19.040  57.563  1.00  0.00     0.015 C 
BRANCH   5   6
ATOM      6  C   UNL     1       9.025  19.005  56.028  1.00  0.00     0.028 C 
BRANCH   6   7
ATOM      7  C   UNL     1       9.086  17.586  55.522  1.00  0.00    -0.028 C 
ATOM      8  C   UNL     1      10.032  17.109  54.678  1.00  0.00    -0.070 CG0
ATOM      9  C   UNL     1       9.987  15.645  54.321  1.00  0.00     0.039 C 
ATOM     10  G   UNL     1      11.114  17.985  54.066  1.00  0.00     0.000 G0
ENDBRANCH   6   7
ENDBRANCH   5   6
ENDBRANCH   3   5
ENDBRANCH   1   3
BRANCH   1  11
ATOM     11  C   UNL     1      12.895  18.513  57.025  1.00  0.00     0.087 C 
BRANCH  11  12
ATOM     12  C   UNL     1      13.163  18.780  55.520  1.00  0.00     0.066 C 
BRANCH  12  13
ATOM     13  C   UNL     1      12.487  17.736  54.641  1.00  0.00     0.140 C 
ATOM     14  O   UNL     1      13.078  16.703  54.357  1.00  0.00    -0.299 OA
BRANCH  13  15
ATOM     15  C   UNL     1      11.119  17.987  54.056  1.00  0.00     0.106 CG0
ATOM     16  G   UNL     1      10.048  17.107  54.683  1.00  0.00     0.000 G0
ENDBRANCH  13  15
ENDBRANCH  12  13
BRANCH  12  17
ATOM     17  C   UNL     1      14.687  18.923  55.216  1.00  0.00    -0.006 C 
ATOM     18  C   UNL     1      15.003  19.670  53.908  1.00  0.00     0.008 C 
ATOM     19  C   UNL     1      15.438  19.571  56.390  1.00  0.00     0.008 C 
ENDBRANCH  12  17
ENDBRANCH  11  12
ENDBRANCH   1  11
TORSDOF 1
ENDMDL
MODEL 8
REMARK VINA RESULT:    -3.623      6.756      8.320
REMARK INTER + INTRA:          -5.503
REMARK INTER:                  -5.179
REMARK INTRA:                  -0.324
REMARK UNBOUND:                 0.026
REMARK SMILES CC1=CCC[C@H](C)C(=O)C[C@@H](C(C)C)C(=O)C1
REMARK SMILES IDX 8 1 9 2 6 3 7 4 5 5 4 6 3 7 2 8 1 9 10 11 11 12 15 13 16 14
REMARK SMILES IDX 17 15 12 17 13 18 14 19
REMARK H PARENT
REMARK Flexibility Score: 70.00
ROOT
ATOM      1  C   UNL     1       7.791  23.923  55.187  1.00  0.00     0.136 C 
ATOM      2  O   UNL     1       8.074  23.871  56.375  1.00  0.00    -0.299 OA
ENDROOT
BRANCH   1   3
ATOM      3  C   UNL     1       8.009  22.713  54.294  1.00  0.00     0.053 C 
ATOM      4  C   UNL     1       9.496  22.351  54.148  1.00  0.00     0.016 C 
BRANCH   3   5
ATOM      5  C   UNL     1       7.178  21.503  54.770  1.00  0.00     0.015 C 
BRANCH   5   6
ATOM      6  C   UNL     1       5.740  21.481  54.216  1.00  0.00     0.028 C 
BRANCH   6   7
ATOM      7  C   UNL     1       5.738  21.743  52.731  1.00  0.00    -0.028 C 
ATOM      8  C   UNL     1       5.139  22.802  52.137  1.00  0.00    -0.070 CG0
ATOM      9  C   UNL     1       5.288  22.953  50.643  1.00  0.00     0.039 C 
ATOM     10  G   UNL     1       4.313  23.825  52.902  1.00  0.00     0.000 G0
ENDBRANCH   6   7
ENDBRANCH   5   6
ENDBRANCH   3   5
ENDBRANCH   1   3
BRANCH   1  11
ATOM     11  C   UNL     1       7.221  25.205  54.628  1.00  0.00     0.087 C 
BRANCH  11  12
ATOM     12  C   UNL     1       5.671  25.222  54.668  1.00  0.00     0.066 C 
BRANCH  12  13
ATOM     13  C   UNL     1       5.076  25.069  53.274  1.00  0.00     0.140 C 
ATOM     14  O   UNL     1       5.190  25.976  52.461  1.00  0.00    -0.299 OA
BRANCH  13  15
ATOM     15  C   UNL     1       4.286  23.839  52.901  1.00  0.00     0.106 CG0
ATOM     16  G   UNL     1       5.124  22.816  52.148  1.00  0.00     0.000 G0
ENDBRANCH  13  15
ENDBRANCH  12  13
BRANCH  12  17
ATOM     17  C   UNL     1       5.120  26.473  55.420  1.00  0.00    -0.006 C 
ATOM     18  C   UNL     1       3.594  26.472  55.617  1.00  0.00     0.008 C 
ATOM     19  C   UNL     1       5.827  26.676  56.770  1.00  0.00     0.008 C 
ENDBRANCH  12  17
ENDBRANCH  11  12
ENDBRANCH   1  11
TORSDOF 1
ENDMDL
MODEL 9
REMARK VINA RESULT:    -3.491      1.798      2.263
REMARK INTER + INTRA:          -5.303
REMARK INTER:                  -5.097
REMARK INTRA:                  -0.205
REMARK UNBOUND:                 0.026
REMARK SMILES CC1=CCC[C@H](C)C(=O)C[C@@H](C(C)C)C(=O)C1
REMARK SMILES IDX 8 1 9 2 6 3 7 4 5 5 4 6 3 7 2 8 1 9 10 11 11 12 15 13 16 14
REMARK SMILES IDX 17 15 12 17 13 18 14 19
REMARK H PARENT
REMARK Flexibility Score: 70.00
ROOT
ATOM      1  C   UNL     1      12.456  18.806  55.740  1.00  0.00     0.136 C 
ATOM      2  O   UNL     1      13.224  18.493  56.639  1.00  0.00    -0.299 OA
ENDROOT
BRANCH   1   3
ATOM      3  C   UNL     1      12.740  18.384  54.309  1.00  0.00     0.053 C 
ATOM      4  C   UNL     1      13.884  19.191  53.675  1.00  0.00     0.016 C 
BRANCH   3   5
ATOM      5  C   UNL     1      12.996  16.866  54.209  1.00  0.00     0.015 C 
BRANCH   5   6
ATOM      6  C   UNL     1      11.716  16.013  54.294  1.00  0.00     0.028 C 
BRANCH   6   7
ATOM      7  C   UNL     1      10.696  16.482  53.289  1.00  0.00    -0.028 C 
ATOM      8  C   UNL     1       9.473  16.972  53.603  1.00  0.00    -0.070 CG0
ATOM      9  C   UNL     1       8.596  17.461  52.478  1.00  0.00     0.039 C 
ATOM     10  G   UNL     1       8.945  17.031  55.029  1.00  0.00     0.000 G0
ENDBRANCH   6   7
ENDBRANCH   5   6
ENDBRANCH   3   5
ENDBRANCH   1   3
BRANCH   1  11
ATOM     11  C   UNL     1      11.226  19.613  56.080  1.00  0.00     0.087 C 
BRANCH  11  12
ATOM     12  C   UNL     1      10.096  18.734  56.678  1.00  0.00     0.066 C 
BRANCH  12  13
ATOM     13  C   UNL     1       9.031  18.412  55.638  1.00  0.00     0.140 C 
ATOM     14  O   UNL     1       8.205  19.260  55.330  1.00  0.00    -0.299 OA
BRANCH  13  15
ATOM     15  C   UNL     1       8.938  17.035  55.028  1.00  0.00     0.106 CG0
ATOM     16  G   UNL     1       9.478  16.991  53.606  1.00  0.00     0.000 G0
ENDBRANCH  13  15
ENDBRANCH  12  13
BRANCH  12  17
ATOM     17  C   UNL     1       9.496  19.358  57.976  1.00  0.00    -0.006 C 
ATOM     18  C   UNL     1       9.636  18.472  59.227  1.00  0.00     0.008 C 
ATOM     19  C   UNL     1      10.076  20.755  58.250  1.00  0.00     0.008 C 
ENDBRANCH  12  17
ENDBRANCH  11  12
ENDBRANCH   1  11
TORSDOF 1
ENDMDL
