MODEL 1
REMARK VINA RESULT:    -8.561      0.000      0.000
REMARK INTER + INTRA:         -10.145
REMARK INTER:                 -10.313
REMARK INTRA:                   0.168
REMARK UNBOUND:                 0.168
REMARK SMILES O=c1c(O)c(-c2ccc(O)c(O)c2)oc2cc(O)cc(O)c12
REMARK SMILES IDX 5 1 3 2 2 3 1 4 22 5 20 6 19 7 17 8 16 9 15 10 14 11 6 12
REMARK SMILES IDX 7 13 8 14 9 15 13 16 11 17 10 18 12 20 4 22 21 24 18 26
REMARK H PARENT 10 19 12 21 4 23 21 25 18 27
REMARK Flexibility Score: inf
ROOT
ATOM      1  C   UNL     1      30.032  22.309  26.513  1.00  0.00     0.180 A 
ATOM      2  C   UNL     1      29.106  23.029  25.739  1.00  0.00     0.208 A 
ATOM      3  C   UNL     1      29.406  23.296  24.393  1.00  0.00     0.238 A 
ATOM      4  O   UNL     1      28.550  23.893  23.690  1.00  0.00    -0.285 OA
ATOM      5  C   UNL     1      30.633  22.852  23.842  1.00  0.00     0.111 A 
ATOM      6  C   UNL     1      31.057  23.100  22.503  1.00  0.00     0.134 A 
ATOM      7  C   UNL     1      32.231  22.501  22.029  1.00  0.00     0.093 A 
ATOM      8  C   UNL     1      33.030  21.717  22.865  1.00  0.00     0.123 A 
ATOM      9  C   UNL     1      32.654  21.519  24.191  1.00  0.00     0.094 A 
ATOM     10  C   UNL     1      31.470  22.072  24.683  1.00  0.00     0.146 A 
ATOM     11  O   UNL     1      31.145  21.849  25.951  1.00  0.00    -0.452 OA
ENDROOT
BRANCH   1  12
ATOM     12  C   UNL     1      29.799  22.011  27.945  1.00  0.00     0.025 A 
ATOM     13  C   UNL     1      30.858  22.136  28.859  1.00  0.00     0.016 A 
ATOM     14  C   UNL     1      30.654  21.880  30.217  1.00  0.00     0.051 A 
ATOM     15  C   UNL     1      29.389  21.513  30.686  1.00  0.00     0.157 A 
ATOM     16  C   UNL     1      28.522  21.662  28.421  1.00  0.00     0.062 A 
ATOM     17  C   UNL     1      28.316  21.408  29.785  1.00  0.00     0.158 A 
BRANCH  15  18
ATOM     18  O   UNL     1      29.217  21.263  32.046  1.00  0.00    -0.504 OA
ATOM     19  H   UNL     1      29.179  22.009  32.730  1.00  0.00     0.293 HD
ENDBRANCH  15  18
BRANCH  17  20
ATOM     20  O   UNL     1      27.049  21.055  30.248  1.00  0.00    -0.504 OA
ATOM     21  H   UNL     1      26.443  21.729  30.702  1.00  0.00     0.293 HD
ENDBRANCH  17  20
ENDBRANCH   1  12
BRANCH   2  22
ATOM     22  O   UNL     1      27.892  23.439  26.295  1.00  0.00    -0.502 OA
ATOM     23  H   UNL     1      27.722  23.433  27.294  1.00  0.00     0.293 HD
ENDBRANCH   2  22
BRANCH   6  24
ATOM     24  O   UNL     1      30.382  23.941  21.614  1.00  0.00    -0.507 OA
ATOM     25  H   UNL     1      30.646  24.090  20.652  1.00  0.00     0.293 HD
ENDBRANCH   6  24
BRANCH   8  26
ATOM     26  O   UNL     1      34.204  21.139  22.389  1.00  0.00    -0.508 OA
ATOM     27  H   UNL     1      35.086  21.638  22.407  1.00  0.00     0.293 HD
ENDBRANCH   8  26
TORSDOF 6
ENDMDL
MODEL 2
REMARK VINA RESULT:    -8.560      0.720      1.435
REMARK INTER + INTRA:         -10.143
REMARK INTER:                  -9.906
REMARK INTRA:                  -0.237
REMARK UNBOUND:                 0.168
REMARK SMILES O=c1c(O)c(-c2ccc(O)c(O)c2)oc2cc(O)cc(O)c12
REMARK SMILES IDX 5 1 3 2 2 3 1 4 22 5 20 6 19 7 17 8 16 9 15 10 14 11 6 12
REMARK SMILES IDX 7 13 8 14 9 15 13 16 11 17 10 18 12 20 4 22 21 24 18 26
REMARK H PARENT 10 19 12 21 4 23 21 25 18 27
REMARK Flexibility Score: inf
ROOT
ATOM      1  C   UNL     1      30.149  22.341  26.429  1.00  0.00     0.180 A 
ATOM      2  C   UNL     1      29.182  23.003  25.652  1.00  0.00     0.208 A 
ATOM      3  C   UNL     1      29.441  23.230  24.291  1.00  0.00     0.238 A 
ATOM      4  O   UNL     1      28.550  23.773  23.588  1.00  0.00    -0.285 OA
ATOM      5  C   UNL     1      30.669  22.807  23.727  1.00  0.00     0.111 A 
ATOM      6  C   UNL     1      31.054  23.020  22.370  1.00  0.00     0.134 A 
ATOM      7  C   UNL     1      32.236  22.444  21.888  1.00  0.00     0.093 A 
ATOM      8  C   UNL     1      33.080  21.718  22.733  1.00  0.00     0.123 A 
ATOM      9  C   UNL     1      32.742  21.555  24.073  1.00  0.00     0.094 A 
ATOM     10  C   UNL     1      31.551  22.086  24.574  1.00  0.00     0.146 A 
ATOM     11  O   UNL     1      31.263  21.899  25.857  1.00  0.00    -0.452 OA
ENDROOT
BRANCH   1  12
ATOM     12  C   UNL     1      29.959  22.088  27.876  1.00  0.00     0.025 A 
ATOM     13  C   UNL     1      29.065  21.087  28.290  1.00  0.00     0.016 A 
ATOM     14  C   UNL     1      28.886  20.818  29.649  1.00  0.00     0.051 A 
ATOM     15  C   UNL     1      29.606  21.530  30.613  1.00  0.00     0.157 A 
ATOM     16  C   UNL     1      30.698  22.789  28.845  1.00  0.00     0.062 A 
ATOM     17  C   UNL     1      30.521  22.518  30.210  1.00  0.00     0.158 A 
BRANCH  15  18
ATOM     18  O   UNL     1      29.404  21.240  31.961  1.00  0.00    -0.504 OA
ATOM     19  H   UNL     1      29.871  21.756  32.698  1.00  0.00     0.293 HD
ENDBRANCH  15  18
BRANCH  17  20
ATOM     20  O   UNL     1      31.252  23.222  31.165  1.00  0.00    -0.504 OA
ATOM     21  H   UNL     1      31.257  24.235  31.189  1.00  0.00     0.293 HD
ENDBRANCH  17  20
ENDBRANCH   1  12
BRANCH   2  22
ATOM     22  O   UNL     1      27.967  23.392  26.223  1.00  0.00    -0.502 OA
ATOM     23  H   UNL     1      27.868  24.244  26.762  1.00  0.00     0.293 HD
ENDBRANCH   2  22
BRANCH   6  24
ATOM     24  O   UNL     1      30.331  23.806  21.468  1.00  0.00    -0.507 OA
ATOM     25  H   UNL     1      30.728  24.280  20.671  1.00  0.00     0.293 HD
ENDBRANCH   6  24
BRANCH   8  26
ATOM     26  O   UNL     1      34.262  21.162  22.249  1.00  0.00    -0.508 OA
ATOM     27  H   UNL     1      34.733  20.408  22.736  1.00  0.00     0.293 HD
ENDBRANCH   8  26
TORSDOF 6
ENDMDL
MODEL 3
REMARK VINA RESULT:    -8.471      2.319      7.740
REMARK INTER + INTRA:         -10.036
REMARK INTER:                  -9.762
REMARK INTRA:                  -0.274
REMARK UNBOUND:                 0.168
REMARK SMILES O=c1c(O)c(-c2ccc(O)c(O)c2)oc2cc(O)cc(O)c12
REMARK SMILES IDX 5 1 3 2 2 3 1 4 22 5 20 6 19 7 17 8 16 9 15 10 14 11 6 12
REMARK SMILES IDX 7 13 8 14 9 15 13 16 11 17 10 18 12 20 4 22 21 24 18 26
REMARK H PARENT 10 19 12 21 4 23 21 25 18 27
REMARK Flexibility Score: inf
ROOT
ATOM      1  C   UNL     1      30.619  21.282  23.330  1.00  0.00     0.180 A 
ATOM      2  C   UNL     1      31.379  20.307  24.000  1.00  0.00     0.208 A 
ATOM      3  C   UNL     1      31.181  20.118  25.377  1.00  0.00     0.238 A 
ATOM      4  O   UNL     1      31.825  19.207  25.960  1.00  0.00    -0.285 OA
ATOM      5  C   UNL     1      30.237  20.914  26.070  1.00  0.00     0.111 A 
ATOM      6  C   UNL     1      29.984  20.835  27.472  1.00  0.00     0.134 A 
ATOM      7  C   UNL     1      28.936  21.579  28.027  1.00  0.00     0.093 A 
ATOM      8  C   UNL     1      28.176  22.450  27.242  1.00  0.00     0.123 A 
ATOM      9  C   UNL     1      28.455  22.579  25.885  1.00  0.00     0.094 A 
ATOM     10  C   UNL     1      29.470  21.822  25.294  1.00  0.00     0.146 A 
ATOM     11  O   UNL     1      29.696  21.968  23.994  1.00  0.00    -0.452 OA
ENDROOT
BRANCH   1  12
ATOM     12  C   UNL     1      30.789  21.557  21.885  1.00  0.00     0.025 A 
ATOM     13  C   UNL     1      29.785  21.166  20.984  1.00  0.00     0.016 A 
ATOM     14  C   UNL     1      29.916  21.435  19.619  1.00  0.00     0.051 A 
ATOM     15  C   UNL     1      31.040  22.111  19.135  1.00  0.00     0.157 A 
ATOM     16  C   UNL     1      31.909  22.256  21.399  1.00  0.00     0.062 A 
ATOM     17  C   UNL     1      32.040  22.528  20.030  1.00  0.00     0.158 A 
BRANCH  15  18
ATOM     18  O   UNL     1      31.143  22.362  17.768  1.00  0.00    -0.504 OA
ATOM     19  H   UNL     1      31.074  23.298  17.387  1.00  0.00     0.293 HD
ENDBRANCH  15  18
BRANCH  17  20
ATOM     20  O   UNL     1      33.158  23.214  19.555  1.00  0.00    -0.504 OA
ATOM     21  H   UNL     1      34.053  23.161  20.027  1.00  0.00     0.293 HD
ENDBRANCH  17  20
ENDBRANCH   1  12
BRANCH   2  22
ATOM     22  O   UNL     1      32.290  19.517  23.293  1.00  0.00    -0.502 OA
ATOM     23  H   UNL     1      32.389  18.523  23.457  1.00  0.00     0.293 HD
ENDBRANCH   2  22
BRANCH   6  24
ATOM     24  O   UNL     1      30.743  20.067  28.360  1.00  0.00    -0.507 OA
ATOM     25  H   UNL     1      31.738  19.922  28.288  1.00  0.00     0.293 HD
ENDBRANCH   6  24
BRANCH   8  26
ATOM     26  O   UNL     1      27.146  23.199  27.806  1.00  0.00    -0.508 OA
ATOM     27  H   UNL     1      27.186  24.211  27.847  1.00  0.00     0.293 HD
ENDBRANCH   8  26
TORSDOF 6
ENDMDL
MODEL 4
REMARK VINA RESULT:    -8.457      1.978      3.210
REMARK INTER + INTRA:         -10.019
REMARK INTER:                  -9.704
REMARK INTRA:                  -0.315
REMARK UNBOUND:                 0.168
REMARK SMILES O=c1c(O)c(-c2ccc(O)c(O)c2)oc2cc(O)cc(O)c12
REMARK SMILES IDX 5 1 3 2 2 3 1 4 22 5 20 6 19 7 17 8 16 9 15 10 14 11 6 12
REMARK SMILES IDX 7 13 8 14 9 15 13 16 11 17 10 18 12 20 4 22 21 24 18 26
REMARK H PARENT 10 19 12 21 4 23 21 25 18 27
REMARK Flexibility Score: inf
ROOT
ATOM      1  C   UNL     1      30.561  21.847  25.075  1.00  0.00     0.180 A 
ATOM      2  C   UNL     1      31.879  22.334  25.105  1.00  0.00     0.208 A 
ATOM      3  C   UNL     1      32.545  22.570  23.892  1.00  0.00     0.238 A 
ATOM      4  O   UNL     1      33.705  23.058  23.923  1.00  0.00    -0.285 OA
ATOM      5  C   UNL     1      31.890  22.302  22.664  1.00  0.00     0.111 A 
ATOM      6  C   UNL     1      32.483  22.466  21.377  1.00  0.00     0.134 A 
ATOM      7  C   UNL     1      31.699  22.295  20.229  1.00  0.00     0.093 A 
ATOM      8  C   UNL     1      30.362  21.902  20.322  1.00  0.00     0.123 A 
ATOM      9  C   UNL     1      29.792  21.681  21.572  1.00  0.00     0.094 A 
ATOM     10  C   UNL     1      30.537  21.879  22.737  1.00  0.00     0.146 A 
ATOM     11  O   UNL     1      29.951  21.667  23.909  1.00  0.00    -0.452 OA
ENDROOT
BRANCH   1  12
ATOM     12  C   UNL     1      29.803  21.550  26.313  1.00  0.00     0.025 A 
ATOM     13  C   UNL     1      28.839  22.464  26.768  1.00  0.00     0.016 A 
ATOM     14  C   UNL     1      28.098  22.194  27.922  1.00  0.00     0.051 A 
ATOM     15  C   UNL     1      28.296  21.003  28.628  1.00  0.00     0.157 A 
ATOM     16  C   UNL     1      29.986  20.344  27.012  1.00  0.00     0.062 A 
ATOM     17  C   UNL     1      29.242  20.070  28.169  1.00  0.00     0.158 A 
BRANCH  15  18
ATOM     18  O   UNL     1      27.544  20.763  29.776  1.00  0.00    -0.504 OA
ATOM     19  H   UNL     1      27.973  20.487  30.652  1.00  0.00     0.293 HD
ENDBRANCH  15  18
BRANCH  17  20
ATOM     20  O   UNL     1      29.434  18.876  28.860  1.00  0.00    -0.504 OA
ATOM     21  H   UNL     1      29.306  18.817  29.864  1.00  0.00     0.293 HD
ENDBRANCH  17  20
ENDBRANCH   1  12
BRANCH   2  22
ATOM     22  O   UNL     1      32.499  22.613  26.326  1.00  0.00    -0.502 OA
ATOM     23  H   UNL     1      31.977  22.878  27.153  1.00  0.00     0.293 HD
ENDBRANCH   2  22
BRANCH   6  24
ATOM     24  O   UNL     1      33.833  22.768  21.172  1.00  0.00    -0.507 OA
ATOM     25  H   UNL     1      34.572  22.084  21.116  1.00  0.00     0.293 HD
ENDBRANCH   6  24
BRANCH   8  26
ATOM     26  O   UNL     1      29.594  21.718  19.174  1.00  0.00    -0.508 OA
ATOM     27  H   UNL     1      29.971  21.261  18.351  1.00  0.00     0.293 HD
ENDBRANCH   8  26
TORSDOF 6
ENDMDL
MODEL 5
REMARK VINA RESULT:    -8.447      2.300      7.265
REMARK INTER + INTRA:         -10.007
REMARK INTER:                  -9.705
REMARK INTRA:                  -0.302
REMARK UNBOUND:                 0.168
REMARK SMILES O=c1c(O)c(-c2ccc(O)c(O)c2)oc2cc(O)cc(O)c12
REMARK SMILES IDX 5 1 3 2 2 3 1 4 22 5 20 6 19 7 17 8 16 9 15 10 14 11 6 12
REMARK SMILES IDX 7 13 8 14 9 15 13 16 11 17 10 18 12 20 4 22 21 24 18 26
REMARK H PARENT 10 19 12 21 4 23 21 25 18 27
REMARK Flexibility Score: inf
ROOT
ATOM      1  C   UNL     1      29.926  22.105  23.150  1.00  0.00     0.180 A 
ATOM      2  C   UNL     1      29.073  23.099  23.661  1.00  0.00     0.208 A 
ATOM      3  C   UNL     1      28.708  23.053  25.016  1.00  0.00     0.238 A 
ATOM      4  O   UNL     1      27.989  23.975  25.480  1.00  0.00    -0.285 OA
ATOM      5  C   UNL     1      29.188  22.005  25.840  1.00  0.00     0.111 A 
ATOM      6  C   UNL     1      28.850  21.837  27.216  1.00  0.00     0.134 A 
ATOM      7  C   UNL     1      29.486  20.840  27.966  1.00  0.00     0.093 A 
ATOM      8  C   UNL     1      30.399  19.964  27.373  1.00  0.00     0.123 A 
ATOM      9  C   UNL     1      30.688  20.082  26.016  1.00  0.00     0.094 A 
ATOM     10  C   UNL     1      30.098  21.090  25.250  1.00  0.00     0.146 A 
ATOM     11  O   UNL     1      30.411  21.174  23.962  1.00  0.00    -0.452 OA
ENDROOT
BRANCH   1  12
ATOM     12  C   UNL     1      30.334  22.073  21.727  1.00  0.00     0.025 A 
ATOM     13  C   UNL     1      29.458  21.539  20.769  1.00  0.00     0.016 A 
ATOM     14  C   UNL     1      29.814  21.518  19.418  1.00  0.00     0.051 A 
ATOM     15  C   UNL     1      31.041  22.044  19.001  1.00  0.00     0.157 A 
ATOM     16  C   UNL     1      31.558  22.621  21.304  1.00  0.00     0.062 A 
ATOM     17  C   UNL     1      31.916  22.603  19.948  1.00  0.00     0.158 A 
BRANCH  15  18
ATOM     18  O   UNL     1      31.370  22.007  17.648  1.00  0.00    -0.504 OA
ATOM     19  H   UNL     1      30.689  22.203  16.923  1.00  0.00     0.293 HD
ENDBRANCH  15  18
BRANCH  17  20
ATOM     20  O   UNL     1      33.135  23.141  19.538  1.00  0.00    -0.504 OA
ATOM     21  H   UNL     1      33.246  24.133  19.365  1.00  0.00     0.293 HD
ENDBRANCH  17  20
ENDBRANCH   1  12
BRANCH   2  22
ATOM     22  O   UNL     1      28.628  24.136  22.836  1.00  0.00    -0.502 OA
ATOM     23  H   UNL     1      28.075  24.910  23.185  1.00  0.00     0.293 HD
ENDBRANCH   2  22
BRANCH   6  24
ATOM     24  O   UNL     1      27.886  22.599  27.882  1.00  0.00    -0.507 OA
ATOM     25  H   UNL     1      27.537  23.490  27.563  1.00  0.00     0.293 HD
ENDBRANCH   6  24
BRANCH   8  26
ATOM     26  O   UNL     1      31.014  18.965  28.123  1.00  0.00    -0.508 OA
ATOM     27  H   UNL     1      30.941  17.987  27.867  1.00  0.00     0.293 HD
ENDBRANCH   8  26
TORSDOF 6
ENDMDL
MODEL 6
REMARK VINA RESULT:    -8.328      1.305      1.632
REMARK INTER + INTRA:          -9.864
REMARK INTER:                  -9.586
REMARK INTRA:                  -0.278
REMARK UNBOUND:                 0.168
REMARK SMILES O=c1c(O)c(-c2ccc(O)c(O)c2)oc2cc(O)cc(O)c12
REMARK SMILES IDX 5 1 3 2 2 3 1 4 22 5 20 6 19 7 17 8 16 9 15 10 14 11 6 12
REMARK SMILES IDX 7 13 8 14 9 15 13 16 11 17 10 18 12 20 4 22 21 24 18 26
REMARK H PARENT 10 19 12 21 4 23 21 25 18 27
REMARK Flexibility Score: inf
ROOT
ATOM      1  C   UNL     1      29.383  22.202  25.463  1.00  0.00     0.180 A 
ATOM      2  C   UNL     1      28.589  22.869  24.513  1.00  0.00     0.208 A 
ATOM      3  C   UNL     1      29.122  23.125  23.240  1.00  0.00     0.238 A 
ATOM      4  O   UNL     1      28.389  23.673  22.377  1.00  0.00    -0.285 OA
ATOM      5  C   UNL     1      30.446  22.724  22.936  1.00  0.00     0.111 A 
ATOM      6  C   UNL     1      31.101  22.967  21.692  1.00  0.00     0.134 A 
ATOM      7  C   UNL     1      32.364  22.411  21.457  1.00  0.00     0.093 A 
ATOM      8  C   UNL     1      33.024  21.676  22.446  1.00  0.00     0.123 A 
ATOM      9  C   UNL     1      32.418  21.485  23.684  1.00  0.00     0.094 A 
ATOM     10  C   UNL     1      31.142  21.996  23.936  1.00  0.00     0.146 A 
ATOM     11  O   UNL     1      30.596  21.781  25.127  1.00  0.00    -0.452 OA
ENDROOT
BRANCH   1  12
ATOM     12  C   UNL     1      28.899  21.919  26.834  1.00  0.00     0.025 A 
ATOM     13  C   UNL     1      28.577  20.601  27.195  1.00  0.00     0.016 A 
ATOM     14  C   UNL     1      28.139  20.309  28.489  1.00  0.00     0.051 A 
ATOM     15  C   UNL     1      28.033  21.323  29.446  1.00  0.00     0.157 A 
ATOM     16  C   UNL     1      28.812  22.934  27.803  1.00  0.00     0.062 A 
ATOM     17  C   UNL     1      28.375  22.642  29.103  1.00  0.00     0.158 A 
BRANCH  15  18
ATOM     18  O   UNL     1      27.591  21.001  30.728  1.00  0.00    -0.504 OA
ATOM     19  H   UNL     1      28.042  21.365  31.559  1.00  0.00     0.293 HD
ENDBRANCH  15  18
BRANCH  17  20
ATOM     20  O   UNL     1      28.284  23.656  30.057  1.00  0.00    -0.504 OA
ATOM     21  H   UNL     1      27.745  24.496  29.887  1.00  0.00     0.293 HD
ENDBRANCH  17  20
ENDBRANCH   1  12
BRANCH   2  22
ATOM     22  O   UNL     1      27.278  23.237  24.826  1.00  0.00    -0.502 OA
ATOM     23  H   UNL     1      26.713  22.722  25.492  1.00  0.00     0.293 HD
ENDBRANCH   2  22
BRANCH   6  24
ATOM     24  O   UNL     1      30.570  23.763  20.673  1.00  0.00    -0.507 OA
ATOM     25  H   UNL     1      30.487  23.481  19.708  1.00  0.00     0.293 HD
ENDBRANCH   6  24
BRANCH   8  26
ATOM     26  O   UNL     1      34.288  21.141  22.208  1.00  0.00    -0.508 OA
ATOM     27  H   UNL     1      34.590  20.278  22.647  1.00  0.00     0.293 HD
ENDBRANCH   8  26
TORSDOF 6
ENDMDL
MODEL 7
REMARK VINA RESULT:    -8.158      2.852      7.109
REMARK INTER + INTRA:          -9.658
REMARK INTER:                  -9.332
REMARK INTRA:                  -0.326
REMARK UNBOUND:                 0.168
REMARK SMILES O=c1c(O)c(-c2ccc(O)c(O)c2)oc2cc(O)cc(O)c12
REMARK SMILES IDX 5 1 3 2 2 3 1 4 22 5 20 6 19 7 17 8 16 9 15 10 14 11 6 12
REMARK SMILES IDX 7 13 8 14 9 15 13 16 11 17 10 18 12 20 4 22 21 24 18 26
REMARK H PARENT 10 19 12 21 4 23 21 25 18 27
REMARK Flexibility Score: inf
ROOT
ATOM      1  C   UNL     1      28.672  22.015  26.680  1.00  0.00     0.180 A 
ATOM      2  C   UNL     1      30.015  22.389  26.862  1.00  0.00     0.208 A 
ATOM      3  C   UNL     1      30.529  22.468  28.166  1.00  0.00     0.238 A 
ATOM      4  O   UNL     1      31.745  22.751  28.321  1.00  0.00    -0.285 OA
ATOM      5  C   UNL     1      29.691  22.186  29.273  1.00  0.00     0.111 A 
ATOM      6  C   UNL     1      30.094  22.273  30.638  1.00  0.00     0.134 A 
ATOM      7  C   UNL     1      29.220  21.845  31.645  1.00  0.00     0.093 A 
ATOM      8  C   UNL     1      27.933  21.395  31.339  1.00  0.00     0.123 A 
ATOM      9  C   UNL     1      27.510  21.364  30.014  1.00  0.00     0.094 A 
ATOM     10  C   UNL     1      28.371  21.749  28.984  1.00  0.00     0.146 A 
ATOM     11  O   UNL     1      27.930  21.693  27.733  1.00  0.00    -0.452 OA
ENDROOT
BRANCH   1  12
ATOM     12  C   UNL     1      28.053  21.934  25.337  1.00  0.00     0.025 A 
ATOM     13  C   UNL     1      28.105  20.726  24.624  1.00  0.00     0.016 A 
ATOM     14  C   UNL     1      27.509  20.622  23.364  1.00  0.00     0.051 A 
ATOM     15  C   UNL     1      26.838  21.714  22.806  1.00  0.00     0.157 A 
ATOM     16  C   UNL     1      27.360  23.026  24.784  1.00  0.00     0.062 A 
ATOM     17  C   UNL     1      26.759  22.922  23.521  1.00  0.00     0.158 A 
BRANCH  15  18
ATOM     18  O   UNL     1      26.256  21.581  21.547  1.00  0.00    -0.504 OA
ATOM     19  H   UNL     1      25.447  20.991  21.389  1.00  0.00     0.293 HD
ENDBRANCH  15  18
BRANCH  17  20
ATOM     20  O   UNL     1      26.080  24.011  22.976  1.00  0.00    -0.504 OA
ATOM     21  H   UNL     1      26.576  24.808  22.594  1.00  0.00     0.293 HD
ENDBRANCH  17  20
ENDBRANCH   1  12
BRANCH   2  22
ATOM     22  O   UNL     1      30.831  22.642  25.756  1.00  0.00    -0.502 OA
ATOM     23  H   UNL     1      30.767  23.497  25.217  1.00  0.00     0.293 HD
ENDBRANCH   2  22
BRANCH   6  24
ATOM     24  O   UNL     1      31.322  22.793  31.058  1.00  0.00    -0.507 OA
ATOM     25  H   UNL     1      31.453  23.715  31.446  1.00  0.00     0.293 HD
ENDBRANCH   6  24
BRANCH   8  26
ATOM     26  O   UNL     1      27.065  20.986  32.349  1.00  0.00    -0.508 OA
ATOM     27  H   UNL     1      27.378  20.396  33.111  1.00  0.00     0.293 HD
ENDBRANCH   8  26
TORSDOF 6
ENDMDL
MODEL 8
REMARK VINA RESULT:    -8.114     14.021     15.454
REMARK INTER + INTRA:          -9.606
REMARK INTER:                  -9.301
REMARK INTRA:                  -0.305
REMARK UNBOUND:                 0.168
REMARK SMILES O=c1c(O)c(-c2ccc(O)c(O)c2)oc2cc(O)cc(O)c12
REMARK SMILES IDX 5 1 3 2 2 3 1 4 22 5 20 6 19 7 17 8 16 9 15 10 14 11 6 12
REMARK SMILES IDX 7 13 8 14 9 15 13 16 11 17 10 18 12 20 4 22 21 24 18 26
REMARK H PARENT 10 19 12 21 4 23 21 25 18 27
REMARK Flexibility Score: inf
ROOT
ATOM      1  C   UNL     1      28.449  36.153  22.517  1.00  0.00     0.180 A 
ATOM      2  C   UNL     1      27.752  36.304  23.728  1.00  0.00     0.208 A 
ATOM      3  C   UNL     1      26.375  36.030  23.759  1.00  0.00     0.238 A 
ATOM      4  O   UNL     1      25.766  36.114  24.858  1.00  0.00    -0.285 OA
ATOM      5  C   UNL     1      25.710  35.622  22.577  1.00  0.00     0.111 A 
ATOM      6  C   UNL     1      24.311  35.357  22.485  1.00  0.00     0.134 A 
ATOM      7  C   UNL     1      23.785  34.834  21.297  1.00  0.00     0.093 A 
ATOM      8  C   UNL     1      24.596  34.630  20.178  1.00  0.00     0.123 A 
ATOM      9  C   UNL     1      25.951  34.943  20.240  1.00  0.00     0.094 A 
ATOM     10  C   UNL     1      26.512  35.431  21.422  1.00  0.00     0.146 A 
ATOM     11  O   UNL     1      27.811  35.706  21.441  1.00  0.00    -0.452 OA
ENDROOT
BRANCH   1  12
ATOM     12  C   UNL     1      29.896  36.447  22.399  1.00  0.00     0.025 A 
ATOM     13  C   UNL     1      30.319  37.777  22.241  1.00  0.00     0.016 A 
ATOM     14  C   UNL     1      31.680  38.079  22.149  1.00  0.00     0.051 A 
ATOM     15  C   UNL     1      32.638  37.063  22.230  1.00  0.00     0.157 A 
ATOM     16  C   UNL     1      30.861  35.429  22.502  1.00  0.00     0.062 A 
ATOM     17  C   UNL     1      32.227  35.732  22.413  1.00  0.00     0.158 A 
BRANCH  15  18
ATOM     18  O   UNL     1      33.988  37.395  22.133  1.00  0.00    -0.504 OA
ATOM     19  H   UNL     1      34.296  38.320  21.855  1.00  0.00     0.293 HD
ENDBRANCH  15  18
BRANCH  17  20
ATOM     20  O   UNL     1      33.178  34.716  22.508  1.00  0.00    -0.504 OA
ATOM     21  H   UNL     1      34.039  34.842  23.026  1.00  0.00     0.293 HD
ENDBRANCH  17  20
ENDBRANCH   1  12
BRANCH   2  22
ATOM     22  O   UNL     1      28.431  36.686  24.888  1.00  0.00    -0.502 OA
ATOM     23  H   UNL     1      29.255  37.276  24.866  1.00  0.00     0.293 HD
ENDBRANCH   2  22
BRANCH   6  24
ATOM     24  O   UNL     1      23.399  35.612  23.512  1.00  0.00    -0.507 OA
ATOM     25  H   UNL     1      22.434  35.317  23.510  1.00  0.00     0.293 HD
ENDBRANCH   6  24
BRANCH   8  26
ATOM     26  O   UNL     1      24.060  34.125  18.995  1.00  0.00    -0.508 OA
ATOM     27  H   UNL     1      23.351  33.400  19.000  1.00  0.00     0.293 HD
ENDBRANCH   8  26
TORSDOF 6
ENDMDL
MODEL 9
REMARK VINA RESULT:    -8.078      2.010      3.372
REMARK INTER + INTRA:          -9.562
REMARK INTER:                  -9.250
REMARK INTRA:                  -0.312
REMARK UNBOUND:                 0.168
REMARK SMILES O=c1c(O)c(-c2ccc(O)c(O)c2)oc2cc(O)cc(O)c12
REMARK SMILES IDX 5 1 3 2 2 3 1 4 22 5 20 6 19 7 17 8 16 9 15 10 14 11 6 12
REMARK SMILES IDX 7 13 8 14 9 15 13 16 11 17 10 18 12 20 4 22 21 24 18 26
REMARK H PARENT 10 19 12 21 4 23 21 25 18 27
REMARK Flexibility Score: inf
ROOT
ATOM      1  C   UNL     1      29.599  22.240  25.260  1.00  0.00     0.180 A 
ATOM      2  C   UNL     1      30.915  22.573  24.895  1.00  0.00     0.208 A 
ATOM      3  C   UNL     1      31.186  22.917  23.561  1.00  0.00     0.238 A 
ATOM      4  O   UNL     1      32.354  23.267  23.252  1.00  0.00    -0.285 OA
ATOM      5  C   UNL     1      30.141  22.909  22.605  1.00  0.00     0.111 A 
ATOM      6  C   UNL     1      30.308  23.201  21.219  1.00  0.00     0.134 A 
ATOM      7  C   UNL     1      29.182  23.290  20.391  1.00  0.00     0.093 A 
ATOM      8  C   UNL     1      27.901  23.033  20.887  1.00  0.00     0.123 A 
ATOM      9  C   UNL     1      27.735  22.688  22.225  1.00  0.00     0.094 A 
ATOM     10  C   UNL     1      28.834  22.627  23.084  1.00  0.00     0.146 A 
ATOM     11  O   UNL     1      28.629  22.305  24.356  1.00  0.00    -0.452 OA
ENDROOT
BRANCH   1  12
ATOM     12  C   UNL     1      29.242  21.843  26.641  1.00  0.00     0.025 A 
ATOM     13  C   UNL     1      28.608  22.770  27.484  1.00  0.00     0.016 A 
ATOM     14  C   UNL     1      28.244  22.410  28.784  1.00  0.00     0.051 A 
ATOM     15  C   UNL     1      28.489  21.117  29.256  1.00  0.00     0.157 A 
ATOM     16  C   UNL     1      29.469  20.536  27.109  1.00  0.00     0.062 A 
ATOM     17  C   UNL     1      29.101  20.173  28.413  1.00  0.00     0.158 A 
BRANCH  15  18
ATOM     18  O   UNL     1      28.116  20.787  30.558  1.00  0.00    -0.504 OA
ATOM     19  H   UNL     1      27.604  19.939  30.772  1.00  0.00     0.293 HD
ENDBRANCH  15  18
BRANCH  17  20
ATOM     20  O   UNL     1      29.337  18.878  28.873  1.00  0.00    -0.504 OA
ATOM     21  H   UNL     1      29.926  18.700  29.678  1.00  0.00     0.293 HD
ENDBRANCH  17  20
ENDBRANCH   1  12
BRANCH   2  22
ATOM     22  O   UNL     1      31.928  22.596  25.859  1.00  0.00    -0.502 OA
ATOM     23  H   UNL     1      32.685  21.924  25.868  1.00  0.00     0.293 HD
ENDBRANCH   2  22
BRANCH   6  24
ATOM     24  O   UNL     1      31.550  23.384  20.604  1.00  0.00    -0.507 OA
ATOM     25  H   UNL     1      32.193  22.641  20.376  1.00  0.00     0.293 HD
ENDBRANCH   6  24
BRANCH   8  26
ATOM     26  O   UNL     1      26.788  23.108  20.052  1.00  0.00    -0.508 OA
ATOM     27  H   UNL     1      26.706  22.530  19.224  1.00  0.00     0.293 HD
ENDBRANCH   8  26
TORSDOF 6
ENDMDL
