MODEL 1
REMARK VINA RESULT:    -4.554      0.000      0.000
REMARK INTER + INTRA:          -7.215
REMARK INTER:                  -6.684
REMARK INTRA:                  -0.531
REMARK UNBOUND:                -0.531
REMARK SMILES O=C([O-])CCCCCCCC(=O)[O-]
REMARK SMILES IDX 7 1 6 2 5 3 4 4 2 5 1 6 3 7 8 8 9 9 10 10 11 11 12 12 13 13
REMARK H PARENT
REMARK Flexibility Score: inf
ROOT
ATOM      1  C   UNL     1     -16.129   2.882 -20.049  1.00  0.00     0.000 C 
ENDROOT
BRANCH   1   2
ATOM      2  C   UNL     1     -16.156   2.920 -21.584  1.00  0.00     0.000 C 
BRANCH   2   3
ATOM      3  C   UNL     1     -17.500   2.454 -22.163  1.00  0.00     0.006 C 
BRANCH   3   4
ATOM      4  C   UNL     1     -17.299   1.718 -23.492  1.00  0.00     0.053 C 
BRANCH   4   5
ATOM      5  C   UNL     1     -16.792   0.331 -23.250  1.00  0.00     0.041 C 
ATOM      6  O   UNL     1     -17.491  -0.495 -22.608  1.00  0.00    -0.550 OA
ATOM      7  O   UNL     1     -15.568  -0.064 -23.777  1.00  0.00    -0.550 OA
ENDBRANCH   4   5
ENDBRANCH   3   4
ENDBRANCH   2   3
ENDBRANCH   1   2
BRANCH   1   8
ATOM      8  C   UNL     1     -14.976   2.024 -19.499  1.00  0.00     0.000 C 
BRANCH   8   9
ATOM      9  C   UNL     1     -14.891   0.646 -20.175  1.00  0.00     0.006 C 
BRANCH   9  10
ATOM     10  C   UNL     1     -14.619  -0.486 -19.175  1.00  0.00     0.053 C 
BRANCH  10  11
ATOM     11  C   UNL     1     -13.976  -1.647 -19.865  1.00  0.00     0.041 C 
ATOM     12  O   UNL     1     -14.045  -1.757 -21.118  1.00  0.00    -0.550 OA
ATOM     13  O   UNL     1     -13.345  -2.636 -19.121  1.00  0.00    -0.550 OA
ENDBRANCH  10  11
ENDBRANCH   9  10
ENDBRANCH   8   9
ENDBRANCH   1   8
TORSDOF 8
ENDMDL
MODEL 2
REMARK VINA RESULT:    -4.527      2.526      4.034
REMARK INTER + INTRA:          -7.175
REMARK INTER:                  -6.758
REMARK INTRA:                  -0.417
REMARK UNBOUND:                -0.531
REMARK SMILES O=C([O-])CCCCCCCC(=O)[O-]
REMARK SMILES IDX 7 1 6 2 5 3 4 4 2 5 1 6 3 7 8 8 9 9 10 10 11 11 12 12 13 13
REMARK H PARENT
REMARK Flexibility Score: inf
ROOT
ATOM      1  C   UNL     1     -14.664  -0.809 -19.559  1.00  0.00     0.000 C 
ENDROOT
BRANCH   1   2
ATOM      2  C   UNL     1     -14.489  -0.299 -20.998  1.00  0.00     0.000 C 
BRANCH   2   3
ATOM      3  C   UNL     1     -14.088   1.182 -21.055  1.00  0.00     0.006 C 
BRANCH   3   4
ATOM      4  C   UNL     1     -14.847   1.996 -20.002  1.00  0.00     0.053 C 
BRANCH   4   5
ATOM      5  C   UNL     1     -15.947   2.783 -20.642  1.00  0.00     0.041 C 
ATOM      6  O   UNL     1     -16.109   2.747 -21.889  1.00  0.00    -0.550 OA
ATOM      7  O   UNL     1     -16.825   3.519 -19.854  1.00  0.00    -0.550 OA
ENDBRANCH   4   5
ENDBRANCH   3   4
ENDBRANCH   2   3
ENDBRANCH   1   2
BRANCH   1   8
ATOM      8  C   UNL     1     -13.678  -1.936 -19.207  1.00  0.00     0.000 C 
BRANCH   8   9
ATOM      9  C   UNL     1     -13.398  -2.868 -20.397  1.00  0.00     0.006 C 
BRANCH   9  10
ATOM     10  C   UNL     1     -12.073  -3.628 -20.253  1.00  0.00     0.053 C 
BRANCH  10  11
ATOM     11  C   UNL     1     -12.062  -4.423 -18.987  1.00  0.00     0.041 C 
ATOM     12  O   UNL     1     -11.135  -4.266 -18.148  1.00  0.00    -0.550 OA
ATOM     13  O   UNL     1     -13.046  -5.375 -18.754  1.00  0.00    -0.550 OA
ENDBRANCH  10  11
ENDBRANCH   9  10
ENDBRANCH   8   9
ENDBRANCH   1   8
TORSDOF 8
ENDMDL
MODEL 3
REMARK VINA RESULT:    -4.526      1.049      4.428
REMARK INTER + INTRA:          -7.173
REMARK INTER:                  -6.465
REMARK INTRA:                  -0.707
REMARK UNBOUND:                -0.531
REMARK SMILES O=C([O-])CCCCCCCC(=O)[O-]
REMARK SMILES IDX 7 1 6 2 5 3 4 4 2 5 1 6 3 7 8 8 9 9 10 10 11 11 12 12 13 13
REMARK H PARENT
REMARK Flexibility Score: inf
ROOT
ATOM      1  C   UNL     1     -15.070   2.291 -19.737  1.00  0.00     0.000 C 
ENDROOT
BRANCH   1   2
ATOM      2  C   UNL     1     -14.935   0.766 -19.606  1.00  0.00     0.000 C 
BRANCH   2   3
ATOM      3  C   UNL     1     -14.462   0.102 -20.907  1.00  0.00     0.006 C 
BRANCH   3   4
ATOM      4  C   UNL     1     -15.172  -1.238 -21.127  1.00  0.00     0.053 C 
BRANCH   4   5
ATOM      5  C   UNL     1     -14.217  -2.374 -20.940  1.00  0.00     0.041 C 
ATOM      6  O   UNL     1     -14.007  -3.187 -21.877  1.00  0.00    -0.550 OA
ATOM      7  O   UNL     1     -13.521  -2.507 -19.744  1.00  0.00    -0.550 OA
ENDBRANCH   4   5
ENDBRANCH   3   4
ENDBRANCH   2   3
ENDBRANCH   1   2
BRANCH   1   8
ATOM      8  C   UNL     1     -15.420   2.733 -21.168  1.00  0.00     0.000 C 
BRANCH   8   9
ATOM      9  C   UNL     1     -16.929   2.944 -21.369  1.00  0.00     0.006 C 
BRANCH   9  10
ATOM     10  C   UNL     1     -17.377   2.676 -22.812  1.00  0.00     0.053 C 
BRANCH  10  11
ATOM     11  C   UNL     1     -17.333   1.210 -23.107  1.00  0.00     0.041 C 
ATOM     12  O   UNL     1     -18.142   0.426 -22.545  1.00  0.00    -0.550 OA
ATOM     13  O   UNL     1     -16.367   0.702 -23.966  1.00  0.00    -0.550 OA
ENDBRANCH  10  11
ENDBRANCH   9  10
ENDBRANCH   8   9
ENDBRANCH   1   8
TORSDOF 8
ENDMDL
MODEL 4
REMARK VINA RESULT:    -4.500      3.429      5.746
REMARK INTER + INTRA:          -7.136
REMARK INTER:                  -6.703
REMARK INTRA:                  -0.433
REMARK UNBOUND:                -0.531
REMARK SMILES O=C([O-])CCCCCCCC(=O)[O-]
REMARK SMILES IDX 7 1 6 2 5 3 4 4 2 5 1 6 3 7 8 8 9 9 10 10 11 11 12 12 13 13
REMARK H PARENT
REMARK Flexibility Score: inf
ROOT
ATOM      1  C   UNL     1     -16.360   2.547 -21.266  1.00  0.00     0.000 C 
ENDROOT
BRANCH   1   2
ATOM      2  C   UNL     1     -15.567   2.752 -19.966  1.00  0.00     0.000 C 
BRANCH   2   3
ATOM      3  C   UNL     1     -15.157   1.425 -19.309  1.00  0.00     0.006 C 
BRANCH   3   4
ATOM      4  C   UNL     1     -14.389   0.540 -20.297  1.00  0.00     0.053 C 
BRANCH   4   5
ATOM      5  C   UNL     1     -14.645  -0.906 -20.012  1.00  0.00     0.041 C 
ATOM      6  O   UNL     1     -15.211  -1.631 -20.871  1.00  0.00    -0.550 OA
ATOM      7  O   UNL     1     -14.214  -1.466 -18.814  1.00  0.00    -0.550 OA
ENDBRANCH   4   5
ENDBRANCH   3   4
ENDBRANCH   2   3
ENDBRANCH   1   2
BRANCH   1   8
ATOM      8  C   UNL     1     -17.420   3.640 -21.491  1.00  0.00     0.000 C 
BRANCH   8   9
ATOM      9  C   UNL     1     -17.536   4.604 -20.299  1.00  0.00     0.006 C 
BRANCH   9  10
ATOM     10  C   UNL     1     -17.433   6.076 -20.718  1.00  0.00     0.053 C 
BRANCH  10  11
ATOM     11  C   UNL     1     -16.009   6.532 -20.673  1.00  0.00     0.041 C 
ATOM     12  O   UNL     1     -15.541   7.047 -19.623  1.00  0.00    -0.550 OA
ATOM     13  O   UNL     1     -15.212   6.437 -21.807  1.00  0.00    -0.550 OA
ENDBRANCH  10  11
ENDBRANCH   9  10
ENDBRANCH   8   9
ENDBRANCH   1   8
TORSDOF 8
ENDMDL
MODEL 5
REMARK VINA RESULT:    -4.497      2.989      4.943
REMARK INTER + INTRA:          -7.130
REMARK INTER:                  -6.467
REMARK INTRA:                  -0.663
REMARK UNBOUND:                -0.531
REMARK SMILES O=C([O-])CCCCCCCC(=O)[O-]
REMARK SMILES IDX 7 1 6 2 5 3 4 4 2 5 1 6 3 7 8 8 9 9 10 10 11 11 12 12 13 13
REMARK H PARENT
REMARK Flexibility Score: inf
ROOT
ATOM      1  C   UNL     1     -14.939   2.180 -19.813  1.00  0.00     0.000 C 
ENDROOT
BRANCH   1   2
ATOM      2  C   UNL     1     -14.896   0.645 -19.856  1.00  0.00     0.000 C 
BRANCH   2   3
ATOM      3  C   UNL     1     -14.295   0.107 -21.163  1.00  0.00     0.006 C 
BRANCH   3   4
ATOM      4  C   UNL     1     -15.155  -1.024 -21.736  1.00  0.00     0.053 C 
BRANCH   4   5
ATOM      5  C   UNL     1     -16.121  -0.487 -22.744  1.00  0.00     0.041 C 
ATOM      6  O   UNL     1     -17.360  -0.556 -22.534  1.00  0.00    -0.550 OA
ATOM      7  O   UNL     1     -15.652   0.133 -23.896  1.00  0.00    -0.550 OA
ENDBRANCH   4   5
ENDBRANCH   3   4
ENDBRANCH   2   3
ENDBRANCH   1   2
BRANCH   1   8
ATOM      8  C   UNL     1     -15.342   2.798 -21.163  1.00  0.00     0.000 C 
BRANCH   8   9
ATOM      9  C   UNL     1     -16.856   3.040 -21.273  1.00  0.00     0.006 C 
BRANCH   9  10
ATOM     10  C   UNL     1     -17.368   4.053 -20.241  1.00  0.00     0.053 C 
BRANCH  10  11
ATOM     11  C   UNL     1     -17.033   5.447 -20.666  1.00  0.00     0.041 C 
ATOM     12  O   UNL     1     -16.203   6.128 -20.008  1.00  0.00    -0.550 OA
ATOM     13  O   UNL     1     -17.674   6.014 -21.760  1.00  0.00    -0.550 OA
ENDBRANCH  10  11
ENDBRANCH   9  10
ENDBRANCH   8   9
ENDBRANCH   1   8
TORSDOF 8
ENDMDL
MODEL 6
REMARK VINA RESULT:    -4.487      3.414      4.990
REMARK INTER + INTRA:          -7.117
REMARK INTER:                  -6.381
REMARK INTRA:                  -0.736
REMARK UNBOUND:                -0.531
REMARK SMILES O=C([O-])CCCCCCCC(=O)[O-]
REMARK SMILES IDX 7 1 6 2 5 3 4 4 2 5 1 6 3 7 8 8 9 9 10 10 11 11 12 12 13 13
REMARK H PARENT
REMARK Flexibility Score: inf
ROOT
ATOM      1  C   UNL     1     -17.101   5.620 -20.330  1.00  0.00     0.000 C 
ENDROOT
BRANCH   1   2
ATOM      2  C   UNL     1     -15.739   6.257 -20.012  1.00  0.00     0.000 C 
BRANCH   2   3
ATOM      3  C   UNL     1     -14.564   5.311 -20.301  1.00  0.00     0.006 C 
BRANCH   3   4
ATOM      4  C   UNL     1     -13.781   5.771 -21.535  1.00  0.00     0.053 C 
BRANCH   4   5
ATOM      5  C   UNL     1     -14.275   5.068 -22.760  1.00  0.00     0.041 C 
ATOM      6  O   UNL     1     -15.252   5.529 -23.405  1.00  0.00    -0.550 OA
ATOM      7  O   UNL     1     -13.626   3.927 -23.216  1.00  0.00    -0.550 OA
ENDBRANCH   4   5
ENDBRANCH   3   4
ENDBRANCH   2   3
ENDBRANCH   1   2
BRANCH   1   8
ATOM      8  C   UNL     1     -17.054   4.082 -20.310  1.00  0.00     0.000 C 
BRANCH   8   9
ATOM      9  C   UNL     1     -17.580   3.458 -21.612  1.00  0.00     0.006 C 
BRANCH   9  10
ATOM     10  C   UNL     1     -16.705   2.300 -22.108  1.00  0.00     0.053 C 
BRANCH  10  11
ATOM     11  C   UNL     1     -17.473   1.432 -23.053  1.00  0.00     0.041 C 
ATOM     12  O   UNL     1     -17.449   1.667 -24.291  1.00  0.00    -0.550 OA
ATOM     13  O   UNL     1     -18.257   0.395 -22.566  1.00  0.00    -0.550 OA
ENDBRANCH  10  11
ENDBRANCH   9  10
ENDBRANCH   8   9
ENDBRANCH   1   8
TORSDOF 8
ENDMDL
MODEL 7
REMARK VINA RESULT:    -4.487      3.058      4.103
REMARK INTER + INTRA:          -7.116
REMARK INTER:                  -6.489
REMARK INTRA:                  -0.627
REMARK UNBOUND:                -0.531
REMARK SMILES O=C([O-])CCCCCCCC(=O)[O-]
REMARK SMILES IDX 7 1 6 2 5 3 4 4 2 5 1 6 3 7 8 8 9 9 10 10 11 11 12 12 13 13
REMARK H PARENT
REMARK Flexibility Score: inf
ROOT
ATOM      1  C   UNL     1     -14.983   2.430 -19.819  1.00  0.00     0.000 C 
ENDROOT
BRANCH   1   2
ATOM      2  C   UNL     1     -15.336   2.798 -21.268  1.00  0.00     0.000 C 
BRANCH   2   3
ATOM      3  C   UNL     1     -16.783   3.291 -21.416  1.00  0.00     0.006 C 
BRANCH   3   4
ATOM      4  C   UNL     1     -17.211   4.108 -20.192  1.00  0.00     0.053 C 
BRANCH   4   5
ATOM      5  C   UNL     1     -16.921   5.560 -20.405  1.00  0.00     0.041 C 
ATOM      6  O   UNL     1     -17.789   6.311 -20.921  1.00  0.00    -0.550 OA
ATOM      7  O   UNL     1     -15.708   6.095 -19.988  1.00  0.00    -0.550 OA
ENDBRANCH   4   5
ENDBRANCH   3   4
ENDBRANCH   2   3
ENDBRANCH   1   2
BRANCH   1   8
ATOM      8  C   UNL     1     -14.935   0.910 -19.589  1.00  0.00     0.000 C 
BRANCH   8   9
ATOM      9  C   UNL     1     -14.298   0.155 -20.767  1.00  0.00     0.006 C 
BRANCH   9  10
ATOM     10  C   UNL     1     -15.152  -1.029 -21.240  1.00  0.00     0.053 C 
BRANCH  10  11
ATOM     11  C   UNL     1     -15.972  -0.640 -22.428  1.00  0.00     0.041 C 
ATOM     12  O   UNL     1     -17.212  -0.451 -22.308  1.00  0.00    -0.550 OA
ATOM     13  O   UNL     1     -15.378  -0.533 -23.679  1.00  0.00    -0.550 OA
ENDBRANCH  10  11
ENDBRANCH   9  10
ENDBRANCH   8   9
ENDBRANCH   1   8
TORSDOF 8
ENDMDL
MODEL 8
REMARK VINA RESULT:    -4.477      3.308      4.021
REMARK INTER + INTRA:          -7.102
REMARK INTER:                  -6.497
REMARK INTRA:                  -0.605
REMARK UNBOUND:                -0.531
REMARK SMILES O=C([O-])CCCCCCCC(=O)[O-]
REMARK SMILES IDX 7 1 6 2 5 3 4 4 2 5 1 6 3 7 8 8 9 9 10 10 11 11 12 12 13 13
REMARK H PARENT
REMARK Flexibility Score: inf
ROOT
ATOM      1  C   UNL     1     -16.528   2.096 -21.893  1.00  0.00     0.000 C 
ENDROOT
BRANCH   1   2
ATOM      2  C   UNL     1     -17.487   3.256 -21.583  1.00  0.00     0.000 C 
BRANCH   2   3
ATOM      3  C   UNL     1     -17.113   4.002 -20.294  1.00  0.00     0.006 C 
BRANCH   3   4
ATOM      4  C   UNL     1     -17.307   5.513 -20.460  1.00  0.00     0.053 C 
BRANCH   4   5
ATOM      5  C   UNL     1     -15.985   6.196 -20.620  1.00  0.00     0.041 C 
ATOM      6  O   UNL     1     -15.340   6.084 -21.695  1.00  0.00    -0.550 OA
ATOM      7  O   UNL     1     -15.486   6.995 -19.598  1.00  0.00    -0.550 OA
ENDBRANCH   4   5
ENDBRANCH   3   4
ENDBRANCH   2   3
ENDBRANCH   1   2
BRANCH   1   8
ATOM      8  C   UNL     1     -15.051   2.524 -21.858  1.00  0.00     0.000 C 
BRANCH   8   9
ATOM      9  C   UNL     1     -14.152   1.489 -21.163  1.00  0.00     0.006 C 
BRANCH   9  10
ATOM     10  C   UNL     1     -14.801   0.891 -19.908  1.00  0.00     0.053 C 
BRANCH  10  11
ATOM     11  C   UNL     1     -14.756  -0.603 -19.958  1.00  0.00     0.041 C 
ATOM     12  O   UNL     1     -15.182  -1.216 -20.972  1.00  0.00    -0.550 OA
ATOM     13  O   UNL     1     -14.289  -1.322 -18.864  1.00  0.00    -0.550 OA
ENDBRANCH  10  11
ENDBRANCH   9  10
ENDBRANCH   8   9
ENDBRANCH   1   8
TORSDOF 8
ENDMDL
MODEL 9
REMARK VINA RESULT:    -4.424      1.165      1.637
REMARK INTER + INTRA:          -7.023
REMARK INTER:                  -6.306
REMARK INTRA:                  -0.718
REMARK UNBOUND:                -0.531
REMARK SMILES O=C([O-])CCCCCCCC(=O)[O-]
REMARK SMILES IDX 7 1 6 2 5 3 4 4 2 5 1 6 3 7 8 8 9 9 10 10 11 11 12 12 13 13
REMARK H PARENT
REMARK Flexibility Score: inf
ROOT
ATOM      1  C   UNL     1     -15.506   3.343 -20.236  1.00  0.00     0.000 C 
ENDROOT
BRANCH   1   2
ATOM      2  C   UNL     1     -17.011   3.568 -20.449  1.00  0.00     0.000 C 
BRANCH   2   3
ATOM      3  C   UNL     1     -17.416   3.493 -21.928  1.00  0.00     0.006 C 
BRANCH   3   4
ATOM      4  C   UNL     1     -17.555   2.036 -22.385  1.00  0.00     0.053 C 
BRANCH   4   5
ATOM      5  C   UNL     1     -16.584   1.738 -23.484  1.00  0.00     0.041 C 
ATOM      6  O   UNL     1     -15.967   2.673 -24.056  1.00  0.00    -0.550 OA
ATOM      7  O   UNL     1     -16.326   0.421 -23.845  1.00  0.00    -0.550 OA
ENDBRANCH   4   5
ENDBRANCH   3   4
ENDBRANCH   2   3
ENDBRANCH   1   2
BRANCH   1   8
ATOM      8  C   UNL     1     -15.201   2.012 -19.527  1.00  0.00     0.000 C 
BRANCH   8   9
ATOM      9  C   UNL     1     -14.424   1.032 -20.421  1.00  0.00     0.006 C 
BRANCH   9  10
ATOM     10  C   UNL     1     -15.148  -0.309 -20.595  1.00  0.00     0.053 C 
BRANCH  10  11
ATOM     11  C   UNL     1     -14.393  -1.403 -19.910  1.00  0.00     0.041 C 
ATOM     12  O   UNL     1     -14.213  -1.365 -18.664  1.00  0.00    -0.550 OA
ATOM     13  O   UNL     1     -13.843  -2.440 -20.653  1.00  0.00    -0.550 OA
ENDBRANCH  10  11
ENDBRANCH   9  10
ENDBRANCH   8   9
ENDBRANCH   1   8
TORSDOF 8
ENDMDL
