MODEL 1
REMARK VINA RESULT:    -4.210      0.000      0.000
REMARK INTER + INTRA:          -4.890
REMARK INTER:                  -4.949
REMARK INTRA:                   0.059
REMARK UNBOUND:                 0.059
REMARK SMILES O=c1c(O)c(-c2ccc(O)cc2)oc2cc(O)cc(O)c12
REMARK SMILES IDX 5 1 3 2 2 3 1 4 21 5 19 6 18 7 16 8 15 9 14 10 13 11 6 12
REMARK SMILES IDX 7 13 8 14 9 15 12 16 11 17 10 18 4 20 20 22 17 24
REMARK H PARENT 10 19 4 21 20 23 17 25
REMARK Flexibility Score: inf
ROOT
ATOM      1  C   UNL     1       7.676  10.980 -23.278  1.00  0.00     0.180 A 
ATOM      2  C   UNL     1       9.055  10.730 -23.373  1.00  0.00     0.208 A 
ATOM      3  C   UNL     1       9.503   9.682 -24.193  1.00  0.00     0.238 A 
ATOM      4  O   UNL     1      10.742   9.498 -24.315  1.00  0.00    -0.285 OA
ATOM      5  C   UNL     1       8.566   8.887 -24.895  1.00  0.00     0.111 A 
ATOM      6  C   UNL     1       8.906   7.774 -25.722  1.00  0.00     0.134 A 
ATOM      7  C   UNL     1       7.907   7.142 -26.473  1.00  0.00     0.093 A 
ATOM      8  C   UNL     1       6.573   7.538 -26.376  1.00  0.00     0.123 A 
ATOM      9  C   UNL     1       6.222   8.586 -25.524  1.00  0.00     0.094 A 
ATOM     10  C   UNL     1       7.201   9.260 -24.791  1.00  0.00     0.146 A 
ATOM     11  O   UNL     1       6.826  10.259 -24.000  1.00  0.00    -0.452 OA
ENDROOT
BRANCH   1  12
ATOM     12  C   UNL     1       7.125  12.050 -22.415  1.00  0.00     0.021 A 
ATOM     13  C   UNL     1       7.569  12.225 -21.091  1.00  0.00     0.016 A 
ATOM     14  C   UNL     1       7.017  13.227 -20.288  1.00  0.00     0.047 A 
ATOM     15  C   UNL     1       6.008  14.058 -20.791  1.00  0.00     0.115 A 
ATOM     16  C   UNL     1       6.098  12.875 -22.905  1.00  0.00     0.016 A 
ATOM     17  C   UNL     1       5.549  13.876 -22.100  1.00  0.00     0.047 A 
BRANCH  15  18
ATOM     18  O   UNL     1       5.451  15.060 -20.000  1.00  0.00    -0.508 OA
ATOM     19  H   UNL     1       4.449  15.138 -19.873  1.00  0.00     0.293 HD
ENDBRANCH  15  18
ENDBRANCH   1  12
BRANCH   2  20
ATOM     20  O   UNL     1       9.965  11.541 -22.688  1.00  0.00    -0.502 OA
ATOM     21  H   UNL     1      10.870  11.786 -23.070  1.00  0.00     0.293 HD
ENDBRANCH   2  20
BRANCH   6  22
ATOM     22  O   UNL     1      10.194   7.239 -25.820  1.00  0.00    -0.507 OA
ATOM     23  H   UNL     1      11.019   7.649 -25.412  1.00  0.00     0.293 HD
ENDBRANCH   6  22
BRANCH   8  24
ATOM     24  O   UNL     1       5.603   6.875 -27.125  1.00  0.00    -0.508 OA
ATOM     25  H   UNL     1       4.834   6.388 -26.683  1.00  0.00     0.293 HD
ENDBRANCH   8  24
TORSDOF 5
ENDMDL
MODEL 2
REMARK VINA RESULT:    -4.051      1.574      3.539
REMARK INTER + INTRA:          -4.702
REMARK INTER:                  -4.580
REMARK INTRA:                  -0.122
REMARK UNBOUND:                 0.059
REMARK SMILES O=c1c(O)c(-c2ccc(O)cc2)oc2cc(O)cc(O)c12
REMARK SMILES IDX 5 1 3 2 2 3 1 4 21 5 19 6 18 7 16 8 15 9 14 10 13 11 6 12
REMARK SMILES IDX 7 13 8 14 9 15 12 16 11 17 10 18 4 20 20 22 17 24
REMARK H PARENT 10 19 4 21 20 23 17 25
REMARK Flexibility Score: inf
ROOT
ATOM      1  C   UNL     1       8.251  10.809 -23.390  1.00  0.00     0.180 A 
ATOM      2  C   UNL     1       7.588   9.734 -24.006  1.00  0.00     0.208 A 
ATOM      3  C   UNL     1       8.338   8.807 -24.748  1.00  0.00     0.238 A 
ATOM      4  O   UNL     1       7.745   7.817 -25.253  1.00  0.00    -0.285 OA
ATOM      5  C   UNL     1       9.737   8.975 -24.879  1.00  0.00     0.111 A 
ATOM      6  C   UNL     1      10.589   8.119 -25.641  1.00  0.00     0.134 A 
ATOM      7  C   UNL     1      11.975   8.305 -25.591  1.00  0.00     0.093 A 
ATOM      8  C   UNL     1      12.537   9.353 -24.863  1.00  0.00     0.123 A 
ATOM      9  C   UNL     1      11.709  10.232 -24.163  1.00  0.00     0.094 A 
ATOM     10  C   UNL     1      10.325  10.051 -24.163  1.00  0.00     0.146 A 
ATOM     11  O   UNL     1       9.573  10.902 -23.476  1.00  0.00    -0.452 OA
ENDROOT
BRANCH   1  12
ATOM     12  C   UNL     1       7.527  11.841 -22.612  1.00  0.00     0.021 A 
ATOM     13  C   UNL     1       6.541  12.650 -23.208  1.00  0.00     0.016 A 
ATOM     14  C   UNL     1       5.889  13.634 -22.460  1.00  0.00     0.047 A 
ATOM     15  C   UNL     1       6.220  13.831 -21.113  1.00  0.00     0.115 A 
ATOM     16  C   UNL     1       7.867  12.059 -21.266  1.00  0.00     0.016 A 
ATOM     17  C   UNL     1       7.213  13.042 -20.521  1.00  0.00     0.047 A 
BRANCH  15  18
ATOM     18  O   UNL     1       5.575  14.807 -20.357  1.00  0.00    -0.508 OA
ATOM     19  H   UNL     1       5.498  14.731 -19.350  1.00  0.00     0.293 HD
ENDBRANCH  15  18
ENDBRANCH   1  12
BRANCH   2  20
ATOM     20  O   UNL     1       6.209   9.575 -23.847  1.00  0.00    -0.502 OA
ATOM     21  H   UNL     1       5.556   9.693 -24.612  1.00  0.00     0.293 HD
ENDBRANCH   2  20
BRANCH   6  22
ATOM     22  O   UNL     1      10.124   7.099 -26.476  1.00  0.00    -0.507 OA
ATOM     23  H   UNL     1       9.762   6.214 -26.155  1.00  0.00     0.293 HD
ENDBRANCH   6  22
BRANCH   8  24
ATOM     24  O   UNL     1      13.920   9.518 -24.850  1.00  0.00    -0.508 OA
ATOM     25  H   UNL     1      14.396  10.064 -25.558  1.00  0.00     0.293 HD
ENDBRANCH   8  24
TORSDOF 5
ENDMDL
MODEL 3
REMARK VINA RESULT:    -3.955      1.533      3.337
REMARK INTER + INTRA:          -4.590
REMARK INTER:                  -4.541
REMARK INTRA:                  -0.049
REMARK UNBOUND:                 0.059
REMARK SMILES O=c1c(O)c(-c2ccc(O)cc2)oc2cc(O)cc(O)c12
REMARK SMILES IDX 5 1 3 2 2 3 1 4 21 5 19 6 18 7 16 8 15 9 14 10 13 11 6 12
REMARK SMILES IDX 7 13 8 14 9 15 12 16 11 17 10 18 4 20 20 22 17 24
REMARK H PARENT 10 19 4 21 20 23 17 25
REMARK Flexibility Score: inf
ROOT
ATOM      1  C   UNL     1       8.194  10.894 -23.329  1.00  0.00     0.180 A 
ATOM      2  C   UNL     1       7.503   9.843 -23.955  1.00  0.00     0.208 A 
ATOM      3  C   UNL     1       8.227   8.909 -24.714  1.00  0.00     0.238 A 
ATOM      4  O   UNL     1       7.609   7.940 -25.228  1.00  0.00    -0.285 OA
ATOM      5  C   UNL     1       9.629   9.046 -24.850  1.00  0.00     0.111 A 
ATOM      6  C   UNL     1      10.457   8.181 -25.627  1.00  0.00     0.134 A 
ATOM      7  C   UNL     1      11.848   8.333 -25.583  1.00  0.00     0.093 A 
ATOM      8  C   UNL     1      12.438   9.358 -24.844  1.00  0.00     0.123 A 
ATOM      9  C   UNL     1      11.634  10.247 -24.128  1.00  0.00     0.094 A 
ATOM     10  C   UNL     1      10.246  10.098 -24.123  1.00  0.00     0.146 A 
ATOM     11  O   UNL     1       9.518  10.958 -23.420  1.00  0.00    -0.452 OA
ENDROOT
BRANCH   1  12
ATOM     12  C   UNL     1       7.499  11.932 -22.534  1.00  0.00     0.021 A 
ATOM     13  C   UNL     1       7.794  12.132 -21.172  1.00  0.00     0.016 A 
ATOM     14  C   UNL     1       7.107  13.102 -20.436  1.00  0.00     0.047 A 
ATOM     15  C   UNL     1       6.110  13.874 -21.045  1.00  0.00     0.115 A 
ATOM     16  C   UNL     1       6.483  12.697 -23.131  1.00  0.00     0.016 A 
ATOM     17  C   UNL     1       5.799  13.667 -22.393  1.00  0.00     0.047 A 
BRANCH  15  18
ATOM     18  O   UNL     1       5.420  14.844 -20.322  1.00  0.00    -0.508 OA
ATOM     19  H   UNL     1       5.903  15.486 -19.704  1.00  0.00     0.293 HD
ENDBRANCH  15  18
ENDBRANCH   1  12
BRANCH   2  20
ATOM     20  O   UNL     1       6.122   9.714 -23.791  1.00  0.00    -0.502 OA
ATOM     21  H   UNL     1       5.615   8.883 -24.071  1.00  0.00     0.293 HD
ENDBRANCH   2  20
BRANCH   6  22
ATOM     22  O   UNL     1       9.964   7.182 -26.473  1.00  0.00    -0.507 OA
ATOM     23  H   UNL     1      10.536   6.550 -27.010  1.00  0.00     0.293 HD
ENDBRANCH   6  22
BRANCH   8  24
ATOM     24  O   UNL     1      13.824   9.489 -24.836  1.00  0.00    -0.508 OA
ATOM     25  H   UNL     1      14.422   8.779 -24.432  1.00  0.00     0.293 HD
ENDBRANCH   8  24
TORSDOF 5
ENDMDL
MODEL 4
REMARK VINA RESULT:    -3.616      3.717      7.476
REMARK INTER + INTRA:          -4.191
REMARK INTER:                  -4.347
REMARK INTRA:                   0.156
REMARK UNBOUND:                 0.059
REMARK SMILES O=c1c(O)c(-c2ccc(O)cc2)oc2cc(O)cc(O)c12
REMARK SMILES IDX 5 1 3 2 2 3 1 4 21 5 19 6 18 7 16 8 15 9 14 10 13 11 6 12
REMARK SMILES IDX 7 13 8 14 9 15 12 16 11 17 10 18 4 20 20 22 17 24
REMARK H PARENT 10 19 4 21 20 23 17 25
REMARK Flexibility Score: inf
ROOT
ATOM      1  C   UNL     1      12.002   8.684 -25.354  1.00  0.00     0.180 A 
ATOM      2  C   UNL     1      11.138   7.893 -26.132  1.00  0.00     0.208 A 
ATOM      3  C   UNL     1       9.753   7.987 -25.921  1.00  0.00     0.238 A 
ATOM      4  O   UNL     1       8.984   7.316 -26.657  1.00  0.00    -0.285 OA
ATOM      5  C   UNL     1       9.249   8.856 -24.923  1.00  0.00     0.111 A 
ATOM      6  C   UNL     1       7.868   9.000 -24.596  1.00  0.00     0.134 A 
ATOM      7  C   UNL     1       7.474   9.986 -23.684  1.00  0.00     0.093 A 
ATOM      8  C   UNL     1       8.414  10.788 -23.038  1.00  0.00     0.123 A 
ATOM      9  C   UNL     1       9.773  10.615 -23.305  1.00  0.00     0.094 A 
ATOM     10  C   UNL     1      10.194   9.664 -24.238  1.00  0.00     0.146 A 
ATOM     11  O   UNL     1      11.495   9.538 -24.472  1.00  0.00    -0.452 OA
ENDROOT
BRANCH   1  12
ATOM     12  C   UNL     1      13.474   8.623 -25.501  1.00  0.00     0.021 A 
ATOM     13  C   UNL     1      14.255   9.793 -25.544  1.00  0.00     0.016 A 
ATOM     14  C   UNL     1      15.641   9.711 -25.708  1.00  0.00     0.047 A 
ATOM     15  C   UNL     1      16.262   8.462 -25.842  1.00  0.00     0.115 A 
ATOM     16  C   UNL     1      14.103   7.376 -25.656  1.00  0.00     0.016 A 
ATOM     17  C   UNL     1      15.489   7.297 -25.819  1.00  0.00     0.047 A 
BRANCH  15  18
ATOM     18  O   UNL     1      17.642   8.369 -26.004  1.00  0.00    -0.508 OA
ATOM     19  H   UNL     1      18.132   7.491 -25.873  1.00  0.00     0.293 HD
ENDBRANCH  15  18
ENDBRANCH   1  12
BRANCH   2  20
ATOM     20  O   UNL     1      11.655   7.057 -27.125  1.00  0.00    -0.502 OA
ATOM     21  H   UNL     1      12.046   7.415 -27.989  1.00  0.00     0.293 HD
ENDBRANCH   2  20
BRANCH   6  22
ATOM     22  O   UNL     1       6.854   8.188 -25.115  1.00  0.00    -0.507 OA
ATOM     23  H   UNL     1       5.909   8.157 -24.768  1.00  0.00     0.293 HD
ENDBRANCH   6  22
BRANCH   8  24
ATOM     24  O   UNL     1       7.987  11.748 -22.123  1.00  0.00    -0.508 OA
ATOM     25  H   UNL     1       7.099  12.224 -22.230  1.00  0.00     0.293 HD
ENDBRANCH   8  24
TORSDOF 5
ENDMDL
MODEL 5
REMARK VINA RESULT:    -3.316      2.785      6.012
REMARK INTER + INTRA:          -3.838
REMARK INTER:                  -4.018
REMARK INTRA:                   0.180
REMARK UNBOUND:                 0.059
REMARK SMILES O=c1c(O)c(-c2ccc(O)cc2)oc2cc(O)cc(O)c12
REMARK SMILES IDX 5 1 3 2 2 3 1 4 21 5 19 6 18 7 16 8 15 9 14 10 13 11 6 12
REMARK SMILES IDX 7 13 8 14 9 15 12 16 11 17 10 18 4 20 20 22 17 24
REMARK H PARENT 10 19 4 21 20 23 17 25
REMARK Flexibility Score: inf
ROOT
ATOM      1  C   UNL     1      10.709   9.530 -24.705  1.00  0.00     0.180 A 
ATOM      2  C   UNL     1      10.083  10.329 -23.733  1.00  0.00     0.208 A 
ATOM      3  C   UNL     1       8.681  10.328 -23.649  1.00  0.00     0.238 A 
ATOM      4  O   UNL     1       8.130  11.003 -22.742  1.00  0.00    -0.285 OA
ATOM      5  C   UNL     1       7.922   9.542 -24.549  1.00  0.00     0.111 A 
ATOM      6  C   UNL     1       6.496   9.495 -24.581  1.00  0.00     0.134 A 
ATOM      7  C   UNL     1       5.854   8.582 -25.426  1.00  0.00     0.093 A 
ATOM      8  C   UNL     1       6.582   7.761 -26.286  1.00  0.00     0.123 A 
ATOM      9  C   UNL     1       7.975   7.841 -26.306  1.00  0.00     0.094 A 
ATOM     10  C   UNL     1       8.646   8.716 -25.449  1.00  0.00     0.146 A 
ATOM     11  O   UNL     1       9.972   8.753 -25.491  1.00  0.00    -0.452 OA
ENDROOT
BRANCH   1  12
ATOM     12  C   UNL     1      12.180   9.497 -24.872  1.00  0.00     0.021 A 
ATOM     13  C   UNL     1      12.961  10.657 -24.715  1.00  0.00     0.016 A 
ATOM     14  C   UNL     1      14.346  10.607 -24.902  1.00  0.00     0.047 A 
ATOM     15  C   UNL     1      14.966   9.402 -25.258  1.00  0.00     0.115 A 
ATOM     16  C   UNL     1      12.807   8.298 -25.249  1.00  0.00     0.016 A 
ATOM     17  C   UNL     1      14.192   8.250 -25.434  1.00  0.00     0.047 A 
BRANCH  15  18
ATOM     18  O   UNL     1      16.344   9.340 -25.445  1.00  0.00    -0.508 OA
ATOM     19  H   UNL     1      16.963  10.042 -25.056  1.00  0.00     0.293 HD
ENDBRANCH  15  18
ENDBRANCH   1  12
BRANCH   2  20
ATOM     20  O   UNL     1      10.852  11.081 -22.841  1.00  0.00    -0.502 OA
ATOM     21  H   UNL     1      11.784  10.804 -22.557  1.00  0.00     0.293 HD
ENDBRANCH   2  20
BRANCH   6  22
ATOM     22  O   UNL     1       5.671  10.338 -23.829  1.00  0.00    -0.507 OA
ATOM     23  H   UNL     1       5.393  11.266 -24.105  1.00  0.00     0.293 HD
ENDBRANCH   6  22
BRANCH   8  24
ATOM     24  O   UNL     1       5.909   6.876 -27.125  1.00  0.00    -0.508 OA
ATOM     25  H   UNL     1       6.329   6.533 -27.980  1.00  0.00     0.293 HD
ENDBRANCH   8  24
TORSDOF 5
ENDMDL
MODEL 6
REMARK VINA RESULT:    -3.279      2.742      6.190
REMARK INTER + INTRA:          -3.795
REMARK INTER:                  -3.685
REMARK INTRA:                  -0.110
REMARK UNBOUND:                 0.059
REMARK SMILES O=c1c(O)c(-c2ccc(O)cc2)oc2cc(O)cc(O)c12
REMARK SMILES IDX 5 1 3 2 2 3 1 4 21 5 19 6 18 7 16 8 15 9 14 10 13 11 6 12
REMARK SMILES IDX 7 13 8 14 9 15 12 16 11 17 10 18 4 20 20 22 17 24
REMARK H PARENT 10 19 4 21 20 23 17 25
REMARK Flexibility Score: inf
ROOT
ATOM      1  C   UNL     1       9.856  10.579 -24.229  1.00  0.00     0.180 A 
ATOM      2  C   UNL     1       9.501  10.925 -22.914  1.00  0.00     0.208 A 
ATOM      3  C   UNL     1       8.260  11.540 -22.682  1.00  0.00     0.238 A 
ATOM      4  O   UNL     1       7.927  11.798 -21.497  1.00  0.00    -0.285 OA
ATOM      5  C   UNL     1       7.396  11.816 -23.769  1.00  0.00     0.111 A 
ATOM      6  C   UNL     1       6.134  12.471 -23.655  1.00  0.00     0.134 A 
ATOM      7  C   UNL     1       5.305  12.574 -24.779  1.00  0.00     0.093 A 
ATOM      8  C   UNL     1       5.719  12.105 -26.025  1.00  0.00     0.123 A 
ATOM      9  C   UNL     1       6.977  11.516 -26.160  1.00  0.00     0.094 A 
ATOM     10  C   UNL     1       7.811  11.366 -25.050  1.00  0.00     0.146 A 
ATOM     11  O   UNL     1       8.996  10.791 -25.219  1.00  0.00    -0.452 OA
ENDROOT
BRANCH   1  12
ATOM     12  C   UNL     1      11.156   9.952 -24.557  1.00  0.00     0.021 A 
ATOM     13  C   UNL     1      12.374  10.596 -24.270  1.00  0.00     0.016 A 
ATOM     14  C   UNL     1      13.589   9.995 -24.610  1.00  0.00     0.047 A 
ATOM     15  C   UNL     1      13.604   8.750 -25.252  1.00  0.00     0.115 A 
ATOM     16  C   UNL     1      11.180   8.712 -25.219  1.00  0.00     0.016 A 
ATOM     17  C   UNL     1      12.396   8.113 -25.558  1.00  0.00     0.047 A 
BRANCH  15  18
ATOM     18  O   UNL     1      14.808   8.140 -25.595  1.00  0.00    -0.508 OA
ATOM     19  H   UNL     1      15.146   8.136 -26.550  1.00  0.00     0.293 HD
ENDBRANCH  15  18
ENDBRANCH   1  12
BRANCH   2  20
ATOM     20  O   UNL     1      10.360  10.625 -21.853  1.00  0.00    -0.502 OA
ATOM     21  H   UNL     1      10.890  11.336 -21.364  1.00  0.00     0.293 HD
ENDBRANCH   2  20
BRANCH   6  22
ATOM     22  O   UNL     1       5.663  13.058 -22.476  1.00  0.00    -0.507 OA
ATOM     23  H   UNL     1       6.248  13.379 -21.721  1.00  0.00     0.293 HD
ENDBRANCH   6  22
BRANCH   8  24
ATOM     24  O   UNL     1       4.875  12.238 -27.125  1.00  0.00    -0.508 OA
ATOM     25  H   UNL     1       5.171  11.971 -28.056  1.00  0.00     0.293 HD
ENDBRANCH   8  24
TORSDOF 5
ENDMDL
MODEL 7
REMARK VINA RESULT:    -3.236      2.103      4.055
REMARK INTER + INTRA:          -3.744
REMARK INTER:                  -3.597
REMARK INTRA:                  -0.147
REMARK UNBOUND:                 0.059
REMARK SMILES O=c1c(O)c(-c2ccc(O)cc2)oc2cc(O)cc(O)c12
REMARK SMILES IDX 5 1 3 2 2 3 1 4 21 5 19 6 18 7 16 8 15 9 14 10 13 11 6 12
REMARK SMILES IDX 7 13 8 14 9 15 12 16 11 17 10 18 4 20 20 22 17 24
REMARK H PARENT 10 19 4 21 20 23 17 25
REMARK Flexibility Score: inf
ROOT
ATOM      1  C   UNL     1       8.941  10.448 -23.987  1.00  0.00     0.180 A 
ATOM      2  C   UNL     1       8.465   9.291 -24.628  1.00  0.00     0.208 A 
ATOM      3  C   UNL     1       9.384   8.429 -25.248  1.00  0.00     0.238 A 
ATOM      4  O   UNL     1       8.956   7.368 -25.774  1.00  0.00    -0.285 OA
ATOM      5  C   UNL     1      10.764   8.743 -25.236  1.00  0.00     0.111 A 
ATOM      6  C   UNL     1      11.779   7.963 -25.867  1.00  0.00     0.134 A 
ATOM      7  C   UNL     1      13.125   8.297 -25.678  1.00  0.00     0.093 A 
ATOM      8  C   UNL     1      13.491   9.419 -24.936  1.00  0.00     0.123 A 
ATOM      9  C   UNL     1      12.505  10.224 -24.363  1.00  0.00     0.094 A 
ATOM     10  C   UNL     1      11.155   9.895 -24.504  1.00  0.00     0.146 A 
ATOM     11  O   UNL     1      10.248  10.680 -23.935  1.00  0.00    -0.452 OA
ENDROOT
BRANCH   1  12
ATOM     12  C   UNL     1       8.033  11.417 -23.332  1.00  0.00     0.021 A 
ATOM     13  C   UNL     1       7.074  12.137 -24.070  1.00  0.00     0.016 A 
ATOM     14  C   UNL     1       6.245  13.065 -23.434  1.00  0.00     0.047 A 
ATOM     15  C   UNL     1       6.369  13.295 -22.057  1.00  0.00     0.115 A 
ATOM     16  C   UNL     1       8.165  11.669 -21.956  1.00  0.00     0.016 A 
ATOM     17  C   UNL     1       7.333  12.596 -21.323  1.00  0.00     0.047 A 
BRANCH  15  18
ATOM     18  O   UNL     1       5.547  14.216 -21.413  1.00  0.00    -0.508 OA
ATOM     19  H   UNL     1       4.937  13.938 -20.653  1.00  0.00     0.293 HD
ENDBRANCH  15  18
ENDBRANCH   1  12
BRANCH   2  20
ATOM     20  O   UNL     1       7.101   8.990 -24.611  1.00  0.00    -0.502 OA
ATOM     21  H   UNL     1       6.438   9.499 -24.039  1.00  0.00     0.293 HD
ENDBRANCH   2  20
BRANCH   6  22
ATOM     22  O   UNL     1      11.517   6.875 -26.706  1.00  0.00    -0.507 OA
ATOM     23  H   UNL     1      10.653   6.357 -26.723  1.00  0.00     0.293 HD
ENDBRANCH   6  22
BRANCH   8  24
ATOM     24  O   UNL     1      14.840   9.732 -24.782  1.00  0.00    -0.508 OA
ATOM     25  H   UNL     1      15.148  10.682 -24.615  1.00  0.00     0.293 HD
ENDBRANCH   8  24
TORSDOF 5
ENDMDL
MODEL 8
REMARK VINA RESULT:    -2.572      3.216      5.204
REMARK INTER + INTRA:          -2.964
REMARK INTER:                  -2.808
REMARK INTRA:                  -0.156
REMARK UNBOUND:                 0.059
REMARK SMILES O=c1c(O)c(-c2ccc(O)cc2)oc2cc(O)cc(O)c12
REMARK SMILES IDX 5 1 3 2 2 3 1 4 21 5 19 6 18 7 16 8 15 9 14 10 13 11 6 12
REMARK SMILES IDX 7 13 8 14 9 15 12 16 11 17 10 18 4 20 20 22 17 24
REMARK H PARENT 10 19 4 21 20 23 17 25
REMARK Flexibility Score: inf
ROOT
ATOM      1  C   UNL     1      10.407   9.896 -24.630  1.00  0.00     0.180 A 
ATOM      2  C   UNL     1      10.208   8.682 -25.308  1.00  0.00     0.208 A 
ATOM      3  C   UNL     1      11.320   8.005 -25.835  1.00  0.00     0.238 A 
ATOM      4  O   UNL     1      11.140   6.892 -26.394  1.00  0.00    -0.285 OA
ATOM      5  C   UNL     1      12.614   8.560 -25.694  1.00  0.00     0.111 A 
ATOM      6  C   UNL     1      13.807   7.981 -26.224  1.00  0.00     0.134 A 
ATOM      7  C   UNL     1      15.047   8.548 -25.909  1.00  0.00     0.093 A 
ATOM      8  C   UNL     1      15.137   9.707 -25.141  1.00  0.00     0.123 A 
ATOM      9  C   UNL     1      13.973  10.316 -24.667  1.00  0.00     0.094 A 
ATOM     10  C   UNL     1      12.723   9.753 -24.933  1.00  0.00     0.146 A 
ATOM     11  O   UNL     1      11.641  10.357 -24.455  1.00  0.00    -0.452 OA
ENDROOT
BRANCH   1  12
ATOM     12  C   UNL     1       9.284  10.680 -24.067  1.00  0.00     0.021 A 
ATOM     13  C   UNL     1       9.103  10.810 -22.678  1.00  0.00     0.016 A 
ATOM     14  C   UNL     1       8.021  11.534 -22.170  1.00  0.00     0.047 A 
ATOM     15  C   UNL     1       7.099  12.127 -23.042  1.00  0.00     0.115 A 
ATOM     16  C   UNL     1       8.342  11.260 -24.934  1.00  0.00     0.016 A 
ATOM     17  C   UNL     1       7.262  11.985 -24.424  1.00  0.00     0.047 A 
BRANCH  15  18
ATOM     18  O   UNL     1       6.018  12.852 -22.548  1.00  0.00    -0.508 OA
ATOM     19  H   UNL     1       5.793  13.774 -22.903  1.00  0.00     0.293 HD
ENDBRANCH  15  18
ENDBRANCH   1  12
BRANCH   2  20
ATOM     20  O   UNL     1       8.924   8.142 -25.418  1.00  0.00    -0.502 OA
ATOM     21  H   UNL     1       8.591   7.400 -24.814  1.00  0.00     0.293 HD
ENDBRANCH   2  20
BRANCH   6  22
ATOM     22  O   UNL     1      13.823   6.875 -27.079  1.00  0.00    -0.507 OA
ATOM     23  H   UNL     1      13.668   6.916 -28.074  1.00  0.00     0.293 HD
ENDBRANCH   6  22
BRANCH   8  24
ATOM     24  O   UNL     1      16.387  10.253 -24.861  1.00  0.00    -0.508 OA
ATOM     25  H   UNL     1      17.218   9.957 -25.359  1.00  0.00     0.293 HD
ENDBRANCH   8  24
TORSDOF 5
ENDMDL
