MODEL 1
REMARK VINA RESULT:    -3.495      0.000      0.000
REMARK INTER + INTRA:          -8.511
REMARK INTER:                  -6.356
REMARK INTRA:                  -2.154
REMARK UNBOUND:                -2.154
REMARK SMILES CCCCCCCCCCCCCCCC(=O)[O-]
REMARK SMILES IDX 9 1 10 2 11 3 12 4 13 5 14 6 15 7 16 8 17 9 18 10 8 11 7 12
REMARK SMILES IDX 6 13 5 14 4 15 3 16 2 17 1 18
REMARK H PARENT
REMARK Flexibility Score: inf
ROOT
ATOM      1  C   UNL     1      33.575 -43.608  -1.385  1.00  0.00     0.000 C 
ENDROOT
BRANCH   1   2
ATOM      2  C   UNL     1      34.048 -43.655   0.076  1.00  0.00     0.000 C 
BRANCH   2   3
ATOM      3  C   UNL     1      33.014 -44.367   0.963  1.00  0.00     0.000 C 
BRANCH   3   4
ATOM      4  C   UNL     1      33.649 -45.052   2.184  1.00  0.00     0.000 C 
BRANCH   4   5
ATOM      5  C   UNL     1      34.031 -46.516   1.907  1.00  0.00     0.000 C 
BRANCH   5   6
ATOM      6  C   UNL     1      33.196 -47.153   0.781  1.00  0.00     0.006 C 
BRANCH   6   7
ATOM      7  C   UNL     1      33.797 -48.450   0.212  1.00  0.00     0.053 C 
BRANCH   7   8
ATOM      8  C   UNL     1      33.448 -49.655   1.033  1.00  0.00     0.041 C 
ATOM      9  O   UNL     1      34.313 -50.184   1.779  1.00  0.00    -0.550 OA
ATOM     10  O   UNL     1      32.178 -50.212   0.951  1.00  0.00    -0.550 OA
ENDBRANCH   7   8
ENDBRANCH   6   7
ENDBRANCH   5   6
ENDBRANCH   4   5
ENDBRANCH   3   4
ENDBRANCH   2   3
ENDBRANCH   1   2
BRANCH   1  11
ATOM     11  C   UNL     1      32.219 -44.306  -1.599  1.00  0.00     0.000 C 
BRANCH  11  12
ATOM     12  C   UNL     1      32.279 -45.605  -2.420  1.00  0.00    -0.000 C 
BRANCH  12  13
ATOM     13  C   UNL     1      33.691 -45.930  -2.928  1.00  0.00    -0.000 C 
BRANCH  13  14
ATOM     14  C   UNL     1      33.655 -46.397  -4.391  1.00  0.00    -0.000 C 
BRANCH  14  15
ATOM     15  C   UNL     1      33.174 -45.301  -5.358  1.00  0.00    -0.000 C 
BRANCH  15  16
ATOM     16  C   UNL     1      34.029 -44.017  -5.367  1.00  0.00    -0.000 C 
BRANCH  16  17
ATOM     17  C   UNL     1      33.269 -42.728  -5.014  1.00  0.00    -0.003 C 
ATOM     18  C   UNL     1      31.751 -42.897  -5.070  1.00  0.00     0.004 C 
ENDBRANCH  16  17
ENDBRANCH  15  16
ENDBRANCH  14  15
ENDBRANCH  13  14
ENDBRANCH  12  13
ENDBRANCH  11  12
ENDBRANCH   1  11
TORSDOF 14
ENDMDL
MODEL 2
REMARK VINA RESULT:    -3.488      2.985      5.176
REMARK INTER + INTRA:          -8.497
REMARK INTER:                  -6.433
REMARK INTRA:                  -2.063
REMARK UNBOUND:                -2.154
REMARK SMILES CCCCCCCCCCCCCCCC(=O)[O-]
REMARK SMILES IDX 9 1 10 2 11 3 12 4 13 5 14 6 15 7 16 8 17 9 18 10 8 11 7 12
REMARK SMILES IDX 6 13 5 14 4 15 3 16 2 17 1 18
REMARK H PARENT
REMARK Flexibility Score: inf
ROOT
ATOM      1  C   UNL     1      36.463 -47.896   2.717  1.00  0.00     0.000 C 
ENDROOT
BRANCH   1   2
ATOM      2  C   UNL     1      35.252 -48.746   3.128  1.00  0.00     0.000 C 
BRANCH   2   3
ATOM      3  C   UNL     1      34.997 -49.867   2.108  1.00  0.00     0.000 C 
BRANCH   3   4
ATOM      4  C   UNL     1      33.614 -49.767   1.446  1.00  0.00     0.000 C 
BRANCH   4   5
ATOM      5  C   UNL     1      33.453 -48.489   0.605  1.00  0.00     0.000 C 
BRANCH   5   6
ATOM      6  C   UNL     1      34.064 -48.616  -0.803  1.00  0.00     0.006 C 
BRANCH   6   7
ATOM      7  C   UNL     1      33.222 -47.961  -1.912  1.00  0.00     0.053 C 
BRANCH   7   8
ATOM      8  C   UNL     1      33.084 -48.833  -3.122  1.00  0.00     0.041 C 
ATOM      9  O   UNL     1      34.054 -48.976  -3.912  1.00  0.00    -0.550 OA
ATOM     10  O   UNL     1      31.876 -49.462  -3.397  1.00  0.00    -0.550 OA
ENDBRANCH   7   8
ENDBRANCH   6   7
ENDBRANCH   5   6
ENDBRANCH   4   5
ENDBRANCH   3   4
ENDBRANCH   2   3
ENDBRANCH   1   2
BRANCH   1  11
ATOM     11  C   UNL     1      36.111 -46.411   2.509  1.00  0.00     0.000 C 
BRANCH  11  12
ATOM     12  C   UNL     1      34.718 -45.996   3.013  1.00  0.00    -0.000 C 
BRANCH  12  13
ATOM     13  C   UNL     1      34.250 -44.649   2.441  1.00  0.00    -0.000 C 
BRANCH  13  14
ATOM     14  C   UNL     1      32.877 -44.786   1.766  1.00  0.00    -0.000 C 
BRANCH  14  15
ATOM     15  C   UNL     1      32.942 -44.618   0.238  1.00  0.00    -0.000 C 
BRANCH  15  16
ATOM     16  C   UNL     1      33.823 -43.451  -0.253  1.00  0.00    -0.000 C 
BRANCH  16  17
ATOM     17  C   UNL     1      34.864 -43.829  -1.321  1.00  0.00    -0.003 C 
ATOM     18  C   UNL     1      35.579 -45.144  -1.017  1.00  0.00     0.004 C 
ENDBRANCH  16  17
ENDBRANCH  15  16
ENDBRANCH  14  15
ENDBRANCH  13  14
ENDBRANCH  12  13
ENDBRANCH  11  12
ENDBRANCH   1  11
TORSDOF 14
ENDMDL
MODEL 3
REMARK VINA RESULT:    -3.438      3.267      5.628
REMARK INTER + INTRA:          -8.406
REMARK INTER:                  -6.583
REMARK INTRA:                  -1.823
REMARK UNBOUND:                -2.154
REMARK SMILES CCCCCCCCCCCCCCCC(=O)[O-]
REMARK SMILES IDX 9 1 10 2 11 3 12 4 13 5 14 6 15 7 16 8 17 9 18 10 8 11 7 12
REMARK SMILES IDX 6 13 5 14 4 15 3 16 2 17 1 18
REMARK H PARENT
REMARK Flexibility Score: inf
ROOT
ATOM      1  C   UNL     1      36.249 -47.768   3.182  1.00  0.00     0.000 C 
ENDROOT
BRANCH   1   2
ATOM      2  C   UNL     1      35.883 -49.233   3.462  1.00  0.00     0.000 C 
BRANCH   2   3
ATOM      3  C   UNL     1      35.459 -49.949   2.169  1.00  0.00     0.000 C 
BRANCH   3   4
ATOM      4  C   UNL     1      33.978 -50.361   2.176  1.00  0.00     0.000 C 
BRANCH   4   5
ATOM      5  C   UNL     1      33.201 -49.790   0.979  1.00  0.00     0.000 C 
BRANCH   5   6
ATOM      6  C   UNL     1      34.115 -49.151  -0.083  1.00  0.00     0.006 C 
BRANCH   6   7
ATOM      7  C   UNL     1      33.439 -48.038  -0.903  1.00  0.00     0.053 C 
BRANCH   7   8
ATOM      8  C   UNL     1      33.281 -48.401  -2.348  1.00  0.00     0.041 C 
ATOM      9  O   UNL     1      32.343 -47.905  -3.026  1.00  0.00    -0.550 OA
ATOM     10  O   UNL     1      34.150 -49.311  -2.939  1.00  0.00    -0.550 OA
ENDBRANCH   7   8
ENDBRANCH   6   7
ENDBRANCH   5   6
ENDBRANCH   4   5
ENDBRANCH   3   4
ENDBRANCH   2   3
ENDBRANCH   1   2
BRANCH   1  11
ATOM     11  C   UNL     1      35.086 -46.796   3.457  1.00  0.00     0.000 C 
BRANCH  11  12
ATOM     12  C   UNL     1      34.356 -46.283   2.204  1.00  0.00    -0.000 C 
BRANCH  12  13
ATOM     13  C   UNL     1      33.640 -44.944   2.432  1.00  0.00    -0.000 C 
BRANCH  13  14
ATOM     14  C   UNL     1      33.044 -44.409   1.122  1.00  0.00    -0.000 C 
BRANCH  14  15
ATOM     15  C   UNL     1      34.098 -43.757   0.209  1.00  0.00    -0.000 C 
BRANCH  15  16
ATOM     16  C   UNL     1      35.018 -42.731   0.901  1.00  0.00    -0.000 C 
BRANCH  16  17
ATOM     17  C   UNL     1      36.524 -42.975   0.708  1.00  0.00    -0.003 C 
ATOM     18  C   UNL     1      37.143 -43.801   1.834  1.00  0.00     0.004 C 
ENDBRANCH  16  17
ENDBRANCH  15  16
ENDBRANCH  14  15
ENDBRANCH  13  14
ENDBRANCH  12  13
ENDBRANCH  11  12
ENDBRANCH   1  11
TORSDOF 14
ENDMDL
MODEL 4
REMARK VINA RESULT:    -3.423      1.756      2.450
REMARK INTER + INTRA:          -8.378
REMARK INTER:                  -5.871
REMARK INTRA:                  -2.507
REMARK UNBOUND:                -2.154
REMARK SMILES CCCCCCCCCCCCCCCC(=O)[O-]
REMARK SMILES IDX 9 1 10 2 11 3 12 4 13 5 14 6 15 7 16 8 17 9 18 10 8 11 7 12
REMARK SMILES IDX 6 13 5 14 4 15 3 16 2 17 1 18
REMARK H PARENT
REMARK Flexibility Score: inf
ROOT
ATOM      1  C   UNL     1      34.806 -43.959  -0.145  1.00  0.00     0.000 C 
ENDROOT
BRANCH   1   2
ATOM      2  C   UNL     1      33.331 -43.914   0.279  1.00  0.00     0.000 C 
BRANCH   2   3
ATOM      3  C   UNL     1      33.075 -44.850   1.471  1.00  0.00     0.000 C 
BRANCH   3   4
ATOM      4  C   UNL     1      34.168 -44.756   2.547  1.00  0.00     0.000 C 
BRANCH   4   5
ATOM      5  C   UNL     1      34.917 -46.084   2.744  1.00  0.00     0.000 C 
BRANCH   5   6
ATOM      6  C   UNL     1      34.122 -47.304   2.244  1.00  0.00     0.006 C 
BRANCH   6   7
ATOM      7  C   UNL     1      34.994 -48.530   1.920  1.00  0.00     0.053 C 
BRANCH   7   8
ATOM      8  C   UNL     1      34.203 -49.802   1.868  1.00  0.00     0.041 C 
ATOM      9  O   UNL     1      34.444 -50.731   2.683  1.00  0.00    -0.550 OA
ATOM     10  O   UNL     1      33.222 -49.976   0.899  1.00  0.00    -0.550 OA
ENDBRANCH   7   8
ENDBRANCH   6   7
ENDBRANCH   5   6
ENDBRANCH   4   5
ENDBRANCH   3   4
ENDBRANCH   2   3
ENDBRANCH   1   2
BRANCH   1  11
ATOM     11  C   UNL     1      35.056 -44.882  -1.353  1.00  0.00     0.000 C 
BRANCH  11  12
ATOM     12  C   UNL     1      35.743 -46.218  -1.019  1.00  0.00    -0.000 C 
BRANCH  12  13
ATOM     13  C   UNL     1      35.000 -47.434  -1.592  1.00  0.00    -0.000 C 
BRANCH  13  14
ATOM     14  C   UNL     1      33.492 -47.335  -1.319  1.00  0.00    -0.000 C 
BRANCH  14  15
ATOM     15  C   UNL     1      32.636 -47.808  -2.507  1.00  0.00    -0.000 C 
BRANCH  15  16
ATOM     16  C   UNL     1      32.128 -46.685  -3.433  1.00  0.00    -0.000 C 
BRANCH  16  17
ATOM     17  C   UNL     1      31.345 -45.565  -2.727  1.00  0.00    -0.003 C 
ATOM     18  C   UNL     1      31.849 -44.168  -3.087  1.00  0.00     0.004 C 
ENDBRANCH  16  17
ENDBRANCH  15  16
ENDBRANCH  14  15
ENDBRANCH  13  14
ENDBRANCH  12  13
ENDBRANCH  11  12
ENDBRANCH   1  11
TORSDOF 14
ENDMDL
MODEL 5
REMARK VINA RESULT:    -3.408      3.512      6.375
REMARK INTER + INTRA:          -8.352
REMARK INTER:                  -5.989
REMARK INTRA:                  -2.362
REMARK UNBOUND:                -2.154
REMARK SMILES CCCCCCCCCCCCCCCC(=O)[O-]
REMARK SMILES IDX 9 1 10 2 11 3 12 4 13 5 14 6 15 7 16 8 17 9 18 10 8 11 7 12
REMARK SMILES IDX 6 13 5 14 4 15 3 16 2 17 1 18
REMARK H PARENT
REMARK Flexibility Score: inf
ROOT
ATOM      1  C   UNL     1      34.316 -44.612   2.571  1.00  0.00     0.000 C 
ENDROOT
BRANCH   1   2
ATOM      2  C   UNL     1      33.376 -44.361   1.382  1.00  0.00     0.000 C 
BRANCH   2   3
ATOM      3  C   UNL     1      34.048 -43.457   0.335  1.00  0.00     0.000 C 
BRANCH   3   4
ATOM      4  C   UNL     1      33.400 -43.572  -1.054  1.00  0.00     0.000 C 
BRANCH   4   5
ATOM      5  C   UNL     1      31.901 -43.906  -0.980  1.00  0.00     0.000 C 
BRANCH   5   6
ATOM      6  C   UNL     1      31.413 -44.751  -2.171  1.00  0.00     0.006 C 
BRANCH   6   7
ATOM      7  C   UNL     1      32.156 -44.463  -3.488  1.00  0.00     0.053 C 
BRANCH   7   8
ATOM      8  C   UNL     1      31.386 -43.553  -4.396  1.00  0.00     0.041 C 
ATOM      9  O   UNL     1      31.870 -43.211  -5.508  1.00  0.00    -0.550 OA
ATOM     10  O   UNL     1      30.150 -43.055  -4.003  1.00  0.00    -0.550 OA
ENDBRANCH   7   8
ENDBRANCH   6   7
ENDBRANCH   5   6
ENDBRANCH   4   5
ENDBRANCH   3   4
ENDBRANCH   2   3
ENDBRANCH   1   2
BRANCH   1  11
ATOM     11  C   UNL     1      35.739 -45.010   2.137  1.00  0.00     0.000 C 
BRANCH  11  12
ATOM     12  C   UNL     1      36.154 -46.445   2.505  1.00  0.00    -0.000 C 
BRANCH  12  13
ATOM     13  C   UNL     1      35.057 -47.212   3.258  1.00  0.00    -0.000 C 
BRANCH  13  14
ATOM     14  C   UNL     1      34.993 -48.675   2.794  1.00  0.00    -0.000 C 
BRANCH  14  15
ATOM     15  C   UNL     1      34.631 -48.816   1.305  1.00  0.00    -0.000 C 
BRANCH  15  16
ATOM     16  C   UNL     1      33.321 -48.119   0.883  1.00  0.00    -0.000 C 
BRANCH  16  17
ATOM     17  C   UNL     1      33.358 -47.449  -0.501  1.00  0.00    -0.003 C 
ATOM     18  C   UNL     1      34.767 -47.035  -0.924  1.00  0.00     0.004 C 
ENDBRANCH  16  17
ENDBRANCH  15  16
ENDBRANCH  14  15
ENDBRANCH  13  14
ENDBRANCH  12  13
ENDBRANCH  11  12
ENDBRANCH   1  11
TORSDOF 14
ENDMDL
MODEL 6
REMARK VINA RESULT:    -3.391      3.719      5.588
REMARK INTER + INTRA:          -8.320
REMARK INTER:                  -6.071
REMARK INTRA:                  -2.249
REMARK UNBOUND:                -2.154
REMARK SMILES CCCCCCCCCCCCCCCC(=O)[O-]
REMARK SMILES IDX 9 1 10 2 11 3 12 4 13 5 14 6 15 7 16 8 17 9 18 10 8 11 7 12
REMARK SMILES IDX 6 13 5 14 4 15 3 16 2 17 1 18
REMARK H PARENT
REMARK Flexibility Score: inf
ROOT
ATOM      1  C   UNL     1      36.892 -45.003   0.538  1.00  0.00     0.000 C 
ENDROOT
BRANCH   1   2
ATOM      2  C   UNL     1      37.003 -46.534   0.542  1.00  0.00     0.000 C 
BRANCH   2   3
ATOM      3  C   UNL     1      37.315 -47.056   1.954  1.00  0.00     0.000 C 
BRANCH   3   4
ATOM      4  C   UNL     1      36.408 -48.225   2.370  1.00  0.00     0.000 C 
BRANCH   4   5
ATOM      5  C   UNL     1      35.828 -48.049   3.783  1.00  0.00     0.000 C 
BRANCH   5   6
ATOM      6  C   UNL     1      36.488 -48.974   4.823  1.00  0.00     0.006 C 
BRANCH   6   7
ATOM      7  C   UNL     1      37.151 -50.224   4.219  1.00  0.00     0.053 C 
BRANCH   7   8
ATOM      8  C   UNL     1      36.260 -51.428   4.264  1.00  0.00     0.041 C 
ATOM      9  O   UNL     1      36.377 -52.267   5.195  1.00  0.00    -0.550 OA
ATOM     10  O   UNL     1      35.323 -51.642   3.260  1.00  0.00    -0.550 OA
ENDBRANCH   7   8
ENDBRANCH   6   7
ENDBRANCH   5   6
ENDBRANCH   4   5
ENDBRANCH   3   4
ENDBRANCH   2   3
ENDBRANCH   1   2
BRANCH   1  11
ATOM     11  C   UNL     1      36.524 -44.423   1.916  1.00  0.00     0.000 C 
BRANCH  11  12
ATOM     12  C   UNL     1      35.157 -43.720   1.983  1.00  0.00    -0.000 C 
BRANCH  12  13
ATOM     13  C   UNL     1      34.022 -44.655   2.426  1.00  0.00    -0.000 C 
BRANCH  13  14
ATOM     14  C   UNL     1      33.294 -45.249   1.212  1.00  0.00    -0.000 C 
BRANCH  14  15
ATOM     15  C   UNL     1      33.319 -46.788   1.193  1.00  0.00    -0.000 C 
BRANCH  15  16
ATOM     16  C   UNL     1      33.412 -47.422  -0.210  1.00  0.00    -0.000 C 
BRANCH  16  17
ATOM     17  C   UNL     1      33.875 -48.889  -0.229  1.00  0.00    -0.003 C 
ATOM     18  C   UNL     1      33.260 -49.723   0.894  1.00  0.00     0.004 C 
ENDBRANCH  16  17
ENDBRANCH  15  16
ENDBRANCH  14  15
ENDBRANCH  13  14
ENDBRANCH  12  13
ENDBRANCH  11  12
ENDBRANCH   1  11
TORSDOF 14
ENDMDL
MODEL 7
REMARK VINA RESULT:    -3.371      2.369      5.568
REMARK INTER + INTRA:          -8.284
REMARK INTER:                  -6.082
REMARK INTRA:                  -2.202
REMARK UNBOUND:                -2.154
REMARK SMILES CCCCCCCCCCCCCCCC(=O)[O-]
REMARK SMILES IDX 9 1 10 2 11 3 12 4 13 5 14 6 15 7 16 8 17 9 18 10 8 11 7 12
REMARK SMILES IDX 6 13 5 14 4 15 3 16 2 17 1 18
REMARK H PARENT
REMARK Flexibility Score: inf
ROOT
ATOM      1  C   UNL     1      35.218 -42.801   1.894  1.00  0.00     0.000 C 
ENDROOT
BRANCH   1   2
ATOM      2  C   UNL     1      35.271 -42.450   0.400  1.00  0.00     0.000 C 
BRANCH   2   3
ATOM      3  C   UNL     1      36.100 -43.486  -0.376  1.00  0.00     0.000 C 
BRANCH   3   4
ATOM      4  C   UNL     1      35.308 -44.153  -1.512  1.00  0.00     0.000 C 
BRANCH   4   5
ATOM      5  C   UNL     1      33.936 -43.496  -1.738  1.00  0.00     0.000 C 
BRANCH   5   6
ATOM      6  C   UNL     1      33.052 -44.275  -2.729  1.00  0.00     0.006 C 
BRANCH   6   7
ATOM      7  C   UNL     1      33.350 -45.784  -2.780  1.00  0.00     0.053 C 
BRANCH   7   8
ATOM      8  C   UNL     1      32.114 -46.609  -2.973  1.00  0.00     0.041 C 
ATOM      9  O   UNL     1      32.198 -47.862  -3.069  1.00  0.00    -0.550 OA
ATOM     10  O   UNL     1      30.872 -45.994  -3.080  1.00  0.00    -0.550 OA
ENDBRANCH   7   8
ENDBRANCH   6   7
ENDBRANCH   5   6
ENDBRANCH   4   5
ENDBRANCH   3   4
ENDBRANCH   2   3
ENDBRANCH   1   2
BRANCH   1  11
ATOM     11  C   UNL     1      34.815 -44.265   2.153  1.00  0.00     0.000 C 
BRANCH  11  12
ATOM     12  C   UNL     1      33.354 -44.607   1.815  1.00  0.00    -0.000 C 
BRANCH  12  13
ATOM     13  C   UNL     1      33.209 -45.931   1.049  1.00  0.00    -0.000 C 
BRANCH  13  14
ATOM     14  C   UNL     1      34.443 -46.821   1.253  1.00  0.00    -0.000 C 
BRANCH  14  15
ATOM     15  C   UNL     1      34.863 -47.565  -0.028  1.00  0.00    -0.000 C 
BRANCH  15  16
ATOM     16  C   UNL     1      34.343 -49.012  -0.143  1.00  0.00    -0.000 C 
BRANCH  16  17
ATOM     17  C   UNL     1      33.841 -49.629   1.175  1.00  0.00    -0.003 C 
ATOM     18  C   UNL     1      32.431 -50.206   1.063  1.00  0.00     0.004 C 
ENDBRANCH  16  17
ENDBRANCH  15  16
ENDBRANCH  14  15
ENDBRANCH  13  14
ENDBRANCH  12  13
ENDBRANCH  11  12
ENDBRANCH   1  11
TORSDOF 14
ENDMDL
MODEL 8
REMARK VINA RESULT:    -3.360      2.285      3.918
REMARK INTER + INTRA:          -8.265
REMARK INTER:                  -6.469
REMARK INTRA:                  -1.797
REMARK UNBOUND:                -2.154
REMARK SMILES CCCCCCCCCCCCCCCC(=O)[O-]
REMARK SMILES IDX 9 1 10 2 11 3 12 4 13 5 14 6 15 7 16 8 17 9 18 10 8 11 7 12
REMARK SMILES IDX 6 13 5 14 4 15 3 16 2 17 1 18
REMARK H PARENT
REMARK Flexibility Score: inf
ROOT
ATOM      1  C   UNL     1      33.406 -44.587   1.660  1.00  0.00     0.000 C 
ENDROOT
BRANCH   1   2
ATOM      2  C   UNL     1      33.786 -46.033   2.011  1.00  0.00     0.000 C 
BRANCH   2   3
ATOM      3  C   UNL     1      33.296 -47.007   0.926  1.00  0.00     0.000 C 
BRANCH   3   4
ATOM      4  C   UNL     1      34.366 -48.032   0.520  1.00  0.00     0.000 C 
BRANCH   4   5
ATOM      5  C   UNL     1      33.900 -49.483   0.723  1.00  0.00     0.000 C 
BRANCH   5   6
ATOM      6  C   UNL     1      34.303 -50.057   2.094  1.00  0.00     0.006 C 
BRANCH   6   7
ATOM      7  C   UNL     1      35.777 -49.817   2.465  1.00  0.00     0.053 C 
BRANCH   7   8
ATOM      8  C   UNL     1      35.940 -49.244   3.840  1.00  0.00     0.041 C 
ATOM      9  O   UNL     1      35.834 -48.003   4.025  1.00  0.00    -0.550 OA
ATOM     10  O   UNL     1      36.240 -50.075   4.913  1.00  0.00    -0.550 OA
ENDBRANCH   7   8
ENDBRANCH   6   7
ENDBRANCH   5   6
ENDBRANCH   4   5
ENDBRANCH   3   4
ENDBRANCH   2   3
ENDBRANCH   1   2
BRANCH   1  11
ATOM     11  C   UNL     1      34.391 -43.931   0.674  1.00  0.00     0.000 C 
BRANCH  11  12
ATOM     12  C   UNL     1      33.755 -43.397  -0.622  1.00  0.00    -0.000 C 
BRANCH  12  13
ATOM     13  C   UNL     1      32.274 -43.777  -0.764  1.00  0.00    -0.000 C 
BRANCH  13  14
ATOM     14  C   UNL     1      31.941 -44.157  -2.214  1.00  0.00    -0.000 C 
BRANCH  14  15
ATOM     15  C   UNL     1      31.643 -45.657  -2.387  1.00  0.00    -0.000 C 
BRANCH  15  16
ATOM     16  C   UNL     1      32.880 -46.544  -2.638  1.00  0.00    -0.000 C 
BRANCH  16  17
ATOM     17  C   UNL     1      32.567 -47.983  -3.082  1.00  0.00    -0.003 C 
ATOM     18  C   UNL     1      33.807 -48.875  -3.127  1.00  0.00     0.004 C 
ENDBRANCH  16  17
ENDBRANCH  15  16
ENDBRANCH  14  15
ENDBRANCH  13  14
ENDBRANCH  12  13
ENDBRANCH  11  12
ENDBRANCH   1  11
TORSDOF 14
ENDMDL
MODEL 9
REMARK VINA RESULT:    -3.346      2.345      4.862
REMARK INTER + INTRA:          -8.239
REMARK INTER:                  -5.862
REMARK INTRA:                  -2.377
REMARK UNBOUND:                -2.154
REMARK SMILES CCCCCCCCCCCCCCCC(=O)[O-]
REMARK SMILES IDX 9 1 10 2 11 3 12 4 13 5 14 6 15 7 16 8 17 9 18 10 8 11 7 12
REMARK SMILES IDX 6 13 5 14 4 15 3 16 2 17 1 18
REMARK H PARENT
REMARK Flexibility Score: inf
ROOT
ATOM      1  C   UNL     1      36.524 -47.573   2.708  1.00  0.00     0.000 C 
ENDROOT
BRANCH   1   2
ATOM      2  C   UNL     1      35.510 -48.307   3.597  1.00  0.00     0.000 C 
BRANCH   2   3
ATOM      3  C   UNL     1      34.953 -49.549   2.883  1.00  0.00     0.000 C 
BRANCH   3   4
ATOM      4  C   UNL     1      34.861 -49.367   1.360  1.00  0.00     0.000 C 
BRANCH   4   5
ATOM      5  C   UNL     1      33.424 -49.098   0.883  1.00  0.00     0.000 C 
BRANCH   5   6
ATOM      6  C   UNL     1      33.209 -47.648   0.411  1.00  0.00     0.006 C 
BRANCH   6   7
ATOM      7  C   UNL     1      34.055 -47.256  -0.813  1.00  0.00     0.053 C 
BRANCH   7   8
ATOM      8  C   UNL     1      33.669 -48.014  -2.047  1.00  0.00     0.041 C 
ATOM      9  O   UNL     1      32.593 -47.746  -2.643  1.00  0.00    -0.550 OA
ATOM     10  O   UNL     1      34.481 -49.038  -2.521  1.00  0.00    -0.550 OA
ENDBRANCH   7   8
ENDBRANCH   6   7
ENDBRANCH   5   6
ENDBRANCH   4   5
ENDBRANCH   3   4
ENDBRANCH   2   3
ENDBRANCH   1   2
BRANCH   1  11
ATOM     11  C   UNL     1      36.163 -46.093   2.480  1.00  0.00     0.000 C 
BRANCH  11  12
ATOM     12  C   UNL     1      34.735 -45.701   2.897  1.00  0.00    -0.000 C 
BRANCH  12  13
ATOM     13  C   UNL     1      34.207 -44.471   2.144  1.00  0.00    -0.000 C 
BRANCH  13  14
ATOM     14  C   UNL     1      35.179 -44.047   1.033  1.00  0.00    -0.000 C 
BRANCH  14  15
ATOM     15  C   UNL     1      34.460 -43.533  -0.226  1.00  0.00    -0.000 C 
BRANCH  15  16
ATOM     16  C   UNL     1      32.927 -43.415  -0.102  1.00  0.00    -0.000 C 
BRANCH  16  17
ATOM     17  C   UNL     1      32.127 -44.217  -1.142  1.00  0.00    -0.003 C 
ATOM     18  C   UNL     1      32.688 -44.083  -2.557  1.00  0.00     0.004 C 
ENDBRANCH  16  17
ENDBRANCH  15  16
ENDBRANCH  14  15
ENDBRANCH  13  14
ENDBRANCH  12  13
ENDBRANCH  11  12
ENDBRANCH   1  11
TORSDOF 14
ENDMDL
