MODEL 1
REMARK VINA RESULT:    -4.169      0.000      0.000
REMARK INTER + INTRA:          -6.580
REMARK INTER:                  -6.119
REMARK INTRA:                  -0.461
REMARK UNBOUND:                -0.461
REMARK SMILES O=C([O-])CCCCCCCC(=O)[O-]
REMARK SMILES IDX 7 1 6 2 5 3 4 4 2 5 1 6 3 7 8 8 9 9 10 10 11 11 12 12 13 13
REMARK H PARENT
REMARK Flexibility Score: inf
ROOT
ATOM      1  C   UNL     1      77.893  81.529  78.308  1.00  0.00     0.000 C 
ENDROOT
BRANCH   1   2
ATOM      2  C   UNL     1      78.474  81.815  76.914  1.00  0.00     0.000 C 
BRANCH   2   3
ATOM      3  C   UNL     1      77.365  81.827  75.850  1.00  0.00     0.006 C 
BRANCH   3   4
ATOM      4  C   UNL     1      77.527  82.986  74.857  1.00  0.00     0.053 C 
BRANCH   4   5
ATOM      5  C   UNL     1      76.519  84.067  75.096  1.00  0.00     0.041 C 
ATOM      6  O   UNL     1      76.788  85.262  74.804  1.00  0.00    -0.550 OA
ATOM      7  O   UNL     1      75.269  83.751  75.612  1.00  0.00    -0.550 OA
ENDBRANCH   4   5
ENDBRANCH   3   4
ENDBRANCH   2   3
ENDBRANCH   1   2
BRANCH   1   8
ATOM      8  C   UNL     1      76.438  82.003  78.451  1.00  0.00     0.000 C 
BRANCH   8   9
ATOM      9  C   UNL     1      75.494  80.883  78.917  1.00  0.00     0.006 C 
BRANCH   9  10
ATOM     10  C   UNL     1      76.191  79.888  79.855  1.00  0.00     0.053 C 
BRANCH  10  11
ATOM     11  C   UNL     1      75.329  79.525  81.025  1.00  0.00     0.041 C 
ATOM     12  O   UNL     1      75.471  80.122  82.125  1.00  0.00    -0.550 OA
ATOM     13  O   UNL     1      74.350  78.549  80.894  1.00  0.00    -0.550 OA
ENDBRANCH  10  11
ENDBRANCH   9  10
ENDBRANCH   8   9
ENDBRANCH   1   8
TORSDOF 8
ENDMDL
MODEL 2
REMARK VINA RESULT:    -4.084      2.112      2.644
REMARK INTER + INTRA:          -6.455
REMARK INTER:                  -5.759
REMARK INTRA:                  -0.697
REMARK UNBOUND:                -0.461
REMARK SMILES O=C([O-])CCCCCCCC(=O)[O-]
REMARK SMILES IDX 7 1 6 2 5 3 4 4 2 5 1 6 3 7 8 8 9 9 10 10 11 11 12 12 13 13
REMARK H PARENT
REMARK Flexibility Score: inf
ROOT
ATOM      1  C   UNL     1      79.228  81.123  76.175  1.00  0.00     0.000 C 
ENDROOT
BRANCH   1   2
ATOM      2  C   UNL     1      79.799  82.139  75.173  1.00  0.00     0.000 C 
BRANCH   2   3
ATOM      3  C   UNL     1      78.819  83.303  74.955  1.00  0.00     0.006 C 
BRANCH   3   4
ATOM      4  C   UNL     1      77.356  82.842  74.977  1.00  0.00     0.053 C 
BRANCH   4   5
ATOM      5  C   UNL     1      76.408  84.000  74.911  1.00  0.00     0.041 C 
ATOM      6  O   UNL     1      76.849  85.176  74.818  1.00  0.00    -0.550 OA
ATOM      7  O   UNL     1      75.037  83.778  74.918  1.00  0.00    -0.550 OA
ENDBRANCH   4   5
ENDBRANCH   3   4
ENDBRANCH   2   3
ENDBRANCH   1   2
BRANCH   1   8
ATOM      8  C   UNL     1      79.551  81.484  77.633  1.00  0.00     0.000 C 
BRANCH   8   9
ATOM      9  C   UNL     1      78.292  81.579  78.512  1.00  0.00     0.006 C 
BRANCH   9  10
ATOM     10  C   UNL     1      77.171  80.654  78.021  1.00  0.00     0.053 C 
BRANCH  10  11
ATOM     11  C   UNL     1      75.845  81.350  77.994  1.00  0.00     0.041 C 
ATOM     12  O   UNL     1      75.562  82.206  78.873  1.00  0.00    -0.550 OA
ATOM     13  O   UNL     1      74.934  81.075  76.982  1.00  0.00    -0.550 OA
ENDBRANCH  10  11
ENDBRANCH   9  10
ENDBRANCH   8   9
ENDBRANCH   1   8
TORSDOF 8
ENDMDL
MODEL 3
REMARK VINA RESULT:    -4.061      3.761      5.758
REMARK INTER + INTRA:          -6.422
REMARK INTER:                  -5.921
REMARK INTRA:                  -0.501
REMARK UNBOUND:                -0.461
REMARK SMILES O=C([O-])CCCCCCCC(=O)[O-]
REMARK SMILES IDX 7 1 6 2 5 3 4 4 2 5 1 6 3 7 8 8 9 9 10 10 11 11 12 12 13 13
REMARK H PARENT
REMARK Flexibility Score: inf
ROOT
ATOM      1  C   UNL     1      74.768  80.842  77.683  1.00  0.00     0.000 C 
ENDROOT
BRANCH   1   2
ATOM      2  C   UNL     1      73.350  80.757  77.097  1.00  0.00     0.000 C 
BRANCH   2   3
ATOM      3  C   UNL     1      72.778  82.160  76.842  1.00  0.00     0.006 C 
BRANCH   3   4
ATOM      4  C   UNL     1      71.553  82.128  75.918  1.00  0.00     0.053 C 
BRANCH   4   5
ATOM      5  C   UNL     1      71.869  82.672  74.559  1.00  0.00     0.041 C 
ATOM      6  O   UNL     1      72.985  83.210  74.334  1.00  0.00    -0.550 OA
ATOM      7  O   UNL     1      70.942  82.555  73.530  1.00  0.00    -0.550 OA
ENDBRANCH   4   5
ENDBRANCH   3   4
ENDBRANCH   2   3
ENDBRANCH   1   2
BRANCH   1   8
ATOM      8  C   UNL     1      75.412  82.222  77.478  1.00  0.00     0.000 C 
BRANCH   8   9
ATOM      9  C   UNL     1      76.613  82.179  76.519  1.00  0.00     0.006 C 
BRANCH   9  10
ATOM     10  C   UNL     1      76.281  82.781  75.147  1.00  0.00     0.053 C 
BRANCH  10  11
ATOM     11  C   UNL     1      77.095  84.007  74.864  1.00  0.00     0.041 C 
ATOM     12  O   UNL     1      76.571  85.149  74.953  1.00  0.00    -0.550 OA
ATOM     13  O   UNL     1      78.438  83.890  74.530  1.00  0.00    -0.550 OA
ENDBRANCH  10  11
ENDBRANCH   9  10
ENDBRANCH   8   9
ENDBRANCH   1   8
TORSDOF 8
ENDMDL
MODEL 4
REMARK VINA RESULT:    -4.056      1.680      6.574
REMARK INTER + INTRA:          -6.414
REMARK INTER:                  -6.058
REMARK INTRA:                  -0.356
REMARK UNBOUND:                -0.461
REMARK SMILES O=C([O-])CCCCCCCC(=O)[O-]
REMARK SMILES IDX 7 1 6 2 5 3 4 4 2 5 1 6 3 7 8 8 9 9 10 10 11 11 12 12 13 13
REMARK H PARENT
REMARK Flexibility Score: inf
ROOT
ATOM      1  C   UNL     1      73.879  81.869  77.201  1.00  0.00     0.000 C 
ENDROOT
BRANCH   1   2
ATOM      2  C   UNL     1      74.457  80.665  77.961  1.00  0.00     0.000 C 
BRANCH   2   3
ATOM      3  C   UNL     1      75.497  81.120  78.998  1.00  0.00     0.006 C 
BRANCH   3   4
ATOM      4  C   UNL     1      76.150  79.936  79.723  1.00  0.00     0.053 C 
BRANCH   4   5
ATOM      5  C   UNL     1      75.325  79.473  80.884  1.00  0.00     0.041 C 
ATOM      6  O   UNL     1      75.451  80.021  82.011  1.00  0.00    -0.550 OA
ATOM      7  O   UNL     1      74.392  78.458  80.714  1.00  0.00    -0.550 OA
ENDBRANCH   4   5
ENDBRANCH   3   4
ENDBRANCH   2   3
ENDBRANCH   1   2
BRANCH   1   8
ATOM      8  C   UNL     1      73.748  81.609  75.692  1.00  0.00     0.000 C 
BRANCH   8   9
ATOM      9  C   UNL     1      74.838  82.318  74.871  1.00  0.00     0.006 C 
BRANCH   9  10
ATOM     10  C   UNL     1      75.303  83.623  75.530  1.00  0.00     0.053 C 
BRANCH  10  11
ATOM     11  C   UNL     1      76.550  84.157  74.893  1.00  0.00     0.041 C 
ATOM     12  O   UNL     1      76.768  85.397  74.873  1.00  0.00    -0.550 OA
ATOM     13  O   UNL     1      77.483  83.285  74.348  1.00  0.00    -0.550 OA
ENDBRANCH  10  11
ENDBRANCH   9  10
ENDBRANCH   8   9
ENDBRANCH   1   8
TORSDOF 8
ENDMDL
MODEL 5
REMARK VINA RESULT:    -4.000      1.632      5.564
REMARK INTER + INTRA:          -6.332
REMARK INTER:                  -5.746
REMARK INTRA:                  -0.586
REMARK UNBOUND:                -0.461
REMARK SMILES O=C([O-])CCCCCCCC(=O)[O-]
REMARK SMILES IDX 7 1 6 2 5 3 4 4 2 5 1 6 3 7 8 8 9 9 10 10 11 11 12 12 13 13
REMARK H PARENT
REMARK Flexibility Score: inf
ROOT
ATOM      1  C   UNL     1      79.256  81.424  76.284  1.00  0.00     0.000 C 
ENDROOT
BRANCH   1   2
ATOM      2  C   UNL     1      79.726  81.317  77.743  1.00  0.00     0.000 C 
BRANCH   2   3
ATOM      3  C   UNL     1      78.562  80.918  78.665  1.00  0.00     0.006 C 
BRANCH   3   4
ATOM      4  C   UNL     1      77.331  81.813  78.467  1.00  0.00     0.053 C 
BRANCH   4   5
ATOM      5  C   UNL     1      76.070  81.010  78.377  1.00  0.00     0.041 C 
ATOM      6  O   UNL     1      75.422  80.727  79.420  1.00  0.00    -0.550 OA
ATOM      7  O   UNL     1      75.592  80.601  77.139  1.00  0.00    -0.550 OA
ENDBRANCH   4   5
ENDBRANCH   3   4
ENDBRANCH   2   3
ENDBRANCH   1   2
BRANCH   1   8
ATOM      8  C   UNL     1      79.807  82.670  75.573  1.00  0.00     0.000 C 
BRANCH   8   9
ATOM      9  C   UNL     1      78.754  83.368  74.698  1.00  0.00     0.006 C 
BRANCH   9  10
ATOM     10  C   UNL     1      77.323  82.963  75.078  1.00  0.00     0.053 C 
BRANCH  10  11
ATOM     11  C   UNL     1      76.367  84.110  74.955  1.00  0.00     0.041 C 
ATOM     12  O   UNL     1      76.802  85.289  74.857  1.00  0.00    -0.550 OA
ATOM     13  O   UNL     1      74.999  83.877  74.919  1.00  0.00    -0.550 OA
ENDBRANCH  10  11
ENDBRANCH   9  10
ENDBRANCH   8   9
ENDBRANCH   1   8
TORSDOF 8
ENDMDL
MODEL 6
REMARK VINA RESULT:    -3.999      2.813      5.650
REMARK INTER + INTRA:          -6.330
REMARK INTER:                  -5.817
REMARK INTRA:                  -0.513
REMARK UNBOUND:                -0.461
REMARK SMILES O=C([O-])CCCCCCCC(=O)[O-]
REMARK SMILES IDX 7 1 6 2 5 3 4 4 2 5 1 6 3 7 8 8 9 9 10 10 11 11 12 12 13 13
REMARK H PARENT
REMARK Flexibility Score: inf
ROOT
ATOM      1  C   UNL     1      75.472  81.871  78.542  1.00  0.00     0.000 C 
ENDROOT
BRANCH   1   2
ATOM      2  C   UNL     1      75.917  80.439  78.876  1.00  0.00     0.000 C 
BRANCH   2   3
ATOM      3  C   UNL     1      77.447  80.356  79.005  1.00  0.00     0.006 C 
BRANCH   3   4
ATOM      4  C   UNL     1      78.141  81.627  78.499  1.00  0.00     0.053 C 
BRANCH   4   5
ATOM      5  C   UNL     1      79.489  81.329  77.918  1.00  0.00     0.041 C 
ATOM      6  O   UNL     1      79.782  81.723  76.758  1.00  0.00    -0.550 OA
ATOM      7  O   UNL     1      80.435  80.645  78.671  1.00  0.00    -0.550 OA
ENDBRANCH   4   5
ENDBRANCH   3   4
ENDBRANCH   2   3
ENDBRANCH   1   2
BRANCH   1   8
ATOM      8  C   UNL     1      74.844  81.985  77.144  1.00  0.00     0.000 C 
BRANCH   8   9
ATOM      9  C   UNL     1      75.340  83.219  76.371  1.00  0.00     0.006 C 
BRANCH   9  10
ATOM     10  C   UNL     1      76.334  82.848  75.262  1.00  0.00     0.053 C 
BRANCH  10  11
ATOM     11  C   UNL     1      77.176  84.018  74.853  1.00  0.00     0.041 C 
ATOM     12  O   UNL     1      76.685  85.178  74.843  1.00  0.00    -0.550 OA
ATOM     13  O   UNL     1      78.509  83.832  74.513  1.00  0.00    -0.550 OA
ENDBRANCH  10  11
ENDBRANCH   9  10
ENDBRANCH   8   9
ENDBRANCH   1   8
TORSDOF 8
ENDMDL
MODEL 7
REMARK VINA RESULT:    -3.988      2.349      3.231
REMARK INTER + INTRA:          -6.315
REMARK INTER:                  -5.597
REMARK INTRA:                  -0.718
REMARK UNBOUND:                -0.461
REMARK SMILES O=C([O-])CCCCCCCC(=O)[O-]
REMARK SMILES IDX 7 1 6 2 5 3 4 4 2 5 1 6 3 7 8 8 9 9 10 10 11 11 12 12 13 13
REMARK H PARENT
REMARK Flexibility Score: inf
ROOT
ATOM      1  C   UNL     1      74.874  80.570  75.402  1.00  0.00     0.000 C 
ENDROOT
BRANCH   1   2
ATOM      2  C   UNL     1      74.063  81.865  75.564  1.00  0.00     0.000 C 
BRANCH   2   3
ATOM      3  C   UNL     1      74.882  83.085  75.114  1.00  0.00     0.006 C 
BRANCH   3   4
ATOM      4  C   UNL     1      76.363  82.743  74.902  1.00  0.00     0.053 C 
BRANCH   4   5
ATOM      5  C   UNL     1      77.206  83.976  74.783  1.00  0.00     0.041 C 
ATOM      6  O   UNL     1      78.446  83.880  74.583  1.00  0.00    -0.550 OA
ATOM      7  O   UNL     1      76.616  85.231  74.858  1.00  0.00    -0.550 OA
ENDBRANCH   4   5
ENDBRANCH   3   4
ENDBRANCH   2   3
ENDBRANCH   1   2
BRANCH   1   8
ATOM      8  C   UNL     1      74.688  79.603  76.582  1.00  0.00     0.000 C 
BRANCH   8   9
ATOM      9  C   UNL     1      74.679  80.321  77.942  1.00  0.00     0.006 C 
BRANCH   9  10
ATOM     10  C   UNL     1      76.033  80.223  78.657  1.00  0.00     0.053 C 
BRANCH  10  11
ATOM     11  C   UNL     1      76.798  81.509  78.583  1.00  0.00     0.041 C 
ATOM     12  O   UNL     1      76.189  82.598  78.407  1.00  0.00    -0.550 OA
ATOM     13  O   UNL     1      78.178  81.510  78.736  1.00  0.00    -0.550 OA
ENDBRANCH  10  11
ENDBRANCH   9  10
ENDBRANCH   8   9
ENDBRANCH   1   8
TORSDOF 8
ENDMDL
MODEL 8
REMARK VINA RESULT:    -3.943      2.485      5.620
REMARK INTER + INTRA:          -6.248
REMARK INTER:                  -5.497
REMARK INTRA:                  -0.751
REMARK UNBOUND:                -0.461
REMARK SMILES O=C([O-])CCCCCCCC(=O)[O-]
REMARK SMILES IDX 7 1 6 2 5 3 4 4 2 5 1 6 3 7 8 8 9 9 10 10 11 11 12 12 13 13
REMARK H PARENT
REMARK Flexibility Score: inf
ROOT
ATOM      1  C   UNL     1      73.984  81.489  77.011  1.00  0.00     0.000 C 
ENDROOT
BRANCH   1   2
ATOM      2  C   UNL     1      74.524  80.489  78.045  1.00  0.00     0.000 C 
BRANCH   2   3
ATOM      3  C   UNL     1      75.477  81.181  79.032  1.00  0.00     0.006 C 
BRANCH   3   4
ATOM      4  C   UNL     1      76.522  82.050  78.319  1.00  0.00     0.053 C 
BRANCH   4   5
ATOM      5  C   UNL     1      77.783  81.289  78.046  1.00  0.00     0.041 C 
ATOM      6  O   UNL     1      78.759  81.373  78.838  1.00  0.00    -0.550 OA
ATOM      7  O   UNL     1      77.869  80.459  76.936  1.00  0.00    -0.550 OA
ENDBRANCH   4   5
ENDBRANCH   3   4
ENDBRANCH   2   3
ENDBRANCH   1   2
BRANCH   1   8
ATOM      8  C   UNL     1      74.008  80.933  75.579  1.00  0.00     0.000 C 
BRANCH   8   9
ATOM      9  C   UNL     1      74.639  81.910  74.574  1.00  0.00     0.006 C 
BRANCH   9  10
ATOM     10  C   UNL     1      74.912  83.286  75.196  1.00  0.00     0.053 C 
BRANCH  10  11
ATOM     11  C   UNL     1      76.324  83.732  74.968  1.00  0.00     0.041 C 
ATOM     12  O   UNL     1      77.230  82.882  74.765  1.00  0.00    -0.550 OA
ATOM     13  O   UNL     1      76.634  85.085  74.952  1.00  0.00    -0.550 OA
ENDBRANCH  10  11
ENDBRANCH   9  10
ENDBRANCH   8   9
ENDBRANCH   1   8
TORSDOF 8
ENDMDL
MODEL 9
REMARK VINA RESULT:    -3.907      2.810      3.832
REMARK INTER + INTRA:          -6.196
REMARK INTER:                  -5.481
REMARK INTRA:                  -0.715
REMARK UNBOUND:                -0.461
REMARK SMILES O=C([O-])CCCCCCCC(=O)[O-]
REMARK SMILES IDX 7 1 6 2 5 3 4 4 2 5 1 6 3 7 8 8 9 9 10 10 11 11 12 12 13 13
REMARK H PARENT
REMARK Flexibility Score: inf
ROOT
ATOM      1  C   UNL     1      74.437  82.133  77.658  1.00  0.00     0.000 C 
ENDROOT
BRANCH   1   2
ATOM      2  C   UNL     1      74.057  81.386  76.370  1.00  0.00     0.000 C 
BRANCH   2   3
ATOM      3  C   UNL     1      74.851  81.926  75.169  1.00  0.00     0.006 C 
BRANCH   3   4
ATOM      4  C   UNL     1      74.978  83.455  75.199  1.00  0.00     0.053 C 
BRANCH   4   5
ATOM      5  C   UNL     1      76.397  83.897  75.005  1.00  0.00     0.041 C 
ATOM      6  O   UNL     1      77.321  83.045  74.919  1.00  0.00    -0.550 OA
ATOM      7  O   UNL     1      76.694  85.248  74.886  1.00  0.00    -0.550 OA
ENDBRANCH   4   5
ENDBRANCH   3   4
ENDBRANCH   2   3
ENDBRANCH   1   2
BRANCH   1   8
ATOM      8  C   UNL     1      75.465  81.367  78.506  1.00  0.00     0.000 C 
BRANCH   8   9
ATOM      9  C   UNL     1      76.886  81.937  78.373  1.00  0.00     0.006 C 
BRANCH   9  10
ATOM     10  C   UNL     1      77.844  80.954  77.689  1.00  0.00     0.053 C 
BRANCH  10  11
ATOM     11  C   UNL     1      79.274  81.383  77.822  1.00  0.00     0.041 C 
ATOM     12  O   UNL     1      79.973  80.965  78.783  1.00  0.00    -0.550 OA
ATOM     13  O   UNL     1      79.842  82.219  76.870  1.00  0.00    -0.550 OA
ENDBRANCH  10  11
ENDBRANCH   9  10
ENDBRANCH   8   9
ENDBRANCH   1   8
TORSDOF 8
ENDMDL
