MODEL 1
REMARK VINA RESULT:    -4.425      0.000      0.000
REMARK INTER + INTRA:          -5.690
REMARK INTER:                  -5.460
REMARK INTRA:                  -0.230
REMARK UNBOUND:                -0.230
REMARK SMILES CCCCC=CC(C)=O
REMARK SMILES IDX 4 1 3 2 2 3 1 4 5 5 6 6 7 7 9 8 8 9
REMARK H PARENT
REMARK Flexibility Score: inf
ROOT
ATOM      1  C   UNL     1     -12.718 -15.915  31.635  1.00  0.00     0.027 C 
ENDROOT
BRANCH   1   2
ATOM      2  C   UNL     1     -14.028 -15.169  31.340  1.00  0.00     0.004 C 
BRANCH   2   3
ATOM      3  C   UNL     1     -14.770 -14.753  32.620  1.00  0.00    -0.003 C 
ATOM      4  C   UNL     1     -13.849 -14.675  33.837  1.00  0.00     0.004 C 
ENDBRANCH   2   3
ENDBRANCH   1   2
BRANCH   1   5
ATOM      5  C   UNL     1     -12.669 -17.229  30.909  1.00  0.00    -0.023 C 
ATOM      6  C   UNL     1     -12.916 -18.383  31.541  1.00  0.00     0.042 C 
BRANCH   6   7
ATOM      7  C   UNL     1     -12.891 -19.698  30.867  1.00  0.00     0.152 C 
ATOM      8  O   UNL     1     -12.479 -20.699  31.511  1.00  0.00    -0.295 OA
ATOM      9  C   UNL     1     -13.337 -19.882  29.448  1.00  0.00     0.093 C 
ENDBRANCH   6   7
ENDBRANCH   1   5
TORSDOF 4
ENDMDL
MODEL 2
REMARK VINA RESULT:    -4.307      2.375      4.996
REMARK INTER + INTRA:          -5.545
REMARK INTER:                  -5.357
REMARK INTRA:                  -0.187
REMARK UNBOUND:                -0.230
REMARK SMILES CCCCC=CC(C)=O
REMARK SMILES IDX 4 1 3 2 2 3 1 4 5 5 6 6 7 7 9 8 8 9
REMARK H PARENT
REMARK Flexibility Score: inf
ROOT
ATOM      1  C   UNL     1     -12.932 -18.959  31.631  1.00  0.00     0.027 C 
ENDROOT
BRANCH   1   2
ATOM      2  C   UNL     1     -12.175 -19.358  30.355  1.00  0.00     0.004 C 
BRANCH   2   3
ATOM      3  C   UNL     1     -12.939 -18.981  29.075  1.00  0.00    -0.003 C 
ATOM      4  C   UNL     1     -13.937 -20.056  28.647  1.00  0.00     0.004 C 
ENDBRANCH   2   3
ENDBRANCH   1   2
BRANCH   1   5
ATOM      5  C   UNL     1     -13.173 -17.477  31.676  1.00  0.00    -0.023 C 
ATOM      6  C   UNL     1     -13.782 -16.902  32.720  1.00  0.00     0.042 C 
BRANCH   6   7
ATOM      7  C   UNL     1     -14.030 -15.448  32.815  1.00  0.00     0.152 C 
ATOM      8  O   UNL     1     -13.790 -14.865  33.905  1.00  0.00    -0.295 OA
ATOM      9  C   UNL     1     -14.557 -14.646  31.663  1.00  0.00     0.093 C 
ENDBRANCH   6   7
ENDBRANCH   1   5
TORSDOF 4
ENDMDL
MODEL 3
REMARK VINA RESULT:    -4.288      3.121      3.507
REMARK INTER + INTRA:          -5.521
REMARK INTER:                  -5.303
REMARK INTRA:                  -0.219
REMARK UNBOUND:                -0.230
REMARK SMILES CCCCC=CC(C)=O
REMARK SMILES IDX 4 1 3 2 2 3 1 4 5 5 6 6 7 7 9 8 8 9
REMARK H PARENT
REMARK Flexibility Score: inf
ROOT
ATOM      1  C   UNL     1     -12.498 -16.160  31.209  1.00  0.00     0.027 C 
ENDROOT
BRANCH   1   2
ATOM      2  C   UNL     1     -13.409 -16.942  32.168  1.00  0.00     0.004 C 
BRANCH   2   3
ATOM      3  C   UNL     1     -14.388 -16.031  32.926  1.00  0.00    -0.003 C 
ATOM      4  C   UNL     1     -14.719 -14.752  32.157  1.00  0.00     0.004 C 
ENDBRANCH   2   3
ENDBRANCH   1   2
BRANCH   1   5
ATOM      5  C   UNL     1     -12.556 -16.732  29.821  1.00  0.00    -0.023 C 
ATOM      6  C   UNL     1     -12.583 -15.940  28.742  1.00  0.00     0.042 C 
BRANCH   6   7
ATOM      7  C   UNL     1     -12.627 -16.455  27.358  1.00  0.00     0.152 C 
ATOM      8  O   UNL     1     -13.658 -16.240  26.667  1.00  0.00    -0.295 OA
ATOM      9  C   UNL     1     -11.493 -17.224  26.751  1.00  0.00     0.093 C 
ENDBRANCH   6   7
ENDBRANCH   1   5
TORSDOF 4
ENDMDL
MODEL 4
REMARK VINA RESULT:    -4.258      2.779      4.832
REMARK INTER + INTRA:          -5.484
REMARK INTER:                  -5.306
REMARK INTRA:                  -0.178
REMARK UNBOUND:                -0.230
REMARK SMILES CCCCC=CC(C)=O
REMARK SMILES IDX 4 1 3 2 2 3 1 4 5 5 6 6 7 7 9 8 8 9
REMARK H PARENT
REMARK Flexibility Score: inf
ROOT
ATOM      1  C   UNL     1     -11.246 -16.149  29.441  1.00  0.00     0.027 C 
ENDROOT
BRANCH   1   2
ATOM      2  C   UNL     1     -12.237 -15.850  28.305  1.00  0.00     0.004 C 
BRANCH   2   3
ATOM      3  C   UNL     1     -12.458 -17.060  27.384  1.00  0.00    -0.003 C 
ATOM      4  C   UNL     1     -11.419 -17.149  26.266  1.00  0.00     0.004 C 
ENDBRANCH   2   3
ENDBRANCH   1   2
BRANCH   1   5
ATOM      5  C   UNL     1     -11.942 -16.175  30.772  1.00  0.00    -0.023 C 
ATOM      6  C   UNL     1     -13.242 -15.874  30.885  1.00  0.00     0.042 C 
BRANCH   6   7
ATOM      7  C   UNL     1     -13.971 -15.899  32.170  1.00  0.00     0.152 C 
ATOM      8  O   UNL     1     -13.935 -16.949  32.864  1.00  0.00    -0.295 OA
ATOM      9  C   UNL     1     -14.752 -14.722  32.673  1.00  0.00     0.093 C 
ENDBRANCH   6   7
ENDBRANCH   1   5
TORSDOF 4
ENDMDL
MODEL 5
REMARK VINA RESULT:    -4.240      3.093      4.858
REMARK INTER + INTRA:          -5.462
REMARK INTER:                  -5.308
REMARK INTRA:                  -0.154
REMARK UNBOUND:                -0.230
REMARK SMILES CCCCC=CC(C)=O
REMARK SMILES IDX 4 1 3 2 2 3 1 4 5 5 6 6 7 7 9 8 8 9
REMARK H PARENT
REMARK Flexibility Score: inf
ROOT
ATOM      1  C   UNL     1     -12.833 -15.281  28.521  1.00  0.00     0.027 C 
ENDROOT
BRANCH   1   2
ATOM      2  C   UNL     1     -12.959 -16.224  27.315  1.00  0.00     0.004 C 
BRANCH   2   3
ATOM      3  C   UNL     1     -11.832 -17.267  27.261  1.00  0.00    -0.003 C 
ATOM      4  C   UNL     1     -11.090 -17.265  25.925  1.00  0.00     0.004 C 
ENDBRANCH   2   3
ENDBRANCH   1   2
BRANCH   1   5
ATOM      5  C   UNL     1     -12.653 -16.055  29.796  1.00  0.00    -0.023 C 
ATOM      6  C   UNL     1     -13.282 -15.698  30.922  1.00  0.00     0.042 C 
BRANCH   6   7
ATOM      7  C   UNL     1     -13.147 -16.435  32.196  1.00  0.00     0.152 C 
ATOM      8  O   UNL     1     -12.009 -16.859  32.529  1.00  0.00    -0.295 OA
ATOM      9  C   UNL     1     -14.313 -16.697  33.101  1.00  0.00     0.093 C 
ENDBRANCH   6   7
ENDBRANCH   1   5
TORSDOF 4
ENDMDL
MODEL 6
REMARK VINA RESULT:    -4.223      1.833      2.127
REMARK INTER + INTRA:          -5.441
REMARK INTER:                  -5.166
REMARK INTRA:                  -0.275
REMARK UNBOUND:                -0.230
REMARK SMILES CCCCC=CC(C)=O
REMARK SMILES IDX 4 1 3 2 2 3 1 4 5 5 6 6 7 7 9 8 8 9
REMARK H PARENT
REMARK Flexibility Score: inf
ROOT
ATOM      1  C   UNL     1     -12.574 -16.749  32.446  1.00  0.00     0.027 C 
ENDROOT
BRANCH   1   2
ATOM      2  C   UNL     1     -14.023 -16.543  32.913  1.00  0.00     0.004 C 
BRANCH   2   3
ATOM      3  C   UNL     1     -14.430 -15.061  32.935  1.00  0.00    -0.003 C 
ATOM      4  C   UNL     1     -14.663 -14.493  31.535  1.00  0.00     0.004 C 
ENDBRANCH   2   3
ENDBRANCH   1   2
BRANCH   1   5
ATOM      5  C   UNL     1     -12.502 -17.764  31.341  1.00  0.00    -0.023 C 
ATOM      6  C   UNL     1     -12.887 -17.465  30.095  1.00  0.00     0.042 C 
BRANCH   6   7
ATOM      7  C   UNL     1     -12.822 -18.426  28.974  1.00  0.00     0.152 C 
ATOM      8  O   UNL     1     -12.236 -18.078  27.914  1.00  0.00    -0.295 OA
ATOM      9  C   UNL     1     -13.430 -19.794  29.051  1.00  0.00     0.093 C 
ENDBRANCH   6   7
ENDBRANCH   1   5
TORSDOF 4
ENDMDL
MODEL 7
REMARK VINA RESULT:    -4.214      3.273      4.439
REMARK INTER + INTRA:          -5.429
REMARK INTER:                  -5.173
REMARK INTRA:                  -0.256
REMARK UNBOUND:                -0.230
REMARK SMILES CCCCC=CC(C)=O
REMARK SMILES IDX 4 1 3 2 2 3 1 4 5 5 6 6 7 7 9 8 8 9
REMARK H PARENT
REMARK Flexibility Score: inf
ROOT
ATOM      1  C   UNL     1     -12.835 -16.364  30.807  1.00  0.00     0.027 C 
ENDROOT
BRANCH   1   2
ATOM      2  C   UNL     1     -12.054 -17.624  31.210  1.00  0.00     0.004 C 
BRANCH   2   3
ATOM      3  C   UNL     1     -12.971 -18.753  31.705  1.00  0.00    -0.003 C 
ATOM      4  C   UNL     1     -12.904 -19.998  30.821  1.00  0.00     0.004 C 
ENDBRANCH   2   3
ENDBRANCH   1   2
BRANCH   1   5
ATOM      5  C   UNL     1     -12.667 -16.069  29.343  1.00  0.00    -0.023 C 
ATOM      6  C   UNL     1     -12.698 -17.045  28.428  1.00  0.00     0.042 C 
BRANCH   6   7
ATOM      7  C   UNL     1     -12.550 -16.803  26.978  1.00  0.00     0.152 C 
ATOM      8  O   UNL     1     -13.500 -16.258  26.357  1.00  0.00    -0.295 OA
ATOM      9  C   UNL     1     -11.312 -17.182  26.222  1.00  0.00     0.093 C 
ENDBRANCH   6   7
ENDBRANCH   1   5
TORSDOF 4
ENDMDL
MODEL 8
REMARK VINA RESULT:    -3.999      1.347      1.661
REMARK INTER + INTRA:          -5.165
REMARK INTER:                  -4.958
REMARK INTRA:                  -0.207
REMARK UNBOUND:                -0.230
REMARK SMILES CCCCC=CC(C)=O
REMARK SMILES IDX 4 1 3 2 2 3 1 4 5 5 6 6 7 7 9 8 8 9
REMARK H PARENT
REMARK Flexibility Score: inf
ROOT
ATOM      1  C   UNL     1     -12.543 -15.839  29.773  1.00  0.00     0.027 C 
ENDROOT
BRANCH   1   2
ATOM      2  C   UNL     1     -13.696 -15.178  30.543  1.00  0.00     0.004 C 
BRANCH   2   3
ATOM      3  C   UNL     1     -13.723 -15.583  32.025  1.00  0.00    -0.003 C 
ATOM      4  C   UNL     1     -14.570 -14.639  32.878  1.00  0.00     0.004 C 
ENDBRANCH   2   3
ENDBRANCH   1   2
BRANCH   1   5
ATOM      5  C   UNL     1     -12.407 -17.289  30.142  1.00  0.00    -0.023 C 
ATOM      6  C   UNL     1     -13.089 -18.240  29.493  1.00  0.00     0.042 C 
BRANCH   6   7
ATOM      7  C   UNL     1     -12.979 -19.679  29.812  1.00  0.00     0.152 C 
ATOM      8  O   UNL     1     -13.208 -20.518  28.901  1.00  0.00    -0.295 OA
ATOM      9  C   UNL     1     -12.607 -20.173  31.177  1.00  0.00     0.093 C 
ENDBRANCH   6   7
ENDBRANCH   1   5
TORSDOF 4
ENDMDL
MODEL 9
REMARK VINA RESULT:    -3.910      2.258      3.335
REMARK INTER + INTRA:          -5.055
REMARK INTER:                  -4.800
REMARK INTRA:                  -0.255
REMARK UNBOUND:                -0.230
REMARK SMILES CCCCC=CC(C)=O
REMARK SMILES IDX 4 1 3 2 2 3 1 4 5 5 6 6 7 7 9 8 8 9
REMARK H PARENT
REMARK Flexibility Score: inf
ROOT
ATOM      1  C   UNL     1     -12.752 -15.780  30.132  1.00  0.00     0.027 C 
ENDROOT
BRANCH   1   2
ATOM      2  C   UNL     1     -12.886 -15.145  28.739  1.00  0.00     0.004 C 
BRANCH   2   3
ATOM      3  C   UNL     1     -12.557 -16.131  27.608  1.00  0.00    -0.003 C 
ATOM      4  C   UNL     1     -13.653 -16.195  26.544  1.00  0.00     0.004 C 
ENDBRANCH   2   3
ENDBRANCH   1   2
BRANCH   1   5
ATOM      5  C   UNL     1     -12.476 -17.253  30.030  1.00  0.00    -0.023 C 
ATOM      6  C   UNL     1     -13.228 -18.149  30.681  1.00  0.00     0.042 C 
BRANCH   6   7
ATOM      7  C   UNL     1     -13.004 -19.607  30.601  1.00  0.00     0.152 C 
ATOM      8  O   UNL     1     -12.548 -20.204  31.613  1.00  0.00    -0.295 OA
ATOM      9  C   UNL     1     -13.297 -20.399  29.363  1.00  0.00     0.093 C 
ENDBRANCH   6   7
ENDBRANCH   1   5
TORSDOF 4
ENDMDL
