MODEL 1
REMARK VINA RESULT:    -8.019      0.000      0.000
REMARK INTER + INTRA:         -13.553
REMARK INTER:                 -12.239
REMARK INTRA:                  -1.314
REMARK UNBOUND:                -1.314
REMARK SMILES CC(=O)CCC=C(C)CCC=C(C)CCC=C(C)C
REMARK SMILES IDX 10 1 11 2 12 3 13 4 14 5 15 6 16 7 18 8 17 9 19 10 9 11 7 12
REMARK SMILES IDX 6 13 8 14 5 15 4 16 2 17 3 18 1 19
REMARK H PARENT
REMARK Flexibility Score: inf
ROOT
ATOM      1  C   UNL     1      25.463 -24.816  18.976  1.00  0.00     0.032 C 
ENDROOT
BRANCH   1   2
ATOM      2  C   UNL     1      26.461 -23.753  19.360  1.00  0.00    -0.028 C 
ATOM      3  C   UNL     1      27.801 -23.931  19.361  1.00  0.00    -0.077 C 
ATOM      4  C   UNL     1      28.428 -25.271  19.047  1.00  0.00     0.039 C 
BRANCH   3   5
ATOM      5  C   UNL     1      28.701 -22.758  19.694  1.00  0.00     0.034 C 
BRANCH   5   6
ATOM      6  C   UNL     1      28.491 -21.584  18.726  1.00  0.00     0.032 C 
BRANCH   6   7
ATOM      7  C   UNL     1      28.297 -20.278  19.459  1.00  0.00    -0.028 C 
ATOM      8  C   UNL     1      27.035 -18.352  20.366  1.00  0.00     0.039 C 
ATOM      9  C   UNL     1      27.113 -19.637  19.582  1.00  0.00    -0.080 C 
ATOM     10  C   UNL     1      25.859 -20.131  18.905  1.00  0.00     0.039 C 
ENDBRANCH   6   7
ENDBRANCH   5   6
ENDBRANCH   3   5
ENDBRANCH   1   2
BRANCH   1  11
ATOM     11  C   UNL     1      24.106 -24.187  18.644  1.00  0.00     0.034 C 
BRANCH  11  12
ATOM     12  C   UNL     1      23.392 -23.753  19.907  1.00  0.00    -0.077 C 
ATOM     13  C   UNL     1      22.966 -22.473  20.011  1.00  0.00    -0.028 C 
ATOM     14  C   UNL     1      23.198 -24.752  21.023  1.00  0.00     0.039 C 
BRANCH  13  15
ATOM     15  C   UNL     1      22.202 -21.923  21.189  1.00  0.00     0.035 C 
BRANCH  15  16
ATOM     16  C   UNL     1      20.855 -21.350  20.739  1.00  0.00     0.079 C 
BRANCH  16  17
ATOM     17  C   UNL     1      20.475 -20.162  21.579  1.00  0.00     0.130 C 
ATOM     18  O   UNL     1      21.347 -19.439  22.038  1.00  0.00    -0.300 OA
ATOM     19  C   UNL     1      19.033 -19.845  21.836  1.00  0.00     0.087 C 
ENDBRANCH  16  17
ENDBRANCH  15  16
ENDBRANCH  13  15
ENDBRANCH  11  12
ENDBRANCH   1  11
TORSDOF 9
ENDMDL
MODEL 2
REMARK VINA RESULT:    -7.910      2.054      4.401
REMARK INTER + INTRA:         -13.385
REMARK INTER:                 -11.948
REMARK INTRA:                  -1.437
REMARK UNBOUND:                -1.314
REMARK SMILES CC(=O)CCC=C(C)CCC=C(C)CCC=C(C)C
REMARK SMILES IDX 10 1 11 2 12 3 13 4 14 5 15 6 16 7 18 8 17 9 19 10 9 11 7 12
REMARK SMILES IDX 6 13 8 14 5 15 4 16 2 17 3 18 1 19
REMARK H PARENT
REMARK Flexibility Score: inf
ROOT
ATOM      1  C   UNL     1      25.790 -19.826  18.989  1.00  0.00     0.032 C 
ENDROOT
BRANCH   1   2
ATOM      2  C   UNL     1      26.824 -20.920  18.912  1.00  0.00    -0.028 C 
ATOM      3  C   UNL     1      28.132 -20.755  19.210  1.00  0.00    -0.077 C 
ATOM      4  C   UNL     1      28.702 -19.404  19.577  1.00  0.00     0.039 C 
BRANCH   3   5
ATOM      5  C   UNL     1      29.056 -21.956  19.167  1.00  0.00     0.034 C 
BRANCH   5   6
ATOM      6  C   UNL     1      28.504 -23.132  19.987  1.00  0.00     0.032 C 
BRANCH   6   7
ATOM      7  C   UNL     1      28.361 -24.382  19.152  1.00  0.00    -0.028 C 
ATOM      8  C   UNL     1      27.165 -26.131  17.874  1.00  0.00     0.039 C 
ATOM      9  C   UNL     1      27.182 -24.892  18.731  1.00  0.00    -0.080 C 
ATOM     10  C   UNL     1      25.858 -24.297  19.142  1.00  0.00     0.039 C 
ENDBRANCH   6   7
ENDBRANCH   5   6
ENDBRANCH   3   5
ENDBRANCH   1   2
BRANCH   1  11
ATOM     11  C   UNL     1      24.827 -19.909  17.800  1.00  0.00     0.034 C 
BRANCH  11  12
ATOM     12  C   UNL     1      23.707 -20.888  18.083  1.00  0.00    -0.077 C 
ATOM     13  C   UNL     1      23.373 -21.145  19.368  1.00  0.00    -0.028 C 
ATOM     14  C   UNL     1      23.012 -21.567  16.927  1.00  0.00     0.039 C 
BRANCH  13  15
ATOM     15  C   UNL     1      22.250 -22.059  19.790  1.00  0.00     0.035 C 
BRANCH  15  16
ATOM     16  C   UNL     1      22.375 -22.420  21.273  1.00  0.00     0.079 C 
BRANCH  16  17
ATOM     17  C   UNL     1      22.770 -23.862  21.440  1.00  0.00     0.130 C 
ATOM     18  O   UNL     1      22.750 -24.611  20.474  1.00  0.00    -0.300 OA
ATOM     19  C   UNL     1      23.207 -24.379  22.776  1.00  0.00     0.087 C 
ENDBRANCH  16  17
ENDBRANCH  15  16
ENDBRANCH  13  15
ENDBRANCH  11  12
ENDBRANCH   1  11
TORSDOF 9
ENDMDL
MODEL 3
REMARK VINA RESULT:    -7.846      2.894      7.464
REMARK INTER + INTRA:         -13.288
REMARK INTER:                 -12.006
REMARK INTRA:                  -1.282
REMARK UNBOUND:                -1.314
REMARK SMILES CC(=O)CCC=C(C)CCC=C(C)CCC=C(C)C
REMARK SMILES IDX 10 1 11 2 12 3 13 4 14 5 15 6 16 7 18 8 17 9 19 10 9 11 7 12
REMARK SMILES IDX 6 13 8 14 5 15 4 16 2 17 3 18 1 19
REMARK H PARENT
REMARK Flexibility Score: inf
ROOT
ATOM      1  C   UNL     1      25.073 -19.686  18.806  1.00  0.00     0.032 C 
ENDROOT
BRANCH   1   2
ATOM      2  C   UNL     1      23.889 -20.379  19.431  1.00  0.00    -0.028 C 
ATOM      3  C   UNL     1      23.245 -19.940  20.535  1.00  0.00    -0.077 C 
ATOM      4  C   UNL     1      23.719 -18.730  21.307  1.00  0.00     0.039 C 
BRANCH   3   5
ATOM      5  C   UNL     1      22.018 -20.687  21.019  1.00  0.00     0.034 C 
BRANCH   5   6
ATOM      6  C   UNL     1      21.850 -22.035  20.303  1.00  0.00     0.032 C 
BRANCH   6   7
ATOM      7  C   UNL     1      21.929 -23.197  21.264  1.00  0.00    -0.028 C 
ATOM      8  C   UNL     1      22.841 -25.286  22.226  1.00  0.00     0.039 C 
ATOM      9  C   UNL     1      22.839 -24.194  21.188  1.00  0.00    -0.080 C 
ATOM     10  C   UNL     1      23.831 -24.290  20.055  1.00  0.00     0.039 C 
ENDBRANCH   6   7
ENDBRANCH   5   6
ENDBRANCH   3   5
ENDBRANCH   1   2
BRANCH   1  11
ATOM     11  C   UNL     1      26.239 -20.665  18.629  1.00  0.00     0.034 C 
BRANCH  11  12
ATOM     12  C   UNL     1      27.491 -20.134  19.294  1.00  0.00    -0.077 C 
ATOM     13  C   UNL     1      27.411 -19.002  20.030  1.00  0.00    -0.028 C 
ATOM     14  C   UNL     1      28.798 -20.866  19.096  1.00  0.00     0.039 C 
BRANCH  13  15
ATOM     15  C   UNL     1      28.567 -18.392  20.783  1.00  0.00     0.035 C 
BRANCH  15  16
ATOM     16  C   UNL     1      29.145 -17.201  20.012  1.00  0.00     0.079 C 
BRANCH  16  17
ATOM     17  C   UNL     1      29.996 -16.347  20.910  1.00  0.00     0.130 C 
ATOM     18  O   UNL     1      29.490 -15.421  21.526  1.00  0.00    -0.300 OA
ATOM     19  C   UNL     1      31.457 -16.639  21.073  1.00  0.00     0.087 C 
ENDBRANCH  16  17
ENDBRANCH  15  16
ENDBRANCH  13  15
ENDBRANCH  11  12
ENDBRANCH   1  11
TORSDOF 9
ENDMDL
MODEL 4
REMARK VINA RESULT:    -7.842      2.608      7.133
REMARK INTER + INTRA:         -13.282
REMARK INTER:                 -12.053
REMARK INTRA:                  -1.229
REMARK UNBOUND:                -1.314
REMARK SMILES CC(=O)CCC=C(C)CCC=C(C)CCC=C(C)C
REMARK SMILES IDX 10 1 11 2 12 3 13 4 14 5 15 6 16 7 18 8 17 9 19 10 9 11 7 12
REMARK SMILES IDX 6 13 8 14 5 15 4 16 2 17 3 18 1 19
REMARK H PARENT
REMARK Flexibility Score: inf
ROOT
ATOM      1  C   UNL     1      25.293 -18.925  19.303  1.00  0.00     0.032 C 
ENDROOT
BRANCH   1   2
ATOM      2  C   UNL     1      24.139 -19.406  20.145  1.00  0.00    -0.028 C 
ATOM      3  C   UNL     1      23.426 -20.526  19.891  1.00  0.00    -0.077 C 
ATOM      4  C   UNL     1      23.678 -21.372  18.664  1.00  0.00     0.039 C 
BRANCH   3   5
ATOM      5  C   UNL     1      22.336 -20.942  20.860  1.00  0.00     0.034 C 
BRANCH   5   6
ATOM      6  C   UNL     1      21.714 -22.293  20.475  1.00  0.00     0.032 C 
BRANCH   6   7
ATOM      7  C   UNL     1      21.960 -23.347  21.529  1.00  0.00    -0.028 C 
ATOM      8  C   UNL     1      22.979 -25.376  22.511  1.00  0.00     0.039 C 
ATOM      9  C   UNL     1      22.789 -24.404  21.376  1.00  0.00    -0.080 C 
ATOM     10  C   UNL     1      23.494 -24.689  20.073  1.00  0.00     0.039 C 
ENDBRANCH   6   7
ENDBRANCH   5   6
ENDBRANCH   3   5
ENDBRANCH   1   2
BRANCH   1  11
ATOM     11  C   UNL     1      26.506 -18.603  20.184  1.00  0.00     0.034 C 
BRANCH  11  12
ATOM     12  C   UNL     1      27.717 -19.395  19.739  1.00  0.00    -0.077 C 
ATOM     13  C   UNL     1      27.544 -20.657  19.286  1.00  0.00    -0.028 C 
ATOM     14  C   UNL     1      29.086 -18.763  19.837  1.00  0.00     0.039 C 
BRANCH  13  15
ATOM     15  C   UNL     1      28.655 -21.537  18.769  1.00  0.00     0.035 C 
BRANCH  15  16
ATOM     16  C   UNL     1      28.985 -22.640  19.779  1.00  0.00     0.079 C 
BRANCH  16  17
ATOM     17  C   UNL     1      28.258 -23.910  19.438  1.00  0.00     0.130 C 
ATOM     18  O   UNL     1      28.883 -24.954  19.318  1.00  0.00    -0.300 OA
ATOM     19  C   UNL     1      26.769 -23.909  19.265  1.00  0.00     0.087 C 
ENDBRANCH  16  17
ENDBRANCH  15  16
ENDBRANCH  13  15
ENDBRANCH  11  12
ENDBRANCH   1  11
TORSDOF 9
ENDMDL
MODEL 5
REMARK VINA RESULT:    -7.771      2.203      3.280
REMARK INTER + INTRA:         -13.174
REMARK INTER:                 -11.759
REMARK INTRA:                  -1.415
REMARK UNBOUND:                -1.314
REMARK SMILES CC(=O)CCC=C(C)CCC=C(C)CCC=C(C)C
REMARK SMILES IDX 10 1 11 2 12 3 13 4 14 5 15 6 16 7 18 8 17 9 19 10 9 11 7 12
REMARK SMILES IDX 6 13 8 14 5 15 4 16 2 17 3 18 1 19
REMARK H PARENT
REMARK Flexibility Score: inf
ROOT
ATOM      1  C   UNL     1      25.528 -24.512  18.981  1.00  0.00     0.032 C 
ENDROOT
BRANCH   1   2
ATOM      2  C   UNL     1      26.581 -23.469  19.251  1.00  0.00    -0.028 C 
ATOM      3  C   UNL     1      27.904 -23.730  19.354  1.00  0.00    -0.077 C 
ATOM      4  C   UNL     1      28.446 -25.140  19.288  1.00  0.00     0.039 C 
BRANCH   3   5
ATOM      5  C   UNL     1      28.870 -22.579  19.552  1.00  0.00     0.034 C 
BRANCH   5   6
ATOM      6  C   UNL     1      28.519 -21.379  18.660  1.00  0.00     0.032 C 
BRANCH   6   7
ATOM      7  C   UNL     1      28.577 -20.076  19.421  1.00  0.00    -0.028 C 
ATOM      8  C   UNL     1      27.674 -18.081  20.574  1.00  0.00     0.039 C 
ATOM      9  C   UNL     1      27.494 -19.353  19.787  1.00  0.00    -0.080 C 
ATOM     10  C   UNL     1      26.094 -19.743  19.381  1.00  0.00     0.039 C 
ENDBRANCH   6   7
ENDBRANCH   5   6
ENDBRANCH   3   5
ENDBRANCH   1   2
BRANCH   1  11
ATOM     11  C   UNL     1      24.288 -24.264  19.846  1.00  0.00     0.034 C 
BRANCH  11  12
ATOM     12  C   UNL     1      23.454 -23.135  19.278  1.00  0.00    -0.077 C 
ATOM     13  C   UNL     1      23.178 -23.128  17.955  1.00  0.00    -0.028 C 
ATOM     14  C   UNL     1      22.976 -22.037  20.199  1.00  0.00     0.039 C 
BRANCH  13  15
ATOM     15  C   UNL     1      22.322 -22.093  17.268  1.00  0.00     0.035 C 
BRANCH  15  16
ATOM     16  C   UNL     1      22.948 -21.672  15.935  1.00  0.00     0.079 C 
BRANCH  16  17
ATOM     17  C   UNL     1      23.583 -20.314  16.051  1.00  0.00     0.130 C 
ATOM     18  O   UNL     1      23.694 -19.787  17.148  1.00  0.00    -0.300 OA
ATOM     19  C   UNL     1      24.102 -19.614  14.832  1.00  0.00     0.087 C 
ENDBRANCH  16  17
ENDBRANCH  15  16
ENDBRANCH  13  15
ENDBRANCH  11  12
ENDBRANCH   1  11
TORSDOF 9
ENDMDL
MODEL 6
REMARK VINA RESULT:    -7.765      2.178      5.451
REMARK INTER + INTRA:         -13.164
REMARK INTER:                 -11.027
REMARK INTRA:                  -2.137
REMARK UNBOUND:                -1.314
REMARK SMILES CC(=O)CCC=C(C)CCC=C(C)CCC=C(C)C
REMARK SMILES IDX 10 1 11 2 12 3 13 4 14 5 15 6 16 7 18 8 17 9 19 10 9 11 7 12
REMARK SMILES IDX 6 13 8 14 5 15 4 16 2 17 3 18 1 19
REMARK H PARENT
REMARK Flexibility Score: inf
ROOT
ATOM      1  C   UNL     1      23.361 -23.306  17.075  1.00  0.00     0.032 C 
ENDROOT
BRANCH   1   2
ATOM      2  C   UNL     1      23.027 -23.922  18.409  1.00  0.00    -0.028 C 
ATOM      3  C   UNL     1      23.930 -24.155  19.388  1.00  0.00    -0.077 C 
ATOM      4  C   UNL     1      25.406 -23.887  19.193  1.00  0.00     0.039 C 
BRANCH   3   5
ATOM      5  C   UNL     1      23.452 -24.710  20.716  1.00  0.00     0.034 C 
BRANCH   5   6
ATOM      6  C   UNL     1      22.202 -23.977  21.224  1.00  0.00     0.032 C 
BRANCH   6   7
ATOM      7  C   UNL     1      22.472 -22.512  21.474  1.00  0.00    -0.028 C 
ATOM      8  C   UNL     1      22.041 -20.077  21.372  1.00  0.00     0.039 C 
ATOM      9  C   UNL     1      21.688 -21.502  21.033  1.00  0.00    -0.080 C 
ATOM     10  C   UNL     1      20.489 -21.745  20.149  1.00  0.00     0.039 C 
ENDBRANCH   6   7
ENDBRANCH   5   6
ENDBRANCH   3   5
ENDBRANCH   1   2
BRANCH   1  11
ATOM     11  C   UNL     1      22.565 -22.015  16.862  1.00  0.00     0.034 C 
BRANCH  11  12
ATOM     12  C   UNL     1      23.465 -20.804  16.974  1.00  0.00    -0.077 C 
ATOM     13  C   UNL     1      24.117 -20.579  18.138  1.00  0.00    -0.028 C 
ATOM     14  C   UNL     1      23.592 -19.867  15.795  1.00  0.00     0.039 C 
BRANCH  13  15
ATOM     15  C   UNL     1      25.079 -19.440  18.369  1.00  0.00     0.035 C 
BRANCH  15  16
ATOM     16  C   UNL     1      25.220 -19.148  19.866  1.00  0.00     0.079 C 
BRANCH  16  17
ATOM     17  C   UNL     1      26.642 -18.800  20.210  1.00  0.00     0.130 C 
ATOM     18  O   UNL     1      26.874 -17.845  20.937  1.00  0.00    -0.300 OA
ATOM     19  C   UNL     1      27.774 -19.629  19.684  1.00  0.00     0.087 C 
ENDBRANCH  16  17
ENDBRANCH  15  16
ENDBRANCH  13  15
ENDBRANCH  11  12
ENDBRANCH   1  11
TORSDOF 9
ENDMDL
MODEL 7
REMARK VINA RESULT:    -7.744      2.227      4.805
REMARK INTER + INTRA:         -13.132
REMARK INTER:                 -12.089
REMARK INTRA:                  -1.043
REMARK UNBOUND:                -1.314
REMARK SMILES CC(=O)CCC=C(C)CCC=C(C)CCC=C(C)C
REMARK SMILES IDX 10 1 11 2 12 3 13 4 14 5 15 6 16 7 18 8 17 9 19 10 9 11 7 12
REMARK SMILES IDX 6 13 8 14 5 15 4 16 2 17 3 18 1 19
REMARK H PARENT
REMARK Flexibility Score: inf
ROOT
ATOM      1  C   UNL     1      28.621 -21.856  18.984  1.00  0.00     0.032 C 
ENDROOT
BRANCH   1   2
ATOM      2  C   UNL     1      27.295 -21.143  19.068  1.00  0.00    -0.028 C 
ATOM      3  C   UNL     1      27.149 -19.845  19.418  1.00  0.00    -0.077 C 
ATOM      4  C   UNL     1      28.325 -18.997  19.846  1.00  0.00     0.039 C 
BRANCH   3   5
ATOM      5  C   UNL     1      25.766 -19.225  19.390  1.00  0.00     0.034 C 
BRANCH   5   6
ATOM      6  C   UNL     1      24.788 -20.049  18.539  1.00  0.00     0.032 C 
BRANCH   6   7
ATOM      7  C   UNL     1      24.666 -19.504  17.136  1.00  0.00    -0.028 C 
ATOM      8  C   UNL     1      23.789 -19.365  14.826  1.00  0.00     0.039 C 
ATOM      9  C   UNL     1      23.850 -20.013  16.185  1.00  0.00    -0.080 C 
ATOM     10  C   UNL     1      23.031 -21.259  16.413  1.00  0.00     0.039 C 
ENDBRANCH   6   7
ENDBRANCH   5   6
ENDBRANCH   3   5
ENDBRANCH   1   2
BRANCH   1  11
ATOM     11  C   UNL     1      28.609 -23.121  19.850  1.00  0.00     0.034 C 
BRANCH  11  12
ATOM     12  C   UNL     1      27.679 -24.163  19.266  1.00  0.00    -0.077 C 
ATOM     13  C   UNL     1      26.344 -23.963  19.340  1.00  0.00    -0.028 C 
ATOM     14  C   UNL     1      28.266 -25.406  18.639  1.00  0.00     0.039 C 
BRANCH  13  15
ATOM     15  C   UNL     1      25.309 -24.894  18.758  1.00  0.00     0.035 C 
BRANCH  15  16
ATOM     16  C   UNL     1      23.957 -24.186  18.629  1.00  0.00     0.079 C 
BRANCH  16  17
ATOM     17  C   UNL     1      23.340 -23.963  19.981  1.00  0.00     0.130 C 
ATOM     18  O   UNL     1      23.271 -24.888  20.777  1.00  0.00    -0.300 OA
ATOM     19  C   UNL     1      22.831 -22.608  20.368  1.00  0.00     0.087 C 
ENDBRANCH  16  17
ENDBRANCH  15  16
ENDBRANCH  13  15
ENDBRANCH  11  12
ENDBRANCH   1  11
TORSDOF 9
ENDMDL
MODEL 8
REMARK VINA RESULT:    -7.730      2.157      5.298
REMARK INTER + INTRA:         -13.111
REMARK INTER:                 -12.229
REMARK INTRA:                  -0.881
REMARK UNBOUND:                -1.314
REMARK SMILES CC(=O)CCC=C(C)CCC=C(C)CCC=C(C)C
REMARK SMILES IDX 10 1 11 2 12 3 13 4 14 5 15 6 16 7 18 8 17 9 19 10 9 11 7 12
REMARK SMILES IDX 6 13 8 14 5 15 4 16 2 17 3 18 1 19
REMARK H PARENT
REMARK Flexibility Score: inf
ROOT
ATOM      1  C   UNL     1      28.610 -22.816  19.766  1.00  0.00     0.032 C 
ENDROOT
BRANCH   1   2
ATOM      2  C   UNL     1      27.259 -23.356  19.370  1.00  0.00    -0.028 C 
ATOM      3  C   UNL     1      27.043 -24.614  18.925  1.00  0.00    -0.077 C 
ATOM      4  C   UNL     1      28.177 -25.588  18.702  1.00  0.00     0.039 C 
BRANCH   3   5
ATOM      5  C   UNL     1      25.624 -25.058  18.631  1.00  0.00     0.034 C 
BRANCH   5   6
ATOM      6  C   UNL     1      24.589 -24.171  19.338  1.00  0.00     0.032 C 
BRANCH   6   7
ATOM      7  C   UNL     1      23.723 -24.963  20.289  1.00  0.00    -0.028 C 
ATOM      8  C   UNL     1      21.968 -25.319  21.996  1.00  0.00     0.039 C 
ATOM      9  C   UNL     1      22.797 -24.423  21.112  1.00  0.00    -0.080 C 
ATOM     10  C   UNL     1      22.598 -22.932  21.229  1.00  0.00     0.039 C 
ENDBRANCH   6   7
ENDBRANCH   5   6
ENDBRANCH   3   5
ENDBRANCH   1   2
BRANCH   1  11
ATOM     11  C   UNL     1      28.991 -21.618  18.889  1.00  0.00     0.034 C 
BRANCH  11  12
ATOM     12  C   UNL     1      28.140 -20.413  19.228  1.00  0.00    -0.077 C 
ATOM     13  C   UNL     1      26.807 -20.470  19.007  1.00  0.00    -0.028 C 
ATOM     14  C   UNL     1      28.805 -19.173  19.778  1.00  0.00     0.039 C 
BRANCH  13  15
ATOM     15  C   UNL     1      25.840 -19.362  19.342  1.00  0.00     0.035 C 
BRANCH  15  16
ATOM     16  C   UNL     1      24.395 -19.862  19.253  1.00  0.00     0.079 C 
BRANCH  16  17
ATOM     17  C   UNL     1      24.015 -20.143  17.826  1.00  0.00     0.130 C 
ATOM     18  O   UNL     1      24.259 -19.317  16.959  1.00  0.00    -0.300 OA
ATOM     19  C   UNL     1      23.359 -21.439  17.457  1.00  0.00     0.087 C 
ENDBRANCH  16  17
ENDBRANCH  15  16
ENDBRANCH  13  15
ENDBRANCH  11  12
ENDBRANCH   1  11
TORSDOF 9
ENDMDL
MODEL 9
REMARK VINA RESULT:    -7.650      3.423      5.213
REMARK INTER + INTRA:         -12.989
REMARK INTER:                 -11.688
REMARK INTRA:                  -1.300
REMARK UNBOUND:                -1.314
REMARK SMILES CC(=O)CCC=C(C)CCC=C(C)CCC=C(C)C
REMARK SMILES IDX 10 1 11 2 12 3 13 4 14 5 15 6 16 7 18 8 17 9 19 10 9 11 7 12
REMARK SMILES IDX 6 13 8 14 5 15 4 16 2 17 3 18 1 19
REMARK H PARENT
REMARK Flexibility Score: inf
ROOT
ATOM      1  C   UNL     1      21.658 -21.546  21.076  1.00  0.00     0.032 C 
ENDROOT
BRANCH   1   2
ATOM      2  C   UNL     1      22.839 -21.022  20.300  1.00  0.00    -0.028 C 
ATOM      3  C   UNL     1      23.442 -19.836  20.539  1.00  0.00    -0.077 C 
ATOM      4  C   UNL     1      22.919 -18.870  21.578  1.00  0.00     0.039 C 
BRANCH   3   5
ATOM      5  C   UNL     1      24.671 -19.458  19.736  1.00  0.00     0.034 C 
BRANCH   5   6
ATOM      6  C   UNL     1      24.872 -20.386  18.529  1.00  0.00     0.032 C 
BRANCH   6   7
ATOM      7  C   UNL     1      24.687 -19.656  17.220  1.00  0.00    -0.028 C 
ATOM      8  C   UNL     1      23.698 -19.199  14.999  1.00  0.00     0.039 C 
ATOM      9  C   UNL     1      23.819 -20.026  16.252  1.00  0.00    -0.080 C 
ATOM     10  C   UNL     1      22.996 -21.287  16.352  1.00  0.00     0.039 C 
ENDBRANCH   6   7
ENDBRANCH   5   6
ENDBRANCH   3   5
ENDBRANCH   1   2
BRANCH   1  11
ATOM     11  C   UNL     1      20.524 -21.948  20.127  1.00  0.00     0.034 C 
BRANCH  11  12
ATOM     12  C   UNL     1      19.266 -21.163  20.430  1.00  0.00    -0.077 C 
ATOM     13  C   UNL     1      19.336 -20.123  21.292  1.00  0.00    -0.028 C 
ATOM     14  C   UNL     1      17.965 -21.576  19.783  1.00  0.00     0.039 C 
BRANCH  13  15
ATOM     15  C   UNL     1      18.174 -19.229  21.645  1.00  0.00     0.035 C 
BRANCH  15  16
ATOM     16  C   UNL     1      17.451 -19.750  22.891  1.00  0.00     0.079 C 
BRANCH  16  17
ATOM     17  C   UNL     1      16.557 -18.689  23.471  1.00  0.00     0.130 C 
ATOM     18  O   UNL     1      17.033 -17.817  24.183  1.00  0.00    -0.300 OA
ATOM     19  C   UNL     1      15.091 -18.681  23.162  1.00  0.00     0.087 C 
ENDBRANCH  16  17
ENDBRANCH  15  16
ENDBRANCH  13  15
ENDBRANCH  11  12
ENDBRANCH   1  11
TORSDOF 9
ENDMDL
