MODEL 1
REMARK VINA RESULT:    -5.970      0.000      0.000
REMARK INTER + INTRA:          -7.321
REMARK INTER:                  -7.017
REMARK INTRA:                  -0.304
REMARK UNBOUND:                -0.304
REMARK SMILES O=c1c(O)c(-c2ccc(O)c(O)c2)oc2cc(O)ccc12
REMARK SMILES IDX 5 1 3 2 2 3 1 4 21 5 15 6 14 7 16 8 17 9 19 10 20 11 6 12
REMARK SMILES IDX 7 13 8 14 9 15 13 16 11 17 10 18 12 20 4 22 18 24
REMARK H PARENT 10 19 12 21 4 23 18 25
REMARK Flexibility Score: inf
ROOT
ATOM      1  C   UNL     1      19.980  53.246  94.743  1.00  0.00     0.180 A 
ATOM      2  C   UNL     1      20.637  52.348  93.876  1.00  0.00     0.208 A 
ATOM      3  C   UNL     1      22.015  52.501  93.662  1.00  0.00     0.235 A 
ATOM      4  O   UNL     1      22.627  51.704  92.899  1.00  0.00    -0.285 OA
ATOM      5  C   UNL     1      22.701  53.550  94.295  1.00  0.00     0.069 A 
ATOM      6  C   UNL     1      21.968  54.421  95.129  1.00  0.00     0.142 A 
ATOM      7  O   UNL     1      20.664  54.237  95.312  1.00  0.00    -0.452 OA
ATOM      8  C   UNL     1      22.612  55.485  95.769  1.00  0.00     0.094 A 
ATOM      9  C   UNL     1      23.987  55.689  95.588  1.00  0.00     0.119 A 
ATOM     10  C   UNL     1      24.716  54.826  94.764  1.00  0.00     0.047 A 
ATOM     11  C   UNL     1      24.081  53.761  94.118  1.00  0.00     0.020 A 
ENDROOT
BRANCH   1  12
ATOM     12  C   UNL     1      18.533  53.140  95.035  1.00  0.00     0.025 A 
ATOM     13  C   UNL     1      17.607  53.738  94.165  1.00  0.00     0.016 A 
ATOM     14  C   UNL     1      16.238  53.668  94.433  1.00  0.00     0.051 A 
ATOM     15  C   UNL     1      15.775  53.014  95.582  1.00  0.00     0.157 A 
ATOM     16  C   UNL     1      18.065  52.503  96.199  1.00  0.00     0.062 A 
ATOM     17  C   UNL     1      16.691  52.434  96.469  1.00  0.00     0.158 A 
BRANCH  15  18
ATOM     18  O   UNL     1      14.409  52.941  95.852  1.00  0.00    -0.504 OA
ATOM     19  H   UNL     1      13.762  52.517  95.197  1.00  0.00     0.293 HD
ENDBRANCH  15  18
BRANCH  17  20
ATOM     20  O   UNL     1      16.228  51.796  97.619  1.00  0.00    -0.504 OA
ATOM     21  H   UNL     1      16.524  50.858  97.860  1.00  0.00     0.293 HD
ENDBRANCH  17  20
ENDBRANCH   1  12
BRANCH   2  22
ATOM     22  O   UNL     1      19.919  51.344  93.222  1.00  0.00    -0.502 OA
ATOM     23  H   UNL     1      19.988  50.369  93.487  1.00  0.00     0.293 HD
ENDBRANCH   2  22
BRANCH   9  24
ATOM     24  O   UNL     1      24.637  56.745  96.222  1.00  0.00    -0.508 OA
ATOM     25  H   UNL     1      25.412  56.587  96.856  1.00  0.00     0.293 HD
ENDBRANCH   9  24
TORSDOF 5
ENDMDL
MODEL 2
REMARK VINA RESULT:    -5.717      3.583      5.774
REMARK INTER + INTRA:          -7.024
REMARK INTER:                  -6.852
REMARK INTRA:                  -0.172
REMARK UNBOUND:                -0.304
REMARK SMILES O=c1c(O)c(-c2ccc(O)c(O)c2)oc2cc(O)ccc12
REMARK SMILES IDX 5 1 3 2 2 3 1 4 21 5 15 6 14 7 16 8 17 9 19 10 20 11 6 12
REMARK SMILES IDX 7 13 8 14 9 15 13 16 11 17 10 18 12 20 4 22 18 24
REMARK H PARENT 10 19 12 21 4 23 18 25
REMARK Flexibility Score: inf
ROOT
ATOM      1  C   UNL     1      22.025  51.615  91.945  1.00  0.00     0.180 A 
ATOM      2  C   UNL     1      21.402  51.626  93.210  1.00  0.00     0.208 A 
ATOM      3  C   UNL     1      21.910  52.473  94.206  1.00  0.00     0.235 A 
ATOM      4  O   UNL     1      21.364  52.508  95.343  1.00  0.00    -0.285 OA
ATOM      5  C   UNL     1      23.033  53.269  93.930  1.00  0.00     0.069 A 
ATOM      6  C   UNL     1      23.614  53.184  92.647  1.00  0.00     0.142 A 
ATOM      7  O   UNL     1      23.097  52.375  91.727  1.00  0.00    -0.452 OA
ATOM      8  C   UNL     1      24.740  53.954  92.335  1.00  0.00     0.094 A 
ATOM      9  C   UNL     1      25.294  54.814  93.293  1.00  0.00     0.119 A 
ATOM     10  C   UNL     1      24.718  54.902  94.565  1.00  0.00     0.047 A 
ATOM     11  C   UNL     1      23.594  54.135  94.886  1.00  0.00     0.020 A 
ENDROOT
BRANCH   1  12
ATOM     12  C   UNL     1      21.538  50.764  90.835  1.00  0.00     0.025 A 
ATOM     13  C   UNL     1      20.272  51.010  90.281  1.00  0.00     0.016 A 
ATOM     14  C   UNL     1      19.784  50.206  89.247  1.00  0.00     0.051 A 
ATOM     15  C   UNL     1      20.548  49.135  88.765  1.00  0.00     0.157 A 
ATOM     16  C   UNL     1      22.292  49.674  90.362  1.00  0.00     0.062 A 
ATOM     17  C   UNL     1      21.802  48.867  89.326  1.00  0.00     0.158 A 
BRANCH  15  18
ATOM     18  O   UNL     1      20.065  48.331  87.733  1.00  0.00    -0.504 OA
ATOM     19  H   UNL     1      20.608  48.165  86.894  1.00  0.00     0.293 HD
ENDBRANCH  15  18
BRANCH  17  20
ATOM     20  O   UNL     1      22.554  47.792  88.853  1.00  0.00    -0.504 OA
ATOM     21  H   UNL     1      22.693  46.957  89.410  1.00  0.00     0.293 HD
ENDBRANCH  17  20
ENDBRANCH   1  12
BRANCH   2  22
ATOM     22  O   UNL     1      20.317  50.786  93.471  1.00  0.00    -0.502 OA
ATOM     23  H   UNL     1      19.736  50.407  92.733  1.00  0.00     0.293 HD
ENDBRANCH   2  22
BRANCH   9  24
ATOM     24  O   UNL     1      26.414  55.585  92.992  1.00  0.00    -0.508 OA
ATOM     25  H   UNL     1      26.333  56.468  92.502  1.00  0.00     0.293 HD
ENDBRANCH   9  24
TORSDOF 5
ENDMDL
MODEL 3
REMARK VINA RESULT:    -5.703      3.169      6.713
REMARK INTER + INTRA:          -7.008
REMARK INTER:                  -6.719
REMARK INTRA:                  -0.289
REMARK UNBOUND:                -0.304
REMARK SMILES O=c1c(O)c(-c2ccc(O)c(O)c2)oc2cc(O)ccc12
REMARK SMILES IDX 5 1 3 2 2 3 1 4 21 5 15 6 14 7 16 8 17 9 19 10 20 11 6 12
REMARK SMILES IDX 7 13 8 14 9 15 13 16 11 17 10 18 12 20 4 22 18 24
REMARK H PARENT 10 19 12 21 4 23 18 25
REMARK Flexibility Score: inf
ROOT
ATOM      1  C   UNL     1      22.905  56.850  96.180  1.00  0.00     0.180 A 
ATOM      2  C   UNL     1      24.188  56.514  95.701  1.00  0.00     0.208 A 
ATOM      3  C   UNL     1      24.348  55.325  94.974  1.00  0.00     0.235 A 
ATOM      4  O   UNL     1      25.485  55.008  94.526  1.00  0.00    -0.285 OA
ATOM      5  C   UNL     1      23.240  54.490  94.760  1.00  0.00     0.069 A 
ATOM      6  C   UNL     1      21.994  54.885  95.292  1.00  0.00     0.142 A 
ATOM      7  O   UNL     1      21.881  56.024  95.968  1.00  0.00    -0.452 OA
ATOM      8  C   UNL     1      20.866  54.076  95.109  1.00  0.00     0.094 A 
ATOM      9  C   UNL     1      20.969  52.874  94.396  1.00  0.00     0.119 A 
ATOM     10  C   UNL     1      22.202  52.482  93.866  1.00  0.00     0.047 A 
ATOM     11  C   UNL     1      23.334  53.282  94.045  1.00  0.00     0.020 A 
ENDROOT
BRANCH   1  12
ATOM     12  C   UNL     1      22.650  58.096  96.938  1.00  0.00     0.025 A 
ATOM     13  C   UNL     1      22.516  59.310  96.246  1.00  0.00     0.016 A 
ATOM     14  C   UNL     1      22.295  60.501  96.943  1.00  0.00     0.051 A 
ATOM     15  C   UNL     1      22.221  60.497  98.341  1.00  0.00     0.157 A 
ATOM     16  C   UNL     1      22.596  58.101  98.343  1.00  0.00     0.062 A 
ATOM     17  C   UNL     1      22.377  59.295  99.043  1.00  0.00     0.158 A 
BRANCH  15  18
ATOM     18  O   UNL     1      22.000  61.683  99.040  1.00  0.00    -0.504 OA
ATOM     19  H   UNL     1      22.235  62.585  98.642  1.00  0.00     0.293 HD
ENDBRANCH  15  18
BRANCH  17  20
ATOM     20  O   UNL     1      22.317  59.297 100.436  1.00  0.00    -0.504 OA
ATOM     21  H   UNL     1      22.530  58.467 100.977  1.00  0.00     0.293 HD
ENDBRANCH  17  20
ENDBRANCH   1  12
BRANCH   2  22
ATOM     22  O   UNL     1      25.282  57.339  95.972  1.00  0.00    -0.502 OA
ATOM     23  H   UNL     1      26.179  56.970  96.265  1.00  0.00     0.293 HD
ENDBRANCH   2  22
BRANCH   9  24
ATOM     24  O   UNL     1      19.852  52.063  94.209  1.00  0.00    -0.508 OA
ATOM     25  H   UNL     1      18.939  52.457  94.009  1.00  0.00     0.293 HD
ENDBRANCH   9  24
TORSDOF 5
ENDMDL
MODEL 4
REMARK VINA RESULT:    -5.608      5.407      8.361
REMARK INTER + INTRA:          -6.896
REMARK INTER:                  -6.583
REMARK INTRA:                  -0.313
REMARK UNBOUND:                -0.304
REMARK SMILES O=c1c(O)c(-c2ccc(O)c(O)c2)oc2cc(O)ccc12
REMARK SMILES IDX 5 1 3 2 2 3 1 4 21 5 15 6 14 7 16 8 17 9 19 10 20 11 6 12
REMARK SMILES IDX 7 13 8 14 9 15 13 16 11 17 10 18 12 20 4 22 18 24
REMARK H PARENT 10 19 12 21 4 23 18 25
REMARK Flexibility Score: inf
ROOT
ATOM      1  C   UNL     1      15.012  55.292  99.845  1.00  0.00     0.180 A 
ATOM      2  C   UNL     1      15.175  54.287 100.820  1.00  0.00     0.208 A 
ATOM      3  C   UNL     1      15.807  53.088 100.456  1.00  0.00     0.235 A 
ATOM      4  O   UNL     1      15.974  52.178 101.314  1.00  0.00    -0.285 OA
ATOM      5  C   UNL     1      16.240  52.909  99.133  1.00  0.00     0.069 A 
ATOM      6  C   UNL     1      16.018  53.954  98.210  1.00  0.00     0.142 A 
ATOM      7  O   UNL     1      15.423  55.077  98.596  1.00  0.00    -0.452 OA
ATOM      8  C   UNL     1      16.426  53.810  96.879  1.00  0.00     0.094 A 
ATOM      9  C   UNL     1      17.058  52.632  96.458  1.00  0.00     0.119 A 
ATOM     10  C   UNL     1      17.280  51.597  97.371  1.00  0.00     0.047 A 
ATOM     11  C   UNL     1      16.875  51.730  98.702  1.00  0.00     0.020 A 
ENDROOT
BRANCH   1  12
ATOM     12  C   UNL     1      14.373  56.591 100.154  1.00  0.00     0.025 A 
ATOM     13  C   UNL     1      15.168  57.672 100.568  1.00  0.00     0.016 A 
ATOM     14  C   UNL     1      14.584  58.900 100.885  1.00  0.00     0.051 A 
ATOM     15  C   UNL     1      13.195  59.062 100.807  1.00  0.00     0.157 A 
ATOM     16  C   UNL     1      12.976  56.753 100.098  1.00  0.00     0.062 A 
ATOM     17  C   UNL     1      12.389  57.985 100.417  1.00  0.00     0.158 A 
BRANCH  15  18
ATOM     18  O   UNL     1      12.608  60.288 101.121  1.00  0.00    -0.504 OA
ATOM     19  H   UNL     1      12.673  61.082 100.494  1.00  0.00     0.293 HD
ENDBRANCH  15  18
BRANCH  17  20
ATOM     20  O   UNL     1      11.006  58.146 100.354  1.00  0.00    -0.504 OA
ATOM     21  H   UNL     1      10.585  58.955  99.913  1.00  0.00     0.293 HD
ENDBRANCH  17  20
ENDBRANCH   1  12
BRANCH   2  22
ATOM     22  O   UNL     1      14.690  54.474 102.116  1.00  0.00    -0.502 OA
ATOM     23  H   UNL     1      14.388  53.702 102.699  1.00  0.00     0.293 HD
ENDBRANCH   2  22
BRANCH   9  24
ATOM     24  O   UNL     1      17.467  52.480  95.135  1.00  0.00    -0.508 OA
ATOM     25  H   UNL     1      18.437  52.311  94.897  1.00  0.00     0.293 HD
ENDBRANCH   9  24
TORSDOF 5
ENDMDL
MODEL 5
REMARK VINA RESULT:    -5.590      8.964     13.134
REMARK INTER + INTRA:          -6.875
REMARK INTER:                  -6.555
REMARK INTRA:                  -0.320
REMARK UNBOUND:                -0.304
REMARK SMILES O=c1c(O)c(-c2ccc(O)c(O)c2)oc2cc(O)ccc12
REMARK SMILES IDX 5 1 3 2 2 3 1 4 21 5 15 6 14 7 16 8 17 9 19 10 20 11 6 12
REMARK SMILES IDX 7 13 8 14 9 15 13 16 11 17 10 18 12 20 4 22 18 24
REMARK H PARENT 10 19 12 21 4 23 18 25
REMARK Flexibility Score: inf
ROOT
ATOM      1  C   UNL     1      12.557  57.259 102.199  1.00  0.00     0.180 A 
ATOM      2  C   UNL     1      12.408  56.762 103.510  1.00  0.00     0.208 A 
ATOM      3  C   UNL     1      11.134  56.772 104.097  1.00  0.00     0.235 A 
ATOM      4  O   UNL     1      10.974  56.323 105.265  1.00  0.00    -0.285 OA
ATOM      5  C   UNL     1      10.046  57.294 103.378  1.00  0.00     0.069 A 
ATOM      6  C   UNL     1      10.282  57.794 102.080  1.00  0.00     0.142 A 
ATOM      7  O   UNL     1      11.502  57.758 101.556  1.00  0.00    -0.452 OA
ATOM      8  C   UNL     1       9.226  58.332 101.335  1.00  0.00     0.094 A 
ATOM      9  C   UNL     1       7.932  58.373 101.873  1.00  0.00     0.119 A 
ATOM     10  C   UNL     1       7.697  57.875 103.158  1.00  0.00     0.047 A 
ATOM     11  C   UNL     1       8.745  57.338 103.911  1.00  0.00     0.020 A 
ENDROOT
BRANCH   1  12
ATOM     12  C   UNL     1      13.864  57.265 101.503  1.00  0.00     0.025 A 
ATOM     13  C   UNL     1      14.708  58.380 101.629  1.00  0.00     0.016 A 
ATOM     14  C   UNL     1      15.937  58.415 100.965  1.00  0.00     0.051 A 
ATOM     15  C   UNL     1      16.331  57.345 100.153  1.00  0.00     0.157 A 
ATOM     16  C   UNL     1      14.255  56.202 100.669  1.00  0.00     0.062 A 
ATOM     17  C   UNL     1      15.487  56.238 100.002  1.00  0.00     0.158 A 
BRANCH  15  18
ATOM     18  O   UNL     1      17.558  57.376  99.489  1.00  0.00    -0.504 OA
ATOM     19  H   UNL     1      18.366  56.882  99.849  1.00  0.00     0.293 HD
ENDBRANCH  15  18
BRANCH  17  20
ATOM     20  O   UNL     1      15.877  55.180  99.181  1.00  0.00    -0.504 OA
ATOM     21  H   UNL     1      16.175  54.292  99.567  1.00  0.00     0.293 HD
ENDBRANCH  17  20
ENDBRANCH   1  12
BRANCH   2  22
ATOM     22  O   UNL     1      13.518  56.295 104.219  1.00  0.00    -0.502 OA
ATOM     23  H   UNL     1      14.149  56.918 104.709  1.00  0.00     0.293 HD
ENDBRANCH   2  22
BRANCH   9  24
ATOM     24  O   UNL     1       6.875  58.906 101.138  1.00  0.00    -0.508 OA
ATOM     25  H   UNL     1       6.983  59.159 100.163  1.00  0.00     0.293 HD
ENDBRANCH   9  24
TORSDOF 5
ENDMDL
MODEL 6
REMARK VINA RESULT:    -5.477      6.253      8.344
REMARK INTER + INTRA:          -6.742
REMARK INTER:                  -6.458
REMARK INTRA:                  -0.284
REMARK UNBOUND:                -0.304
REMARK SMILES O=c1c(O)c(-c2ccc(O)c(O)c2)oc2cc(O)ccc12
REMARK SMILES IDX 5 1 3 2 2 3 1 4 21 5 15 6 14 7 16 8 17 9 19 10 20 11 6 12
REMARK SMILES IDX 7 13 8 14 9 15 13 16 11 17 10 18 12 20 4 22 18 24
REMARK H PARENT 10 19 12 21 4 23 18 25
REMARK Flexibility Score: inf
ROOT
ATOM      1  C   UNL     1      22.296  59.142  98.461  1.00  0.00     0.180 A 
ATOM      2  C   UNL     1      22.851  57.867  98.227  1.00  0.00     0.208 A 
ATOM      3  C   UNL     1      23.162  57.496  96.911  1.00  0.00     0.235 A 
ATOM      4  O   UNL     1      23.669  56.364  96.678  1.00  0.00    -0.285 OA
ATOM      5  C   UNL     1      22.897  58.389  95.860  1.00  0.00     0.069 A 
ATOM      6  C   UNL     1      22.318  59.637  96.174  1.00  0.00     0.142 A 
ATOM      7  O   UNL     1      22.046  59.954  97.435  1.00  0.00    -0.452 OA
ATOM      8  C   UNL     1      22.030  60.550  95.153  1.00  0.00     0.094 A 
ATOM      9  C   UNL     1      22.315  60.231  93.819  1.00  0.00     0.119 A 
ATOM     10  C   UNL     1      22.890  58.996  93.506  1.00  0.00     0.047 A 
ATOM     11  C   UNL     1      23.181  58.076  94.518  1.00  0.00     0.020 A 
ENDROOT
BRANCH   1  12
ATOM     12  C   UNL     1      21.957  59.615  99.822  1.00  0.00     0.025 A 
ATOM     13  C   UNL     1      20.751  59.208 100.415  1.00  0.00     0.016 A 
ATOM     14  C   UNL     1      20.402  59.658 101.690  1.00  0.00     0.051 A 
ATOM     15  C   UNL     1      21.244  60.536 102.384  1.00  0.00     0.157 A 
ATOM     16  C   UNL     1      22.789  60.513 100.515  1.00  0.00     0.062 A 
ATOM     17  C   UNL     1      22.438  60.967 101.794  1.00  0.00     0.158 A 
BRANCH  15  18
ATOM     18  O   UNL     1      20.900  60.987 103.658  1.00  0.00    -0.504 OA
ATOM     19  H   UNL     1      20.192  60.518 104.212  1.00  0.00     0.293 HD
ENDBRANCH  15  18
BRANCH  17  20
ATOM     20  O   UNL     1      23.268  61.851 102.481  1.00  0.00    -0.504 OA
ATOM     21  H   UNL     1      22.912  62.712 102.879  1.00  0.00     0.293 HD
ENDBRANCH  17  20
ENDBRANCH   1  12
BRANCH   2  22
ATOM     22  O   UNL     1      23.057  56.981  99.287  1.00  0.00    -0.502 OA
ATOM     23  H   UNL     1      23.572  56.116  99.178  1.00  0.00     0.293 HD
ENDBRANCH   2  22
BRANCH   9  24
ATOM     24  O   UNL     1      22.031  61.135  92.797  1.00  0.00    -0.508 OA
ATOM     25  H   UNL     1      22.766  61.639  92.317  1.00  0.00     0.293 HD
ENDBRANCH   9  24
TORSDOF 5
ENDMDL
MODEL 7
REMARK VINA RESULT:    -5.423     10.488     12.884
REMARK INTER + INTRA:          -6.679
REMARK INTER:                  -6.364
REMARK INTRA:                  -0.315
REMARK UNBOUND:                -0.304
REMARK SMILES O=c1c(O)c(-c2ccc(O)c(O)c2)oc2cc(O)ccc12
REMARK SMILES IDX 5 1 3 2 2 3 1 4 21 5 15 6 14 7 16 8 17 9 19 10 20 11 6 12
REMARK SMILES IDX 7 13 8 14 9 15 13 16 11 17 10 18 12 20 4 22 18 24
REMARK H PARENT 10 19 12 21 4 23 18 25
REMARK Flexibility Score: inf
ROOT
ATOM      1  C   UNL     1      21.935  62.353 102.668  1.00  0.00     0.180 A 
ATOM      2  C   UNL     1      23.256  62.426 103.156  1.00  0.00     0.208 A 
ATOM      3  C   UNL     1      23.550  63.342 104.177  1.00  0.00     0.235 A 
ATOM      4  O   UNL     1      24.722  63.418 104.638  1.00  0.00    -0.285 OA
ATOM      5  C   UNL     1      22.534  64.175 104.672  1.00  0.00     0.069 A 
ATOM      6  C   UNL     1      21.243  64.058 104.115  1.00  0.00     0.142 A 
ATOM      7  O   UNL     1      21.003  63.172 103.154  1.00  0.00    -0.452 OA
ATOM      8  C   UNL     1      20.206  64.878 104.574  1.00  0.00     0.094 A 
ATOM      9  C   UNL     1      20.443  65.815 105.589  1.00  0.00     0.119 A 
ATOM     10  C   UNL     1      21.722  65.931 106.144  1.00  0.00     0.047 A 
ATOM     11  C   UNL     1      22.765  65.118 105.691  1.00  0.00     0.020 A 
ENDROOT
BRANCH   1  12
ATOM     12  C   UNL     1      21.540  61.401 101.606  1.00  0.00     0.025 A 
ATOM     13  C   UNL     1      21.426  61.852 100.281  1.00  0.00     0.016 A 
ATOM     14  C   UNL     1      21.035  60.975  99.266  1.00  0.00     0.051 A 
ATOM     15  C   UNL     1      20.736  59.639  99.564  1.00  0.00     0.157 A 
ATOM     16  C   UNL     1      21.218  60.064 101.903  1.00  0.00     0.062 A 
ATOM     17  C   UNL     1      20.824  59.184 100.885  1.00  0.00     0.158 A 
BRANCH  15  18
ATOM     18  O   UNL     1      20.347  58.760  98.554  1.00  0.00    -0.504 OA
ATOM     19  H   UNL     1      21.028  58.234  98.019  1.00  0.00     0.293 HD
ENDBRANCH  15  18
BRANCH  17  20
ATOM     20  O   UNL     1      20.512  57.858 101.180  1.00  0.00    -0.504 OA
ATOM     21  H   UNL     1      19.677  57.416 100.815  1.00  0.00     0.293 HD
ENDBRANCH  17  20
ENDBRANCH   1  12
BRANCH   2  22
ATOM     22  O   UNL     1      24.257  61.619 102.610  1.00  0.00    -0.502 OA
ATOM     23  H   UNL     1      24.515  60.727 103.015  1.00  0.00     0.293 HD
ENDBRANCH   2  22
BRANCH   9  24
ATOM     24  O   UNL     1      19.417  66.635 106.052  1.00  0.00    -0.508 OA
ATOM     25  H   UNL     1      18.474  66.283 106.176  1.00  0.00     0.293 HD
ENDBRANCH   9  24
TORSDOF 5
ENDMDL
MODEL 8
REMARK VINA RESULT:    -5.397      3.660      7.361
REMARK INTER + INTRA:          -6.648
REMARK INTER:                  -6.602
REMARK INTRA:                  -0.046
REMARK UNBOUND:                -0.304
REMARK SMILES O=c1c(O)c(-c2ccc(O)c(O)c2)oc2cc(O)ccc12
REMARK SMILES IDX 5 1 3 2 2 3 1 4 21 5 15 6 14 7 16 8 17 9 19 10 20 11 6 12
REMARK SMILES IDX 7 13 8 14 9 15 13 16 11 17 10 18 12 20 4 22 18 24
REMARK H PARENT 10 19 12 21 4 23 18 25
REMARK Flexibility Score: inf
ROOT
ATOM      1  C   UNL     1      23.583  53.536  93.354  1.00  0.00     0.180 A 
ATOM      2  C   UNL     1      22.610  52.879  94.135  1.00  0.00     0.208 A 
ATOM      3  C   UNL     1      21.800  51.907  93.529  1.00  0.00     0.235 A 
ATOM      4  O   UNL     1      20.929  51.298  94.209  1.00  0.00    -0.285 OA
ATOM      5  C   UNL     1      21.962  51.627  92.163  1.00  0.00     0.069 A 
ATOM      6  C   UNL     1      22.943  52.344  91.445  1.00  0.00     0.142 A 
ATOM      7  O   UNL     1      23.695  53.251  92.058  1.00  0.00    -0.452 OA
ATOM      8  C   UNL     1      23.128  52.101  90.079  1.00  0.00     0.094 A 
ATOM      9  C   UNL     1      22.344  51.144  89.420  1.00  0.00     0.119 A 
ATOM     10  C   UNL     1      21.374  50.430  90.130  1.00  0.00     0.047 A 
ATOM     11  C   UNL     1      21.179  50.667  91.494  1.00  0.00     0.020 A 
ENDROOT
BRANCH   1  12
ATOM     12  C   UNL     1      24.488  54.560  93.924  1.00  0.00     0.025 A 
ATOM     13  C   UNL     1      25.878  54.377  93.839  1.00  0.00     0.016 A 
ATOM     14  C   UNL     1      26.750  55.321  94.388  1.00  0.00     0.051 A 
ATOM     15  C   UNL     1      26.246  56.451  95.043  1.00  0.00     0.157 A 
ATOM     16  C   UNL     1      23.987  55.686  94.601  1.00  0.00     0.062 A 
ATOM     17  C   UNL     1      24.862  56.632  95.153  1.00  0.00     0.158 A 
BRANCH  15  18
ATOM     18  O   UNL     1      27.113  57.396  95.591  1.00  0.00    -0.504 OA
ATOM     19  H   UNL     1      27.726  57.166  96.365  1.00  0.00     0.293 HD
ENDBRANCH  15  18
BRANCH  17  20
ATOM     20  O   UNL     1      24.363  57.752  95.818  1.00  0.00    -0.504 OA
ATOM     21  H   UNL     1      24.246  58.640  95.346  1.00  0.00     0.293 HD
ENDBRANCH  17  20
ENDBRANCH   1  12
BRANCH   2  22
ATOM     22  O   UNL     1      22.438  53.214  95.480  1.00  0.00    -0.502 OA
ATOM     23  H   UNL     1      21.947  52.612  96.130  1.00  0.00     0.293 HD
ENDBRANCH   2  22
BRANCH   9  24
ATOM     24  O   UNL     1      22.522  50.896  88.061  1.00  0.00    -0.508 OA
ATOM     25  H   UNL     1      23.073  51.515  87.477  1.00  0.00     0.293 HD
ENDBRANCH   9  24
TORSDOF 5
ENDMDL
MODEL 9
REMARK VINA RESULT:    -5.392      9.494     11.036
REMARK INTER + INTRA:          -6.643
REMARK INTER:                  -6.319
REMARK INTRA:                  -0.324
REMARK UNBOUND:                -0.304
REMARK SMILES O=c1c(O)c(-c2ccc(O)c(O)c2)oc2cc(O)ccc12
REMARK SMILES IDX 5 1 3 2 2 3 1 4 21 5 15 6 14 7 16 8 17 9 19 10 20 11 6 12
REMARK SMILES IDX 7 13 8 14 9 15 13 16 11 17 10 18 12 20 4 22 18 24
REMARK H PARENT 10 19 12 21 4 23 18 25
REMARK Flexibility Score: inf
ROOT
ATOM      1  C   UNL     1      21.195  59.378 103.765  1.00  0.00     0.180 A 
ATOM      2  C   UNL     1      21.418  58.556 104.890  1.00  0.00     0.208 A 
ATOM      3  C   UNL     1      22.702  58.515 105.453  1.00  0.00     0.235 A 
ATOM      4  O   UNL     1      22.924  57.796 106.465  1.00  0.00    -0.285 OA
ATOM      5  C   UNL     1      23.735  59.271 104.875  1.00  0.00     0.069 A 
ATOM      6  C   UNL     1      23.437  60.050 103.736  1.00  0.00     0.142 A 
ATOM      7  O   UNL     1      22.205  60.068 103.238  1.00  0.00    -0.452 OA
ATOM      8  C   UNL     1      24.441  60.809 103.126  1.00  0.00     0.094 A 
ATOM      9  C   UNL     1      25.744  60.803 103.642  1.00  0.00     0.119 A 
ATOM     10  C   UNL     1      26.040  60.034 104.772  1.00  0.00     0.047 A 
ATOM     11  C   UNL     1      25.045  59.270 105.388  1.00  0.00     0.020 A 
ENDROOT
BRANCH   1  12
ATOM     12  C   UNL     1      19.865  59.490 103.125  1.00  0.00     0.025 A 
ATOM     13  C   UNL     1      19.552  58.663 102.033  1.00  0.00     0.016 A 
ATOM     14  C   UNL     1      18.310  58.767 101.401  1.00  0.00     0.051 A 
ATOM     15  C   UNL     1      17.371  59.709 101.840  1.00  0.00     0.157 A 
ATOM     16  C   UNL     1      18.927  60.449 103.547  1.00  0.00     0.062 A 
ATOM     17  C   UNL     1      17.682  60.555 102.912  1.00  0.00     0.158 A 
BRANCH  15  18
ATOM     18  O   UNL     1      16.130  59.815 101.212  1.00  0.00    -0.504 OA
ATOM     19  H   UNL     1      15.577  58.995 100.992  1.00  0.00     0.293 HD
ENDBRANCH  15  18
BRANCH  17  20
ATOM     20  O   UNL     1      16.750  61.501 103.337  1.00  0.00    -0.504 OA
ATOM     21  H   UNL     1      17.031  62.327 103.852  1.00  0.00     0.293 HD
ENDBRANCH  17  20
ENDBRANCH   1  12
BRANCH   2  22
ATOM     22  O   UNL     1      20.383  57.777 105.412  1.00  0.00    -0.502 OA
ATOM     23  H   UNL     1      19.672  58.160 106.024  1.00  0.00     0.293 HD
ENDBRANCH   2  22
BRANCH   9  24
ATOM     24  O   UNL     1      26.749  61.556 103.040  1.00  0.00    -0.508 OA
ATOM     25  H   UNL     1      27.706  61.224 102.998  1.00  0.00     0.293 HD
ENDBRANCH   9  24
TORSDOF 5
ENDMDL
