MODEL 1
REMARK VINA RESULT:    -4.400      0.000      0.000
REMARK INTER + INTRA:          -5.322
REMARK INTER:                  -5.043
REMARK INTRA:                  -0.279
REMARK UNBOUND:                -0.279
REMARK SMILES COC(=O)c1ccccc1O
REMARK SMILES IDX 5 1 6 2 7 3 8 4 9 5 10 6 3 7 4 8 2 9 1 10 11 11
REMARK H PARENT 11 12
REMARK Flexibility Score: inf
ROOT
ATOM      1  C   UNL     1      86.376  31.397  65.902  1.00  0.00     0.101 A 
ATOM      2  C   UNL     1      85.245  31.335  65.067  1.00  0.00     0.019 A 
ATOM      3  C   UNL     1      83.976  31.642  65.562  1.00  0.00     0.001 A 
ATOM      4  C   UNL     1      83.818  32.016  66.897  1.00  0.00     0.004 A 
ATOM      5  C   UNL     1      84.932  32.104  67.733  1.00  0.00     0.047 A 
ATOM      6  C   UNL     1      86.214  31.820  67.247  1.00  0.00     0.130 A 
ENDROOT
BRANCH   1   7
ATOM      7  C   UNL     1      87.683  30.987  65.343  1.00  0.00     0.341 C 
ATOM      8  O   UNL     1      88.437  30.207  65.986  1.00  0.00    -0.246 OA
BRANCH   7   9
ATOM      9  O   UNL     1      88.052  31.423  64.065  1.00  0.00    -0.465 OA
ATOM     10  C   UNL     1      89.125  30.840  63.335  1.00  0.00     0.282 C 
ENDBRANCH   7   9
ENDBRANCH   1   7
BRANCH   6  11
ATOM     11  O   UNL     1      87.293  32.003  68.115  1.00  0.00    -0.507 OA
ATOM     12  H   UNL     1      88.187  32.373  67.825  1.00  0.00     0.293 HD
ENDBRANCH   6  11
TORSDOF 3
ENDMDL
MODEL 2
REMARK VINA RESULT:    -4.379      2.379      4.314
REMARK INTER + INTRA:          -5.298
REMARK INTER:                  -5.094
REMARK INTRA:                  -0.204
REMARK UNBOUND:                -0.279
REMARK SMILES COC(=O)c1ccccc1O
REMARK SMILES IDX 5 1 6 2 7 3 8 4 9 5 10 6 3 7 4 8 2 9 1 10 11 11
REMARK H PARENT 11 12
REMARK Flexibility Score: inf
ROOT
ATOM      1  C   UNL     1      85.397  31.572  65.148  1.00  0.00     0.101 A 
ATOM      2  C   UNL     1      85.953  32.853  64.973  1.00  0.00     0.019 A 
ATOM      3  C   UNL     1      87.311  33.008  64.690  1.00  0.00     0.001 A 
ATOM      4  C   UNL     1      88.134  31.888  64.578  1.00  0.00     0.004 A 
ATOM      5  C   UNL     1      87.596  30.609  64.728  1.00  0.00     0.047 A 
ATOM      6  C   UNL     1      86.231  30.435  64.991  1.00  0.00     0.130 A 
ENDROOT
BRANCH   1   7
ATOM      7  C   UNL     1      83.969  31.472  65.521  1.00  0.00     0.341 C 
ATOM      8  O   UNL     1      83.170  30.794  64.819  1.00  0.00    -0.246 OA
BRANCH   7   9
ATOM      9  O   UNL     1      83.521  32.087  66.696  1.00  0.00    -0.465 OA
ATOM     10  C   UNL     1      84.286  32.099  67.895  1.00  0.00     0.282 C 
ENDBRANCH   7   9
ENDBRANCH   1   7
BRANCH   6  11
ATOM     11  O   UNL     1      85.743  29.127  65.052  1.00  0.00    -0.507 OA
ATOM     12  H   UNL     1      84.809  28.893  65.358  1.00  0.00     0.293 HD
ENDBRANCH   6  11
TORSDOF 3
ENDMDL
MODEL 3
REMARK VINA RESULT:    -4.349      2.568      4.137
REMARK INTER + INTRA:          -5.264
REMARK INTER:                  -4.916
REMARK INTRA:                  -0.348
REMARK UNBOUND:                -0.279
REMARK SMILES COC(=O)c1ccccc1O
REMARK SMILES IDX 5 1 6 2 7 3 8 4 9 5 10 6 3 7 4 8 2 9 1 10 11 11
REMARK H PARENT 11 12
REMARK Flexibility Score: inf
ROOT
ATOM      1  C   UNL     1      85.387  32.144  65.880  1.00  0.00     0.101 A 
ATOM      2  C   UNL     1      86.170  31.975  67.037  1.00  0.00     0.019 A 
ATOM      3  C   UNL     1      87.519  32.334  67.043  1.00  0.00     0.001 A 
ATOM      4  C   UNL     1      88.106  32.867  65.896  1.00  0.00     0.004 A 
ATOM      5  C   UNL     1      87.340  33.061  64.746  1.00  0.00     0.047 A 
ATOM      6  C   UNL     1      85.979  32.725  64.729  1.00  0.00     0.130 A 
ENDROOT
BRANCH   1   7
ATOM      7  C   UNL     1      83.984  31.675  65.908  1.00  0.00     0.341 C 
ATOM      8  O   UNL     1      83.257  31.892  66.916  1.00  0.00    -0.246 OA
BRANCH   7   9
ATOM      9  O   UNL     1      83.449  31.040  64.782  1.00  0.00    -0.465 OA
ATOM     10  C   UNL     1      83.808  29.716  64.405  1.00  0.00     0.282 C 
ENDBRANCH   7   9
ENDBRANCH   1   7
BRANCH   6  11
ATOM     11  O   UNL     1      85.253  33.017  63.573  1.00  0.00    -0.507 OA
ATOM     12  H   UNL     1      85.463  32.622  62.667  1.00  0.00     0.293 HD
ENDBRANCH   6  11
TORSDOF 3
ENDMDL
MODEL 4
REMARK VINA RESULT:    -4.280      1.268      1.522
REMARK INTER + INTRA:          -5.185
REMARK INTER:                  -4.837
REMARK INTRA:                  -0.348
REMARK UNBOUND:                -0.279
REMARK SMILES COC(=O)c1ccccc1O
REMARK SMILES IDX 5 1 6 2 7 3 8 4 9 5 10 6 3 7 4 8 2 9 1 10 11 11
REMARK H PARENT 11 12
REMARK Flexibility Score: inf
ROOT
ATOM      1  C   UNL     1      86.278  31.974  65.838  1.00  0.00     0.101 A 
ATOM      2  C   UNL     1      85.145  31.889  65.008  1.00  0.00     0.019 A 
ATOM      3  C   UNL     1      83.860  31.892  65.553  1.00  0.00     0.001 A 
ATOM      4  C   UNL     1      83.687  31.978  66.935  1.00  0.00     0.004 A 
ATOM      5  C   UNL     1      84.799  32.084  67.772  1.00  0.00     0.047 A 
ATOM      6  C   UNL     1      86.095  32.104  67.239  1.00  0.00     0.130 A 
ENDROOT
BRANCH   1   7
ATOM      7  C   UNL     1      87.615  31.890  65.209  1.00  0.00     0.341 C 
ATOM      8  O   UNL     1      87.874  30.979  64.376  1.00  0.00    -0.246 OA
BRANCH   7   9
ATOM      9  O   UNL     1      88.574  32.866  65.501  1.00  0.00    -0.465 OA
ATOM     10  C   UNL     1      88.371  34.247  65.225  1.00  0.00     0.282 C 
ENDBRANCH   7   9
ENDBRANCH   1   7
BRANCH   6  11
ATOM     11  O   UNL     1      87.158  32.291  68.125  1.00  0.00    -0.507 OA
ATOM     12  H   UNL     1      87.180  31.907  69.059  1.00  0.00     0.293 HD
ENDBRANCH   6  11
TORSDOF 3
ENDMDL
MODEL 5
REMARK VINA RESULT:    -4.264      1.923      3.790
REMARK INTER + INTRA:          -5.166
REMARK INTER:                  -4.909
REMARK INTRA:                  -0.257
REMARK UNBOUND:                -0.279
REMARK SMILES COC(=O)c1ccccc1O
REMARK SMILES IDX 5 1 6 2 7 3 8 4 9 5 10 6 3 7 4 8 2 9 1 10 11 11
REMARK H PARENT 11 12
REMARK Flexibility Score: inf
ROOT
ATOM      1  C   UNL     1      86.545  31.119  66.146  1.00  0.00     0.101 A 
ATOM      2  C   UNL     1      86.725  30.214  65.083  1.00  0.00     0.019 A 
ATOM      3  C   UNL     1      87.975  29.645  64.837  1.00  0.00     0.001 A 
ATOM      4  C   UNL     1      89.064  29.970  65.646  1.00  0.00     0.004 A 
ATOM      5  C   UNL     1      88.899  30.849  66.717  1.00  0.00     0.047 A 
ATOM      6  C   UNL     1      87.646  31.413  66.991  1.00  0.00     0.130 A 
ENDROOT
BRANCH   1   7
ATOM      7  C   UNL     1      85.216  31.749  66.312  1.00  0.00     0.341 C 
ATOM      8  O   UNL     1      84.870  32.224  67.428  1.00  0.00    -0.246 OA
BRANCH   7   9
ATOM      9  O   UNL     1      84.369  31.869  65.205  1.00  0.00    -0.465 OA
ATOM     10  C   UNL     1      83.182  31.099  65.060  1.00  0.00     0.282 C 
ENDBRANCH   7   9
ENDBRANCH   1   7
BRANCH   6  11
ATOM     11  O   UNL     1      87.532  32.222  68.124  1.00  0.00    -0.507 OA
ATOM     12  H   UNL     1      87.810  33.193  68.146  1.00  0.00     0.293 HD
ENDBRANCH   6  11
TORSDOF 3
ENDMDL
MODEL 6
REMARK VINA RESULT:    -4.220     15.465     16.706
REMARK INTER + INTRA:          -5.116
REMARK INTER:                  -4.853
REMARK INTRA:                  -0.262
REMARK UNBOUND:                -0.279
REMARK SMILES COC(=O)c1ccccc1O
REMARK SMILES IDX 5 1 6 2 7 3 8 4 9 5 10 6 3 7 4 8 2 9 1 10 11 11
REMARK H PARENT 11 12
REMARK Flexibility Score: inf
ROOT
ATOM      1  C   UNL     1      78.519  33.936  51.992  1.00  0.00     0.101 A 
ATOM      2  C   UNL     1      79.580  34.831  51.768  1.00  0.00     0.019 A 
ATOM      3  C   UNL     1      80.905  34.396  51.831  1.00  0.00     0.001 A 
ATOM      4  C   UNL     1      81.190  33.062  52.119  1.00  0.00     0.004 A 
ATOM      5  C   UNL     1      80.149  32.154  52.323  1.00  0.00     0.047 A 
ATOM      6  C   UNL     1      78.813  32.570  52.242  1.00  0.00     0.130 A 
ENDROOT
BRANCH   1   7
ATOM      7  C   UNL     1      77.138  34.469  51.987  1.00  0.00     0.341 C 
ATOM      8  O   UNL     1      76.890  35.597  51.481  1.00  0.00    -0.246 OA
BRANCH   7   9
ATOM      9  O   UNL     1      76.097  33.684  52.495  1.00  0.00    -0.465 OA
ATOM     10  C   UNL     1      74.899  34.245  53.018  1.00  0.00     0.282 C 
ENDBRANCH   7   9
ENDBRANCH   1   7
BRANCH   6  11
ATOM     11  O   UNL     1      77.821  31.597  52.379  1.00  0.00    -0.507 OA
ATOM     12  H   UNL     1      76.999  31.551  51.794  1.00  0.00     0.293 HD
ENDBRANCH   6  11
TORSDOF 3
ENDMDL
MODEL 7
REMARK VINA RESULT:    -4.189      1.683      2.618
REMARK INTER + INTRA:          -5.080
REMARK INTER:                  -4.771
REMARK INTRA:                  -0.310
REMARK UNBOUND:                -0.279
REMARK SMILES COC(=O)c1ccccc1O
REMARK SMILES IDX 5 1 6 2 7 3 8 4 9 5 10 6 3 7 4 8 2 9 1 10 11 11
REMARK H PARENT 11 12
REMARK Flexibility Score: inf
ROOT
ATOM      1  C   UNL     1      85.869  30.504  65.323  1.00  0.00     0.101 A 
ATOM      2  C   UNL     1      85.062  31.630  65.572  1.00  0.00     0.019 A 
ATOM      3  C   UNL     1      83.703  31.617  65.255  1.00  0.00     0.001 A 
ATOM      4  C   UNL     1      83.129  30.481  64.685  1.00  0.00     0.004 A 
ATOM      5  C   UNL     1      83.908  29.348  64.451  1.00  0.00     0.047 A 
ATOM      6  C   UNL     1      85.270  29.337  64.783  1.00  0.00     0.130 A 
ENDROOT
BRANCH   1   7
ATOM      7  C   UNL     1      87.317  30.602  65.609  1.00  0.00     0.341 C 
ATOM      8  O   UNL     1      87.722  30.991  66.738  1.00  0.00    -0.246 OA
BRANCH   7   9
ATOM      9  O   UNL     1      88.238  30.201  64.634  1.00  0.00    -0.465 OA
ATOM     10  C   UNL     1      88.769  31.097  63.665  1.00  0.00     0.282 C 
ENDBRANCH   7   9
ENDBRANCH   1   7
BRANCH   6  11
ATOM     11  O   UNL     1      85.974  28.145  64.594  1.00  0.00    -0.507 OA
ATOM     12  H   UNL     1      85.874  27.337  65.192  1.00  0.00     0.293 HD
ENDBRANCH   6  11
TORSDOF 3
ENDMDL
MODEL 8
REMARK VINA RESULT:    -4.179      2.391      3.516
REMARK INTER + INTRA:          -5.069
REMARK INTER:                  -4.766
REMARK INTRA:                  -0.303
REMARK UNBOUND:                -0.279
REMARK SMILES COC(=O)c1ccccc1O
REMARK SMILES IDX 5 1 6 2 7 3 8 4 9 5 10 6 3 7 4 8 2 9 1 10 11 11
REMARK H PARENT 11 12
REMARK Flexibility Score: inf
ROOT
ATOM      1  C   UNL     1      85.553  31.633  65.799  1.00  0.00     0.101 A 
ATOM      2  C   UNL     1      86.739  31.616  65.041  1.00  0.00     0.019 A 
ATOM      3  C   UNL     1      87.961  31.960  65.622  1.00  0.00     0.001 A 
ATOM      4  C   UNL     1      88.017  32.327  66.966  1.00  0.00     0.004 A 
ATOM      5  C   UNL     1      86.855  32.329  67.739  1.00  0.00     0.047 A 
ATOM      6  C   UNL     1      85.624  31.965  67.177  1.00  0.00     0.130 A 
ENDROOT
BRANCH   1   7
ATOM      7  C   UNL     1      84.278  31.332  65.113  1.00  0.00     0.341 C 
ATOM      8  O   UNL     1      83.259  32.048  65.315  1.00  0.00    -0.246 OA
BRANCH   7   9
ATOM      9  O   UNL     1      84.225  30.283  64.188  1.00  0.00    -0.465 OA
ATOM     10  C   UNL     1      84.252  28.915  64.578  1.00  0.00     0.282 C 
ENDBRANCH   7   9
ENDBRANCH   1   7
BRANCH   6  11
ATOM     11  O   UNL     1      84.514  31.913  68.024  1.00  0.00    -0.507 OA
ATOM     12  H   UNL     1      84.471  31.338  68.853  1.00  0.00     0.293 HD
ENDBRANCH   6  11
TORSDOF 3
ENDMDL
MODEL 9
REMARK VINA RESULT:    -4.121      2.402      3.765
REMARK INTER + INTRA:          -5.002
REMARK INTER:                  -4.727
REMARK INTRA:                  -0.276
REMARK UNBOUND:                -0.279
REMARK SMILES COC(=O)c1ccccc1O
REMARK SMILES IDX 5 1 6 2 7 3 8 4 9 5 10 6 3 7 4 8 2 9 1 10 11 11
REMARK H PARENT 11 12
REMARK Flexibility Score: inf
ROOT
ATOM      1  C   UNL     1      86.600  32.655  66.020  1.00  0.00     0.101 A 
ATOM      2  C   UNL     1      86.888  33.490  64.925  1.00  0.00     0.019 A 
ATOM      3  C   UNL     1      88.085  34.206  64.870  1.00  0.00     0.001 A 
ATOM      4  C   UNL     1      89.012  34.099  65.907  1.00  0.00     0.004 A 
ATOM      5  C   UNL     1      88.752  33.260  66.991  1.00  0.00     0.047 A 
ATOM      6  C   UNL     1      87.565  32.518  67.052  1.00  0.00     0.130 A 
ENDROOT
BRANCH   1   7
ATOM      7  C   UNL     1      85.284  31.980  66.061  1.00  0.00     0.341 C 
ATOM      8  O   UNL     1      84.589  31.997  67.114  1.00  0.00    -0.246 OA
BRANCH   7   9
ATOM      9  O   UNL     1      84.786  31.375  64.902  1.00  0.00    -0.465 OA
ATOM     10  C   UNL     1      83.512  30.744  64.852  1.00  0.00     0.282 C 
ENDBRANCH   7   9
ENDBRANCH   1   7
BRANCH   6  11
ATOM     11  O   UNL     1      87.403  31.638  68.125  1.00  0.00    -0.507 OA
ATOM     12  H   UNL     1      88.172  31.173  68.586  1.00  0.00     0.293 HD
ENDBRANCH   6  11
TORSDOF 3
ENDMDL
