MODEL 1
REMARK VINA RESULT:    -3.384      0.000      0.000
REMARK INTER + INTRA:          -4.542
REMARK INTER:                  -4.967
REMARK INTRA:                   0.426
REMARK UNBOUND:                 0.426
REMARK SMILES C=C1CC=CC(C)(C)CC=C(C)CCC1
REMARK SMILES IDX 2 1 1 2 15 3 14 4 13 5 11 6 12 7 10 8 3 10 4 11 5 12 6 13
REMARK SMILES IDX 7 14 8 15 9 16
REMARK H PARENT
REMARK Flexibility Score: 60.00
ROOT
ATOM      1  C   UNL     1      31.554  23.536  13.242  1.00  0.00    -0.074 C 
ATOM      2  C   UNL     1      31.820  23.149  14.501  1.00  0.00     0.008 C 
ENDROOT
BRANCH   1   3
ATOM      3  C   UNL     1      30.533  22.763  12.422  1.00  0.00     0.031 C 
BRANCH   3   4
ATOM      4  C   UNL     1      29.198  22.544  13.152  1.00  0.00     0.009 C 
BRANCH   4   5
ATOM      5  C   UNL     1      28.477  23.850  13.536  1.00  0.00     0.030 C 
BRANCH   5   6
ATOM      6  C   UNL     1      27.868  24.509  12.312  1.00  0.00    -0.077 C 
ATOM      7  C   UNL     1      26.791  23.768  11.560  1.00  0.00     0.039 C 
ATOM      8  C   UNL     1      28.197  25.755  11.888  1.00  0.00    -0.027 CG0
ATOM      9  G   UNL     1      29.280  26.642  12.474  1.00  0.00     0.000 G0
ENDBRANCH   5   6
ENDBRANCH   4   5
ENDBRANCH   3   4
ENDBRANCH   1   3
BRANCH   1  10
ATOM     10  C   UNL     1      32.118  24.846  12.732  1.00  0.00     0.057 C 
BRANCH  10  11
ATOM     11  C   UNL     1      31.834  25.099  11.272  1.00  0.00    -0.026 C 
ATOM     12  C   UNL     1      31.077  26.074  10.713  1.00  0.00    -0.024 C 
BRANCH  12  13
ATOM     13  C   UNL     1      30.278  27.205  11.379  1.00  0.00    -0.014 C 
ATOM     14  C   UNL     1      29.491  28.041  10.342  1.00  0.00     0.016 C 
ATOM     15  C   UNL     1      31.292  28.167  12.051  1.00  0.00     0.016 C 
BRANCH  13  16
ATOM     16  C   UNL     1      29.294  26.657  12.451  1.00  0.00     0.038 CG0
ATOM     17  G   UNL     1      28.204  25.755  11.901  1.00  0.00     0.000 G0
ENDBRANCH  13  16
ENDBRANCH  12  13
ENDBRANCH  10  11
ENDBRANCH   1  10
TORSDOF 0
ENDMDL
MODEL 2
REMARK VINA RESULT:    -3.121      1.305      3.419
REMARK INTER + INTRA:          -4.155
REMARK INTER:                  -4.952
REMARK INTRA:                   0.797
REMARK UNBOUND:                 0.426
REMARK SMILES C=C1CC=CC(C)(C)CC=C(C)CCC1
REMARK SMILES IDX 2 1 1 2 15 3 14 4 13 5 11 6 12 7 10 8 3 10 4 11 5 12 6 13
REMARK SMILES IDX 7 14 8 15 9 16
REMARK H PARENT
REMARK Flexibility Score: 60.00
ROOT
ATOM      1  C   UNL     1      27.916  24.519  12.557  1.00  0.00    -0.074 C 
ATOM      2  C   UNL     1      27.267  24.089  11.462  1.00  0.00     0.008 C 
ENDROOT
BRANCH   1   3
ATOM      3  C   UNL     1      28.404  23.507  13.582  1.00  0.00     0.031 C 
BRANCH   3   4
ATOM      4  C   UNL     1      29.563  22.633  13.077  1.00  0.00     0.009 C 
BRANCH   4   5
ATOM      5  C   UNL     1      30.482  23.341  12.062  1.00  0.00     0.030 C 
BRANCH   5   6
ATOM      6  C   UNL     1      31.526  24.181  12.775  1.00  0.00    -0.077 C 
ATOM      7  C   UNL     1      32.049  23.698  14.104  1.00  0.00     0.039 C 
ATOM      8  C   UNL     1      32.059  25.315  12.257  1.00  0.00    -0.027 CG0
ATOM      9  G   UNL     1      31.640  25.990  10.963  1.00  0.00     0.000 G0
ENDBRANCH   5   6
ENDBRANCH   4   5
ENDBRANCH   3   4
ENDBRANCH   1   3
BRANCH   1  10
ATOM     10  C   UNL     1      28.329  25.973  12.654  1.00  0.00     0.057 C 
BRANCH  10  11
ATOM     11  C   UNL     1      28.367  26.681  11.322  1.00  0.00    -0.026 C 
ATOM     12  C   UNL     1      29.425  27.251  10.696  1.00  0.00    -0.024 C 
BRANCH  12  13
ATOM     13  C   UNL     1      30.891  27.360  11.140  1.00  0.00    -0.014 C 
ATOM     14  C   UNL     1      31.013  27.821  12.611  1.00  0.00     0.016 C 
ATOM     15  C   UNL     1      31.567  28.452  10.272  1.00  0.00     0.016 C 
BRANCH  13  16
ATOM     16  C   UNL     1      31.647  26.013  10.959  1.00  0.00     0.038 CG0
ATOM     17  G   UNL     1      32.045  25.336  12.258  1.00  0.00     0.000 G0
ENDBRANCH  13  16
ENDBRANCH  12  13
ENDBRANCH  10  11
ENDBRANCH   1  10
TORSDOF 0
ENDMDL
MODEL 3
REMARK VINA RESULT:    -3.091      1.169      1.693
REMARK INTER + INTRA:          -4.111
REMARK INTER:                  -5.043
REMARK INTRA:                   0.933
REMARK UNBOUND:                 0.426
REMARK SMILES C=C1CC=CC(C)(C)CC=C(C)CCC1
REMARK SMILES IDX 2 1 1 2 15 3 14 4 13 5 11 6 12 7 10 8 3 10 4 11 5 12 6 13
REMARK SMILES IDX 7 14 8 15 9 16
REMARK H PARENT
REMARK Flexibility Score: 60.00
ROOT
ATOM      1  C   UNL     1      31.375  23.782  13.166  1.00  0.00    -0.074 C 
ATOM      2  C   UNL     1      31.222  23.562  14.483  1.00  0.00     0.008 C 
ENDROOT
BRANCH   1   3
ATOM      3  C   UNL     1      30.665  22.880  12.170  1.00  0.00     0.031 C 
BRANCH   3   4
ATOM      4  C   UNL     1      30.383  23.559  10.820  1.00  0.00     0.009 C 
BRANCH   4   5
ATOM      5  C   UNL     1      28.917  24.000  10.640  1.00  0.00     0.030 C 
BRANCH   5   6
ATOM      6  C   UNL     1      28.465  24.860  11.806  1.00  0.00    -0.077 C 
ATOM      7  C   UNL     1      27.730  24.195  12.943  1.00  0.00     0.039 C 
ATOM      8  C   UNL     1      28.735  26.184  11.911  1.00  0.00    -0.027 CG0
ATOM      9  G   UNL     1      29.418  27.044  10.863  1.00  0.00     0.000 G0
ENDBRANCH   5   6
ENDBRANCH   4   5
ENDBRANCH   3   4
ENDBRANCH   1   3
BRANCH   1  10
ATOM     10  C   UNL     1      32.081  25.038  12.700  1.00  0.00     0.057 C 
BRANCH  10  11
ATOM     11  C   UNL     1      31.589  26.294  13.376  1.00  0.00    -0.026 C 
ATOM     12  C   UNL     1      31.036  27.397  12.815  1.00  0.00    -0.024 C 
BRANCH  12  13
ATOM     13  C   UNL     1      30.747  27.713  11.340  1.00  0.00    -0.014 C 
ATOM     14  C   UNL     1      31.912  27.277  10.420  1.00  0.00     0.016 C 
ATOM     15  C   UNL     1      30.622  29.252  11.203  1.00  0.00     0.016 C 
BRANCH  13  16
ATOM     16  C   UNL     1      29.430  27.040  10.856  1.00  0.00     0.038 CG0
ATOM     17  G   UNL     1      28.735  26.195  11.908  1.00  0.00     0.000 G0
ENDBRANCH  13  16
ENDBRANCH  12  13
ENDBRANCH  10  11
ENDBRANCH   1  10
TORSDOF 0
ENDMDL
MODEL 4
REMARK VINA RESULT:    -2.637      1.622      4.889
REMARK INTER + INTRA:          -3.445
REMARK INTER:                  -4.716
REMARK INTRA:                   1.271
REMARK UNBOUND:                 0.426
REMARK SMILES C=C1CC=CC(C)(C)CC=C(C)CCC1
REMARK SMILES IDX 2 1 1 2 15 3 14 4 13 5 11 6 12 7 10 8 3 10 4 11 5 12 6 13
REMARK SMILES IDX 7 14 8 15 9 16
REMARK H PARENT
REMARK Flexibility Score: 60.00
ROOT
ATOM      1  C   UNL     1      28.525  26.028  11.456  1.00  0.00    -0.074 C 
ATOM      2  C   UNL     1      27.613  26.916  11.888  1.00  0.00     0.008 C 
ENDROOT
BRANCH   1   3
ATOM      3  C   UNL     1      29.865  26.524  10.938  1.00  0.00     0.031 C 
BRANCH   3   4
ATOM      4  C   UNL     1      30.794  25.396  10.462  1.00  0.00     0.009 C 
BRANCH   4   5
ATOM      5  C   UNL     1      32.121  25.311  11.241  1.00  0.00     0.030 C 
BRANCH   5   6
ATOM      6  C   UNL     1      31.910  25.660  12.703  1.00  0.00    -0.077 C 
ATOM      7  C   UNL     1      31.865  27.115  13.094  1.00  0.00     0.039 C 
ATOM      8  C   UNL     1      31.703  24.735  13.673  1.00  0.00    -0.027 CG0
ATOM      9  G   UNL     1      31.755  23.228  13.498  1.00  0.00     0.000 G0
ENDBRANCH   5   6
ENDBRANCH   4   5
ENDBRANCH   3   4
ENDBRANCH   1   3
BRANCH   1  10
ATOM     10  C   UNL     1      28.285  24.549  11.679  1.00  0.00     0.057 C 
BRANCH  10  11
ATOM     11  C   UNL     1      28.335  24.141  13.131  1.00  0.00    -0.026 C 
ATOM     12  C   UNL     1      29.211  23.312  13.749  1.00  0.00    -0.024 C 
BRANCH  12  13
ATOM     13  C   UNL     1      30.405  22.535  13.174  1.00  0.00    -0.014 C 
ATOM     14  C   UNL     1      30.290  22.355  11.642  1.00  0.00     0.016 C 
ATOM     15  C   UNL     1      30.385  21.114  13.794  1.00  0.00     0.016 C 
BRANCH  13  16
ATOM     16  C   UNL     1      31.756  23.229  13.510  1.00  0.00     0.038 CG0
ATOM     17  G   UNL     1      31.669  24.738  13.654  1.00  0.00     0.000 G0
ENDBRANCH  13  16
ENDBRANCH  12  13
ENDBRANCH  10  11
ENDBRANCH   1  10
TORSDOF 0
ENDMDL
MODEL 5
REMARK VINA RESULT:    -2.595      1.696      4.960
REMARK INTER + INTRA:          -3.383
REMARK INTER:                  -4.295
REMARK INTRA:                   0.912
REMARK UNBOUND:                 0.426
REMARK SMILES C=C1CC=CC(C)(C)CC=C(C)CCC1
REMARK SMILES IDX 2 1 1 2 15 3 14 4 13 5 11 6 12 7 10 8 3 10 4 11 5 12 6 13
REMARK SMILES IDX 7 14 8 15 9 16
REMARK H PARENT
REMARK Flexibility Score: 60.00
ROOT
ATOM      1  C   UNL     1      28.270  27.770  11.747  1.00  0.00    -0.074 C 
ATOM      2  C   UNL     1      27.126  28.468  11.835  1.00  0.00     0.008 C 
ENDROOT
BRANCH   1   3
ATOM      3  C   UNL     1      29.545  28.475  11.314  1.00  0.00     0.031 C 
BRANCH   3   4
ATOM      4  C   UNL     1      30.625  28.518  12.408  1.00  0.00     0.009 C 
BRANCH   4   5
ATOM      5  C   UNL     1      32.026  28.108  11.917  1.00  0.00     0.030 C 
BRANCH   5   6
ATOM      6  C   UNL     1      31.928  27.206  10.699  1.00  0.00    -0.077 C 
ATOM      7  C   UNL     1      32.122  27.820   9.336  1.00  0.00     0.039 C 
ATOM      8  C   UNL     1      31.732  25.866  10.771  1.00  0.00    -0.027 CG0
ATOM      9  G   UNL     1      31.470  25.067  12.035  1.00  0.00     0.000 G0
ENDBRANCH   5   6
ENDBRANCH   4   5
ENDBRANCH   3   4
ENDBRANCH   1   3
BRANCH   1  10
ATOM     10  C   UNL     1      28.317  26.350  12.273  1.00  0.00     0.057 C 
BRANCH  10  11
ATOM     11  C   UNL     1      28.384  25.305  11.187  1.00  0.00    -0.026 C 
ATOM     12  C   UNL     1      29.270  24.291  11.039  1.00  0.00    -0.024 C 
BRANCH  12  13
ATOM     13  C   UNL     1      30.470  23.897  11.914  1.00  0.00    -0.014 C 
ATOM     14  C   UNL     1      31.194  22.644  11.366  1.00  0.00     0.016 C 
ATOM     15  C   UNL     1      29.929  23.523  13.318  1.00  0.00     0.016 C 
BRANCH  13  16
ATOM     16  C   UNL     1      31.491  25.063  12.046  1.00  0.00     0.038 CG0
ATOM     17  G   UNL     1      31.722  25.844  10.764  1.00  0.00     0.000 G0
ENDBRANCH  13  16
ENDBRANCH  12  13
ENDBRANCH  10  11
ENDBRANCH   1  10
TORSDOF 0
ENDMDL
MODEL 6
REMARK VINA RESULT:    -2.489      1.532      3.672
REMARK INTER + INTRA:          -3.228
REMARK INTER:                  -5.026
REMARK INTRA:                   1.798
REMARK UNBOUND:                 0.426
REMARK SMILES C=C1CC=CC(C)(C)CC=C(C)CCC1
REMARK SMILES IDX 2 1 1 2 15 3 14 4 13 5 11 6 12 7 10 8 3 10 4 11 5 12 6 13
REMARK SMILES IDX 7 14 8 15 9 16
REMARK H PARENT
REMARK Flexibility Score: 60.00
ROOT
ATOM      1  C   UNL     1      31.629  26.337  11.979  1.00  0.00    -0.074 C 
ATOM      2  C   UNL     1      32.041  27.464  12.583  1.00  0.00     0.008 C 
ENDROOT
BRANCH   1   3
ATOM      3  C   UNL     1      32.118  24.992  12.493  1.00  0.00     0.031 C 
BRANCH   3   4
ATOM      4  C   UNL     1      31.492  24.584  13.836  1.00  0.00     0.009 C 
BRANCH   4   5
ATOM      5  C   UNL     1      31.794  23.130  14.247  1.00  0.00     0.030 C 
BRANCH   5   6
ATOM      6  C   UNL     1      30.721  22.189  13.730  1.00  0.00    -0.077 C 
ATOM      7  C   UNL     1      31.069  20.731  13.559  1.00  0.00     0.039 C 
ATOM      8  C   UNL     1      29.449  22.574  13.466  1.00  0.00    -0.027 CG0
ATOM      9  G   UNL     1      28.912  23.993  13.529  1.00  0.00     0.000 G0
ENDBRANCH   5   6
ENDBRANCH   4   5
ENDBRANCH   3   4
ENDBRANCH   1   3
BRANCH   1  10
ATOM     10  C   UNL     1      30.533  26.410  10.936  1.00  0.00     0.057 C 
BRANCH  10  11
ATOM     11  C   UNL     1      30.062  25.058  10.459  1.00  0.00    -0.026 C 
ATOM     12  C   UNL     1      29.097  24.264  10.982  1.00  0.00    -0.024 C 
BRANCH  12  13
ATOM     13  C   UNL     1      28.199  24.483  12.210  1.00  0.00    -0.014 C 
ATOM     14  C   UNL     1      26.835  23.771  12.059  1.00  0.00     0.016 C 
ATOM     15  C   UNL     1      27.903  26.002  12.313  1.00  0.00     0.016 C 
BRANCH  13  16
ATOM     16  C   UNL     1      28.889  24.000  13.518  1.00  0.00     0.038 CG0
ATOM     17  G   UNL     1      29.446  22.590  13.450  1.00  0.00     0.000 G0
ENDBRANCH  13  16
ENDBRANCH  12  13
ENDBRANCH  10  11
ENDBRANCH   1  10
TORSDOF 0
ENDMDL
MODEL 7
REMARK VINA RESULT:    -2.421      1.025      3.682
REMARK INTER + INTRA:          -3.128
REMARK INTER:                  -5.070
REMARK INTRA:                   1.942
REMARK UNBOUND:                 0.426
REMARK SMILES C=C1CC=CC(C)(C)CC=C(C)CCC1
REMARK SMILES IDX 2 1 1 2 15 3 14 4 13 5 11 6 12 7 10 8 3 10 4 11 5 12 6 13
REMARK SMILES IDX 7 14 8 15 9 16
REMARK H PARENT
REMARK Flexibility Score: 60.00
ROOT
ATOM      1  C   UNL     1      31.752  24.194  12.049  1.00  0.00    -0.074 C 
ATOM      2  C   UNL     1      32.054  24.516  10.780  1.00  0.00     0.008 C 
ENDROOT
BRANCH   1   3
ATOM      3  C   UNL     1      31.753  25.276  13.116  1.00  0.00     0.031 C 
BRANCH   3   4
ATOM      4  C   UNL     1      32.046  26.681  12.564  1.00  0.00     0.009 C 
BRANCH   4   5
ATOM      5  C   UNL     1      30.816  27.609  12.537  1.00  0.00     0.030 C 
BRANCH   5   6
ATOM      6  C   UNL     1      29.985  27.366  11.290  1.00  0.00    -0.077 C 
ATOM      7  C   UNL     1      30.376  28.078  10.019  1.00  0.00     0.039 C 
ATOM      8  C   UNL     1      28.943  26.500  11.238  1.00  0.00    -0.027 CG0
ATOM      9  G   UNL     1      28.365  25.725  12.409  1.00  0.00     0.000 G0
ENDBRANCH   5   6
ENDBRANCH   4   5
ENDBRANCH   3   4
ENDBRANCH   1   3
BRANCH   1  10
ATOM     10  C   UNL     1      31.221  22.809  12.358  1.00  0.00     0.057 C 
BRANCH  10  11
ATOM     11  C   UNL     1      30.107  22.802  13.375  1.00  0.00    -0.026 C 
ATOM     12  C   UNL     1      28.877  23.363  13.288  1.00  0.00    -0.024 C 
BRANCH  12  13
ATOM     13  C   UNL     1      28.243  24.176  12.149  1.00  0.00    -0.014 C 
ATOM     14  C   UNL     1      26.754  23.811  11.942  1.00  0.00     0.016 C 
ATOM     15  C   UNL     1      28.981  23.804  10.837  1.00  0.00     0.016 C 
BRANCH  13  16
ATOM     16  C   UNL     1      28.367  25.706  12.397  1.00  0.00     0.038 CG0
ATOM     17  G   UNL     1      28.934  26.489  11.226  1.00  0.00     0.000 G0
ENDBRANCH  13  16
ENDBRANCH  12  13
ENDBRANCH  10  11
ENDBRANCH   1  10
TORSDOF 0
ENDMDL
MODEL 8
REMARK VINA RESULT:    -1.902      1.880      3.744
REMARK INTER + INTRA:          -2.366
REMARK INTER:                  -3.756
REMARK INTRA:                   1.390
REMARK UNBOUND:                 0.426
REMARK SMILES C=C1CC=CC(C)(C)CC=C(C)CCC1
REMARK SMILES IDX 2 1 1 2 15 3 14 4 13 5 11 6 12 7 10 8 3 10 4 11 5 12 6 13
REMARK SMILES IDX 7 14 8 15 9 16
REMARK H PARENT
REMARK Flexibility Score: 60.00
ROOT
ATOM      1  C   UNL     1      30.598  22.005  13.582  1.00  0.00    -0.074 C 
ATOM      2  C   UNL     1      30.476  21.007  14.473  1.00  0.00     0.008 C 
ENDROOT
BRANCH   1   3
ATOM      3  C   UNL     1      31.058  21.692  12.167  1.00  0.00     0.031 C 
BRANCH   3   4
ATOM      4  C   UNL     1      32.078  22.702  11.617  1.00  0.00     0.009 C 
BRANCH   4   5
ATOM      5  C   UNL     1      31.746  23.214  10.202  1.00  0.00     0.030 C 
BRANCH   5   6
ATOM      6  C   UNL     1      31.212  24.635  10.254  1.00  0.00    -0.077 C 
ATOM      7  C   UNL     1      32.121  25.758   9.822  1.00  0.00     0.039 C 
ATOM      8  C   UNL     1      29.942  24.946  10.614  1.00  0.00    -0.027 CG0
ATOM      9  G   UNL     1      28.892  23.975  11.122  1.00  0.00     0.000 G0
ENDBRANCH   5   6
ENDBRANCH   4   5
ENDBRANCH   3   4
ENDBRANCH   1   3
BRANCH   1  10
ATOM     10  C   UNL     1      30.085  23.385  13.937  1.00  0.00     0.057 C 
BRANCH  10  11
ATOM     11  C   UNL     1      28.593  23.437  14.160  1.00  0.00    -0.026 C 
ATOM     12  C   UNL     1      27.631  23.926  13.343  1.00  0.00    -0.024 C 
BRANCH  12  13
ATOM     13  C   UNL     1      27.752  24.577  11.957  1.00  0.00    -0.014 C 
ATOM     14  C   UNL     1      27.962  26.107  12.057  1.00  0.00     0.016 C 
ATOM     15  C   UNL     1      26.410  24.358  11.213  1.00  0.00     0.016 C 
BRANCH  13  16
ATOM     16  C   UNL     1      28.912  23.952  11.129  1.00  0.00     0.038 CG0
ATOM     17  G   UNL     1      29.935  24.954  10.625  1.00  0.00     0.000 G0
ENDBRANCH  13  16
ENDBRANCH  12  13
ENDBRANCH  10  11
ENDBRANCH   1  10
TORSDOF 0
ENDMDL
MODEL 9
REMARK VINA RESULT:    -1.876      1.166      3.791
REMARK INTER + INTRA:          -2.327
REMARK INTER:                  -3.771
REMARK INTRA:                   1.444
REMARK UNBOUND:                 0.426
REMARK SMILES C=C1CC=CC(C)(C)CC=C(C)CCC1
REMARK SMILES IDX 2 1 1 2 15 3 14 4 13 5 11 6 12 7 10 8 3 10 4 11 5 12 6 13
REMARK SMILES IDX 7 14 8 15 9 16
REMARK H PARENT
REMARK Flexibility Score: 60.00
ROOT
ATOM      1  C   UNL     1      30.132  27.579  11.717  1.00  0.00    -0.074 C 
ATOM      2  C   UNL     1      30.914  28.537  12.243  1.00  0.00     0.008 C 
ENDROOT
BRANCH   1   3
ATOM      3  C   UNL     1      28.641  27.830  11.567  1.00  0.00     0.031 C 
BRANCH   3   4
ATOM      4  C   UNL     1      27.771  26.637  11.996  1.00  0.00     0.009 C 
BRANCH   4   5
ATOM      5  C   UNL     1      27.970  25.378  11.130  1.00  0.00     0.030 C 
BRANCH   5   6
ATOM      6  C   UNL     1      27.673  24.122  11.929  1.00  0.00    -0.077 C 
ATOM      7  C   UNL     1      26.450  23.316  11.569  1.00  0.00     0.039 C 
ATOM      8  C   UNL     1      28.477  23.651  12.914  1.00  0.00    -0.027 CG0
ATOM      9  G   UNL     1      29.721  24.332  13.456  1.00  0.00     0.000 G0
ENDBRANCH   5   6
ENDBRANCH   4   5
ENDBRANCH   3   4
ENDBRANCH   1   3
BRANCH   1  10
ATOM     10  C   UNL     1      30.772  26.353  11.100  1.00  0.00     0.057 C 
BRANCH  10  11
ATOM     11  C   UNL     1      31.991  25.867  11.845  1.00  0.00    -0.026 C 
ATOM     12  C   UNL     1      32.124  24.769  12.628  1.00  0.00    -0.024 C 
BRANCH  12  13
ATOM     13  C   UNL     1      31.092  23.695  13.002  1.00  0.00    -0.014 C 
ATOM     14  C   UNL     1      31.620  22.750  14.106  1.00  0.00     0.016 C 
ATOM     15  C   UNL     1      30.844  22.820  11.746  1.00  0.00     0.016 C 
BRANCH  13  16
ATOM     16  C   UNL     1      29.748  24.327  13.466  1.00  0.00     0.038 CG0
ATOM     17  G   UNL     1      28.510  23.653  12.903  1.00  0.00     0.000 G0
ENDBRANCH  13  16
ENDBRANCH  12  13
ENDBRANCH  10  11
ENDBRANCH   1  10
TORSDOF 0
ENDMDL
