MODEL 1
REMARK VINA RESULT:    -5.416      0.000      0.000
REMARK INTER + INTRA:         -11.651
REMARK INTER:                  -9.848
REMARK INTRA:                  -1.803
REMARK UNBOUND:                -1.803
REMARK SMILES CCCCCCCCCCCCCCCC(=O)[O-]
REMARK SMILES IDX 9 1 10 2 11 3 12 4 13 5 14 6 15 7 16 8 17 9 18 10 8 11 7 12
REMARK SMILES IDX 6 13 5 14 4 15 3 16 2 17 1 18
REMARK H PARENT
REMARK Flexibility Score: inf
ROOT
ATOM      1  C   UNL     1       4.018   5.852  22.235  1.00  0.00     0.000 C 
ENDROOT
BRANCH   1   2
ATOM      2  C   UNL     1       4.494   7.031  23.102  1.00  0.00     0.000 C 
BRANCH   2   3
ATOM      3  C   UNL     1       6.008   6.994  23.368  1.00  0.00     0.000 C 
BRANCH   3   4
ATOM      4  C   UNL     1       6.843   7.265  22.102  1.00  0.00     0.000 C 
BRANCH   4   5
ATOM      5  C   UNL     1       6.452   8.592  21.421  1.00  0.00     0.000 C 
BRANCH   5   6
ATOM      6  C   UNL     1       6.749   8.620  19.911  1.00  0.00     0.006 C 
BRANCH   6   7
ATOM      7  C   UNL     1       7.638   7.457  19.457  1.00  0.00     0.053 C 
BRANCH   7   8
ATOM      8  C   UNL     1       7.359   7.113  18.028  1.00  0.00     0.041 C 
ATOM      9  O   UNL     1       7.625   7.938  17.114  1.00  0.00    -0.550 OA
ATOM     10  O   UNL     1       6.758   5.903  17.708  1.00  0.00    -0.550 OA
ENDBRANCH   7   8
ENDBRANCH   6   7
ENDBRANCH   5   6
ENDBRANCH   4   5
ENDBRANCH   3   4
ENDBRANCH   2   3
ENDBRANCH   1   2
BRANCH   1  11
ATOM     11  C   UNL     1       3.001   6.272  21.156  1.00  0.00     0.000 C 
BRANCH  11  12
ATOM     12  C   UNL     1       3.598   6.578  19.769  1.00  0.00    -0.000 C 
BRANCH  12  13
ATOM     13  C   UNL     1       3.359   5.450  18.751  1.00  0.00    -0.000 C 
BRANCH  13  14
ATOM     14  C   UNL     1       2.343   4.404  19.245  1.00  0.00    -0.000 C 
BRANCH  14  15
ATOM     15  C   UNL     1       0.962   4.454  18.561  1.00  0.00    -0.000 C 
BRANCH  15  16
ATOM     16  C   UNL     1       0.689   5.720  17.723  1.00  0.00    -0.000 C 
BRANCH  16  17
ATOM     17  C   UNL     1      -0.166   6.788  18.427  1.00  0.00    -0.003 C 
ATOM     18  C   UNL     1       0.172   8.210  17.981  1.00  0.00     0.004 C 
ENDBRANCH  16  17
ENDBRANCH  15  16
ENDBRANCH  14  15
ENDBRANCH  13  14
ENDBRANCH  12  13
ENDBRANCH  11  12
ENDBRANCH   1  11
TORSDOF 14
ENDMDL
MODEL 2
REMARK VINA RESULT:    -5.403      1.779      3.535
REMARK INTER + INTRA:         -11.628
REMARK INTER:                  -9.423
REMARK INTRA:                  -2.205
REMARK UNBOUND:                -1.803
REMARK SMILES CCCCCCCCCCCCCCCC(=O)[O-]
REMARK SMILES IDX 9 1 10 2 11 3 12 4 13 5 14 6 15 7 16 8 17 9 18 10 8 11 7 12
REMARK SMILES IDX 6 13 5 14 4 15 3 16 2 17 1 18
REMARK H PARENT
REMARK Flexibility Score: inf
ROOT
ATOM      1  C   UNL     1       2.735   4.513  20.104  1.00  0.00     0.000 C 
ENDROOT
BRANCH   1   2
ATOM      2  C   UNL     1       2.708   5.847  20.869  1.00  0.00     0.000 C 
BRANCH   2   3
ATOM      3  C   UNL     1       3.645   5.849  22.088  1.00  0.00     0.000 C 
BRANCH   3   4
ATOM      4  C   UNL     1       3.862   7.257  22.672  1.00  0.00     0.000 C 
BRANCH   4   5
ATOM      5  C   UNL     1       4.921   8.056  21.884  1.00  0.00     0.000 C 
BRANCH   5   6
ATOM      6  C   UNL     1       6.259   7.312  21.723  1.00  0.00     0.006 C 
BRANCH   6   7
ATOM      7  C   UNL     1       7.475   8.231  21.892  1.00  0.00     0.053 C 
BRANCH   7   8
ATOM      8  C   UNL     1       7.798   8.914  20.601  1.00  0.00     0.041 C 
ATOM      9  O   UNL     1       8.366   8.279  19.674  1.00  0.00    -0.550 OA
ATOM     10  O   UNL     1       7.517  10.265  20.439  1.00  0.00    -0.550 OA
ENDBRANCH   7   8
ENDBRANCH   6   7
ENDBRANCH   5   6
ENDBRANCH   4   5
ENDBRANCH   3   4
ENDBRANCH   2   3
ENDBRANCH   1   2
BRANCH   1  11
ATOM     11  C   UNL     1       1.460   4.269  19.276  1.00  0.00     0.000 C 
BRANCH  11  12
ATOM     12  C   UNL     1       1.384   5.029  17.938  1.00  0.00    -0.000 C 
BRANCH  12  13
ATOM     13  C   UNL     1       0.405   6.214  17.975  1.00  0.00    -0.000 C 
BRANCH  13  14
ATOM     14  C   UNL     1       1.117   7.579  17.937  1.00  0.00    -0.000 C 
BRANCH  14  15
ATOM     15  C   UNL     1       2.585   7.543  17.463  1.00  0.00    -0.000 C 
BRANCH  15  16
ATOM     16  C   UNL     1       3.599   8.206  18.417  1.00  0.00    -0.000 C 
BRANCH  16  17
ATOM     17  C   UNL     1       5.068   7.825  18.163  1.00  0.00    -0.003 C 
ATOM     18  C   UNL     1       5.298   6.314  18.153  1.00  0.00     0.004 C 
ENDBRANCH  16  17
ENDBRANCH  15  16
ENDBRANCH  14  15
ENDBRANCH  13  14
ENDBRANCH  12  13
ENDBRANCH  11  12
ENDBRANCH   1  11
TORSDOF 14
ENDMDL
MODEL 3
REMARK VINA RESULT:    -5.396      2.331      3.412
REMARK INTER + INTRA:         -11.615
REMARK INTER:                  -9.727
REMARK INTRA:                  -1.888
REMARK UNBOUND:                -1.803
REMARK SMILES CCCCCCCCCCCCCCCC(=O)[O-]
REMARK SMILES IDX 9 1 10 2 11 3 12 4 13 5 14 6 15 7 16 8 17 9 18 10 8 11 7 12
REMARK SMILES IDX 6 13 5 14 4 15 3 16 2 17 1 18
REMARK H PARENT
REMARK Flexibility Score: inf
ROOT
ATOM      1  C   UNL     1       6.741   7.134  22.585  1.00  0.00     0.000 C 
ENDROOT
BRANCH   1   2
ATOM      2  C   UNL     1       6.943   8.195  21.490  1.00  0.00     0.000 C 
BRANCH   2   3
ATOM      3  C   UNL     1       7.632   7.628  20.238  1.00  0.00     0.000 C 
BRANCH   3   4
ATOM      4  C   UNL     1       6.983   8.113  18.928  1.00  0.00     0.000 C 
BRANCH   4   5
ATOM      5  C   UNL     1       5.928   7.119  18.400  1.00  0.00     0.000 C 
BRANCH   5   6
ATOM      6  C   UNL     1       4.634   7.795  17.914  1.00  0.00     0.006 C 
BRANCH   6   7
ATOM      7  C   UNL     1       4.376   9.146  18.592  1.00  0.00     0.053 C 
BRANCH   7   8
ATOM      8  C   UNL     1       3.181   9.814  17.990  1.00  0.00     0.041 C 
ATOM      9  O   UNL     1       2.589   9.289  17.010  1.00  0.00    -0.550 OA
ATOM     10  O   UNL     1       2.751  11.042  18.475  1.00  0.00    -0.550 OA
ENDBRANCH   7   8
ENDBRANCH   6   7
ENDBRANCH   5   6
ENDBRANCH   4   5
ENDBRANCH   3   4
ENDBRANCH   2   3
ENDBRANCH   1   2
BRANCH   1  11
ATOM     11  C   UNL     1       5.264   6.959  22.987  1.00  0.00     0.000 C 
BRANCH  11  12
ATOM     12  C   UNL     1       4.239   7.236  21.872  1.00  0.00    -0.000 C 
BRANCH  12  13
ATOM     13  C   UNL     1       3.216   6.100  21.701  1.00  0.00    -0.000 C 
BRANCH  13  14
ATOM     14  C   UNL     1       3.139   5.576  20.255  1.00  0.00    -0.000 C 
BRANCH  14  15
ATOM     15  C   UNL     1       2.079   4.484  20.006  1.00  0.00    -0.000 C 
BRANCH  15  16
ATOM     16  C   UNL     1       1.240   4.663  18.725  1.00  0.00    -0.000 C 
BRANCH  16  17
ATOM     17  C   UNL     1       1.282   6.077  18.119  1.00  0.00    -0.003 C 
ATOM     18  C   UNL     1       0.054   6.914  18.476  1.00  0.00     0.004 C 
ENDBRANCH  16  17
ENDBRANCH  15  16
ENDBRANCH  14  15
ENDBRANCH  13  14
ENDBRANCH  12  13
ENDBRANCH  11  12
ENDBRANCH   1  11
TORSDOF 14
ENDMDL
MODEL 4
REMARK VINA RESULT:    -5.378      1.960      5.437
REMARK INTER + INTRA:         -11.583
REMARK INTER:                  -9.798
REMARK INTRA:                  -1.785
REMARK UNBOUND:                -1.803
REMARK SMILES CCCCCCCCCCCCCCCC(=O)[O-]
REMARK SMILES IDX 9 1 10 2 11 3 12 4 13 5 14 6 15 7 16 8 17 9 18 10 8 11 7 12
REMARK SMILES IDX 6 13 5 14 4 15 3 16 2 17 1 18
REMARK H PARENT
REMARK Flexibility Score: inf
ROOT
ATOM      1  C   UNL     1       3.497   6.146  22.218  1.00  0.00     0.000 C 
ENDROOT
BRANCH   1   2
ATOM      2  C   UNL     1       2.747   6.068  20.877  1.00  0.00     0.000 C 
BRANCH   2   3
ATOM      3  C   UNL     1       2.818   4.670  20.241  1.00  0.00     0.000 C 
BRANCH   3   4
ATOM      4  C   UNL     1       1.644   4.387  19.286  1.00  0.00     0.000 C 
BRANCH   4   5
ATOM      5  C   UNL     1       1.109   5.675  18.626  1.00  0.00     0.000 C 
BRANCH   5   6
ATOM      6  C   UNL     1       1.969   6.165  17.447  1.00  0.00     0.006 C 
BRANCH   6   7
ATOM      7  C   UNL     1       2.353   7.645  17.564  1.00  0.00     0.053 C 
BRANCH   7   8
ATOM      8  C   UNL     1       3.145   8.075  16.370  1.00  0.00     0.041 C 
ATOM      9  O   UNL     1       3.363   9.297  16.161  1.00  0.00    -0.550 OA
ATOM     10  O   UNL     1       3.600   7.129  15.459  1.00  0.00    -0.550 OA
ENDBRANCH   7   8
ENDBRANCH   6   7
ENDBRANCH   5   6
ENDBRANCH   4   5
ENDBRANCH   3   4
ENDBRANCH   2   3
ENDBRANCH   1   2
BRANCH   1  11
ATOM     11  C   UNL     1       4.535   7.283  22.260  1.00  0.00     0.000 C 
BRANCH  11  12
ATOM     12  C   UNL     1       5.773   7.016  23.137  1.00  0.00    -0.000 C 
BRANCH  12  13
ATOM     13  C   UNL     1       7.098   7.271  22.399  1.00  0.00    -0.000 C 
BRANCH  13  14
ATOM     14  C   UNL     1       6.982   8.367  21.323  1.00  0.00    -0.000 C 
BRANCH  14  15
ATOM     15  C   UNL     1       7.980   8.250  20.153  1.00  0.00    -0.000 C 
BRANCH  15  16
ATOM     16  C   UNL     1       7.545   7.310  19.010  1.00  0.00    -0.000 C 
BRANCH  16  17
ATOM     17  C   UNL     1       6.023   7.182  18.824  1.00  0.00    -0.003 C 
ATOM     18  C   UNL     1       5.618   5.897  18.105  1.00  0.00     0.004 C 
ENDBRANCH  16  17
ENDBRANCH  15  16
ENDBRANCH  14  15
ENDBRANCH  13  14
ENDBRANCH  12  13
ENDBRANCH  11  12
ENDBRANCH   1  11
TORSDOF 14
ENDMDL
MODEL 5
REMARK VINA RESULT:    -5.355      2.155      5.297
REMARK INTER + INTRA:         -11.540
REMARK INTER:                  -9.669
REMARK INTRA:                  -1.871
REMARK UNBOUND:                -1.803
REMARK SMILES CCCCCCCCCCCCCCCC(=O)[O-]
REMARK SMILES IDX 9 1 10 2 11 3 12 4 13 5 14 6 15 7 16 8 17 9 18 10 8 11 7 12
REMARK SMILES IDX 6 13 5 14 4 15 3 16 2 17 1 18
REMARK H PARENT
REMARK Flexibility Score: inf
ROOT
ATOM      1  C   UNL     1       6.751   6.792  22.609  1.00  0.00     0.000 C 
ENDROOT
BRANCH   1   2
ATOM      2  C   UNL     1       5.419   7.008  23.350  1.00  0.00     0.000 C 
BRANCH   2   3
ATOM      3  C   UNL     1       4.229   7.169  22.390  1.00  0.00     0.000 C 
BRANCH   3   4
ATOM      4  C   UNL     1       3.641   5.820  21.936  1.00  0.00     0.000 C 
BRANCH   4   5
ATOM      5  C   UNL     1       2.809   5.955  20.644  1.00  0.00     0.000 C 
BRANCH   5   6
ATOM      6  C   UNL     1       2.722   4.652  19.830  1.00  0.00     0.006 C 
BRANCH   6   7
ATOM      7  C   UNL     1       1.389   4.502  19.086  1.00  0.00     0.053 C 
BRANCH   7   8
ATOM      8  C   UNL     1       1.349   5.409  17.897  1.00  0.00     0.041 C 
ATOM      9  O   UNL     1       0.263   5.934  17.537  1.00  0.00    -0.550 OA
ATOM     10  O   UNL     1       2.502   5.637  17.155  1.00  0.00    -0.550 OA
ENDBRANCH   7   8
ENDBRANCH   6   7
ENDBRANCH   5   6
ENDBRANCH   4   5
ENDBRANCH   3   4
ENDBRANCH   2   3
ENDBRANCH   1   2
BRANCH   1  11
ATOM     11  C   UNL     1       7.234   8.051  21.864  1.00  0.00     0.000 C 
BRANCH  11  12
ATOM     12  C   UNL     1       7.392   7.896  20.340  1.00  0.00    -0.000 C 
BRANCH  12  13
ATOM     13  C   UNL     1       6.510   8.872  19.543  1.00  0.00    -0.000 C 
BRANCH  13  14
ATOM     14  C   UNL     1       5.386   8.162  18.765  1.00  0.00    -0.000 C 
BRANCH  14  15
ATOM     15  C   UNL     1       5.595   6.651  18.539  1.00  0.00    -0.000 C 
BRANCH  15  16
ATOM     16  C   UNL     1       6.037   6.255  17.115  1.00  0.00    -0.000 C 
BRANCH  16  17
ATOM     17  C   UNL     1       7.517   6.532  16.798  1.00  0.00    -0.003 C 
ATOM     18  C   UNL     1       7.716   7.769  15.923  1.00  0.00     0.004 C 
ENDBRANCH  16  17
ENDBRANCH  15  16
ENDBRANCH  14  15
ENDBRANCH  13  14
ENDBRANCH  12  13
ENDBRANCH  11  12
ENDBRANCH   1  11
TORSDOF 14
ENDMDL
MODEL 6
REMARK VINA RESULT:    -5.342      2.176      5.790
REMARK INTER + INTRA:         -11.518
REMARK INTER:                  -9.928
REMARK INTRA:                  -1.590
REMARK UNBOUND:                -1.803
REMARK SMILES CCCCCCCCCCCCCCCC(=O)[O-]
REMARK SMILES IDX 9 1 10 2 11 3 12 4 13 5 14 6 15 7 16 8 17 9 18 10 8 11 7 12
REMARK SMILES IDX 6 13 5 14 4 15 3 16 2 17 1 18
REMARK H PARENT
REMARK Flexibility Score: inf
ROOT
ATOM      1  C   UNL     1       2.710   4.523  19.990  1.00  0.00     0.000 C 
ENDROOT
BRANCH   1   2
ATOM      2  C   UNL     1       1.273   4.342  19.470  1.00  0.00     0.000 C 
BRANCH   2   3
ATOM      3  C   UNL     1       1.068   4.956  18.076  1.00  0.00     0.000 C 
BRANCH   3   4
ATOM      4  C   UNL     1       0.182   6.216  18.104  1.00  0.00     0.000 C 
BRANCH   4   5
ATOM      5  C   UNL     1       1.012   7.512  17.991  1.00  0.00     0.000 C 
BRANCH   5   6
ATOM      6  C   UNL     1       2.417   7.293  17.403  1.00  0.00     0.006 C 
BRANCH   6   7
ATOM      7  C   UNL     1       3.458   8.267  17.967  1.00  0.00     0.053 C 
BRANCH   7   8
ATOM      8  C   UNL     1       3.243   9.640  17.414  1.00  0.00     0.041 C 
ATOM      9  O   UNL     1       3.566   9.901  16.225  1.00  0.00    -0.550 OA
ATOM     10  O   UNL     1       2.735  10.646  18.226  1.00  0.00    -0.550 OA
ENDBRANCH   7   8
ENDBRANCH   6   7
ENDBRANCH   5   6
ENDBRANCH   4   5
ENDBRANCH   3   4
ENDBRANCH   2   3
ENDBRANCH   1   2
BRANCH   1  11
ATOM     11  C   UNL     1       2.907   5.837  20.768  1.00  0.00     0.000 C 
BRANCH  11  12
ATOM     12  C   UNL     1       3.769   5.729  22.040  1.00  0.00    -0.000 C 
BRANCH  12  13
ATOM     13  C   UNL     1       4.211   7.099  22.583  1.00  0.00    -0.000 C 
BRANCH  13  14
ATOM     14  C   UNL     1       5.513   7.025  23.403  1.00  0.00    -0.000 C 
BRANCH  14  15
ATOM     15  C   UNL     1       6.814   7.035  22.575  1.00  0.00    -0.000 C 
BRANCH  15  16
ATOM     16  C   UNL     1       6.843   8.046  21.410  1.00  0.00    -0.000 C 
BRANCH  16  17
ATOM     17  C   UNL     1       6.706   7.421  20.010  1.00  0.00    -0.003 C 
ATOM     18  C   UNL     1       7.179   8.353  18.895  1.00  0.00     0.004 C 
ENDBRANCH  16  17
ENDBRANCH  15  16
ENDBRANCH  14  15
ENDBRANCH  13  14
ENDBRANCH  12  13
ENDBRANCH  11  12
ENDBRANCH   1  11
TORSDOF 14
ENDMDL
MODEL 7
REMARK VINA RESULT:    -5.338      1.308      2.211
REMARK INTER + INTRA:         -11.510
REMARK INTER:                 -10.071
REMARK INTRA:                  -1.439
REMARK UNBOUND:                -1.803
REMARK SMILES CCCCCCCCCCCCCCCC(=O)[O-]
REMARK SMILES IDX 9 1 10 2 11 3 12 4 13 5 14 6 15 7 16 8 17 9 18 10 8 11 7 12
REMARK SMILES IDX 6 13 5 14 4 15 3 16 2 17 1 18
REMARK H PARENT
REMARK Flexibility Score: inf
ROOT
ATOM      1  C   UNL     1       5.772   7.015  23.056  1.00  0.00     0.000 C 
ENDROOT
BRANCH   1   2
ATOM      2  C   UNL     1       7.088   6.998  22.260  1.00  0.00     0.000 C 
BRANCH   2   3
ATOM      3  C   UNL     1       7.145   8.098  21.188  1.00  0.00     0.000 C 
BRANCH   3   4
ATOM      4  C   UNL     1       7.952   7.680  19.945  1.00  0.00     0.000 C 
BRANCH   4   5
ATOM      5  C   UNL     1       7.203   7.996  18.633  1.00  0.00     0.000 C 
BRANCH   5   6
ATOM      6  C   UNL     1       5.847   7.280  18.511  1.00  0.00     0.006 C 
BRANCH   6   7
ATOM      7  C   UNL     1       5.929   5.980  17.703  1.00  0.00     0.053 C 
BRANCH   7   8
ATOM      8  C   UNL     1       6.225   6.275  16.267  1.00  0.00     0.041 C 
ATOM      9  O   UNL     1       7.305   5.884  15.749  1.00  0.00    -0.550 OA
ATOM     10  O   UNL     1       5.334   7.027  15.512  1.00  0.00    -0.550 OA
ENDBRANCH   7   8
ENDBRANCH   6   7
ENDBRANCH   5   6
ENDBRANCH   4   5
ENDBRANCH   3   4
ENDBRANCH   2   3
ENDBRANCH   1   2
BRANCH   1  11
ATOM     11  C   UNL     1       4.549   7.371  22.190  1.00  0.00     0.000 C 
BRANCH  11  12
ATOM     12  C   UNL     1       3.494   6.259  22.047  1.00  0.00    -0.000 C 
BRANCH  12  13
ATOM     13  C   UNL     1       3.431   5.668  20.628  1.00  0.00    -0.000 C 
BRANCH  13  14
ATOM     14  C   UNL     1       2.187   4.791  20.401  1.00  0.00    -0.000 C 
BRANCH  14  15
ATOM     15  C   UNL     1       2.061   4.179  18.990  1.00  0.00    -0.000 C 
BRANCH  15  16
ATOM     16  C   UNL     1       0.949   4.783  18.109  1.00  0.00    -0.000 C 
BRANCH  16  17
ATOM     17  C   UNL     1       0.994   6.315  17.974  1.00  0.00    -0.003 C 
ATOM     18  C   UNL     1      -0.264   6.997  18.510  1.00  0.00     0.004 C 
ENDBRANCH  16  17
ENDBRANCH  15  16
ENDBRANCH  14  15
ENDBRANCH  13  14
ENDBRANCH  12  13
ENDBRANCH  11  12
ENDBRANCH   1  11
TORSDOF 14
ENDMDL
MODEL 8
REMARK VINA RESULT:    -5.308      2.331      5.052
REMARK INTER + INTRA:         -11.456
REMARK INTER:                  -9.244
REMARK INTRA:                  -2.212
REMARK UNBOUND:                -1.803
REMARK SMILES CCCCCCCCCCCCCCCC(=O)[O-]
REMARK SMILES IDX 9 1 10 2 11 3 12 4 13 5 14 6 15 7 16 8 17 9 18 10 8 11 7 12
REMARK SMILES IDX 6 13 5 14 4 15 3 16 2 17 1 18
REMARK H PARENT
REMARK Flexibility Score: inf
ROOT
ATOM      1  C   UNL     1       7.192   8.524  21.857  1.00  0.00     0.000 C 
ENDROOT
BRANCH   1   2
ATOM      2  C   UNL     1       6.745   7.079  22.136  1.00  0.00     0.000 C 
BRANCH   2   3
ATOM      3  C   UNL     1       5.594   7.001  23.151  1.00  0.00     0.000 C 
BRANCH   3   4
ATOM      4  C   UNL     1       4.212   7.215  22.505  1.00  0.00     0.000 C 
BRANCH   4   5
ATOM      5  C   UNL     1       3.632   5.906  21.930  1.00  0.00     0.000 C 
BRANCH   5   6
ATOM      6  C   UNL     1       2.951   6.084  20.561  1.00  0.00     0.006 C 
BRANCH   6   7
ATOM      7  C   UNL     1       2.390   4.773  19.999  1.00  0.00     0.053 C 
BRANCH   7   8
ATOM      8  C   UNL     1       1.818   4.992  18.635  1.00  0.00     0.041 C 
ATOM      9  O   UNL     1       0.617   4.697  18.397  1.00  0.00    -0.550 OA
ATOM     10  O   UNL     1       2.623   5.473  17.610  1.00  0.00    -0.550 OA
ENDBRANCH   7   8
ENDBRANCH   6   7
ENDBRANCH   5   6
ENDBRANCH   4   5
ENDBRANCH   3   4
ENDBRANCH   2   3
ENDBRANCH   1   2
BRANCH   1  11
ATOM     11  C   UNL     1       8.053   8.653  20.587  1.00  0.00     0.000 C 
BRANCH  11  12
ATOM     12  C   UNL     1       7.974   7.463  19.611  1.00  0.00    -0.000 C 
BRANCH  12  13
ATOM     13  C   UNL     1       7.162   7.779  18.344  1.00  0.00    -0.000 C 
BRANCH  13  14
ATOM     14  C   UNL     1       5.680   7.378  18.469  1.00  0.00    -0.000 C 
BRANCH  14  15
ATOM     15  C   UNL     1       4.672   8.540  18.355  1.00  0.00    -0.000 C 
BRANCH  15  16
ATOM     16  C   UNL     1       4.586   9.458  19.592  1.00  0.00    -0.000 C 
BRANCH  16  17
ATOM     17  C   UNL     1       4.757  10.958  19.295  1.00  0.00    -0.003 C 
ATOM     18  C   UNL     1       6.106  11.289  18.659  1.00  0.00     0.004 C 
ENDBRANCH  16  17
ENDBRANCH  15  16
ENDBRANCH  14  15
ENDBRANCH  13  14
ENDBRANCH  12  13
ENDBRANCH  11  12
ENDBRANCH   1  11
TORSDOF 14
ENDMDL
MODEL 9
REMARK VINA RESULT:    -5.305      1.274      5.236
REMARK INTER + INTRA:         -11.449
REMARK INTER:                  -9.632
REMARK INTRA:                  -1.817
REMARK UNBOUND:                -1.803
REMARK SMILES CCCCCCCCCCCCCCCC(=O)[O-]
REMARK SMILES IDX 9 1 10 2 11 3 12 4 13 5 14 6 15 7 16 8 17 9 18 10 8 11 7 12
REMARK SMILES IDX 6 13 5 14 4 15 3 16 2 17 1 18
REMARK H PARENT
REMARK Flexibility Score: inf
ROOT
ATOM      1  C   UNL     1       1.372   4.378  19.618  1.00  0.00     0.000 C 
ENDROOT
BRANCH   1   2
ATOM      2  C   UNL     1       1.364   4.803  18.140  1.00  0.00     0.000 C 
BRANCH   2   3
ATOM      3  C   UNL     1       0.675   6.159  17.918  1.00  0.00     0.000 C 
BRANCH   3   4
ATOM      4  C   UNL     1       1.677   7.313  17.722  1.00  0.00     0.000 C 
BRANCH   4   5
ATOM      5  C   UNL     1       2.960   6.851  17.001  1.00  0.00     0.000 C 
BRANCH   5   6
ATOM      6  C   UNL     1       4.250   7.419  17.618  1.00  0.00     0.006 C 
BRANCH   6   7
ATOM      7  C   UNL     1       5.361   6.370  17.745  1.00  0.00     0.053 C 
BRANCH   7   8
ATOM      8  C   UNL     1       6.631   6.877  17.138  1.00  0.00     0.041 C 
ATOM      9  O   UNL     1       6.834   8.116  17.036  1.00  0.00    -0.550 OA
ATOM     10  O   UNL     1       7.570   5.983  16.637  1.00  0.00    -0.550 OA
ENDBRANCH   7   8
ENDBRANCH   6   7
ENDBRANCH   5   6
ENDBRANCH   4   5
ENDBRANCH   3   4
ENDBRANCH   2   3
ENDBRANCH   1   2
BRANCH   1  11
ATOM     11  C   UNL     1       2.756   4.518  20.278  1.00  0.00     0.000 C 
BRANCH  11  12
ATOM     12  C   UNL     1       3.123   5.938  20.749  1.00  0.00    -0.000 C 
BRANCH  12  13
ATOM     13  C   UNL     1       3.512   5.995  22.236  1.00  0.00    -0.000 C 
BRANCH  13  14
ATOM     14  C   UNL     1       4.296   7.269  22.600  1.00  0.00    -0.000 C 
BRANCH  14  15
ATOM     15  C   UNL     1       5.665   7.031  23.270  1.00  0.00    -0.000 C 
BRANCH  15  16
ATOM     16  C   UNL     1       6.876   7.057  22.316  1.00  0.00    -0.000 C 
BRANCH  16  17
ATOM     17  C   UNL     1       6.630   7.778  20.980  1.00  0.00    -0.003 C 
ATOM     18  C   UNL     1       7.907   8.354  20.370  1.00  0.00     0.004 C 
ENDBRANCH  16  17
ENDBRANCH  15  16
ENDBRANCH  14  15
ENDBRANCH  13  14
ENDBRANCH  12  13
ENDBRANCH  11  12
ENDBRANCH   1  11
TORSDOF 14
ENDMDL
