MODEL 1
REMARK VINA RESULT:    -5.897      0.000      0.000
REMARK INTER + INTRA:          -7.063
REMARK INTER:                  -6.931
REMARK INTRA:                  -0.132
REMARK UNBOUND:                -0.132
REMARK SMILES C=C[C@]1(C)CC[C@@H](C(=C)C)C[C@H]1C(=C)C
REMARK SMILES IDX 7 1 6 2 5 3 3 4 12 5 11 6 4 7 8 8 10 9 9 10 13 11 14 12
REMARK SMILES IDX 15 13 2 14 1 15
REMARK H PARENT
REMARK Flexibility Score: inf
ROOT
ATOM      1  C   UNL     1     104.547 103.220 127.764  1.00  0.00     0.015 C 
ATOM      2  C   UNL     1     104.881 103.880 126.415  1.00  0.00     0.009 C 
ATOM      3  C   UNL     1     103.604 104.337 125.695  1.00  0.00     0.012 C 
ATOM      4  C   UNL     1     102.742 105.321 126.542  1.00  0.00    -0.008 C 
ATOM      5  C   UNL     1     102.458 104.665 127.946  1.00  0.00     0.024 C 
ATOM      6  C   UNL     1     103.743 104.180 128.660  1.00  0.00     0.017 C 
ATOM      7  C   UNL     1     103.467 106.687 126.666  1.00  0.00     0.016 C 
ENDROOT
BRANCH   1   8
ATOM      8  C   UNL     1     105.803 102.717 128.469  1.00  0.00    -0.077 C 
ATOM      9  C   UNL     1     105.789 101.400 129.194  1.00  0.00     0.039 C 
ATOM     10  C   UNL     1     106.952 103.412 128.472  1.00  0.00     0.008 C 
ENDBRANCH   1   8
BRANCH   5  11
ATOM     11  C   UNL     1     101.588 105.516 128.878  1.00  0.00    -0.077 C 
ATOM     12  C   UNL     1     100.393 105.093 129.324  1.00  0.00     0.008 C 
ATOM     13  C   UNL     1     102.040 106.900 129.275  1.00  0.00     0.039 C 
ENDBRANCH   5  11
BRANCH   4  14
ATOM     14  C   UNL     1     101.414 105.535 125.814  1.00  0.00    -0.028 C 
ATOM     15  C   UNL     1     101.036 106.716 125.307  1.00  0.00     0.004 C 
ENDBRANCH   4  14
TORSDOF 3
ENDMDL
MODEL 2
REMARK VINA RESULT:    -5.868      3.768      5.711
REMARK INTER + INTRA:          -7.030
REMARK INTER:                  -6.938
REMARK INTRA:                  -0.092
REMARK UNBOUND:                -0.132
REMARK SMILES C=C[C@]1(C)CC[C@@H](C(=C)C)C[C@H]1C(=C)C
REMARK SMILES IDX 7 1 6 2 5 3 3 4 12 5 11 6 4 7 8 8 10 9 9 10 13 11 14 12
REMARK SMILES IDX 15 13 2 14 1 15
REMARK H PARENT
REMARK Flexibility Score: inf
ROOT
ATOM      1  C   UNL     1     103.190 107.861 127.755  1.00  0.00     0.015 C 
ATOM      2  C   UNL     1     103.883 107.502 126.429  1.00  0.00     0.009 C 
ATOM      3  C   UNL     1     104.344 108.766 125.689  1.00  0.00     0.012 C 
ATOM      4  C   UNL     1     105.299 109.658 126.536  1.00  0.00    -0.008 C 
ATOM      5  C   UNL     1     104.609 109.968 127.918  1.00  0.00     0.024 C 
ATOM      6  C   UNL     1     104.121 108.695 128.652  1.00  0.00     0.017 C 
ATOM      7  C   UNL     1     106.670 108.952 126.708  1.00  0.00     0.016 C 
ENDROOT
BRANCH   1   8
ATOM      8  C   UNL     1     102.685 106.616 128.478  1.00  0.00    -0.077 C 
ATOM      9  C   UNL     1     101.396 106.661 129.252  1.00  0.00     0.039 C 
ATOM     10  C   UNL     1     103.352 105.451 128.456  1.00  0.00     0.008 C 
ENDBRANCH   1   8
BRANCH   5  11
ATOM     11  C   UNL     1     105.430 110.870 128.848  1.00  0.00    -0.077 C 
ATOM     12  C   UNL     1     104.957 112.040 129.309  1.00  0.00     0.008 C 
ATOM     13  C   UNL     1     106.838 110.480 129.225  1.00  0.00     0.039 C 
ENDBRANCH   5  11
BRANCH   4  14
ATOM     14  C   UNL     1     105.516 110.971 125.782  1.00  0.00    -0.028 C 
ATOM     15  C   UNL     1     106.710 111.365 125.320  1.00  0.00     0.004 C 
ENDBRANCH   4  14
TORSDOF 3
ENDMDL
MODEL 3
REMARK VINA RESULT:    -5.800      3.795      5.763
REMARK INTER + INTRA:          -6.950
REMARK INTER:                  -6.856
REMARK INTRA:                  -0.094
REMARK UNBOUND:                -0.132
REMARK SMILES C=C[C@]1(C)CC[C@@H](C(=C)C)C[C@H]1C(=C)C
REMARK SMILES IDX 7 1 6 2 5 3 3 4 12 5 11 6 4 7 8 8 10 9 9 10 13 11 14 12
REMARK SMILES IDX 15 13 2 14 1 15
REMARK H PARENT
REMARK Flexibility Score: inf
ROOT
ATOM      1  C   UNL     1     109.301 104.539 127.737  1.00  0.00     0.015 C 
ATOM      2  C   UNL     1     108.598 104.926 126.425  1.00  0.00     0.009 C 
ATOM      3  C   UNL     1     108.093 103.680 125.683  1.00  0.00     0.012 C 
ATOM      4  C   UNL     1     107.127 102.807 126.538  1.00  0.00    -0.008 C 
ATOM      5  C   UNL     1     107.830 102.468 127.907  1.00  0.00     0.024 C 
ATOM      6  C   UNL     1     108.362 103.722 128.642  1.00  0.00     0.017 C 
ATOM      7  C   UNL     1     105.779 103.548 126.736  1.00  0.00     0.016 C 
ENDROOT
BRANCH   1   8
ATOM      8  C   UNL     1     109.851 105.765 128.462  1.00  0.00    -0.077 C 
ATOM      9  C   UNL     1     111.144 105.677 129.224  1.00  0.00     0.039 C 
ATOM     10  C   UNL     1     109.219 106.949 128.451  1.00  0.00     0.008 C 
ENDBRANCH   1   8
BRANCH   5  11
ATOM     11  C   UNL     1     106.999 101.582 128.843  1.00  0.00    -0.077 C 
ATOM     12  C   UNL     1     107.448 100.395 129.288  1.00  0.00     0.008 C 
ATOM     13  C   UNL     1     105.609 102.007 129.246  1.00  0.00     0.039 C 
ENDBRANCH   5  11
BRANCH   4  14
ATOM     14  C   UNL     1     106.865 101.506 125.778  1.00  0.00    -0.028 C 
ATOM     15  C   UNL     1     105.639 101.096 125.424  1.00  0.00     0.004 C 
ENDBRANCH   4  14
TORSDOF 3
ENDMDL
MODEL 4
REMARK VINA RESULT:    -5.796      5.257      8.173
REMARK INTER + INTRA:          -6.945
REMARK INTER:                  -6.819
REMARK INTRA:                  -0.126
REMARK UNBOUND:                -0.132
REMARK SMILES C=C[C@]1(C)CC[C@@H](C(=C)C)C[C@H]1C(=C)C
REMARK SMILES IDX 7 1 6 2 5 3 3 4 12 5 11 6 4 7 8 8 10 9 9 10 13 11 14 12
REMARK SMILES IDX 15 13 2 14 1 15
REMARK H PARENT
REMARK Flexibility Score: inf
ROOT
ATOM      1  C   UNL     1     107.894 109.332 127.798  1.00  0.00     0.015 C 
ATOM      2  C   UNL     1     107.506 108.648 126.476  1.00  0.00     0.009 C 
ATOM      3  C   UNL     1     108.754 108.190 125.706  1.00  0.00     0.012 C 
ATOM      4  C   UNL     1     109.663 107.229 126.528  1.00  0.00    -0.008 C 
ATOM      5  C   UNL     1     110.003 107.910 127.907  1.00  0.00     0.024 C 
ATOM      6  C   UNL     1     108.746 108.394 128.671  1.00  0.00     0.017 C 
ATOM      7  C   UNL     1     108.958 105.858 126.706  1.00  0.00     0.016 C 
ENDROOT
BRANCH   1   8
ATOM      8  C   UNL     1     106.665 109.834 128.550  1.00  0.00    -0.077 C 
ATOM      9  C   UNL     1     106.718 111.135 129.303  1.00  0.00     0.039 C 
ATOM     10  C   UNL     1     105.508 109.153 128.573  1.00  0.00     0.008 C 
ENDBRANCH   1   8
BRANCH   5  11
ATOM     11  C   UNL     1     110.923 107.082 128.813  1.00  0.00    -0.077 C 
ATOM     12  C   UNL     1     112.124 107.532 129.214  1.00  0.00     0.008 C 
ATOM     13  C   UNL     1     110.514 105.691 129.232  1.00  0.00     0.039 C 
ENDBRANCH   5  11
BRANCH   4  14
ATOM     14  C   UNL     1     110.959 107.016 125.745  1.00  0.00    -0.028 C 
ATOM     15  C   UNL     1     111.387 105.810 125.346  1.00  0.00     0.004 C 
ENDBRANCH   4  14
TORSDOF 3
ENDMDL
MODEL 5
REMARK VINA RESULT:    -5.782      4.974      6.959
REMARK INTER + INTRA:          -6.928
REMARK INTER:                  -6.565
REMARK INTRA:                  -0.363
REMARK UNBOUND:                -0.132
REMARK SMILES C=C[C@]1(C)CC[C@@H](C(=C)C)C[C@H]1C(=C)C
REMARK SMILES IDX 7 1 6 2 5 3 3 4 12 5 11 6 4 7 8 8 10 9 9 10 13 11 14 12
REMARK SMILES IDX 15 13 2 14 1 15
REMARK H PARENT
REMARK Flexibility Score: inf
ROOT
ATOM      1  C   UNL     1     106.521 109.643 124.612  1.00  0.00     0.015 C 
ATOM      2  C   UNL     1     106.947 111.089 124.921  1.00  0.00     0.009 C 
ATOM      3  C   UNL     1     105.985 111.743 125.923  1.00  0.00     0.012 C 
ATOM      4  C   UNL     1     105.861 110.953 127.260  1.00  0.00    -0.008 C 
ATOM      5  C   UNL     1     105.488 109.458 126.931  1.00  0.00     0.024 C 
ATOM      6  C   UNL     1     106.442 108.807 125.901  1.00  0.00     0.017 C 
ATOM      7  C   UNL     1     107.182 111.066 128.066  1.00  0.00     0.016 C 
ENDROOT
BRANCH   1   8
ATOM      8  C   UNL     1     107.441 108.997 123.580  1.00  0.00    -0.077 C 
ATOM      9  C   UNL     1     108.861 108.655 123.940  1.00  0.00     0.039 C 
ATOM     10  C   UNL     1     107.033 108.709 122.333  1.00  0.00     0.008 C 
ENDBRANCH   1   8
BRANCH   5  11
ATOM     11  C   UNL     1     105.303 108.565 128.164  1.00  0.00    -0.077 C 
ATOM     12  C   UNL     1     106.339 107.958 128.769  1.00  0.00     0.008 C 
ATOM     13  C   UNL     1     103.918 108.298 128.699  1.00  0.00     0.039 C 
ENDBRANCH   5  11
BRANCH   4  14
ATOM     14  C   UNL     1     104.732 111.580 128.079  1.00  0.00    -0.028 C 
ATOM     15  C   UNL     1     104.871 111.948 129.360  1.00  0.00     0.004 C 
ENDBRANCH   4  14
TORSDOF 3
ENDMDL
MODEL 6
REMARK VINA RESULT:    -5.765      1.970      4.812
REMARK INTER + INTRA:          -6.909
REMARK INTER:                  -6.539
REMARK INTRA:                  -0.370
REMARK UNBOUND:                -0.132
REMARK SMILES C=C[C@]1(C)CC[C@@H](C(=C)C)C[C@H]1C(=C)C
REMARK SMILES IDX 7 1 6 2 5 3 3 4 12 5 11 6 4 7 8 8 10 9 9 10 13 11 14 12
REMARK SMILES IDX 15 13 2 14 1 15
REMARK H PARENT
REMARK Flexibility Score: inf
ROOT
ATOM      1  C   UNL     1     102.841 106.636 124.636  1.00  0.00     0.015 C 
ATOM      2  C   UNL     1     101.386 107.021 124.953  1.00  0.00     0.009 C 
ATOM      3  C   UNL     1     100.756 106.026 125.939  1.00  0.00     0.012 C 
ATOM      4  C   UNL     1     101.549 105.900 127.273  1.00  0.00    -0.008 C 
ATOM      5  C   UNL     1     103.053 105.569 126.938  1.00  0.00     0.024 C 
ATOM      6  C   UNL     1     103.680 106.556 125.924  1.00  0.00     0.017 C 
ATOM      7  C   UNL     1     101.404 107.204 128.101  1.00  0.00     0.016 C 
ENDROOT
BRANCH   1   8
ATOM      8  C   UNL     1     103.465 107.588 123.620  1.00  0.00    -0.077 C 
ATOM      9  C   UNL     1     103.772 107.113 122.227  1.00  0.00     0.039 C 
ATOM     10  C   UNL     1     103.760 108.864 123.918  1.00  0.00     0.008 C 
ENDBRANCH   1   8
BRANCH   5  11
ATOM     11  C   UNL     1     103.951 105.385 128.168  1.00  0.00    -0.077 C 
ATOM     12  C   UNL     1     104.567 106.421 128.764  1.00  0.00     0.008 C 
ATOM     13  C   UNL     1     104.212 104.001 128.709  1.00  0.00     0.039 C 
ENDBRANCH   5  11
BRANCH   4  14
ATOM     14  C   UNL     1     100.951 104.742 128.074  1.00  0.00    -0.028 C 
ATOM     15  C   UNL     1     100.539 104.862 129.343  1.00  0.00     0.004 C 
ENDBRANCH   4  14
TORSDOF 3
ENDMDL
MODEL 7
REMARK VINA RESULT:    -5.755      3.355      5.978
REMARK INTER + INTRA:          -6.897
REMARK INTER:                  -6.517
REMARK INTRA:                  -0.380
REMARK UNBOUND:                -0.132
REMARK SMILES C=C[C@]1(C)CC[C@@H](C(=C)C)C[C@H]1C(=C)C
REMARK SMILES IDX 7 1 6 2 5 3 3 4 12 5 11 6 4 7 8 8 10 9 9 10 13 11 14 12
REMARK SMILES IDX 15 13 2 14 1 15
REMARK H PARENT
REMARK Flexibility Score: inf
ROOT
ATOM      1  C   UNL     1     105.878 102.770 124.646  1.00  0.00     0.015 C 
ATOM      2  C   UNL     1     105.455 101.348 125.054  1.00  0.00     0.009 C 
ATOM      3  C   UNL     1     106.451 100.744 126.054  1.00  0.00     0.012 C 
ATOM      4  C   UNL     1     106.632 101.608 127.338  1.00  0.00    -0.008 C 
ATOM      5  C   UNL     1     107.001 103.078 126.910  1.00  0.00     0.024 C 
ATOM      6  C   UNL     1     106.011 103.678 125.882  1.00  0.00     0.017 C 
ATOM      7  C   UNL     1     105.342 101.552 128.199  1.00  0.00     0.016 C 
ENDROOT
BRANCH   1   8
ATOM      8  C   UNL     1     104.922 103.365 123.616  1.00  0.00    -0.077 C 
ATOM      9  C   UNL     1     105.375 103.577 122.197  1.00  0.00     0.039 C 
ATOM     10  C   UNL     1     103.663 103.716 123.921  1.00  0.00     0.008 C 
ENDBRANCH   1   8
BRANCH   5  11
ATOM     11  C   UNL     1     107.240 104.039 128.082  1.00  0.00    -0.077 C 
ATOM     12  C   UNL     1     106.239 104.726 128.657  1.00  0.00     0.008 C 
ATOM     13  C   UNL     1     108.642 104.280 128.584  1.00  0.00     0.039 C 
ENDBRANCH   5  11
BRANCH   4  14
ATOM     14  C   UNL     1     107.788 101.019 128.147  1.00  0.00    -0.028 C 
ATOM     15  C   UNL     1     107.653 100.571 129.403  1.00  0.00     0.004 C 
ENDBRANCH   4  14
TORSDOF 3
ENDMDL
MODEL 8
REMARK VINA RESULT:    -5.753      5.486      7.812
REMARK INTER + INTRA:          -6.895
REMARK INTER:                  -6.525
REMARK INTRA:                  -0.370
REMARK UNBOUND:                -0.132
REMARK SMILES C=C[C@]1(C)CC[C@@H](C(=C)C)C[C@H]1C(=C)C
REMARK SMILES IDX 7 1 6 2 5 3 3 4 12 5 11 6 4 7 8 8 10 9 9 10 13 11 14 12
REMARK SMILES IDX 15 13 2 14 1 15
REMARK H PARENT
REMARK Flexibility Score: inf
ROOT
ATOM      1  C   UNL     1     109.820 106.081 124.678  1.00  0.00     0.015 C 
ATOM      2  C   UNL     1     111.237 105.660 125.103  1.00  0.00     0.009 C 
ATOM      3  C   UNL     1     111.794 106.607 126.176  1.00  0.00     0.012 C 
ATOM      4  C   UNL     1     110.889 106.699 127.442  1.00  0.00    -0.008 C 
ATOM      5  C   UNL     1     109.425 107.067 126.992  1.00  0.00     0.024 C 
ATOM      6  C   UNL     1     108.874 106.128 125.891  1.00  0.00     0.017 C 
ATOM      7  C   UNL     1     110.944 105.363 128.229  1.00  0.00     0.016 C 
ENDROOT
BRANCH   1   8
ATOM      8  C   UNL     1     109.273 105.177 123.577  1.00  0.00    -0.077 C 
ATOM      9  C   UNL     1     108.768 103.800 123.909  1.00  0.00     0.039 C 
ATOM     10  C   UNL     1     109.220 105.561 122.291  1.00  0.00     0.008 C 
ENDBRANCH   1   8
BRANCH   5  11
ATOM     11  C   UNL     1     108.427 107.221 128.146  1.00  0.00    -0.077 C 
ATOM     12  C   UNL     1     107.725 106.181 128.628  1.00  0.00     0.008 C 
ATOM     13  C   UNL     1     108.164 108.585 128.737  1.00  0.00     0.039 C 
ENDBRANCH   5  11
BRANCH   4  14
ATOM     14  C   UNL     1     111.432 107.816 128.333  1.00  0.00    -0.028 C 
ATOM     15  C   UNL     1     112.020 107.592 129.516  1.00  0.00     0.004 C 
ENDBRANCH   4  14
TORSDOF 3
ENDMDL
MODEL 9
REMARK VINA RESULT:    -5.667      4.336      5.800
REMARK INTER + INTRA:          -6.794
REMARK INTER:                  -6.513
REMARK INTRA:                  -0.281
REMARK UNBOUND:                -0.132
REMARK SMILES C=C[C@]1(C)CC[C@@H](C(=C)C)C[C@H]1C(=C)C
REMARK SMILES IDX 7 1 6 2 5 3 3 4 12 5 11 6 4 7 8 8 10 9 9 10 13 11 14 12
REMARK SMILES IDX 15 13 2 14 1 15
REMARK H PARENT
REMARK Flexibility Score: inf
ROOT
ATOM      1  C   UNL     1     107.998 108.109 128.271  1.00  0.00     0.015 C 
ATOM      2  C   UNL     1     107.088 106.943 127.848  1.00  0.00     0.009 C 
ATOM      3  C   UNL     1     105.684 107.093 128.452  1.00  0.00     0.012 C 
ATOM      4  C   UNL     1     104.995 108.438 128.073  1.00  0.00    -0.008 C 
ATOM      5  C   UNL     1     105.960 109.625 128.450  1.00  0.00     0.024 C 
ATOM      6  C   UNL     1     107.383 109.460 127.863  1.00  0.00     0.017 C 
ATOM      7  C   UNL     1     104.624 108.437 126.566  1.00  0.00     0.016 C 
ENDROOT
BRANCH   1   8
ATOM      8  C   UNL     1     109.410 107.948 127.718  1.00  0.00    -0.077 C 
ATOM      9  C   UNL     1     109.641 107.902 126.232  1.00  0.00     0.039 C 
ATOM     10  C   UNL     1     110.487 107.842 128.513  1.00  0.00     0.008 C 
ENDBRANCH   1   8
BRANCH   5  11
ATOM     11  C   UNL     1     105.393 111.020 128.158  1.00  0.00    -0.077 C 
ATOM     12  C   UNL     1     105.377 111.540 126.919  1.00  0.00     0.008 C 
ATOM     13  C   UNL     1     104.885 111.878 129.291  1.00  0.00     0.039 C 
ENDBRANCH   5  11
BRANCH   4  14
ATOM     14  C   UNL     1     103.710 108.561 128.894  1.00  0.00    -0.028 C 
ATOM     15  C   UNL     1     102.906 107.522 129.159  1.00  0.00     0.004 C 
ENDBRANCH   4  14
TORSDOF 3
ENDMDL
