MODEL 1
REMARK VINA RESULT:    -5.242      0.000      0.000
REMARK INTER + INTRA:          -7.642
REMARK INTER:                  -7.080
REMARK INTRA:                  -0.562
REMARK UNBOUND:                -0.562
REMARK SMILES COc1ccc(-c2cc(=O)c3c(OC)c(OC)c(OC)cc3o2)cc1OC
REMARK SMILES IDX 7 1 8 2 9 3 10 4 11 5 12 6 15 7 18 8 21 9 22 10 23 11 6 12
REMARK SMILES IDX 3 13 25 14 4 15 24 16 5 17 2 18 1 19 26 20 27 21 13 22 14 23
REMARK SMILES IDX 19 24 20 25 16 26 17 27
REMARK H PARENT
REMARK Flexibility Score: inf
ROOT
ATOM      1  C   UNL     1      14.720  49.761  33.123  1.00  0.00     0.138 A 
ATOM      2  C   UNL     1      15.680  49.200  32.267  1.00  0.00     0.100 A 
ATOM      3  C   UNL     1      15.715  47.817  32.087  1.00  0.00     0.197 A 
ATOM      4  O   UNL     1      16.607  47.324  31.345  1.00  0.00    -0.289 OA
ATOM      5  C   UNL     1      14.776  47.001  32.754  1.00  0.00     0.111 A 
ATOM      6  C   UNL     1      14.718  45.593  32.602  1.00  0.00     0.179 A 
ATOM      7  C   UNL     1      13.828  44.833  33.401  1.00  0.00     0.204 A 
ATOM      8  C   UNL     1      12.927  45.487  34.255  1.00  0.00     0.168 A 
ATOM      9  C   UNL     1      12.943  46.888  34.351  1.00  0.00     0.098 A 
ATOM     10  C   UNL     1      13.865  47.639  33.624  1.00  0.00     0.146 A 
ATOM     11  O   UNL     1      13.872  48.960  33.765  1.00  0.00    -0.456 OA
ENDROOT
BRANCH   1  12
ATOM     12  C   UNL     1      14.634  51.225  33.353  1.00  0.00     0.021 A 
ATOM     13  C   UNL     1      14.459  54.000  33.849  1.00  0.00     0.160 A 
ATOM     14  C   UNL     1      14.821  53.126  34.885  1.00  0.00     0.161 A 
ATOM     15  C   UNL     1      14.177  53.483  32.571  1.00  0.00     0.051 A 
ATOM     16  C   UNL     1      14.902  51.742  34.632  1.00  0.00     0.062 A 
ATOM     17  C   UNL     1      14.259  52.111  32.328  1.00  0.00     0.016 A 
BRANCH  13  18
ATOM     18  O   UNL     1      14.388  55.374  34.130  1.00  0.00    -0.493 OA
ATOM     19  C   UNL     1      15.440  56.302  33.890  1.00  0.00     0.278 C 
ENDBRANCH  13  18
BRANCH  14  20
ATOM     20  O   UNL     1      15.092  53.669  36.150  1.00  0.00    -0.493 OA
ATOM     21  C   UNL     1      14.149  53.751  37.213  1.00  0.00     0.278 C 
ENDBRANCH  14  20
ENDBRANCH   1  12
BRANCH   6  22
ATOM     22  O   UNL     1      15.510  44.960  31.641  1.00  0.00    -0.492 OA
ATOM     23  C   UNL     1      14.980  44.610  30.366  1.00  0.00     0.278 C 
ENDBRANCH   6  22
BRANCH   8  24
ATOM     24  O   UNL     1      12.031  44.704  35.003  1.00  0.00    -0.493 OA
ATOM     25  C   UNL     1      11.984  44.665  36.425  1.00  0.00     0.278 C 
ENDBRANCH   8  24
BRANCH   7  26
ATOM     26  O   UNL     1      13.787  43.426  33.394  1.00  0.00    -0.490 OA
ATOM     27  C   UNL     1      12.952  42.616  32.573  1.00  0.00     0.278 C 
ENDBRANCH   7  26
TORSDOF 6
ENDMDL
MODEL 2
REMARK VINA RESULT:    -5.150      1.409      8.145
REMARK INTER + INTRA:          -7.518
REMARK INTER:                  -6.886
REMARK INTRA:                  -0.632
REMARK UNBOUND:                -0.562
REMARK SMILES COc1ccc(-c2cc(=O)c3c(OC)c(OC)c(OC)cc3o2)cc1OC
REMARK SMILES IDX 7 1 8 2 9 3 10 4 11 5 12 6 15 7 18 8 21 9 22 10 23 11 6 12
REMARK SMILES IDX 3 13 25 14 4 15 24 16 5 17 2 18 1 19 26 20 27 21 13 22 14 23
REMARK SMILES IDX 19 24 20 25 16 26 17 27
REMARK H PARENT
REMARK Flexibility Score: inf
ROOT
ATOM      1  C   UNL     1      14.022  48.831  32.999  1.00  0.00     0.138 A 
ATOM      2  C   UNL     1      13.656  49.366  31.754  1.00  0.00     0.100 A 
ATOM      3  C   UNL     1      13.715  50.746  31.557  1.00  0.00     0.197 A 
ATOM      4  O   UNL     1      13.347  51.216  30.447  1.00  0.00    -0.289 OA
ATOM      5  C   UNL     1      14.157  51.584  32.603  1.00  0.00     0.111 A 
ATOM      6  C   UNL     1      14.279  52.990  32.477  1.00  0.00     0.179 A 
ATOM      7  C   UNL     1      14.610  53.774  33.612  1.00  0.00     0.204 A 
ATOM      8  C   UNL     1      14.927  53.144  34.826  1.00  0.00     0.168 A 
ATOM      9  C   UNL     1      14.869  51.745  34.925  1.00  0.00     0.098 A 
ATOM     10  C   UNL     1      14.473  50.971  33.836  1.00  0.00     0.146 A 
ATOM     11  O   UNL     1      14.399  49.652  33.976  1.00  0.00    -0.456 OA
ENDROOT
BRANCH   1  12
ATOM     12  C   UNL     1      13.980  47.371  33.268  1.00  0.00     0.021 A 
ATOM     13  C   UNL     1      13.908  44.606  33.838  1.00  0.00     0.160 A 
ATOM     14  C   UNL     1      13.508  45.532  34.813  1.00  0.00     0.161 A 
ATOM     15  C   UNL     1      14.351  45.066  32.585  1.00  0.00     0.051 A 
ATOM     16  C   UNL     1      13.551  46.910  34.524  1.00  0.00     0.062 A 
ATOM     17  C   UNL     1      14.391  46.433  32.305  1.00  0.00     0.016 A 
BRANCH  13  18
ATOM     18  O   UNL     1      13.853  43.239  34.154  1.00  0.00    -0.493 OA
ATOM     19  C   UNL     1      12.828  42.352  33.721  1.00  0.00     0.278 C 
ENDBRANCH  13  18
BRANCH  14  20
ATOM     20  O   UNL     1      13.075  45.044  36.056  1.00  0.00    -0.493 OA
ATOM     21  C   UNL     1      11.711  44.905  36.439  1.00  0.00     0.278 C 
ENDBRANCH  14  20
ENDBRANCH   1  12
BRANCH   6  22
ATOM     22  O   UNL     1      14.112  53.600  31.232  1.00  0.00    -0.492 OA
ATOM     23  C   UNL     1      15.233  53.946  30.425  1.00  0.00     0.278 C 
ENDBRANCH   6  22
BRANCH   8  24
ATOM     24  O   UNL     1      15.289  53.950  35.918  1.00  0.00    -0.493 OA
ATOM     25  C   UNL     1      14.561  54.032  37.139  1.00  0.00     0.278 C 
ENDBRANCH   8  24
BRANCH   7  26
ATOM     26  O   UNL     1      14.641  55.181  33.601  1.00  0.00    -0.490 OA
ATOM     27  C   UNL     1      15.787  55.992  33.361  1.00  0.00     0.278 C 
ENDBRANCH   7  26
TORSDOF 6
ENDMDL
MODEL 3
REMARK VINA RESULT:    -5.021      1.726      8.184
REMARK INTER + INTRA:          -7.344
REMARK INTER:                  -6.649
REMARK INTRA:                  -0.695
REMARK UNBOUND:                -0.562
REMARK SMILES COc1ccc(-c2cc(=O)c3c(OC)c(OC)c(OC)cc3o2)cc1OC
REMARK SMILES IDX 7 1 8 2 9 3 10 4 11 5 12 6 15 7 18 8 21 9 22 10 23 11 6 12
REMARK SMILES IDX 3 13 25 14 4 15 24 16 5 17 2 18 1 19 26 20 27 21 13 22 14 23
REMARK SMILES IDX 19 24 20 25 16 26 17 27
REMARK H PARENT
REMARK Flexibility Score: inf
ROOT
ATOM      1  C   UNL     1      14.900  50.224  32.357  1.00  0.00     0.138 A 
ATOM      2  C   UNL     1      14.611  51.116  31.312  1.00  0.00     0.100 A 
ATOM      3  C   UNL     1      14.261  52.433  31.611  1.00  0.00     0.197 A 
ATOM      4  O   UNL     1      13.967  53.213  30.666  1.00  0.00    -0.289 OA
ATOM      5  C   UNL     1      14.217  52.855  32.958  1.00  0.00     0.111 A 
ATOM      6  C   UNL     1      13.905  54.182  33.348  1.00  0.00     0.179 A 
ATOM      7  C   UNL     1      13.759  54.496  34.723  1.00  0.00     0.204 A 
ATOM      8  C   UNL     1      14.038  53.522  35.694  1.00  0.00     0.168 A 
ATOM      9  C   UNL     1      14.413  52.227  35.301  1.00  0.00     0.098 A 
ATOM     10  C   UNL     1      14.487  51.888  33.951  1.00  0.00     0.146 A 
ATOM     11  O   UNL     1      14.813  50.645  33.616  1.00  0.00    -0.456 OA
ENDROOT
BRANCH   1  12
ATOM     12  C   UNL     1      15.279  48.812  32.099  1.00  0.00     0.021 A 
ATOM     13  C   UNL     1      15.992  46.113  31.669  1.00  0.00     0.160 A 
ATOM     14  C   UNL     1      15.145  46.451  32.735  1.00  0.00     0.161 A 
ATOM     15  C   UNL     1      16.486  47.126  30.827  1.00  0.00     0.051 A 
ATOM     16  C   UNL     1      14.797  47.800  32.948  1.00  0.00     0.062 A 
ATOM     17  C   UNL     1      16.136  48.460  31.043  1.00  0.00     0.016 A 
BRANCH  13  18
ATOM     18  O   UNL     1      16.320  44.761  31.481  1.00  0.00    -0.493 OA
ATOM     19  C   UNL     1      17.126  44.267  30.416  1.00  0.00     0.278 C 
ENDBRANCH  13  18
BRANCH  14  20
ATOM     20  O   UNL     1      14.671  45.420  33.562  1.00  0.00    -0.493 OA
ATOM     21  C   UNL     1      14.057  45.619  34.830  1.00  0.00     0.278 C 
ENDBRANCH  14  20
ENDBRANCH   1  12
BRANCH   6  22
ATOM     22  O   UNL     1      13.778  55.185  32.385  1.00  0.00    -0.492 OA
ATOM     23  C   UNL     1      14.808  56.148  32.184  1.00  0.00     0.278 C 
ENDBRANCH   6  22
BRANCH   8  24
ATOM     24  O   UNL     1      13.922  53.880  37.048  1.00  0.00    -0.493 OA
ATOM     25  C   UNL     1      12.793  53.592  37.867  1.00  0.00     0.278 C 
ENDBRANCH   8  24
BRANCH   7  26
ATOM     26  O   UNL     1      13.341  55.756  35.192  1.00  0.00    -0.490 OA
ATOM     27  C   UNL     1      11.999  56.229  35.238  1.00  0.00     0.278 C 
ENDBRANCH   7  26
TORSDOF 6
ENDMDL
MODEL 4
REMARK VINA RESULT:    -4.996     12.019     14.450
REMARK INTER + INTRA:          -7.310
REMARK INTER:                  -6.736
REMARK INTRA:                  -0.574
REMARK UNBOUND:                -0.562
REMARK SMILES COc1ccc(-c2cc(=O)c3c(OC)c(OC)c(OC)cc3o2)cc1OC
REMARK SMILES IDX 7 1 8 2 9 3 10 4 11 5 12 6 15 7 18 8 21 9 22 10 23 11 6 12
REMARK SMILES IDX 3 13 25 14 4 15 24 16 5 17 2 18 1 19 26 20 27 21 13 22 14 23
REMARK SMILES IDX 19 24 20 25 16 26 17 27
REMARK H PARENT
REMARK Flexibility Score: inf
ROOT
ATOM      1  C   UNL     1      26.438  52.380  31.633  1.00  0.00     0.138 A 
ATOM      2  C   UNL     1      25.884  51.416  30.777  1.00  0.00     0.100 A 
ATOM      3  C   UNL     1      24.979  51.811  29.792  1.00  0.00     0.197 A 
ATOM      4  O   UNL     1      24.460  50.929  29.055  1.00  0.00    -0.289 OA
ATOM      5  C   UNL     1      24.646  53.176  29.657  1.00  0.00     0.111 A 
ATOM      6  C   UNL     1      23.763  53.668  28.662  1.00  0.00     0.179 A 
ATOM      7  C   UNL     1      23.382  55.034  28.671  1.00  0.00     0.204 A 
ATOM      8  C   UNL     1      23.968  55.915  29.593  1.00  0.00     0.168 A 
ATOM      9  C   UNL     1      24.894  55.433  30.532  1.00  0.00     0.098 A 
ATOM     10  C   UNL     1      25.219  54.079  30.579  1.00  0.00     0.146 A 
ATOM     11  O   UNL     1      26.074  53.653  31.503  1.00  0.00    -0.456 OA
ENDROOT
BRANCH   1  12
ATOM     12  C   UNL     1      27.406  52.019  32.700  1.00  0.00     0.021 A 
ATOM     13  C   UNL     1      29.257  51.278  34.701  1.00  0.00     0.160 A 
ATOM     14  C   UNL     1      29.347  50.713  33.420  1.00  0.00     0.161 A 
ATOM     15  C   UNL     1      28.236  52.205  34.979  1.00  0.00     0.051 A 
ATOM     16  C   UNL     1      28.418  51.083  32.427  1.00  0.00     0.062 A 
ATOM     17  C   UNL     1      27.319  52.568  33.991  1.00  0.00     0.016 A 
BRANCH  13  18
ATOM     18  O   UNL     1      30.197  50.891  35.669  1.00  0.00    -0.493 OA
ATOM     19  C   UNL     1      29.952  49.935  36.694  1.00  0.00     0.278 C 
ENDBRANCH  13  18
BRANCH  14  20
ATOM     20  O   UNL     1      30.373  49.787  33.172  1.00  0.00    -0.493 OA
ATOM     21  C   UNL     1      30.229  48.374  33.274  1.00  0.00     0.278 C 
ENDBRANCH  14  20
ENDBRANCH   1  12
BRANCH   6  22
ATOM     22  O   UNL     1      23.300  52.820  27.654  1.00  0.00    -0.492 OA
ATOM     23  C   UNL     1      23.917  52.797  26.370  1.00  0.00     0.278 C 
ENDBRANCH   6  22
BRANCH   8  24
ATOM     24  O   UNL     1      23.597  57.269  29.546  1.00  0.00    -0.493 OA
ATOM     25  C   UNL     1      24.107  58.278  30.411  1.00  0.00     0.278 C 
ENDBRANCH   8  24
BRANCH   7  26
ATOM     26  O   UNL     1      22.427  55.578  27.793  1.00  0.00    -0.490 OA
ATOM     27  C   UNL     1      22.697  56.183  26.532  1.00  0.00     0.278 C 
ENDBRANCH   7  26
TORSDOF 6
ENDMDL
MODEL 5
REMARK VINA RESULT:    -4.976      1.501      8.396
REMARK INTER + INTRA:          -7.283
REMARK INTER:                  -6.740
REMARK INTRA:                  -0.543
REMARK UNBOUND:                -0.562
REMARK SMILES COc1ccc(-c2cc(=O)c3c(OC)c(OC)c(OC)cc3o2)cc1OC
REMARK SMILES IDX 7 1 8 2 9 3 10 4 11 5 12 6 15 7 18 8 21 9 22 10 23 11 6 12
REMARK SMILES IDX 3 13 25 14 4 15 24 16 5 17 2 18 1 19 26 20 27 21 13 22 14 23
REMARK SMILES IDX 19 24 20 25 16 26 17 27
REMARK H PARENT
REMARK Flexibility Score: inf
ROOT
ATOM      1  C   UNL     1      14.258  49.673  32.921  1.00  0.00     0.138 A 
ATOM      2  C   UNL     1      14.256  50.363  31.699  1.00  0.00     0.100 A 
ATOM      3  C   UNL     1      14.252  51.758  31.698  1.00  0.00     0.197 A 
ATOM      4  O   UNL     1      14.211  52.364  30.594  1.00  0.00    -0.289 OA
ATOM      5  C   UNL     1      14.266  52.457  32.924  1.00  0.00     0.111 A 
ATOM      6  C   UNL     1      14.297  53.871  33.014  1.00  0.00     0.179 A 
ATOM      7  C   UNL     1      14.184  54.500  34.281  1.00  0.00     0.204 A 
ATOM      8  C   UNL     1      14.158  53.719  35.447  1.00  0.00     0.168 A 
ATOM      9  C   UNL     1      14.196  52.318  35.353  1.00  0.00     0.098 A 
ATOM     10  C   UNL     1      14.233  51.690  34.109  1.00  0.00     0.146 A 
ATOM     11  O   UNL     1      14.235  50.362  34.059  1.00  0.00    -0.456 OA
ENDROOT
BRANCH   1  12
ATOM     12  C   UNL     1      14.264  48.189  32.984  1.00  0.00     0.021 A 
ATOM     13  C   UNL     1      14.290  45.366  33.045  1.00  0.00     0.160 A 
ATOM     14  C   UNL     1      15.081  46.053  32.112  1.00  0.00     0.161 A 
ATOM     15  C   UNL     1      13.482  46.092  33.939  1.00  0.00     0.051 A 
ATOM     16  C   UNL     1      15.060  47.461  32.083  1.00  0.00     0.062 A 
ATOM     17  C   UNL     1      13.467  47.488  33.905  1.00  0.00     0.016 A 
BRANCH  13  18
ATOM     18  O   UNL     1      14.333  43.962  33.052  1.00  0.00    -0.493 OA
ATOM     19  C   UNL     1      13.396  43.130  33.728  1.00  0.00     0.278 C 
ENDBRANCH  13  18
BRANCH  14  20
ATOM     20  O   UNL     1      15.873  45.301  31.230  1.00  0.00    -0.493 OA
ATOM     21  C   UNL     1      17.285  45.432  31.100  1.00  0.00     0.278 C 
ENDBRANCH  14  20
ENDBRANCH   1  12
BRANCH   6  22
ATOM     22  O   UNL     1      14.477  54.643  31.865  1.00  0.00    -0.492 OA
ATOM     23  C   UNL     1      15.762  55.138  31.503  1.00  0.00     0.278 C 
ENDBRANCH   6  22
BRANCH   8  24
ATOM     24  O   UNL     1      14.086  54.377  36.685  1.00  0.00    -0.493 OA
ATOM     25  C   UNL     1      13.217  54.003  37.750  1.00  0.00     0.278 C 
ENDBRANCH   8  24
BRANCH   7  26
ATOM     26  O   UNL     1      14.093  55.894  34.449  1.00  0.00    -0.490 OA
ATOM     27  C   UNL     1      15.188  56.798  34.559  1.00  0.00     0.278 C 
ENDBRANCH   7  26
TORSDOF 6
ENDMDL
MODEL 6
REMARK VINA RESULT:    -4.810      1.449      3.410
REMARK INTER + INTRA:          -7.060
REMARK INTER:                  -6.562
REMARK INTRA:                  -0.497
REMARK UNBOUND:                -0.562
REMARK SMILES COc1ccc(-c2cc(=O)c3c(OC)c(OC)c(OC)cc3o2)cc1OC
REMARK SMILES IDX 7 1 8 2 9 3 10 4 11 5 12 6 15 7 18 8 21 9 22 10 23 11 6 12
REMARK SMILES IDX 3 13 25 14 4 15 24 16 5 17 2 18 1 19 26 20 27 21 13 22 14 23
REMARK SMILES IDX 19 24 20 25 16 26 17 27
REMARK H PARENT
REMARK Flexibility Score: inf
ROOT
ATOM      1  C   UNL     1      14.508  50.122  33.134  1.00  0.00     0.138 A 
ATOM      2  C   UNL     1      13.524  49.285  33.681  1.00  0.00     0.100 A 
ATOM      3  C   UNL     1      13.456  47.951  33.278  1.00  0.00     0.197 A 
ATOM      4  O   UNL     1      12.542  47.221  33.748  1.00  0.00    -0.289 OA
ATOM      5  C   UNL     1      14.387  47.457  32.339  1.00  0.00     0.111 A 
ATOM      6  C   UNL     1      14.411  46.109  31.901  1.00  0.00     0.179 A 
ATOM      7  C   UNL     1      15.297  45.720  30.864  1.00  0.00     0.204 A 
ATOM      8  C   UNL     1      16.225  46.643  30.357  1.00  0.00     0.168 A 
ATOM      9  C   UNL     1      16.240  47.960  30.844  1.00  0.00     0.098 A 
ATOM     10  C   UNL     1      15.324  48.371  31.811  1.00  0.00     0.146 A 
ATOM     11  O   UNL     1      15.348  49.634  32.224  1.00  0.00    -0.456 OA
ENDROOT
BRANCH   1  12
ATOM     12  C   UNL     1      14.630  51.550  33.525  1.00  0.00     0.021 A 
ATOM     13  C   UNL     1      14.843  54.250  34.326  1.00  0.00     0.160 A 
ATOM     14  C   UNL     1      14.980  53.226  35.275  1.00  0.00     0.161 A 
ATOM     15  C   UNL     1      14.591  53.921  32.982  1.00  0.00     0.051 A 
ATOM     16  C   UNL     1      14.868  51.881  34.870  1.00  0.00     0.062 A 
ATOM     17  C   UNL     1      14.481  52.586  32.587  1.00  0.00     0.016 A 
BRANCH  13  18
ATOM     18  O   UNL     1      14.961  55.580  34.758  1.00  0.00    -0.493 OA
ATOM     19  C   UNL     1      15.766  56.567  34.122  1.00  0.00     0.278 C 
ENDBRANCH  13  18
BRANCH  14  20
ATOM     20  O   UNL     1      15.226  53.584  36.610  1.00  0.00    -0.493 OA
ATOM     21  C   UNL     1      14.215  53.861  37.572  1.00  0.00     0.278 C 
ENDBRANCH  14  20
ENDBRANCH   1  12
BRANCH   6  22
ATOM     22  O   UNL     1      13.592  45.158  32.514  1.00  0.00    -0.492 OA
ATOM     23  C   UNL     1      14.094  44.305  33.539  1.00  0.00     0.278 C 
ENDBRANCH   6  22
BRANCH   8  24
ATOM     24  O   UNL     1      17.113  46.212  29.359  1.00  0.00    -0.493 OA
ATOM     25  C   UNL     1      16.928  46.427  27.963  1.00  0.00     0.278 C 
ENDBRANCH   8  24
BRANCH   7  26
ATOM     26  O   UNL     1      15.307  44.433  30.294  1.00  0.00    -0.490 OA
ATOM     27  C   UNL     1      16.142  43.349  30.687  1.00  0.00     0.278 C 
ENDBRANCH   7  26
TORSDOF 6
ENDMDL
MODEL 7
REMARK VINA RESULT:    -4.775     11.237     13.718
REMARK INTER + INTRA:          -7.011
REMARK INTER:                  -6.265
REMARK INTRA:                  -0.747
REMARK UNBOUND:                -0.562
REMARK SMILES COc1ccc(-c2cc(=O)c3c(OC)c(OC)c(OC)cc3o2)cc1OC
REMARK SMILES IDX 7 1 8 2 9 3 10 4 11 5 12 6 15 7 18 8 21 9 22 10 23 11 6 12
REMARK SMILES IDX 3 13 25 14 4 15 24 16 5 17 2 18 1 19 26 20 27 21 13 22 14 23
REMARK SMILES IDX 19 24 20 25 16 26 17 27
REMARK H PARENT
REMARK Flexibility Score: inf
ROOT
ATOM      1  C   UNL     1      25.513  56.321  32.029  1.00  0.00     0.138 A 
ATOM      2  C   UNL     1      25.632  54.969  32.385  1.00  0.00     0.100 A 
ATOM      3  C   UNL     1      25.154  53.986  31.518  1.00  0.00     0.197 A 
ATOM      4  O   UNL     1      25.233  52.778  31.868  1.00  0.00    -0.289 OA
ATOM      5  C   UNL     1      24.574  54.362  30.288  1.00  0.00     0.111 A 
ATOM      6  C   UNL     1      24.094  53.429  29.334  1.00  0.00     0.179 A 
ATOM      7  C   UNL     1      23.412  53.888  28.179  1.00  0.00     0.204 A 
ATOM      8  C   UNL     1      23.315  55.265  27.928  1.00  0.00     0.168 A 
ATOM      9  C   UNL     1      23.852  56.184  28.845  1.00  0.00     0.098 A 
ATOM     10  C   UNL     1      24.460  55.744  30.019  1.00  0.00     0.146 A 
ATOM     11  O   UNL     1      24.927  56.643  30.878  1.00  0.00    -0.456 OA
ENDROOT
BRANCH   1  12
ATOM     12  C   UNL     1      26.004  57.411  32.910  1.00  0.00     0.021 A 
ATOM     13  C   UNL     1      26.930  59.446  34.636  1.00  0.00     0.160 A 
ATOM     14  C   UNL     1      27.066  58.100  35.006  1.00  0.00     0.161 A 
ATOM     15  C   UNL     1      26.323  59.770  33.408  1.00  0.00     0.051 A 
ATOM     16  C   UNL     1      26.598  57.089  34.143  1.00  0.00     0.062 A 
ATOM     17  C   UNL     1      25.862  58.764  32.558  1.00  0.00     0.016 A 
BRANCH  13  18
ATOM     18  O   UNL     1      27.407  60.432  35.514  1.00  0.00    -0.493 OA
ATOM     19  C   UNL     1      28.640  61.125  35.356  1.00  0.00     0.278 C 
ENDBRANCH  13  18
BRANCH  14  20
ATOM     20  O   UNL     1      27.671  57.806  36.238  1.00  0.00    -0.493 OA
ATOM     21  C   UNL     1      28.912  57.126  36.387  1.00  0.00     0.278 C 
ENDBRANCH  14  20
ENDBRANCH   1  12
BRANCH   6  22
ATOM     22  O   UNL     1      24.327  52.063  29.512  1.00  0.00    -0.492 OA
ATOM     23  C   UNL     1      25.336  51.385  28.770  1.00  0.00     0.278 C 
ENDBRANCH   6  22
BRANCH   8  24
ATOM     24  O   UNL     1      22.666  55.683  26.754  1.00  0.00    -0.493 OA
ATOM     25  C   UNL     1      21.377  56.287  26.713  1.00  0.00     0.278 C 
ENDBRANCH   8  24
BRANCH   7  26
ATOM     26  O   UNL     1      22.807  53.029  27.242  1.00  0.00    -0.490 OA
ATOM     27  C   UNL     1      21.527  52.418  27.370  1.00  0.00     0.278 C 
ENDBRANCH   7  26
TORSDOF 6
ENDMDL
MODEL 8
REMARK VINA RESULT:    -4.744      1.951      9.164
REMARK INTER + INTRA:          -6.970
REMARK INTER:                  -6.280
REMARK INTRA:                  -0.690
REMARK UNBOUND:                -0.562
REMARK SMILES COc1ccc(-c2cc(=O)c3c(OC)c(OC)c(OC)cc3o2)cc1OC
REMARK SMILES IDX 7 1 8 2 9 3 10 4 11 5 12 6 15 7 18 8 21 9 22 10 23 11 6 12
REMARK SMILES IDX 3 13 25 14 4 15 24 16 5 17 2 18 1 19 26 20 27 21 13 22 14 23
REMARK SMILES IDX 19 24 20 25 16 26 17 27
REMARK H PARENT
REMARK Flexibility Score: inf
ROOT
ATOM      1  C   UNL     1      14.572  50.942  33.136  1.00  0.00     0.138 A 
ATOM      2  C   UNL     1      14.576  51.552  34.400  1.00  0.00     0.100 A 
ATOM      3  C   UNL     1      14.530  52.943  34.491  1.00  0.00     0.197 A 
ATOM      4  O   UNL     1      14.573  53.479  35.632  1.00  0.00    -0.289 OA
ATOM      5  C   UNL     1      14.463  53.719  33.314  1.00  0.00     0.111 A 
ATOM      6  C   UNL     1      14.378  55.134  33.316  1.00  0.00     0.179 A 
ATOM      7  C   UNL     1      14.440  55.846  32.091  1.00  0.00     0.204 A 
ATOM      8  C   UNL     1      14.469  55.143  30.877  1.00  0.00     0.168 A 
ATOM      9  C   UNL     1      14.484  53.738  30.880  1.00  0.00     0.098 A 
ATOM     10  C   UNL     1      14.498  53.031  32.081  1.00  0.00     0.146 A 
ATOM     11  O   UNL     1      14.545  51.704  32.045  1.00  0.00    -0.456 OA
ENDROOT
BRANCH   1  12
ATOM     12  C   UNL     1      14.619  49.467  32.977  1.00  0.00     0.021 A 
ATOM     13  C   UNL     1      14.742  46.667  32.624  1.00  0.00     0.160 A 
ATOM     14  C   UNL     1      15.749  47.484  32.089  1.00  0.00     0.161 A 
ATOM     15  C   UNL     1      13.673  47.253  33.326  1.00  0.00     0.051 A 
ATOM     16  C   UNL     1      15.679  48.881  32.264  1.00  0.00     0.062 A 
ATOM     17  C   UNL     1      13.611  48.637  33.497  1.00  0.00     0.016 A 
BRANCH  13  18
ATOM     18  O   UNL     1      14.838  45.279  32.435  1.00  0.00    -0.493 OA
ATOM     19  C   UNL     1      13.840  44.341  32.822  1.00  0.00     0.278 C 
ENDBRANCH  13  18
BRANCH  14  20
ATOM     20  O   UNL     1      16.800  46.873  31.389  1.00  0.00    -0.493 OA
ATOM     21  C   UNL     1      16.902  46.817  29.970  1.00  0.00     0.278 C 
ENDBRANCH  14  20
ENDBRANCH   1  12
BRANCH   6  22
ATOM     22  O   UNL     1      14.197  55.823  34.517  1.00  0.00    -0.492 OA
ATOM     23  C   UNL     1      12.927  56.363  34.871  1.00  0.00     0.278 C 
ENDBRANCH   6  22
BRANCH   8  24
ATOM     24  O   UNL     1      14.490  55.881  29.682  1.00  0.00    -0.493 OA
ATOM     25  C   UNL     1      15.648  56.091  28.881  1.00  0.00     0.278 C 
ENDBRANCH   8  24
BRANCH   7  26
ATOM     26  O   UNL     1      14.477  57.251  32.011  1.00  0.00    -0.490 OA
ATOM     27  C   UNL     1      15.625  58.071  32.205  1.00  0.00     0.278 C 
ENDBRANCH   7  26
TORSDOF 6
ENDMDL
MODEL 9
REMARK VINA RESULT:    -4.726      2.729      5.015
REMARK INTER + INTRA:          -6.946
REMARK INTER:                  -6.276
REMARK INTRA:                  -0.670
REMARK UNBOUND:                -0.562
REMARK SMILES COc1ccc(-c2cc(=O)c3c(OC)c(OC)c(OC)cc3o2)cc1OC
REMARK SMILES IDX 7 1 8 2 9 3 10 4 11 5 12 6 15 7 18 8 21 9 22 10 23 11 6 12
REMARK SMILES IDX 3 13 25 14 4 15 24 16 5 17 2 18 1 19 26 20 27 21 13 22 14 23
REMARK SMILES IDX 19 24 20 25 16 26 17 27
REMARK H PARENT
REMARK Flexibility Score: inf
ROOT
ATOM      1  C   UNL     1      14.639  50.252  32.905  1.00  0.00     0.138 A 
ATOM      2  C   UNL     1      14.474  48.897  33.234  1.00  0.00     0.100 A 
ATOM      3  C   UNL     1      14.921  47.916  32.349  1.00  0.00     0.197 A 
ATOM      4  O   UNL     1      14.731  46.705  32.639  1.00  0.00    -0.289 OA
ATOM      5  C   UNL     1      15.549  48.297  31.143  1.00  0.00     0.111 A 
ATOM      6  C   UNL     1      16.064  47.368  30.205  1.00  0.00     0.179 A 
ATOM      7  C   UNL     1      16.568  47.826  28.961  1.00  0.00     0.204 A 
ATOM      8  C   UNL     1      16.661  49.205  28.713  1.00  0.00     0.168 A 
ATOM      9  C   UNL     1      16.212  50.122  29.676  1.00  0.00     0.098 A 
ATOM     10  C   UNL     1      15.647  49.679  30.871  1.00  0.00     0.146 A 
ATOM     11  O   UNL     1      15.203  50.576  31.744  1.00  0.00    -0.456 OA
ENDROOT
BRANCH   1  12
ATOM     12  C   UNL     1      14.184  51.339  33.808  1.00  0.00     0.021 A 
ATOM     13  C   UNL     1      13.295  53.437  35.477  1.00  0.00     0.160 A 
ATOM     14  C   UNL     1      12.645  53.189  34.259  1.00  0.00     0.161 A 
ATOM     15  C   UNL     1      14.393  52.642  35.852  1.00  0.00     0.051 A 
ATOM     16  C   UNL     1      13.096  52.144  33.429  1.00  0.00     0.062 A 
ATOM     17  C   UNL     1      14.834  51.608  35.025  1.00  0.00     0.016 A 
BRANCH  13  18
ATOM     18  O   UNL     1      12.822  54.484  36.284  1.00  0.00    -0.493 OA
ATOM     19  C   UNL     1      12.039  54.306  37.459  1.00  0.00     0.278 C 
ENDBRANCH  13  18
BRANCH  14  20
ATOM     20  O   UNL     1      11.555  54.002  33.908  1.00  0.00    -0.493 OA
ATOM     21  C   UNL     1      11.617  55.080  32.981  1.00  0.00     0.278 C 
ENDBRANCH  14  20
ENDBRANCH   1  12
BRANCH   6  22
ATOM     22  O   UNL     1      16.109  46.007  30.518  1.00  0.00    -0.492 OA
ATOM     23  C   UNL     1      17.329  45.381  30.902  1.00  0.00     0.278 C 
ENDBRANCH   6  22
BRANCH   8  24
ATOM     24  O   UNL     1      17.202  49.623  27.486  1.00  0.00    -0.493 OA
ATOM     25  C   UNL     1      18.511  50.158  27.320  1.00  0.00     0.278 C 
ENDBRANCH   8  24
BRANCH   7  26
ATOM     26  O   UNL     1      16.991  46.966  27.931  1.00  0.00    -0.490 OA
ATOM     27  C   UNL     1      16.146  46.271  27.020  1.00  0.00     0.278 C 
ENDBRANCH   7  26
TORSDOF 6
ENDMDL
