MODEL 1
REMARK VINA RESULT:    -5.443      0.000      0.000
REMARK INTER + INTRA:          -5.602
REMARK INTER:                  -5.602
REMARK INTRA:                   0.000
REMARK UNBOUND:                 0.000
REMARK SMILES O=c1ccc2cc(O)ccc2o1
REMARK SMILES IDX 9 1 10 2 11 3 5 4 4 5 3 6 2 7 1 8 12 9 6 10 7 11 8 12
REMARK H PARENT 8 13
REMARK Flexibility Score: inf
ROOT
ATOM      1  C   UNL     1      21.895   1.017 -23.125  1.00  0.00     0.050 A 
ATOM      2  C   UNL     1      21.500  -0.257 -22.706  1.00  0.00     0.052 A 
ATOM      3  C   UNL     1      21.106  -0.469 -21.381  1.00  0.00     0.138 A 
ATOM      4  C   UNL     1      21.108   0.609 -20.467  1.00  0.00     0.021 A 
ATOM      5  C   UNL     1      20.708   0.367 -19.150  1.00  0.00     0.019 A 
ATOM      6  C   UNL     1      20.323  -0.921 -18.777  1.00  0.00     0.094 A 
ATOM      7  C   UNL     1      20.346  -1.940 -19.735  1.00  0.00     0.336 A 
ATOM      8  O   UNL     1      20.002  -3.108 -19.418  1.00  0.00    -0.246 OA
ATOM      9  O   UNL     1      20.731  -1.682 -20.983  1.00  0.00    -0.423 OA
ATOM     10  C   UNL     1      21.504   1.886 -20.893  1.00  0.00     0.058 A 
ATOM     11  C   UNL     1      21.899   2.089 -22.224  1.00  0.00     0.116 A 
ENDROOT
BRANCH  11  12
ATOM     12  O   UNL     1      22.295   3.350 -22.661  1.00  0.00    -0.508 OA
ATOM     13  H   UNL     1      21.733   3.886 -23.314  1.00  0.00     0.293 HD
ENDBRANCH  11  12
TORSDOF 1
ENDMDL
MODEL 2
REMARK VINA RESULT:    -5.120      1.164      4.749
REMARK INTER + INTRA:          -5.270
REMARK INTER:                  -5.270
REMARK INTRA:                   0.000
REMARK UNBOUND:                 0.000
REMARK SMILES O=c1ccc2cc(O)ccc2o1
REMARK SMILES IDX 9 1 10 2 11 3 5 4 4 5 3 6 2 7 1 8 12 9 6 10 7 11 8 12
REMARK H PARENT 8 13
REMARK Flexibility Score: inf
ROOT
ATOM      1  C   UNL     1      19.809  -0.482 -18.637  1.00  0.00     0.050 A 
ATOM      2  C   UNL     1      20.364   0.632 -19.275  1.00  0.00     0.052 A 
ATOM      3  C   UNL     1      20.877   0.515 -20.571  1.00  0.00     0.138 A 
ATOM      4  C   UNL     1      20.832  -0.733 -21.234  1.00  0.00     0.021 A 
ATOM      5  C   UNL     1      21.351  -0.819 -22.528  1.00  0.00     0.019 A 
ATOM      6  C   UNL     1      21.895   0.318 -23.125  1.00  0.00     0.094 A 
ATOM      7  C   UNL     1      21.906   1.521 -22.409  1.00  0.00     0.336 A 
ATOM      8  O   UNL     1      22.392   2.557 -22.930  1.00  0.00    -0.246 OA
ATOM      9  O   UNL     1      21.405   1.576 -21.177  1.00  0.00    -0.423 OA
ATOM     10  C   UNL     1      20.273  -1.847 -20.589  1.00  0.00     0.058 A 
ATOM     11  C   UNL     1      19.762  -1.720 -19.289  1.00  0.00     0.116 A 
ENDROOT
BRANCH  11  12
ATOM     12  O   UNL     1      19.205  -2.817 -18.637  1.00  0.00    -0.508 OA
ATOM     13  H   UNL     1      18.212  -2.866 -18.436  1.00  0.00     0.293 HD
ENDBRANCH  11  12
TORSDOF 1
ENDMDL
MODEL 3
REMARK VINA RESULT:    -4.943     18.013     19.252
REMARK INTER + INTRA:          -5.087
REMARK INTER:                  -5.087
REMARK INTRA:                   0.000
REMARK UNBOUND:                 0.000
REMARK SMILES O=c1ccc2cc(O)ccc2o1
REMARK SMILES IDX 9 1 10 2 11 3 5 4 4 5 3 6 2 7 1 8 12 9 6 10 7 11 8 12
REMARK H PARENT 8 13
REMARK Flexibility Score: inf
ROOT
ATOM      1  C   UNL     1       8.296  -5.856  -6.168  1.00  0.00     0.050 A 
ATOM      2  C   UNL     1       7.576  -6.650  -7.067  1.00  0.00     0.052 A 
ATOM      3  C   UNL     1       8.191  -7.127  -8.229  1.00  0.00     0.138 A 
ATOM      4  C   UNL     1       9.541  -6.805  -8.491  1.00  0.00     0.021 A 
ATOM      5  C   UNL     1      10.129  -7.297  -9.660  1.00  0.00     0.019 A 
ATOM      6  C   UNL     1       9.372  -8.085 -10.528  1.00  0.00     0.094 A 
ATOM      7  C   UNL     1       8.040  -8.364 -10.203  1.00  0.00     0.336 A 
ATOM      8  O   UNL     1       7.341  -9.072 -10.973  1.00  0.00    -0.246 OA
ATOM      9  O   UNL     1       7.505  -7.882  -9.083  1.00  0.00    -0.423 OA
ATOM     10  C   UNL     1      10.259  -6.009  -7.586  1.00  0.00     0.058 A 
ATOM     11  C   UNL     1       9.634  -5.534  -6.423  1.00  0.00     0.116 A 
ENDROOT
BRANCH  11  12
ATOM     12  O   UNL     1      10.334  -4.742  -5.516  1.00  0.00    -0.508 OA
ATOM     13  H   UNL     1       9.986  -4.578  -4.578  1.00  0.00     0.293 HD
ENDBRANCH  11  12
TORSDOF 1
ENDMDL
MODEL 4
REMARK VINA RESULT:    -4.901      2.132      3.162
REMARK INTER + INTRA:          -5.044
REMARK INTER:                  -5.044
REMARK INTRA:                   0.000
REMARK UNBOUND:                 0.000
REMARK SMILES O=c1ccc2cc(O)ccc2o1
REMARK SMILES IDX 9 1 10 2 11 3 5 4 4 5 3 6 2 7 1 8 12 9 6 10 7 11 8 12
REMARK H PARENT 8 13
REMARK Flexibility Score: inf
ROOT
ATOM      1  C   UNL     1      21.500   0.638 -21.247  1.00  0.00     0.050 A 
ATOM      2  C   UNL     1      21.101   0.949 -19.944  1.00  0.00     0.052 A 
ATOM      3  C   UNL     1      20.335   0.039 -19.208  1.00  0.00     0.138 A 
ATOM      4  C   UNL     1      19.967  -1.197 -19.787  1.00  0.00     0.021 A 
ATOM      5  C   UNL     1      19.203  -2.087 -19.027  1.00  0.00     0.019 A 
ATOM      6  C   UNL     1      18.827  -1.734 -17.731  1.00  0.00     0.094 A 
ATOM      7  C   UNL     1      19.229  -0.493 -17.223  1.00  0.00     0.336 A 
ATOM      8  O   UNL     1      18.900  -0.156 -16.056  1.00  0.00    -0.246 OA
ATOM      9  O   UNL     1      19.956   0.336 -17.968  1.00  0.00    -0.423 OA
ATOM     10  C   UNL     1      20.370  -1.504 -21.095  1.00  0.00     0.058 A 
ATOM     11  C   UNL     1      21.137  -0.585 -21.826  1.00  0.00     0.116 A 
ENDROOT
BRANCH  11  12
ATOM     12  O   UNL     1      21.545  -0.876 -23.125  1.00  0.00    -0.508 OA
ATOM     13  H   UNL     1      20.949  -1.390 -23.764  1.00  0.00     0.293 HD
ENDBRANCH  11  12
TORSDOF 1
ENDMDL
MODEL 5
REMARK VINA RESULT:    -4.863     18.579     20.142
REMARK INTER + INTRA:          -5.005
REMARK INTER:                  -5.005
REMARK INTRA:                   0.000
REMARK UNBOUND:                 0.000
REMARK SMILES O=c1ccc2cc(O)ccc2o1
REMARK SMILES IDX 9 1 10 2 11 3 5 4 4 5 3 6 2 7 1 8 12 9 6 10 7 11 8 12
REMARK H PARENT 8 13
REMARK Flexibility Score: inf
ROOT
ATOM      1  C   UNL     1       8.241   3.659  -9.545  1.00  0.00     0.050 A 
ATOM      2  C   UNL     1       7.550   4.759 -10.061  1.00  0.00     0.052 A 
ATOM      3  C   UNL     1       6.314   5.127  -9.519  1.00  0.00     0.138 A 
ATOM      4  C   UNL     1       5.767   4.384  -8.448  1.00  0.00     0.021 A 
ATOM      5  C   UNL     1       4.532   4.776  -7.927  1.00  0.00     0.019 A 
ATOM      6  C   UNL     1       3.877   5.880  -8.473  1.00  0.00     0.094 A 
ATOM      7  C   UNL     1       4.479   6.570  -9.532  1.00  0.00     0.336 A 
ATOM      8  O   UNL     1       3.904   7.568 -10.038  1.00  0.00    -0.246 OA
ATOM      9  O   UNL     1       5.656   6.175 -10.010  1.00  0.00    -0.423 OA
ATOM     10  C   UNL     1       6.466   3.281  -7.935  1.00  0.00     0.058 A 
ATOM     11  C   UNL     1       7.704   2.918  -8.485  1.00  0.00     0.116 A 
ENDROOT
BRANCH  11  12
ATOM     12  O   UNL     1       8.409   1.826  -7.986  1.00  0.00    -0.508 OA
ATOM     13  H   UNL     1       8.181   0.877  -8.262  1.00  0.00     0.293 HD
ENDBRANCH  11  12
TORSDOF 1
ENDMDL
MODEL 6
REMARK VINA RESULT:    -4.833      1.691      4.451
REMARK INTER + INTRA:          -4.974
REMARK INTER:                  -4.974
REMARK INTRA:                   0.000
REMARK UNBOUND:                 0.000
REMARK SMILES O=c1ccc2cc(O)ccc2o1
REMARK SMILES IDX 9 1 10 2 11 3 5 4 4 5 3 6 2 7 1 8 12 9 6 10 7 11 8 12
REMARK H PARENT 8 13
REMARK Flexibility Score: inf
ROOT
ATOM      1  C   UNL     1      19.010  -2.425 -18.509  1.00  0.00     0.050 A 
ATOM      2  C   UNL     1      19.628  -2.467 -19.763  1.00  0.00     0.052 A 
ATOM      3  C   UNL     1      20.265  -1.329 -20.269  1.00  0.00     0.138 A 
ATOM      4  C   UNL     1      20.284  -0.138 -19.509  1.00  0.00     0.021 A 
ATOM      5  C   UNL     1      20.929   0.982 -20.040  1.00  0.00     0.019 A 
ATOM      6  C   UNL     1      21.531   0.894 -21.295  1.00  0.00     0.094 A 
ATOM      7  C   UNL     1      21.474  -0.319 -21.992  1.00  0.00     0.336 A 
ATOM      8  O   UNL     1      22.011  -0.417 -23.125  1.00  0.00    -0.246 OA
ATOM      9  O   UNL     1      20.853  -1.370 -21.463  1.00  0.00    -0.423 OA
ATOM     10  C   UNL     1      19.663  -0.102 -18.251  1.00  0.00     0.058 A 
ATOM     11  C   UNL     1      19.025  -1.247 -17.752  1.00  0.00     0.116 A 
ENDROOT
BRANCH  11  12
ATOM     12  O   UNL     1      18.405  -1.227 -16.505  1.00  0.00    -0.508 OA
ATOM     13  H   UNL     1      17.396  -1.179 -16.416  1.00  0.00     0.293 HD
ENDBRANCH  11  12
TORSDOF 1
ENDMDL
MODEL 7
REMARK VINA RESULT:    -4.687     17.347     18.541
REMARK INTER + INTRA:          -4.824
REMARK INTER:                  -4.824
REMARK INTRA:                   0.000
REMARK UNBOUND:                 0.000
REMARK SMILES O=c1ccc2cc(O)ccc2o1
REMARK SMILES IDX 9 1 10 2 11 3 5 4 4 5 3 6 2 7 1 8 12 9 6 10 7 11 8 12
REMARK H PARENT 8 13
REMARK Flexibility Score: inf
ROOT
ATOM      1  C   UNL     1       9.066  -7.324  -7.354  1.00  0.00     0.050 A 
ATOM      2  C   UNL     1       8.378  -8.095  -8.297  1.00  0.00     0.052 A 
ATOM      3  C   UNL     1       8.320  -7.684  -9.632  1.00  0.00     0.138 A 
ATOM      4  C   UNL     1       8.959  -6.486 -10.026  1.00  0.00     0.021 A 
ATOM      5  C   UNL     1       8.884  -6.101 -11.367  1.00  0.00     0.019 A 
ATOM      6  C   UNL     1       8.186  -6.902 -12.272  1.00  0.00     0.094 A 
ATOM      7  C   UNL     1       7.578  -8.075 -11.811  1.00  0.00     0.336 A 
ATOM      8  O   UNL     1       6.945  -8.809 -12.611  1.00  0.00    -0.246 OA
ATOM      9  O   UNL     1       7.665  -8.418 -10.528  1.00  0.00    -0.423 OA
ATOM     10  C   UNL     1       9.648  -5.717  -9.077  1.00  0.00     0.058 A 
ATOM     11  C   UNL     1       9.701  -6.137  -7.739  1.00  0.00     0.116 A 
ENDROOT
BRANCH  11  12
ATOM     12  O   UNL     1      10.381  -5.383  -6.786  1.00  0.00    -0.508 OA
ATOM     13  H   UNL     1      10.676  -4.432  -6.975  1.00  0.00     0.293 HD
ENDBRANCH  11  12
TORSDOF 1
ENDMDL
MODEL 8
REMARK VINA RESULT:    -4.661     17.410     19.706
REMARK INTER + INTRA:          -4.797
REMARK INTER:                  -4.797
REMARK INTRA:                   0.000
REMARK UNBOUND:                 0.000
REMARK SMILES O=c1ccc2cc(O)ccc2o1
REMARK SMILES IDX 9 1 10 2 11 3 5 4 4 5 3 6 2 7 1 8 12 9 6 10 7 11 8 12
REMARK H PARENT 8 13
REMARK Flexibility Score: inf
ROOT
ATOM      1  C   UNL     1       7.625  -6.940  -5.481  1.00  0.00     0.050 A 
ATOM      2  C   UNL     1       7.936  -7.865  -6.483  1.00  0.00     0.052 A 
ATOM      3  C   UNL     1       8.951  -7.587  -7.404  1.00  0.00     0.138 A 
ATOM      4  C   UNL     1       9.661  -6.368  -7.319  1.00  0.00     0.021 A 
ATOM      5  C   UNL     1      10.670  -6.118  -8.253  1.00  0.00     0.019 A 
ATOM      6  C   UNL     1      10.945  -7.069  -9.235  1.00  0.00     0.094 A 
ATOM      7  C   UNL     1      10.202  -8.255  -9.258  1.00  0.00     0.336 A 
ATOM      8  O   UNL     1      10.436  -9.125 -10.136  1.00  0.00    -0.246 OA
ATOM      9  O   UNL     1       9.246  -8.468  -8.357  1.00  0.00    -0.423 OA
ATOM     10  C   UNL     1       9.345  -5.443  -6.312  1.00  0.00     0.058 A 
ATOM     11  C   UNL     1       8.325  -5.731  -5.393  1.00  0.00     0.116 A 
ENDROOT
BRANCH  11  12
ATOM     12  O   UNL     1       8.000  -4.823  -4.388  1.00  0.00    -0.508 OA
ATOM     13  H   UNL     1       7.853  -5.122  -3.430  1.00  0.00     0.293 HD
ENDBRANCH  11  12
TORSDOF 1
ENDMDL
