MODEL 1
REMARK VINA RESULT:    -2.379      0.000      0.000
REMARK INTER + INTRA:          -3.248
REMARK INTER:                  -3.074
REMARK INTRA:                  -0.174
REMARK UNBOUND:                -0.174
REMARK SMILES CCCCCCC=O
REMARK SMILES IDX 4 1 3 2 2 3 1 4 5 5 6 6 7 7 8 8
REMARK H PARENT
REMARK Flexibility Score: inf
ROOT
ATOM      1  C   UNL     1     145.750 141.118 140.105  1.00  0.00     0.000 C 
ENDROOT
BRANCH   1   2
ATOM      2  C   UNL     1     146.717 140.673 138.998  1.00  0.00    -0.000 C 
BRANCH   2   3
ATOM      3  C   UNL     1     148.154 141.097 139.322  1.00  0.00    -0.003 C 
ATOM      4  C   UNL     1     149.140 139.967 139.037  1.00  0.00     0.004 C 
ENDBRANCH   2   3
ENDBRANCH   1   2
BRANCH   1   5
ATOM      5  C   UNL     1     146.461 141.842 141.263  1.00  0.00     0.008 C 
BRANCH   5   6
ATOM      6  C   UNL     1     145.508 142.490 142.280  1.00  0.00     0.072 C 
BRANCH   6   7
ATOM      7  C   UNL     1     145.079 141.529 143.350  1.00  0.00     0.224 C 
ATOM      8  O   UNL     1     145.907 140.871 143.960  1.00  0.00    -0.303 OA
ENDBRANCH   6   7
ENDBRANCH   5   6
ENDBRANCH   1   5
TORSDOF 5
ENDMDL
MODEL 2
REMARK VINA RESULT:    -2.374      7.808      8.732
REMARK INTER + INTRA:          -3.241
REMARK INTER:                  -3.057
REMARK INTRA:                  -0.185
REMARK UNBOUND:                -0.174
REMARK SMILES CCCCCCC=O
REMARK SMILES IDX 4 1 3 2 2 3 1 4 5 5 6 6 7 7 8 8
REMARK H PARENT
REMARK Flexibility Score: inf
ROOT
ATOM      1  C   UNL     1     140.324 137.353 144.125  1.00  0.00     0.000 C 
ENDROOT
BRANCH   1   2
ATOM      2  C   UNL     1     141.060 136.035 143.838  1.00  0.00    -0.000 C 
BRANCH   2   3
ATOM      3  C   UNL     1     142.149 136.235 142.778  1.00  0.00    -0.003 C 
ATOM      4  C   UNL     1     141.852 135.423 141.521  1.00  0.00     0.004 C 
ENDBRANCH   2   3
ENDBRANCH   1   2
BRANCH   1   5
ATOM      5  C   UNL     1     138.827 137.289 143.773  1.00  0.00     0.008 C 
BRANCH   5   6
ATOM      6  C   UNL     1     138.456 138.012 142.468  1.00  0.00     0.072 C 
BRANCH   6   7
ATOM      7  C   UNL     1     137.378 139.035 142.672  1.00  0.00     0.224 C 
ATOM      8  O   UNL     1     136.232 138.807 142.319  1.00  0.00    -0.303 OA
ENDBRANCH   6   7
ENDBRANCH   5   6
ENDBRANCH   1   5
TORSDOF 5
ENDMDL
MODEL 3
REMARK VINA RESULT:    -2.370      7.923      8.594
REMARK INTER + INTRA:          -3.237
REMARK INTER:                  -3.076
REMARK INTRA:                  -0.161
REMARK UNBOUND:                -0.174
REMARK SMILES CCCCCCC=O
REMARK SMILES IDX 4 1 3 2 2 3 1 4 5 5 6 6 7 7 8 8
REMARK H PARENT
REMARK Flexibility Score: inf
ROOT
ATOM      1  C   UNL     1     141.216 135.689 139.964  1.00  0.00     0.000 C 
ENDROOT
BRANCH   1   2
ATOM      2  C   UNL     1     140.528 134.693 139.018  1.00  0.00    -0.000 C 
BRANCH   2   3
ATOM      3  C   UNL     1     141.098 133.282 139.198  1.00  0.00    -0.003 C 
ATOM      4  C   UNL     1     140.001 132.226 139.093  1.00  0.00     0.004 C 
ENDBRANCH   2   3
ENDBRANCH   1   2
BRANCH   1   5
ATOM      5  C   UNL     1     141.762 135.020 141.239  1.00  0.00     0.008 C 
BRANCH   5   6
ATOM      6  C   UNL     1     142.417 135.995 142.230  1.00  0.00     0.072 C 
BRANCH   6   7
ATOM      7  C   UNL     1     141.471 136.428 143.311  1.00  0.00     0.224 C 
ATOM      8  O   UNL     1     140.885 135.600 143.991  1.00  0.00    -0.303 OA
ENDBRANCH   6   7
ENDBRANCH   5   6
ENDBRANCH   1   5
TORSDOF 5
ENDMDL
MODEL 4
REMARK VINA RESULT:    -2.358     10.640     11.779
REMARK INTER + INTRA:          -3.221
REMARK INTER:                  -3.051
REMARK INTRA:                  -0.170
REMARK UNBOUND:                -0.174
REMARK SMILES CCCCCCC=O
REMARK SMILES IDX 4 1 3 2 2 3 1 4 5 5 6 6 7 7 8 8
REMARK H PARENT
REMARK Flexibility Score: inf
ROOT
ATOM      1  C   UNL     1     136.135 140.339 140.320  1.00  0.00     0.000 C 
ENDROOT
BRANCH   1   2
ATOM      2  C   UNL     1     135.219 140.963 139.256  1.00  0.00    -0.000 C 
BRANCH   2   3
ATOM      3  C   UNL     1     133.805 140.377 139.338  1.00  0.00    -0.003 C 
ATOM      4  C   UNL     1     132.752 141.429 139.003  1.00  0.00     0.004 C 
ENDBRANCH   2   3
ENDBRANCH   1   2
BRANCH   1   5
ATOM      5  C   UNL     1     135.356 139.780 141.524  1.00  0.00     0.008 C 
BRANCH   5   6
ATOM      6  C   UNL     1     136.239 139.104 142.585  1.00  0.00     0.072 C 
BRANCH   6   7
ATOM      7  C   UNL     1     136.475 139.986 143.775  1.00  0.00     0.224 C 
ATOM      8  O   UNL     1     135.630 140.796 144.123  1.00  0.00    -0.303 OA
ENDBRANCH   6   7
ENDBRANCH   5   6
ENDBRANCH   1   5
TORSDOF 5
ENDMDL
MODEL 5
REMARK VINA RESULT:    -2.327      8.130      8.706
REMARK INTER + INTRA:          -3.181
REMARK INTER:                  -3.023
REMARK INTRA:                  -0.158
REMARK UNBOUND:                -0.174
REMARK SMILES CCCCCCC=O
REMARK SMILES IDX 4 1 3 2 2 3 1 4 5 5 6 6 7 7 8 8
REMARK H PARENT
REMARK Flexibility Score: inf
ROOT
ATOM      1  C   UNL     1     140.434 145.868 139.952  1.00  0.00     0.000 C 
ENDROOT
BRANCH   1   2
ATOM      2  C   UNL     1     141.043 146.869 138.959  1.00  0.00    -0.000 C 
BRANCH   2   3
ATOM      3  C   UNL     1     140.577 148.297 139.263  1.00  0.00    -0.003 C 
ATOM      4  C   UNL     1     141.697 149.306 139.026  1.00  0.00     0.004 C 
ENDBRANCH   2   3
ENDBRANCH   1   2
BRANCH   1   5
ATOM      5  C   UNL     1     139.751 146.556 141.148  1.00  0.00     0.008 C 
BRANCH   5   6
ATOM      6  C   UNL     1     139.584 145.654 142.382  1.00  0.00     0.072 C 
BRANCH   6   7
ATOM      7  C   UNL     1     138.806 144.408 142.074  1.00  0.00     0.224 C 
ATOM      8  O   UNL     1     138.088 143.901 142.921  1.00  0.00    -0.303 OA
ENDBRANCH   6   7
ENDBRANCH   5   6
ENDBRANCH   1   5
TORSDOF 5
ENDMDL
MODEL 6
REMARK VINA RESULT:    -2.324      1.440      2.243
REMARK INTER + INTRA:          -3.177
REMARK INTER:                  -3.085
REMARK INTRA:                  -0.093
REMARK UNBOUND:                -0.174
REMARK SMILES CCCCCCC=O
REMARK SMILES IDX 4 1 3 2 2 3 1 4 5 5 6 6 7 7 8 8
REMARK H PARENT
REMARK Flexibility Score: inf
ROOT
ATOM      1  C   UNL     1     148.262 141.331 139.248  1.00  0.00     0.000 C 
ENDROOT
BRANCH   1   2
ATOM      2  C   UNL     1     148.700 139.942 138.758  1.00  0.00    -0.000 C 
BRANCH   2   3
ATOM      3  C   UNL     1     150.149 139.650 139.163  1.00  0.00    -0.003 C 
ATOM      4  C   UNL     1     151.103 140.696 138.592  1.00  0.00     0.004 C 
ENDBRANCH   2   3
ENDBRANCH   1   2
BRANCH   1   5
ATOM      5  C   UNL     1     146.796 141.362 139.718  1.00  0.00     0.008 C 
BRANCH   5   6
ATOM      6  C   UNL     1     146.608 141.861 141.160  1.00  0.00     0.072 C 
BRANCH   6   7
ATOM      7  C   UNL     1     145.164 142.090 141.498  1.00  0.00     0.224 C 
ATOM      8  O   UNL     1     144.840 142.999 142.247  1.00  0.00    -0.303 OA
ENDBRANCH   6   7
ENDBRANCH   5   6
ENDBRANCH   1   5
TORSDOF 5
ENDMDL
MODEL 7
REMARK VINA RESULT:    -2.314      7.689      8.374
REMARK INTER + INTRA:          -3.165
REMARK INTER:                  -2.984
REMARK INTRA:                  -0.181
REMARK UNBOUND:                -0.174
REMARK SMILES CCCCCCC=O
REMARK SMILES IDX 4 1 3 2 2 3 1 4 5 5 6 6 7 7 8 8
REMARK H PARENT
REMARK Flexibility Score: inf
ROOT
ATOM      1  C   UNL     1     140.557 145.809 140.007  1.00  0.00     0.000 C 
ENDROOT
BRANCH   1   2
ATOM      2  C   UNL     1     141.010 146.800 138.925  1.00  0.00    -0.000 C 
BRANCH   2   3
ATOM      3  C   UNL     1     140.589 148.231 139.282  1.00  0.00    -0.003 C 
ATOM      4  C   UNL     1     141.699 149.228 138.962  1.00  0.00     0.004 C 
ENDBRANCH   2   3
ENDBRANCH   1   2
BRANCH   1   5
ATOM      5  C   UNL     1     139.807 146.491 141.165  1.00  0.00     0.008 C 
BRANCH   5   6
ATOM      6  C   UNL     1     139.230 145.515 142.203  1.00  0.00     0.072 C 
BRANCH   6   7
ATOM      7  C   UNL     1     140.090 145.413 143.428  1.00  0.00     0.224 C 
ATOM      8  O   UNL     1     141.062 144.674 143.443  1.00  0.00    -0.303 OA
ENDBRANCH   6   7
ENDBRANCH   5   6
ENDBRANCH   1   5
TORSDOF 5
ENDMDL
MODEL 8
REMARK VINA RESULT:    -2.275     11.420     12.670
REMARK INTER + INTRA:          -3.114
REMARK INTER:                  -2.988
REMARK INTRA:                  -0.126
REMARK UNBOUND:                -0.174
REMARK SMILES CCCCCCC=O
REMARK SMILES IDX 4 1 3 2 2 3 1 4 5 5 6 6 7 7 8 8
REMARK H PARENT
REMARK Flexibility Score: inf
ROOT
ATOM      1  C   UNL     1     134.429 139.839 139.275  1.00  0.00     0.000 C 
ENDROOT
BRANCH   1   2
ATOM      2  C   UNL     1     132.993 140.181 138.851  1.00  0.00    -0.000 C 
BRANCH   2   3
ATOM      3  C   UNL     1     132.740 141.690 138.937  1.00  0.00    -0.003 C 
ATOM      4  C   UNL     1     131.296 141.987 139.329  1.00  0.00     0.004 C 
ENDBRANCH   2   3
ENDBRANCH   1   2
BRANCH   1   5
ATOM      5  C   UNL     1     134.608 139.806 140.803  1.00  0.00     0.008 C 
BRANCH   5   6
ATOM      6  C   UNL     1     136.059 140.000 141.271  1.00  0.00     0.072 C 
BRANCH   6   7
ATOM      7  C   UNL     1     136.446 139.025 142.344  1.00  0.00     0.224 C 
ATOM      8  O   UNL     1     137.434 138.320 142.213  1.00  0.00    -0.303 OA
ENDBRANCH   6   7
ENDBRANCH   5   6
ENDBRANCH   1   5
TORSDOF 5
ENDMDL
MODEL 9
REMARK VINA RESULT:    -2.245      4.424      5.997
REMARK INTER + INTRA:          -3.075
REMARK INTER:                  -2.837
REMARK INTRA:                  -0.238
REMARK UNBOUND:                -0.174
REMARK SMILES CCCCCCC=O
REMARK SMILES IDX 4 1 3 2 2 3 1 4 5 5 6 6 7 7 8 8
REMARK H PARENT
REMARK Flexibility Score: inf
ROOT
ATOM      1  C   UNL     1     143.259 138.051 142.156  1.00  0.00     0.000 C 
ENDROOT
BRANCH   1   2
ATOM      2  C   UNL     1     142.693 136.627 142.273  1.00  0.00    -0.000 C 
BRANCH   2   3
ATOM      3  C   UNL     1     141.218 136.656 142.689  1.00  0.00    -0.003 C 
ATOM      4  C   UNL     1     141.040 136.169 144.125  1.00  0.00     0.004 C 
ENDBRANCH   2   3
ENDBRANCH   1   2
BRANCH   1   5
ATOM      5  C   UNL     1     143.989 138.510 143.430  1.00  0.00     0.008 C 
BRANCH   5   6
ATOM      6  C   UNL     1     143.344 139.720 144.124  1.00  0.00     0.072 C 
BRANCH   6   7
ATOM      7  C   UNL     1     144.235 140.927 144.109  1.00  0.00     0.224 C 
ATOM      8  O   UNL     1     145.430 140.811 143.888  1.00  0.00    -0.303 OA
ENDBRANCH   6   7
ENDBRANCH   5   6
ENDBRANCH   1   5
TORSDOF 5
ENDMDL
