MODEL 1
REMARK VINA RESULT:    -3.309      0.000      0.000
REMARK INTER + INTRA:          -3.520
REMARK INTER:                  -3.502
REMARK INTRA:                  -0.017
REMARK UNBOUND:                -0.017
REMARK SMILES O=C([O-])c1cccnc1
REMARK SMILES IDX 4 1 5 2 9 3 6 4 8 5 7 6 2 7 1 8 3 9
REMARK H PARENT
REMARK Flexibility Score: inf
ROOT
ATOM      1  C   UNL     1      39.502 180.920 172.939  1.00  0.00     0.016 A 
ATOM      2  C   UNL     1      40.099 179.650 172.896  1.00  0.00     0.013 A 
ATOM      3  C   UNL     1      40.024 181.874 173.827  1.00  0.00     0.120 A 
ATOM      4  C   UNL     1      41.187 179.358 173.721  1.00  0.00     0.021 A 
ATOM      5  N   UNL     1      41.085 181.565 174.621  1.00  0.00    -0.264 NA
ATOM      6  C   UNL     1      41.670 180.340 174.587  1.00  0.00     0.111 A 
ENDROOT
BRANCH   1   7
ATOM      7  C   UNL     1      38.350 181.248 172.071  1.00  0.00     0.073 C 
ATOM      8  O   UNL     1      38.488 181.319 170.822  1.00  0.00    -0.545 OA
ATOM      9  O   UNL     1      37.096 181.483 172.625  1.00  0.00    -0.545 OA
ENDBRANCH   1   7
TORSDOF 1
ENDMDL
MODEL 2
REMARK VINA RESULT:    -3.270      2.986      4.028
REMARK INTER + INTRA:          -3.478
REMARK INTER:                  -3.460
REMARK INTRA:                  -0.018
REMARK UNBOUND:                -0.017
REMARK SMILES O=C([O-])c1cccnc1
REMARK SMILES IDX 4 1 5 2 9 3 6 4 8 5 7 6 2 7 1 8 3 9
REMARK H PARENT
REMARK Flexibility Score: inf
ROOT
ATOM      1  C   UNL     1      40.854 180.699 173.724  1.00  0.00     0.016 A 
ATOM      2  C   UNL     1      40.700 181.951 174.342  1.00  0.00     0.013 A 
ATOM      3  C   UNL     1      39.833 180.242 172.875  1.00  0.00     0.120 A 
ATOM      4  C   UNL     1      39.554 182.712 174.107  1.00  0.00     0.021 A 
ATOM      5  N   UNL     1      38.726 181.004 172.662  1.00  0.00    -0.264 NA
ATOM      6  C   UNL     1      38.567 182.216 173.254  1.00  0.00     0.111 A 
ENDROOT
BRANCH   1   7
ATOM      7  C   UNL     1      42.062 179.878 173.960  1.00  0.00     0.073 C 
ATOM      8  O   UNL     1      42.369 179.510 175.125  1.00  0.00    -0.545 OA
ATOM      9  O   UNL     1      42.875 179.500 172.897  1.00  0.00    -0.545 OA
ENDBRANCH   1   7
TORSDOF 1
ENDMDL
MODEL 3
REMARK VINA RESULT:    -3.222      0.940      1.696
REMARK INTER + INTRA:          -3.428
REMARK INTER:                  -3.411
REMARK INTRA:                  -0.016
REMARK UNBOUND:                -0.017
REMARK SMILES O=C([O-])c1cccnc1
REMARK SMILES IDX 4 1 5 2 9 3 6 4 8 5 7 6 2 7 1 8 3 9
REMARK H PARENT
REMARK Flexibility Score: inf
ROOT
ATOM      1  C   UNL     1      39.175 181.277 172.899  1.00  0.00     0.016 A 
ATOM      2  C   UNL     1      39.652 182.403 173.590  1.00  0.00     0.013 A 
ATOM      3  C   UNL     1      39.764 180.030 173.165  1.00  0.00     0.120 A 
ATOM      4  C   UNL     1      40.688 182.269 174.517  1.00  0.00     0.021 A 
ATOM      5  N   UNL     1      40.772 179.927 174.073  1.00  0.00    -0.264 NA
ATOM      6  C   UNL     1      41.241 181.009 174.746  1.00  0.00     0.111 A 
ENDROOT
BRANCH   1   7
ATOM      7  C   UNL     1      38.078 181.398 171.914  1.00  0.00     0.073 C 
ATOM      8  O   UNL     1      38.326 181.429 170.679  1.00  0.00    -0.545 OA
ATOM      9  O   UNL     1      36.756 181.479 172.339  1.00  0.00    -0.545 OA
ENDBRANCH   1   7
TORSDOF 1
ENDMDL
MODEL 4
REMARK VINA RESULT:    -3.202      2.135      2.689
REMARK INTER + INTRA:          -3.407
REMARK INTER:                  -3.386
REMARK INTRA:                  -0.021
REMARK UNBOUND:                -0.017
REMARK SMILES O=C([O-])c1cccnc1
REMARK SMILES IDX 4 1 5 2 9 3 6 4 8 5 7 6 2 7 1 8 3 9
REMARK H PARENT
REMARK Flexibility Score: inf
ROOT
ATOM      1  C   UNL     1      37.261 181.357 172.342  1.00  0.00     0.016 A 
ATOM      2  C   UNL     1      38.605 181.296 171.939  1.00  0.00     0.013 A 
ATOM      3  C   UNL     1      36.908 180.793 173.579  1.00  0.00     0.120 A 
ATOM      4  C   UNL     1      39.556 180.686 172.760  1.00  0.00     0.021 A 
ATOM      5  N   UNL     1      37.854 180.205 174.360  1.00  0.00    -0.264 NA
ATOM      6  C   UNL     1      39.157 180.140 173.980  1.00  0.00     0.111 A 
ENDROOT
BRANCH   1   7
ATOM      7  C   UNL     1      36.239 181.999 171.487  1.00  0.00     0.073 C 
ATOM      8  O   UNL     1      36.516 183.034 170.825  1.00  0.00    -0.545 OA
ATOM      9  O   UNL     1      34.957 181.467 171.403  1.00  0.00    -0.545 OA
ENDBRANCH   1   7
TORSDOF 1
ENDMDL
MODEL 5
REMARK VINA RESULT:    -3.186      2.236      2.799
REMARK INTER + INTRA:          -3.389
REMARK INTER:                  -3.373
REMARK INTRA:                  -0.016
REMARK UNBOUND:                -0.017
REMARK SMILES O=C([O-])c1cccnc1
REMARK SMILES IDX 4 1 5 2 9 3 6 4 8 5 7 6 2 7 1 8 3 9
REMARK H PARENT
REMARK Flexibility Score: inf
ROOT
ATOM      1  C   UNL     1      37.335 182.180 171.974  1.00  0.00     0.016 A 
ATOM      2  C   UNL     1      38.426 181.310 171.812  1.00  0.00     0.013 A 
ATOM      3  C   UNL     1      37.367 183.102 173.033  1.00  0.00     0.120 A 
ATOM      4  C   UNL     1      39.509 181.372 172.691  1.00  0.00     0.021 A 
ATOM      5  N   UNL     1      38.435 183.142 173.876  1.00  0.00    -0.264 NA
ATOM      6  C   UNL     1      39.494 182.305 173.728  1.00  0.00     0.111 A 
ENDROOT
BRANCH   1   7
ATOM      7  C   UNL     1      36.179 182.131 171.053  1.00  0.00     0.073 C 
ATOM      8  O   UNL     1      36.241 182.671 169.917  1.00  0.00    -0.545 OA
ATOM      9  O   UNL     1      35.006 181.486 171.429  1.00  0.00    -0.545 OA
ENDBRANCH   1   7
TORSDOF 1
ENDMDL
MODEL 6
REMARK VINA RESULT:    -3.140     22.222     22.691
REMARK INTER + INTRA:          -3.341
REMARK INTER:                  -3.318
REMARK INTRA:                  -0.023
REMARK UNBOUND:                -0.017
REMARK SMILES O=C([O-])c1cccnc1
REMARK SMILES IDX 4 1 5 2 9 3 6 4 8 5 7 6 2 7 1 8 3 9
REMARK H PARENT
REMARK Flexibility Score: inf
ROOT
ATOM      1  C   UNL     1      31.222 167.613 156.660  1.00  0.00     0.016 A 
ATOM      2  C   UNL     1      32.511 167.477 156.119  1.00  0.00     0.013 A 
ATOM      3  C   UNL     1      30.984 167.119 157.953  1.00  0.00     0.120 A 
ATOM      4  C   UNL     1      33.522 166.864 156.863  1.00  0.00     0.021 A 
ATOM      5  N   UNL     1      31.986 166.525 158.656  1.00  0.00    -0.264 NA
ATOM      6  C   UNL     1      33.237 166.389 158.143  1.00  0.00     0.111 A 
ENDROOT
BRANCH   1   7
ATOM      7  C   UNL     1      30.138 168.260 155.889  1.00  0.00     0.073 C 
ATOM      8  O   UNL     1      30.402 168.959 154.875  1.00  0.00    -0.545 OA
ATOM      9  O   UNL     1      28.811 168.105 156.274  1.00  0.00    -0.545 OA
ENDBRANCH   1   7
TORSDOF 1
ENDMDL
MODEL 7
REMARK VINA RESULT:    -3.132     22.153     22.989
REMARK INTER + INTRA:          -3.332
REMARK INTER:                  -3.308
REMARK INTRA:                  -0.024
REMARK UNBOUND:                -0.017
REMARK SMILES O=C([O-])c1cccnc1
REMARK SMILES IDX 4 1 5 2 9 3 6 4 8 5 7 6 2 7 1 8 3 9
REMARK H PARENT
REMARK Flexibility Score: inf
ROOT
ATOM      1  C   UNL     1      31.870 166.959 157.191  1.00  0.00     0.016 A 
ATOM      2  C   UNL     1      32.441 167.322 155.960  1.00  0.00     0.013 A 
ATOM      3  C   UNL     1      30.490 167.148 157.369  1.00  0.00     0.120 A 
ATOM      4  C   UNL     1      31.642 167.856 154.947  1.00  0.00     0.021 A 
ATOM      5  N   UNL     1      29.733 167.670 156.366  1.00  0.00    -0.264 NA
ATOM      6  C   UNL     1      30.275 168.024 155.172  1.00  0.00     0.111 A 
ENDROOT
BRANCH   1   7
ATOM      7  C   UNL     1      32.700 166.391 158.275  1.00  0.00     0.073 C 
ATOM      8  O   UNL     1      33.955 166.363 158.175  1.00  0.00    -0.545 OA
ATOM      9  O   UNL     1      32.104 165.879 159.423  1.00  0.00    -0.545 OA
ENDBRANCH   1   7
TORSDOF 1
ENDMDL
MODEL 8
REMARK VINA RESULT:    -3.074      2.721      3.950
REMARK INTER + INTRA:          -3.271
REMARK INTER:                  -3.255
REMARK INTRA:                  -0.016
REMARK UNBOUND:                -0.017
REMARK SMILES O=C([O-])c1cccnc1
REMARK SMILES IDX 4 1 5 2 9 3 6 4 8 5 7 6 2 7 1 8 3 9
REMARK H PARENT
REMARK Flexibility Score: inf
ROOT
ATOM      1  C   UNL     1      38.678 180.830 172.960  1.00  0.00     0.016 A 
ATOM      2  C   UNL     1      38.506 181.384 171.681  1.00  0.00     0.013 A 
ATOM      3  C   UNL     1      37.566 180.765 173.816  1.00  0.00     0.120 A 
ATOM      4  C   UNL     1      37.252 181.854 171.284  1.00  0.00     0.021 A 
ATOM      5  N   UNL     1      36.355 181.230 173.404  1.00  0.00    -0.264 NA
ATOM      6  C   UNL     1      36.177 181.768 172.169  1.00  0.00     0.111 A 
ENDROOT
BRANCH   1   7
ATOM      7  C   UNL     1      39.997 180.326 173.399  1.00  0.00     0.073 C 
ATOM      8  O   UNL     1      40.320 179.124 173.207  1.00  0.00    -0.545 OA
ATOM      9  O   UNL     1      40.900 181.174 174.032  1.00  0.00    -0.545 OA
ENDBRANCH   1   7
TORSDOF 1
ENDMDL
MODEL 9
REMARK VINA RESULT:    -3.023     21.567     22.333
REMARK INTER + INTRA:          -3.217
REMARK INTER:                  -3.197
REMARK INTRA:                  -0.020
REMARK UNBOUND:                -0.017
REMARK SMILES O=C([O-])c1cccnc1
REMARK SMILES IDX 4 1 5 2 9 3 6 4 8 5 7 6 2 7 1 8 3 9
REMARK H PARENT
REMARK Flexibility Score: inf
ROOT
ATOM      1  C   UNL     1      31.547 166.935 158.268  1.00  0.00     0.016 A 
ATOM      2  C   UNL     1      32.881 166.935 157.828  1.00  0.00     0.013 A 
ATOM      3  C   UNL     1      30.533 167.173 157.326  1.00  0.00     0.120 A 
ATOM      4  C   UNL     1      33.176 167.168 156.484  1.00  0.00     0.021 A 
ATOM      5  N   UNL     1      30.847 167.397 156.021  1.00  0.00    -0.264 NA
ATOM      6  C   UNL     1      32.134 167.401 155.585  1.00  0.00     0.111 A 
ENDROOT
BRANCH   1   7
ATOM      7  C   UNL     1      31.214 166.689 159.688  1.00  0.00     0.073 C 
ATOM      8  O   UNL     1      30.354 167.396 160.276  1.00  0.00    -0.545 OA
ATOM      9  O   UNL     1      31.848 165.671 160.393  1.00  0.00    -0.545 OA
ENDBRANCH   1   7
TORSDOF 1
ENDMDL
