MODEL 1
REMARK VINA RESULT:    -5.557      0.000      0.000
REMARK INTER + INTRA:          -8.394
REMARK INTER:                  -7.344
REMARK INTRA:                  -1.049
REMARK UNBOUND:                -1.049
REMARK SMILES CC[C@@H](C=C[C@H](C)[C@H]1CC[C@@H]2[C@@H]3CC=C4C[C@@H](O)CC[C@]4(C)[C@@H]3CC[C@@]21C)C(C)C
REMARK SMILES IDX 6 1 7 2 5 3 4 4 3 5 2 6 1 7 28 8 29 9 30 10 8 11 9 12 26 13
REMARK SMILES IDX 10 14 11 15 25 16 27 17 12 18 24 19 23 20 13 21 21 22 14 23
REMARK SMILES IDX 15 24 20 25 22 26 16 27 19 28 17 29 18 30
REMARK H PARENT 18 31
REMARK Flexibility Score: inf
ROOT
ATOM      1  C   UNL     1      17.349  -8.966   9.142  1.00  0.00     0.012 C 
ATOM      2  C   UNL     1      17.861  -9.770  10.351  1.00  0.00     0.012 C 
ENDROOT
BRANCH   1   3
ATOM      3  C   UNL     1      15.866  -9.219   8.972  1.00  0.00    -0.028 C 
ATOM      4  C   UNL     1      15.404  -9.910   7.915  1.00  0.00    -0.027 C 
BRANCH   4   5
ATOM      5  C   UNL     1      13.923 -10.091   7.661  1.00  0.00     0.014 C 
BRANCH   5   6
ATOM      6  C   UNL     1      13.132  -9.320   8.747  1.00  0.00     0.004 C 
ATOM      7  C   UNL     1      12.345  -8.130   8.195  1.00  0.00     0.004 C 
ENDBRANCH   5   6
BRANCH   5   8
ATOM      8  C   UNL     1      13.545 -11.603   7.562  1.00  0.00    -0.011 C 
ATOM      9  C   UNL     1      12.182 -11.795   6.873  1.00  0.00     0.008 C 
ATOM     10  C   UNL     1      14.610 -12.460   6.855  1.00  0.00     0.008 C 
ENDBRANCH   5   8
ENDBRANCH   4   5
ENDBRANCH   1   3
BRANCH   1  11
ATOM     11  C   UNL     1      17.636  -7.424   9.206  1.00  0.00     0.002 C 
ATOM     12  C   UNL     1      19.076  -7.009   9.493  1.00  0.00     0.005 C 
ATOM     13  C   UNL     1      17.194  -6.558   7.987  1.00  0.00    -0.026 C 
ATOM     14  C   UNL     1      19.069  -5.507   9.273  1.00  0.00     0.005 C 
ATOM     15  C   UNL     1      18.077  -5.270   8.120  1.00  0.00    -0.001 C 
ATOM     16  C   UNL     1      15.671  -6.260   8.067  1.00  0.00     0.007 C 
ATOM     17  C   UNL     1      17.500  -7.240   6.626  1.00  0.00     0.012 C 
ATOM     18  C   UNL     1      17.299  -3.923   8.175  1.00  0.00     0.000 C 
ATOM     19  C   UNL     1      15.209  -5.070   7.209  1.00  0.00     0.005 C 
ATOM     20  C   UNL     1      16.229  -3.895   7.056  1.00  0.00     0.003 C 
ATOM     21  C   UNL     1      16.699  -3.540   9.553  1.00  0.00     0.031 C 
ATOM     22  C   UNL     1      15.540  -2.481   6.980  1.00  0.00    -0.008 C 
ATOM     23  C   UNL     1      15.547  -2.558   9.492  1.00  0.00    -0.027 C 
ATOM     24  C   UNL     1      14.963  -2.123   8.351  1.00  0.00    -0.065 C 
ATOM     25  C   UNL     1      14.426  -2.480   5.875  1.00  0.00     0.014 C 
ATOM     26  C   UNL     1      16.582  -1.393   6.600  1.00  0.00     0.016 C 
ATOM     27  C   UNL     1      13.898  -1.051   8.450  1.00  0.00     0.063 C 
ATOM     28  C   UNL     1      13.453  -1.294   5.970  1.00  0.00     0.033 C 
ATOM     29  C   UNL     1      12.821  -1.229   7.369  1.00  0.00     0.118 C 
BRANCH  29  30
ATOM     30  O   UNL     1      11.875  -0.191   7.438  1.00  0.00    -0.393 OA
ATOM     31  H   UNL     1      12.219   0.564   6.890  1.00  0.00     0.210 HD
ENDBRANCH  29  30
ENDBRANCH   1  11
TORSDOF 6
ENDMDL
MODEL 2
REMARK VINA RESULT:    -4.978      2.395      4.161
REMARK INTER + INTRA:          -7.628
REMARK INTER:                  -7.228
REMARK INTRA:                  -0.401
REMARK UNBOUND:                -1.049
REMARK SMILES CC[C@@H](C=C[C@H](C)[C@H]1CC[C@@H]2[C@@H]3CC=C4C[C@@H](O)CC[C@]4(C)[C@@H]3CC[C@@]21C)C(C)C
REMARK SMILES IDX 6 1 7 2 5 3 4 4 3 5 2 6 1 7 28 8 29 9 30 10 8 11 9 12 26 13
REMARK SMILES IDX 10 14 11 15 25 16 27 17 12 18 24 19 23 20 13 21 21 22 14 23
REMARK SMILES IDX 15 24 20 25 22 26 16 27 19 28 17 29 18 30
REMARK H PARENT 18 31
REMARK Flexibility Score: inf
ROOT
ATOM      1  C   UNL     1      17.663 -10.172   7.403  1.00  0.00     0.012 C 
ATOM      2  C   UNL     1      18.006 -10.756   8.785  1.00  0.00     0.012 C 
ENDROOT
BRANCH   1   3
ATOM      3  C   UNL     1      17.418 -11.308   6.432  1.00  0.00    -0.028 C 
ATOM      4  C   UNL     1      17.485 -12.586   6.840  1.00  0.00    -0.027 C 
BRANCH   4   5
ATOM      5  C   UNL     1      17.349 -13.744   5.875  1.00  0.00     0.014 C 
BRANCH   5   6
ATOM      6  C   UNL     1      16.036 -14.504   6.188  1.00  0.00     0.004 C 
ATOM      7  C   UNL     1      15.257 -13.911   7.364  1.00  0.00     0.004 C 
ENDBRANCH   5   6
BRANCH   5   8
ATOM      8  C   UNL     1      18.620 -14.652   5.894  1.00  0.00    -0.011 C 
ATOM      9  C   UNL     1      19.850 -13.881   6.405  1.00  0.00     0.008 C 
ATOM     10  C   UNL     1      18.442 -15.946   6.709  1.00  0.00     0.008 C 
ENDBRANCH   5   8
ENDBRANCH   4   5
ENDBRANCH   1   3
BRANCH   1  11
ATOM     11  C   UNL     1      16.451  -9.173   7.391  1.00  0.00     0.002 C 
ATOM     12  C   UNL     1      15.090  -9.748   7.772  1.00  0.00     0.005 C 
ATOM     13  C   UNL     1      16.591  -7.861   8.222  1.00  0.00    -0.026 C 
ATOM     14  C   UNL     1      14.199  -8.523   7.880  1.00  0.00     0.005 C 
ATOM     15  C   UNL     1      15.106  -7.410   8.435  1.00  0.00    -0.001 C 
ATOM     16  C   UNL     1      17.434  -6.819   7.437  1.00  0.00     0.007 C 
ATOM     17  C   UNL     1      17.250  -8.098   9.607  1.00  0.00     0.012 C 
ATOM     18  C   UNL     1      14.765  -5.969   7.955  1.00  0.00     0.000 C 
ATOM     19  C   UNL     1      17.265  -5.368   7.920  1.00  0.00     0.005 C 
ATOM     20  C   UNL     1      15.847  -4.983   8.457  1.00  0.00     0.003 C 
ATOM     21  C   UNL     1      14.497  -5.804   6.436  1.00  0.00     0.031 C 
ATOM     22  C   UNL     1      15.443  -3.497   8.129  1.00  0.00    -0.008 C 
ATOM     23  C   UNL     1      14.687  -4.397   5.908  1.00  0.00    -0.027 C 
ATOM     24  C   UNL     1      15.178  -3.362   6.629  1.00  0.00    -0.065 C 
ATOM     25  C   UNL     1      16.571  -2.512   8.600  1.00  0.00     0.014 C 
ATOM     26  C   UNL     1      14.139  -3.115   8.882  1.00  0.00     0.016 C 
ATOM     27  C   UNL     1      15.199  -1.987   5.994  1.00  0.00     0.063 C 
ATOM     28  C   UNL     1      16.456  -1.101   8.004  1.00  0.00     0.033 C 
ATOM     29  C   UNL     1      16.408  -1.168   6.470  1.00  0.00     0.118 C 
BRANCH  29  30
ATOM     30  O   UNL     1      16.378   0.124   5.917  1.00  0.00    -0.393 OA
ATOM     31  H   UNL     1      16.882   0.095   5.061  1.00  0.00     0.210 HD
ENDBRANCH  29  30
ENDBRANCH   1  11
TORSDOF 6
ENDMDL
MODEL 3
REMARK VINA RESULT:    -4.041      2.692      5.467
REMARK INTER + INTRA:          -6.389
REMARK INTER:                  -6.524
REMARK INTRA:                   0.135
REMARK UNBOUND:                -1.049
REMARK SMILES CC[C@@H](C=C[C@H](C)[C@H]1CC[C@@H]2[C@@H]3CC=C4C[C@@H](O)CC[C@]4(C)[C@@H]3CC[C@@]21C)C(C)C
REMARK SMILES IDX 6 1 7 2 5 3 4 4 3 5 2 6 1 7 28 8 29 9 30 10 8 11 9 12 26 13
REMARK SMILES IDX 10 14 11 15 25 16 27 17 12 18 24 19 23 20 13 21 21 22 14 23
REMARK SMILES IDX 15 24 20 25 22 26 16 27 19 28 17 29 18 30
REMARK H PARENT 18 31
REMARK Flexibility Score: inf
ROOT
ATOM      1  C   UNL     1      13.242 -12.224   7.806  1.00  0.00     0.012 C 
ATOM      2  C   UNL     1      12.034 -11.282   7.654  1.00  0.00     0.012 C 
ENDROOT
BRANCH   1   3
ATOM      3  C   UNL     1      13.126 -13.345   6.795  1.00  0.00    -0.028 C 
ATOM      4  C   UNL     1      13.202 -14.630   7.183  1.00  0.00    -0.027 C 
BRANCH   4   5
ATOM      5  C   UNL     1      13.194 -15.770   6.187  1.00  0.00     0.014 C 
BRANCH   5   6
ATOM      6  C   UNL     1      12.017 -16.718   6.523  1.00  0.00     0.004 C 
ATOM      7  C   UNL     1      11.949 -17.101   8.003  1.00  0.00     0.004 C 
ENDBRANCH   5   6
BRANCH   5   8
ATOM      8  C   UNL     1      14.582 -16.484   6.132  1.00  0.00    -0.011 C 
ATOM      9  C   UNL     1      15.426 -16.165   7.378  1.00  0.00     0.008 C 
ATOM     10  C   UNL     1      14.484 -18.010   5.947  1.00  0.00     0.008 C 
ENDBRANCH   5   8
ENDBRANCH   4   5
ENDBRANCH   1   3
BRANCH   1  11
ATOM     11  C   UNL     1      14.642 -11.524   7.688  1.00  0.00     0.002 C 
ATOM     12  C   UNL     1      15.727 -12.292   6.938  1.00  0.00     0.005 C 
ATOM     13  C   UNL     1      14.679 -10.081   7.099  1.00  0.00    -0.026 C 
ATOM     14  C   UNL     1      16.856 -11.284   6.807  1.00  0.00     0.005 C 
ATOM     15  C   UNL     1      16.164  -9.922   6.627  1.00  0.00    -0.001 C 
ATOM     16  C   UNL     1      14.276  -9.049   8.188  1.00  0.00     0.007 C 
ATOM     17  C   UNL     1      13.740  -9.910   5.875  1.00  0.00     0.012 C 
ATOM     18  C   UNL     1      16.931  -8.701   7.214  1.00  0.00     0.000 C 
ATOM     19  C   UNL     1      14.704  -7.603   7.886  1.00  0.00     0.005 C 
ATOM     20  C   UNL     1      16.050  -7.433   7.107  1.00  0.00     0.003 C 
ATOM     21  C   UNL     1      17.505  -8.882   8.644  1.00  0.00     0.031 C 
ATOM     22  C   UNL     1      16.859  -6.154   7.540  1.00  0.00    -0.008 C 
ATOM     23  C   UNL     1      17.765  -7.591   9.391  1.00  0.00    -0.027 C 
ATOM     24  C   UNL     1      17.420  -6.360   8.948  1.00  0.00    -0.065 C 
ATOM     25  C   UNL     1      15.941  -4.883   7.472  1.00  0.00     0.014 C 
ATOM     26  C   UNL     1      18.056  -5.922   6.577  1.00  0.00     0.016 C 
ATOM     27  C   UNL     1      17.853  -5.154   9.757  1.00  0.00     0.063 C 
ATOM     28  C   UNL     1      16.506  -3.664   8.218  1.00  0.00     0.033 C 
ATOM     29  C   UNL     1      16.816  -4.024   9.679  1.00  0.00     0.118 C 
BRANCH  29  30
ATOM     30  O   UNL     1      17.264  -2.894  10.385  1.00  0.00    -0.393 OA
ATOM     31  H   UNL     1      16.538  -2.215  10.352  1.00  0.00     0.210 HD
ENDBRANCH  29  30
ENDBRANCH   1  11
TORSDOF 6
ENDMDL
MODEL 4
REMARK VINA RESULT:    -3.913      3.032      8.092
REMARK INTER + INTRA:          -6.220
REMARK INTER:                  -5.431
REMARK INTRA:                  -0.789
REMARK UNBOUND:                -1.049
REMARK SMILES CC[C@@H](C=C[C@H](C)[C@H]1CC[C@@H]2[C@@H]3CC=C4C[C@@H](O)CC[C@]4(C)[C@@H]3CC[C@@]21C)C(C)C
REMARK SMILES IDX 6 1 7 2 5 3 4 4 3 5 2 6 1 7 28 8 29 9 30 10 8 11 9 12 26 13
REMARK SMILES IDX 10 14 11 15 25 16 27 17 12 18 24 19 23 20 13 21 21 22 14 23
REMARK SMILES IDX 15 24 20 25 22 26 16 27 19 28 17 29 18 30
REMARK H PARENT 18 31
REMARK Flexibility Score: inf
ROOT
ATOM      1  C   UNL     1      15.907  -4.318   9.444  1.00  0.00     0.012 C 
ATOM      2  C   UNL     1      17.187  -3.580   9.875  1.00  0.00     0.012 C 
ENDROOT
BRANCH   1   3
ATOM      3  C   UNL     1      14.811  -3.303   9.194  1.00  0.00    -0.028 C 
ATOM      4  C   UNL     1      15.109  -2.056   8.791  1.00  0.00    -0.027 C 
BRANCH   4   5
ATOM      5  C   UNL     1      14.046  -0.989   8.633  1.00  0.00     0.014 C 
BRANCH   5   6
ATOM      6  C   UNL     1      12.894  -1.282   9.624  1.00  0.00     0.004 C 
ATOM      7  C   UNL     1      12.351  -0.027  10.312  1.00  0.00     0.004 C 
ENDBRANCH   5   6
BRANCH   5   8
ATOM      8  C   UNL     1      13.582  -0.867   7.147  1.00  0.00    -0.011 C 
ATOM      9  C   UNL     1      14.700  -1.282   6.175  1.00  0.00     0.008 C 
ATOM     10  C   UNL     1      12.300  -1.660   6.833  1.00  0.00     0.008 C 
ENDBRANCH   5   8
ENDBRANCH   4   5
ENDBRANCH   1   3
BRANCH   1  11
ATOM     11  C   UNL     1      16.076  -5.257   8.197  1.00  0.00     0.002 C 
ATOM     12  C   UNL     1      16.777  -4.658   6.982  1.00  0.00     0.005 C 
ATOM     13  C   UNL     1      16.757  -6.641   8.424  1.00  0.00    -0.026 C 
ATOM     14  C   UNL     1      16.978  -5.847   6.059  1.00  0.00     0.005 C 
ATOM     15  C   UNL     1      17.244  -7.043   6.991  1.00  0.00    -0.001 C 
ATOM     16  C   UNL     1      15.735  -7.648   9.022  1.00  0.00     0.007 C 
ATOM     17  C   UNL     1      17.986  -6.555   9.368  1.00  0.00     0.012 C 
ATOM     18  C   UNL     1      16.739  -8.420   6.470  1.00  0.00     0.000 C 
ATOM     19  C   UNL     1      16.133  -9.126   8.867  1.00  0.00     0.005 C 
ATOM     20  C   UNL     1      16.925  -9.492   7.570  1.00  0.00     0.003 C 
ATOM     21  C   UNL     1      15.303  -8.441   5.885  1.00  0.00     0.031 C 
ATOM     22  C   UNL     1      16.579 -10.925   7.017  1.00  0.00    -0.008 C 
ATOM     23  C   UNL     1      14.642  -9.804   5.875  1.00  0.00    -0.027 C 
ATOM     24  C   UNL     1      15.163 -10.918   6.439  1.00  0.00    -0.065 C 
ATOM     25  C   UNL     1      16.726 -11.996   8.154  1.00  0.00     0.014 C 
ATOM     26  C   UNL     1      17.559 -11.313   5.875  1.00  0.00     0.016 C 
ATOM     27  C   UNL     1      14.435 -12.233   6.245  1.00  0.00     0.063 C 
ATOM     28  C   UNL     1      16.063 -13.344   7.833  1.00  0.00     0.033 C 
ATOM     29  C   UNL     1      14.583 -13.142   7.473  1.00  0.00     0.118 C 
BRANCH  29  30
ATOM     30  O   UNL     1      13.953 -14.379   7.250  1.00  0.00    -0.393 OA
ATOM     31  H   UNL     1      13.047 -14.331   7.657  1.00  0.00     0.210 HD
ENDBRANCH  29  30
ENDBRANCH   1  11
TORSDOF 6
ENDMDL
MODEL 5
REMARK VINA RESULT:    -3.537     12.685     15.646
REMARK INTER + INTRA:          -5.724
REMARK INTER:                  -5.947
REMARK INTRA:                   0.223
REMARK UNBOUND:                -1.049
REMARK SMILES CC[C@@H](C=C[C@H](C)[C@H]1CC[C@@H]2[C@@H]3CC=C4C[C@@H](O)CC[C@]4(C)[C@@H]3CC[C@@]21C)C(C)C
REMARK SMILES IDX 6 1 7 2 5 3 4 4 3 5 2 6 1 7 28 8 29 9 30 10 8 11 9 12 26 13
REMARK SMILES IDX 10 14 11 15 25 16 27 17 12 18 24 19 23 20 13 21 21 22 14 23
REMARK SMILES IDX 15 24 20 25 22 26 16 27 19 28 17 29 18 30
REMARK H PARENT 18 31
REMARK Flexibility Score: inf
ROOT
ATOM      1  C   UNL     1      13.430 -15.713  17.338  1.00  0.00     0.012 C 
ATOM      2  C   UNL     1      13.090 -14.449  16.528  1.00  0.00     0.012 C 
ENDROOT
BRANCH   1   3
ATOM      3  C   UNL     1      12.540 -15.771  18.561  1.00  0.00    -0.028 C 
ATOM      4  C   UNL     1      13.049 -16.078  19.767  1.00  0.00    -0.027 C 
BRANCH   4   5
ATOM      5  C   UNL     1      12.171 -16.246  20.989  1.00  0.00     0.014 C 
BRANCH   5   6
ATOM      6  C   UNL     1      12.247 -14.954  21.839  1.00  0.00     0.004 C 
ATOM      7  C   UNL     1      13.646 -14.337  21.883  1.00  0.00     0.004 C 
ENDBRANCH   5   6
BRANCH   5   8
ATOM      8  C   UNL     1      12.540 -17.541  21.779  1.00  0.00    -0.011 C 
ATOM      9  C   UNL     1      11.895 -17.548  23.176  1.00  0.00     0.008 C 
ATOM     10  C   UNL     1      12.182 -18.841  21.035  1.00  0.00     0.008 C 
ENDBRANCH   5   8
ENDBRANCH   4   5
ENDBRANCH   1   3
BRANCH   1  11
ATOM     11  C   UNL     1      13.339 -17.057  16.532  1.00  0.00     0.002 C 
ATOM     12  C   UNL     1      12.359 -18.102  17.057  1.00  0.00     0.005 C 
ATOM     13  C   UNL     1      13.059 -16.963  15.002  1.00  0.00    -0.026 C 
ATOM     14  C   UNL     1      12.342 -19.160  15.967  1.00  0.00     0.005 C 
ATOM     15  C   UNL     1      12.505 -18.384  14.647  1.00  0.00    -0.001 C 
ATOM     16  C   UNL     1      14.367 -16.615  14.239  1.00  0.00     0.007 C 
ATOM     17  C   UNL     1      11.980 -15.901  14.656  1.00  0.00     0.012 C 
ATOM     18  C   UNL     1      13.263 -19.141  13.518  1.00  0.00     0.000 C 
ATOM     19  C   UNL     1      14.332 -16.937  12.735  1.00  0.00     0.005 C 
ATOM     20  C   UNL     1      13.494 -18.190  12.319  1.00  0.00     0.003 C 
ATOM     21  C   UNL     1      14.571 -19.859  13.941  1.00  0.00     0.031 C 
ATOM     22  C   UNL     1      14.110 -18.970  11.098  1.00  0.00    -0.008 C 
ATOM     23  C   UNL     1      15.543 -20.125  12.809  1.00  0.00    -0.027 C 
ATOM     24  C   UNL     1      15.393 -19.675  11.542  1.00  0.00    -0.065 C 
ATOM     25  C   UNL     1      14.383 -17.986   9.907  1.00  0.00     0.014 C 
ATOM     26  C   UNL     1      13.117 -20.055  10.596  1.00  0.00     0.016 C 
ATOM     27  C   UNL     1      16.392 -20.123  10.495  1.00  0.00     0.063 C 
ATOM     28  C   UNL     1      15.312 -18.557   8.825  1.00  0.00     0.033 C 
ATOM     29  C   UNL     1      16.636 -19.027   9.448  1.00  0.00     0.118 C 
BRANCH  29  30
ATOM     30  O   UNL     1      17.519 -19.482   8.453  1.00  0.00    -0.393 OA
ATOM     31  H   UNL     1      17.024 -20.138   7.892  1.00  0.00     0.210 HD
ENDBRANCH  29  30
ENDBRANCH   1  11
TORSDOF 6
ENDMDL
MODEL 6
REMARK VINA RESULT:    -3.231      3.089      5.517
REMARK INTER + INTRA:          -5.319
REMARK INTER:                  -5.557
REMARK INTRA:                   0.238
REMARK UNBOUND:                -1.049
REMARK SMILES CC[C@@H](C=C[C@H](C)[C@H]1CC[C@@H]2[C@@H]3CC=C4C[C@@H](O)CC[C@]4(C)[C@@H]3CC[C@@]21C)C(C)C
REMARK SMILES IDX 6 1 7 2 5 3 4 4 3 5 2 6 1 7 28 8 29 9 30 10 8 11 9 12 26 13
REMARK SMILES IDX 10 14 11 15 25 16 27 17 12 18 24 19 23 20 13 21 21 22 14 23
REMARK SMILES IDX 15 24 20 25 22 26 16 27 19 28 17 29 18 30
REMARK H PARENT 18 31
REMARK Flexibility Score: inf
ROOT
ATOM      1  C   UNL     1      15.105 -12.982   7.788  1.00  0.00     0.012 C 
ATOM      2  C   UNL     1      13.662 -12.874   7.264  1.00  0.00     0.012 C 
ENDROOT
BRANCH   1   3
ATOM      3  C   UNL     1      15.722 -14.267   7.277  1.00  0.00    -0.028 C 
ATOM      4  C   UNL     1      15.089 -15.442   7.434  1.00  0.00    -0.027 C 
BRANCH   4   5
ATOM      5  C   UNL     1      15.724 -16.755   7.028  1.00  0.00     0.014 C 
BRANCH   5   6
ATOM      6  C   UNL     1      14.963 -17.913   7.720  1.00  0.00     0.004 C 
ATOM      7  C   UNL     1      14.756 -19.130   6.816  1.00  0.00     0.004 C 
ENDBRANCH   5   6
BRANCH   5   8
ATOM      8  C   UNL     1      17.260 -16.754   7.311  1.00  0.00    -0.011 C 
ATOM      9  C   UNL     1      17.592 -17.525   8.601  1.00  0.00     0.008 C 
ATOM     10  C   UNL     1      18.103 -17.303   6.146  1.00  0.00     0.008 C 
ENDBRANCH   5   8
ENDBRANCH   4   5
ENDBRANCH   1   3
BRANCH   1  11
ATOM     11  C   UNL     1      16.026 -11.759   7.442  1.00  0.00     0.002 C 
ATOM     12  C   UNL     1      17.183 -12.026   6.484  1.00  0.00     0.005 C 
ATOM     13  C   UNL     1      15.337 -10.468   6.905  1.00  0.00    -0.026 C 
ATOM     14  C   UNL     1      17.729 -10.641   6.186  1.00  0.00     0.005 C 
ATOM     15  C   UNL     1      16.501  -9.713   6.179  1.00  0.00    -0.001 C 
ATOM     16  C   UNL     1      14.731  -9.655   8.084  1.00  0.00     0.007 C 
ATOM     17  C   UNL     1      14.214 -10.772   5.877  1.00  0.00     0.012 C 
ATOM     18  C   UNL     1      16.763  -8.256   6.659  1.00  0.00     0.000 C 
ATOM     19  C   UNL     1      14.439  -8.181   7.757  1.00  0.00     0.005 C 
ATOM     20  C   UNL     1      15.421  -7.491   6.755  1.00  0.00     0.003 C 
ATOM     21  C   UNL     1      17.602  -8.107   7.954  1.00  0.00     0.031 C 
ATOM     22  C   UNL     1      15.668  -5.970   7.077  1.00  0.00    -0.008 C 
ATOM     23  C   UNL     1      17.414  -6.794   8.685  1.00  0.00    -0.027 C 
ATOM     24  C   UNL     1      16.503  -5.850   8.353  1.00  0.00    -0.065 C 
ATOM     25  C   UNL     1      14.299  -5.216   7.219  1.00  0.00     0.014 C 
ATOM     26  C   UNL     1      16.459  -5.296   5.922  1.00  0.00     0.016 C 
ATOM     27  C   UNL     1      16.515  -4.538   9.110  1.00  0.00     0.063 C 
ATOM     28  C   UNL     1      14.410  -3.839   7.890  1.00  0.00     0.033 C 
ATOM     29  C   UNL     1      15.098  -3.963   9.259  1.00  0.00     0.118 C 
BRANCH  29  30
ATOM     30  O   UNL     1      15.136  -2.718   9.910  1.00  0.00    -0.393 OA
ATOM     31  H   UNL     1      14.441  -2.141   9.493  1.00  0.00     0.210 HD
ENDBRANCH  29  30
ENDBRANCH   1  11
TORSDOF 6
ENDMDL
MODEL 7
REMARK VINA RESULT:    -3.094      7.347     13.164
REMARK INTER + INTRA:          -5.138
REMARK INTER:                  -4.214
REMARK INTRA:                  -0.924
REMARK UNBOUND:                -1.049
REMARK SMILES CC[C@@H](C=C[C@H](C)[C@H]1CC[C@@H]2[C@@H]3CC=C4C[C@@H](O)CC[C@]4(C)[C@@H]3CC[C@@]21C)C(C)C
REMARK SMILES IDX 6 1 7 2 5 3 4 4 3 5 2 6 1 7 28 8 29 9 30 10 8 11 9 12 26 13
REMARK SMILES IDX 10 14 11 15 25 16 27 17 12 18 24 19 23 20 13 21 21 22 14 23
REMARK SMILES IDX 15 24 20 25 22 26 16 27 19 28 17 29 18 30
REMARK H PARENT 18 31
REMARK Flexibility Score: inf
ROOT
ATOM      1  C   UNL     1      16.829 -16.843   6.914  1.00  0.00     0.012 C 
ATOM      2  C   UNL     1      17.552 -17.718   5.875  1.00  0.00     0.012 C 
ENDROOT
BRANCH   1   3
ATOM      3  C   UNL     1      16.411 -15.542   6.261  1.00  0.00    -0.028 C 
ATOM      4  C   UNL     1      16.966 -14.377   6.636  1.00  0.00    -0.027 C 
BRANCH   4   5
ATOM      5  C   UNL     1      16.498 -13.050   6.077  1.00  0.00     0.014 C 
BRANCH   5   6
ATOM      6  C   UNL     1      17.728 -12.131   5.875  1.00  0.00     0.004 C 
ATOM      7  C   UNL     1      18.936 -12.537   6.722  1.00  0.00     0.004 C 
ENDBRANCH   5   6
BRANCH   5   8
ATOM      8  C   UNL     1      15.383 -12.420   6.971  1.00  0.00    -0.011 C 
ATOM      9  C   UNL     1      15.805 -11.040   7.504  1.00  0.00     0.008 C 
ATOM     10  C   UNL     1      14.017 -12.310   6.268  1.00  0.00     0.008 C 
ENDBRANCH   5   8
ENDBRANCH   4   5
ENDBRANCH   1   3
BRANCH   1  11
ATOM     11  C   UNL     1      15.597 -17.525   7.609  1.00  0.00     0.002 C 
ATOM     12  C   UNL     1      14.870 -18.599   6.806  1.00  0.00     0.005 C 
ATOM     13  C   UNL     1      15.820 -18.148   9.020  1.00  0.00    -0.026 C 
ATOM     14  C   UNL     1      13.900 -19.202   7.807  1.00  0.00     0.005 C 
ATOM     15  C   UNL     1      14.636 -19.164   9.158  1.00  0.00    -0.001 C 
ATOM     16  C   UNL     1      15.794 -17.036  10.106  1.00  0.00     0.007 C 
ATOM     17  C   UNL     1      17.162 -18.921   9.128  1.00  0.00     0.012 C 
ATOM     18  C   UNL     1      13.728 -18.975  10.408  1.00  0.00     0.000 C 
ATOM     19  C   UNL     1      15.545 -17.547  11.535  1.00  0.00     0.005 C 
ATOM     20  C   UNL     1      14.607 -18.792  11.667  1.00  0.00     0.003 C 
ATOM     21  C   UNL     1      12.643 -17.871  10.299  1.00  0.00     0.031 C 
ATOM     22  C   UNL     1      13.721 -18.765  12.968  1.00  0.00    -0.008 C 
ATOM     23  C   UNL     1      12.141 -17.343  11.627  1.00  0.00    -0.027 C 
ATOM     24  C   UNL     1      12.656 -17.674  12.834  1.00  0.00    -0.065 C 
ATOM     25  C   UNL     1      14.620 -18.531  14.233  1.00  0.00     0.014 C 
ATOM     26  C   UNL     1      12.992 -20.125  13.152  1.00  0.00     0.016 C 
ATOM     27  C   UNL     1      11.969 -17.152  14.079  1.00  0.00     0.063 C 
ATOM     28  C   UNL     1      13.837 -18.118  15.488  1.00  0.00     0.033 C 
ATOM     29  C   UNL     1      12.979 -16.875  15.202  1.00  0.00     0.118 C 
BRANCH  29  30
ATOM     30  O   UNL     1      12.318 -16.450  16.367  1.00  0.00    -0.393 OA
ATOM     31  H   UNL     1      11.356 -16.334  16.140  1.00  0.00     0.210 HD
ENDBRANCH  29  30
ENDBRANCH   1  11
TORSDOF 6
ENDMDL
MODEL 8
REMARK VINA RESULT:    -2.641      2.009      4.303
REMARK INTER + INTRA:          -4.540
REMARK INTER:                  -4.895
REMARK INTRA:                   0.355
REMARK UNBOUND:                -1.049
REMARK SMILES CC[C@@H](C=C[C@H](C)[C@H]1CC[C@@H]2[C@@H]3CC=C4C[C@@H](O)CC[C@]4(C)[C@@H]3CC[C@@]21C)C(C)C
REMARK SMILES IDX 6 1 7 2 5 3 4 4 3 5 2 6 1 7 28 8 29 9 30 10 8 11 9 12 26 13
REMARK SMILES IDX 10 14 11 15 25 16 27 17 12 18 24 19 23 20 13 21 21 22 14 23
REMARK SMILES IDX 15 24 20 25 22 26 16 27 19 28 17 29 18 30
REMARK H PARENT 18 31
REMARK Flexibility Score: inf
ROOT
ATOM      1  C   UNL     1      16.313 -11.130   6.577  1.00  0.00     0.012 C 
ATOM      2  C   UNL     1      17.406 -11.415   7.622  1.00  0.00     0.012 C 
ENDROOT
BRANCH   1   3
ATOM      3  C   UNL     1      15.540 -12.404   6.308  1.00  0.00    -0.028 C 
ATOM      4  C   UNL     1      15.219 -13.237   7.313  1.00  0.00    -0.027 C 
BRANCH   4   5
ATOM      5  C   UNL     1      14.539 -14.566   7.067  1.00  0.00     0.014 C 
BRANCH   5   6
ATOM      6  C   UNL     1      15.493 -15.470   6.247  1.00  0.00     0.004 C 
ATOM      7  C   UNL     1      15.731 -16.839   6.887  1.00  0.00     0.004 C 
ENDBRANCH   5   6
BRANCH   5   8
ATOM      8  C   UNL     1      13.136 -14.373   6.409  1.00  0.00    -0.011 C 
ATOM      9  C   UNL     1      12.495 -15.724   6.049  1.00  0.00     0.008 C 
ATOM     10  C   UNL     1      12.161 -13.547   7.268  1.00  0.00     0.008 C 
ENDBRANCH   5   8
ENDBRANCH   4   5
ENDBRANCH   1   3
BRANCH   1  11
ATOM     11  C   UNL     1      15.331  -9.964   6.950  1.00  0.00     0.002 C 
ATOM     12  C   UNL     1      14.056 -10.357   7.690  1.00  0.00     0.005 C 
ATOM     13  C   UNL     1      15.914  -8.758   7.749  1.00  0.00    -0.026 C 
ATOM     14  C   UNL     1      13.448  -9.024   8.092  1.00  0.00     0.005 C 
ATOM     15  C   UNL     1      14.646  -8.108   8.398  1.00  0.00    -0.001 C 
ATOM     16  C   UNL     1      16.665  -7.794   6.788  1.00  0.00     0.007 C 
ATOM     17  C   UNL     1      16.887  -9.201   8.875  1.00  0.00     0.012 C 
ATOM     18  C   UNL     1      14.428  -6.599   8.087  1.00  0.00     0.000 C 
ATOM     19  C   UNL     1      16.882  -6.378   7.349  1.00  0.00     0.005 C 
ATOM     20  C   UNL     1      15.756  -5.830   8.286  1.00  0.00     0.003 C 
ATOM     21  C   UNL     1      13.776  -6.274   6.717  1.00  0.00     0.031 C 
ATOM     22  C   UNL     1      15.530  -4.278   8.140  1.00  0.00    -0.008 C 
ATOM     23  C   UNL     1      14.042  -4.874   6.204  1.00  0.00    -0.027 C 
ATOM     24  C   UNL     1      14.880  -3.985   6.786  1.00  0.00    -0.065 C 
ATOM     25  C   UNL     1      16.891  -3.514   8.296  1.00  0.00     0.014 C 
ATOM     26  C   UNL     1      14.572  -3.767   9.251  1.00  0.00     0.016 C 
ATOM     27  C   UNL     1      14.951  -2.582   6.219  1.00  0.00     0.063 C 
ATOM     28  C   UNL     1      16.851  -2.058   7.807  1.00  0.00     0.033 C 
ATOM     29  C   UNL     1      16.364  -1.994   6.351  1.00  0.00     0.118 C 
BRANCH  29  30
ATOM     30  O   UNL     1      16.395  -0.672   5.875  1.00  0.00    -0.393 OA
ATOM     31  H   UNL     1      16.607  -0.081   6.647  1.00  0.00     0.210 HD
ENDBRANCH  29  30
ENDBRANCH   1  11
TORSDOF 6
ENDMDL
