MODEL 1
REMARK VINA RESULT:    -4.811      0.000      0.000
REMARK INTER + INTRA:          -5.787
REMARK INTER:                  -5.654
REMARK INTRA:                  -0.133
REMARK UNBOUND:                -0.133
REMARK SMILES O=C([O-])C=Cc1ccc(O)c(O)c1
REMARK SMILES IDX 6 1 13 2 7 3 11 4 8 5 9 6 5 7 4 8 2 9 1 10 3 11 12 12 10 14
REMARK H PARENT 12 13 10 15
REMARK Flexibility Score: inf
ROOT
ATOM      1  C   UNL     1      42.799  11.017   9.885  1.00  0.00    -0.022 A 
ATOM      2  C   UNL     1      42.369  10.634  11.166  1.00  0.00     0.058 A 
ATOM      3  C   UNL     1      43.692  12.099   9.762  1.00  0.00     0.012 A 
ATOM      4  C   UNL     1      42.801  11.330  12.305  1.00  0.00     0.157 A 
ATOM      5  C   UNL     1      44.123  12.793  10.897  1.00  0.00     0.051 A 
ATOM      6  C   UNL     1      43.679  12.416  12.168  1.00  0.00     0.157 A 
ENDROOT
BRANCH   1   7
ATOM      7  C   UNL     1      42.321  10.240   8.714  1.00  0.00     0.010 C 
ATOM      8  C   UNL     1      41.497   9.188   8.804  1.00  0.00     0.025 C 
BRANCH   8   9
ATOM      9  C   UNL     1      41.058   8.438   7.616  1.00  0.00     0.064 C 
ATOM     10  O   UNL     1      41.897   7.769   6.959  1.00  0.00    -0.545 OA
ATOM     11  O   UNL     1      39.728   8.456   7.208  1.00  0.00    -0.545 OA
ENDBRANCH   8   9
ENDBRANCH   1   7
BRANCH   4  12
ATOM     12  O   UNL     1      42.358  10.945  13.569  1.00  0.00    -0.504 OA
ATOM     13  H   UNL     1      42.592  11.478  14.399  1.00  0.00     0.293 HD
ENDBRANCH   4  12
BRANCH   6  14
ATOM     14  O   UNL     1      44.125  13.129  13.280  1.00  0.00    -0.504 OA
ATOM     15  H   UNL     1      45.105  13.339  13.427  1.00  0.00     0.293 HD
ENDBRANCH   6  14
TORSDOF 4
ENDMDL
MODEL 2
REMARK VINA RESULT:    -4.410      3.333      3.815
REMARK INTER + INTRA:          -5.316
REMARK INTER:                  -5.190
REMARK INTRA:                  -0.126
REMARK UNBOUND:                -0.133
REMARK SMILES O=C([O-])C=Cc1ccc(O)c(O)c1
REMARK SMILES IDX 6 1 13 2 7 3 11 4 8 5 9 6 5 7 4 8 2 9 1 10 3 11 12 12 10 14
REMARK H PARENT 12 13 10 15
REMARK Flexibility Score: inf
ROOT
ATOM      1  C   UNL     1      42.824  10.712  10.798  1.00  0.00    -0.022 A 
ATOM      2  C   UNL     1      42.031  11.782  11.246  1.00  0.00     0.058 A 
ATOM      3  C   UNL     1      43.884  10.978   9.909  1.00  0.00     0.012 A 
ATOM      4  C   UNL     1      42.272  13.089  10.799  1.00  0.00     0.157 A 
ATOM      5  C   UNL     1      44.125  12.280   9.464  1.00  0.00     0.051 A 
ATOM      6  C   UNL     1      43.322  13.338   9.902  1.00  0.00     0.157 A 
ENDROOT
BRANCH   1   7
ATOM      7  C   UNL     1      42.534   9.350  11.309  1.00  0.00     0.010 C 
ATOM      8  C   UNL     1      42.587   9.014  12.606  1.00  0.00     0.025 C 
BRANCH   8   9
ATOM      9  C   UNL     1      42.302   7.645  13.067  1.00  0.00     0.064 C 
ATOM     10  O   UNL     1      43.254   6.890  13.392  1.00  0.00    -0.545 OA
ATOM     11  O   UNL     1      40.996   7.175  13.153  1.00  0.00    -0.545 OA
ENDBRANCH   8   9
ENDBRANCH   1   7
BRANCH   4  12
ATOM     12  O   UNL     1      41.471  14.140  11.244  1.00  0.00    -0.504 OA
ATOM     13  H   UNL     1      40.559  14.320  10.842  1.00  0.00     0.293 HD
ENDBRANCH   4  12
BRANCH   6  14
ATOM     14  O   UNL     1      43.587  14.626   9.439  1.00  0.00    -0.504 OA
ATOM     15  H   UNL     1      42.925  15.140   8.868  1.00  0.00     0.293 HD
ENDBRANCH   6  14
TORSDOF 4
ENDMDL
MODEL 3
REMARK VINA RESULT:    -2.805      2.260      3.069
REMARK INTER + INTRA:          -3.430
REMARK INTER:                  -3.298
REMARK INTRA:                  -0.133
REMARK UNBOUND:                -0.133
REMARK SMILES O=C([O-])C=Cc1ccc(O)c(O)c1
REMARK SMILES IDX 6 1 13 2 7 3 11 4 8 5 9 6 5 7 4 8 2 9 1 10 3 11 12 12 10 14
REMARK H PARENT 12 13 10 15
REMARK Flexibility Score: inf
ROOT
ATOM      1  C   UNL     1      43.042   9.960  11.259  1.00  0.00    -0.022 A 
ATOM      2  C   UNL     1      42.306   8.941  11.887  1.00  0.00     0.058 A 
ATOM      3  C   UNL     1      43.673  10.934  12.058  1.00  0.00     0.012 A 
ATOM      4  C   UNL     1      42.180   8.904  13.283  1.00  0.00     0.157 A 
ATOM      5  C   UNL     1      43.549  10.896  13.449  1.00  0.00     0.051 A 
ATOM      6  C   UNL     1      42.802   9.888  14.067  1.00  0.00     0.157 A 
ENDROOT
BRANCH   1   7
ATOM      7  C   UNL     1      43.153   9.948   9.779  1.00  0.00     0.010 C 
ATOM      8  C   UNL     1      42.931  11.020   9.006  1.00  0.00     0.025 C 
BRANCH   8   9
ATOM      9  C   UNL     1      43.041  10.959   7.540  1.00  0.00     0.064 C 
ATOM     10  O   UNL     1      42.161  10.352   6.876  1.00  0.00    -0.545 OA
ATOM     11  O   UNL     1      44.102  11.565   6.875  1.00  0.00    -0.545 OA
ENDBRANCH   8   9
ENDBRANCH   1   7
BRANCH   4  12
ATOM     12  O   UNL     1      41.439   7.893  13.892  1.00  0.00    -0.504 OA
ATOM     13  H   UNL     1      41.737   7.464  14.760  1.00  0.00     0.293 HD
ENDBRANCH   4  12
BRANCH   6  14
ATOM     14  O   UNL     1      42.695   9.879  15.457  1.00  0.00    -0.504 OA
ATOM     15  H   UNL     1      42.258  10.637  15.968  1.00  0.00     0.293 HD
ENDBRANCH   6  14
TORSDOF 4
ENDMDL
MODEL 4
REMARK VINA RESULT:    -2.734      1.797      2.434
REMARK INTER + INTRA:          -3.347
REMARK INTER:                  -3.218
REMARK INTRA:                  -0.129
REMARK UNBOUND:                -0.133
REMARK SMILES O=C([O-])C=Cc1ccc(O)c(O)c1
REMARK SMILES IDX 6 1 13 2 7 3 11 4 8 5 9 6 5 7 4 8 2 9 1 10 3 11 12 12 10 14
REMARK H PARENT 12 13 10 15
REMARK Flexibility Score: inf
ROOT
ATOM      1  C   UNL     1      42.271   9.682  10.903  1.00  0.00    -0.022 A 
ATOM      2  C   UNL     1      42.250   8.518  11.690  1.00  0.00     0.058 A 
ATOM      3  C   UNL     1      42.626  10.904  11.508  1.00  0.00     0.012 A 
ATOM      4  C   UNL     1      42.554   8.571  13.058  1.00  0.00     0.157 A 
ATOM      5  C   UNL     1      42.929  10.958  12.871  1.00  0.00     0.051 A 
ATOM      6  C   UNL     1      42.892   9.798  13.651  1.00  0.00     0.157 A 
ENDROOT
BRANCH   1   7
ATOM      7  C   UNL     1      41.952   9.570   9.458  1.00  0.00     0.010 C 
ATOM      8  C   UNL     1      40.946   8.829   8.973  1.00  0.00     0.025 C 
BRANCH   8   9
ATOM      9  C   UNL     1      40.674   8.737   7.530  1.00  0.00     0.064 C 
ATOM     10  O   UNL     1      40.433   9.784   6.875  1.00  0.00    -0.545 OA
ATOM     11  O   UNL     1      40.681   7.509   6.876  1.00  0.00    -0.545 OA
ENDBRANCH   8   9
ENDBRANCH   1   7
BRANCH   4  12
ATOM     12  O   UNL     1      42.520   7.410  13.828  1.00  0.00    -0.504 OA
ATOM     13  H   UNL     1      43.190   6.662  13.691  1.00  0.00     0.293 HD
ENDBRANCH   4  12
BRANCH   6  14
ATOM     14  O   UNL     1      43.198   9.884  15.008  1.00  0.00    -0.504 OA
ATOM     15  H   UNL     1      42.773  10.577  15.613  1.00  0.00     0.293 HD
ENDBRANCH   6  14
TORSDOF 4
ENDMDL
