MODEL 1
REMARK VINA RESULT:    -3.123      0.000      0.000
REMARK INTER + INTRA:          -3.215
REMARK INTER:                  -3.215
REMARK INTRA:                   0.000
REMARK UNBOUND:                 0.000
REMARK SMILES CC1(C)[C@H]2CC[C@](C)(C2)[C@@H]1O
REMARK SMILES IDX 1 1 2 2 4 3 5 4 6 5 7 6 9 7 10 8 8 9 3 10 11 11
REMARK H PARENT 11 12
REMARK Flexibility Score: inf
ROOT
ATOM      1  C   UNL     1     242.146 240.327 235.187  1.00  0.00     0.014 C 
ATOM      2  C   UNL     1     241.562 239.016 235.778  1.00  0.00    -0.006 C 
ATOM      3  C   UNL     1     242.213 237.777 235.069  1.00  0.00    -0.002 C 
ATOM      4  C   UNL     1     241.876 236.465 235.808  1.00  0.00     0.005 C 
ATOM      5  C   UNL     1     240.370 236.301 235.545  1.00  0.00     0.010 C 
ATOM      6  C   UNL     1     240.054 237.492 234.610  1.00  0.00    -0.006 C 
ATOM      7  C   UNL     1     241.348 237.610 233.832  1.00  0.00     0.013 C 
ATOM      8  C   UNL     1     240.043 238.798 235.461  1.00  0.00     0.126 C 
ATOM      9  C   UNL     1     238.807 237.261 233.745  1.00  0.00     0.014 C 
ATOM     10  C   UNL     1     241.814 239.054 237.306  1.00  0.00     0.014 C 
ENDROOT
BRANCH   8  11
ATOM     11  O   UNL     1     239.444 239.893 234.800  1.00  0.00    -0.392 OA
ATOM     12  H   UNL     1     238.955 239.562 234.005  1.00  0.00     0.211 HD
ENDBRANCH   8  11
TORSDOF 1
ENDMDL
MODEL 2
REMARK VINA RESULT:    -3.123      9.595     11.156
REMARK INTER + INTRA:          -3.214
REMARK INTER:                  -3.214
REMARK INTRA:                   0.000
REMARK UNBOUND:                 0.000
REMARK SMILES CC1(C)[C@H]2CC[C@](C)(C2)[C@@H]1O
REMARK SMILES IDX 1 1 2 2 4 3 5 4 6 5 7 6 9 7 10 8 8 9 3 10 11 11
REMARK H PARENT 11 12
REMARK Flexibility Score: inf
ROOT
ATOM      1  C   UNL     1     240.368 226.388 235.160  1.00  0.00     0.014 C 
ATOM      2  C   UNL     1     239.046 226.946 235.752  1.00  0.00    -0.006 C 
ATOM      3  C   UNL     1     237.820 226.276 235.041  1.00  0.00    -0.002 C 
ATOM      4  C   UNL     1     236.501 226.586 235.781  1.00  0.00     0.005 C 
ATOM      5  C   UNL     1     236.310 228.090 235.523  1.00  0.00     0.010 C 
ATOM      6  C   UNL     1     237.496 228.431 234.590  1.00  0.00    -0.006 C 
ATOM      7  C   UNL     1     237.638 227.143 233.806  1.00  0.00     0.013 C 
ATOM      8  C   UNL     1     238.801 228.463 235.441  1.00  0.00     0.126 C 
ATOM      9  C   UNL     1     237.243 229.677 233.730  1.00  0.00     0.014 C 
ATOM     10  C   UNL     1     239.088 226.690 237.280  1.00  0.00     0.014 C 
ENDROOT
BRANCH   8  11
ATOM     11  O   UNL     1     239.885 229.084 234.783  1.00  0.00    -0.392 OA
ATOM     12  H   UNL     1     240.733 228.734 235.158  1.00  0.00     0.211 HD
ENDBRANCH   8  11
TORSDOF 1
ENDMDL
MODEL 3
REMARK VINA RESULT:    -3.119     13.588     15.735
REMARK INTER + INTRA:          -3.210
REMARK INTER:                  -3.210
REMARK INTRA:                   0.000
REMARK UNBOUND:                 0.000
REMARK SMILES CC1(C)[C@H]2CC[C@](C)(C2)[C@@H]1O
REMARK SMILES IDX 1 1 2 2 4 3 5 4 6 5 7 6 9 7 10 8 8 9 3 10 11 11
REMARK H PARENT 11 12
REMARK Flexibility Score: inf
ROOT
ATOM      1  C   UNL     1     226.413 228.202 235.208  1.00  0.00     0.014 C 
ATOM      2  C   UNL     1     226.987 229.531 235.765  1.00  0.00    -0.006 C 
ATOM      3  C   UNL     1     226.309 230.747 235.044  1.00  0.00    -0.002 C 
ATOM      4  C   UNL     1     226.638 232.078 235.754  1.00  0.00     0.005 C 
ATOM      5  C   UNL     1     228.137 232.258 235.464  1.00  0.00     0.010 C 
ATOM      6  C   UNL     1     228.456 231.054 234.546  1.00  0.00    -0.006 C 
ATOM      7  C   UNL     1     227.152 230.903 233.790  1.00  0.00     0.013 C 
ATOM      8  C   UNL     1     228.499 229.764 235.420  1.00  0.00     0.126 C 
ATOM      9  C   UNL     1     229.686 231.286 233.658  1.00  0.00     0.014 C 
ATOM     10  C   UNL     1     226.760 229.518 237.297  1.00  0.00     0.014 C 
ENDROOT
BRANCH   8  11
ATOM     11  O   UNL     1     229.103 228.666 234.771  1.00  0.00    -0.392 OA
ATOM     12  H   UNL     1     228.501 227.882 234.836  1.00  0.00     0.211 HD
ENDBRANCH   8  11
TORSDOF 1
ENDMDL
MODEL 4
REMARK VINA RESULT:    -3.086      9.503     11.107
REMARK INTER + INTRA:          -3.176
REMARK INTER:                  -3.176
REMARK INTRA:                   0.000
REMARK UNBOUND:                 0.000
REMARK SMILES CC1(C)[C@H]2CC[C@](C)(C2)[C@@H]1O
REMARK SMILES IDX 1 1 2 2 4 3 5 4 6 5 7 6 9 7 10 8 8 9 3 10 11 11
REMARK H PARENT 11 12
REMARK Flexibility Score: inf
ROOT
ATOM      1  C   UNL     1     228.189 242.007 235.188  1.00  0.00     0.014 C 
ATOM      2  C   UNL     1     229.515 241.428 235.750  1.00  0.00    -0.006 C 
ATOM      3  C   UNL     1     230.735 242.105 235.035  1.00  0.00    -0.002 C 
ATOM      4  C   UNL     1     232.062 241.770 235.750  1.00  0.00     0.005 C 
ATOM      5  C   UNL     1     232.239 240.271 235.459  1.00  0.00     0.010 C 
ATOM      6  C   UNL     1     231.038 239.957 234.535  1.00  0.00    -0.006 C 
ATOM      7  C   UNL     1     230.895 241.263 233.781  1.00  0.00     0.013 C 
ATOM      8  C   UNL     1     229.745 239.917 235.404  1.00  0.00     0.126 C 
ATOM      9  C   UNL     1     231.271 238.728 233.646  1.00  0.00     0.014 C 
ATOM     10  C   UNL     1     229.495 241.653 237.282  1.00  0.00     0.014 C 
ENDROOT
BRANCH   8  11
ATOM     11  O   UNL     1     228.647 239.317 234.749  1.00  0.00    -0.392 OA
ATOM     12  H   UNL     1     228.510 239.763 233.875  1.00  0.00     0.211 HD
ENDBRANCH   8  11
TORSDOF 1
ENDMDL
MODEL 5
REMARK VINA RESULT:    -2.981     13.192     15.103
REMARK INTER + INTRA:          -3.068
REMARK INTER:                  -3.068
REMARK INTRA:                   0.000
REMARK UNBOUND:                 0.000
REMARK SMILES CC1(C)[C@H]2CC[C@](C)(C2)[C@@H]1O
REMARK SMILES IDX 1 1 2 2 4 3 5 4 6 5 7 6 9 7 10 8 8 9 3 10 11 11
REMARK H PARENT 11 12
REMARK Flexibility Score: inf
ROOT
ATOM      1  C   UNL     1     229.443 232.505 234.008  1.00  0.00     0.014 C 
ATOM      2  C   UNL     1     228.352 232.153 235.054  1.00  0.00    -0.006 C 
ATOM      3  C   UNL     1     228.623 230.727 235.646  1.00  0.00    -0.002 C 
ATOM      4  C   UNL     1     227.737 230.452 236.880  1.00  0.00     0.005 C 
ATOM      5  C   UNL     1     226.329 230.346 236.272  1.00  0.00     0.010 C 
ATOM      6  C   UNL     1     226.598 230.481 234.755  1.00  0.00    -0.006 C 
ATOM      7  C   UNL     1     227.953 229.814 234.633  1.00  0.00     0.013 C 
ATOM      8  C   UNL     1     226.920 231.974 234.442  1.00  0.00     0.126 C 
ATOM      9  C   UNL     1     225.496 229.852 233.891  1.00  0.00     0.014 C 
ATOM     10  C   UNL     1     228.366 233.277 236.121  1.00  0.00     0.014 C 
ENDROOT
BRANCH   8  11
ATOM     11  O   UNL     1     226.853 232.286 233.067  1.00  0.00    -0.392 OA
ATOM     12  H   UNL     1     227.755 232.550 232.752  1.00  0.00     0.211 HD
ENDBRANCH   8  11
TORSDOF 1
ENDMDL
MODEL 6
REMARK VINA RESULT:    -2.936      9.305     10.662
REMARK INTER + INTRA:          -3.022
REMARK INTER:                  -3.022
REMARK INTRA:                   0.000
REMARK UNBOUND:                 0.000
REMARK SMILES CC1(C)[C@H]2CC[C@](C)(C2)[C@@H]1O
REMARK SMILES IDX 1 1 2 2 4 3 5 4 6 5 7 6 9 7 10 8 8 9 3 10 11 11
REMARK H PARENT 11 12
REMARK Flexibility Score: inf
ROOT
ATOM      1  C   UNL     1     231.886 238.077 235.836  1.00  0.00     0.014 C 
ATOM      2  C   UNL     1     231.449 239.112 234.766  1.00  0.00    -0.006 C 
ATOM      3  C   UNL     1     232.256 240.443 234.954  1.00  0.00    -0.002 C 
ATOM      4  C   UNL     1     232.062 241.394 233.752  1.00  0.00     0.005 C 
ATOM      5  C   UNL     1     230.591 241.822 233.890  1.00  0.00     0.010 C 
ATOM      6  C   UNL     1     230.156 241.135 235.206  1.00  0.00    -0.006 C 
ATOM      7  C   UNL     1     231.443 241.180 236.004  1.00  0.00     0.013 C 
ATOM      8  C   UNL     1     229.973 239.612 234.931  1.00  0.00     0.126 C 
ATOM      9  C   UNL     1     228.963 241.829 235.878  1.00  0.00     0.014 C 
ATOM     10  C   UNL     1     231.663 238.452 233.381  1.00  0.00     0.014 C 
ENDROOT
BRANCH   8  11
ATOM     11  O   UNL     1     229.263 238.939 235.950  1.00  0.00    -0.392 OA
ATOM     12  H   UNL     1     228.353 238.728 235.622  1.00  0.00     0.211 HD
ENDBRANCH   8  11
TORSDOF 1
ENDMDL
MODEL 7
REMARK VINA RESULT:    -2.930      1.105      3.282
REMARK INTER + INTRA:          -3.016
REMARK INTER:                  -3.016
REMARK INTRA:                   0.000
REMARK UNBOUND:                 0.000
REMARK SMILES CC1(C)[C@H]2CC[C@](C)(C2)[C@@H]1O
REMARK SMILES IDX 1 1 2 2 4 3 5 4 6 5 7 6 9 7 10 8 8 9 3 10 11 11
REMARK H PARENT 11 12
REMARK Flexibility Score: inf
ROOT
ATOM      1  C   UNL     1     238.110 236.657 235.840  1.00  0.00     0.014 C 
ATOM      2  C   UNL     1     239.135 237.066 234.750  1.00  0.00    -0.006 C 
ATOM      3  C   UNL     1     240.463 236.253 234.937  1.00  0.00    -0.002 C 
ATOM      4  C   UNL     1     241.400 236.417 233.721  1.00  0.00     0.005 C 
ATOM      5  C   UNL     1     241.841 237.886 233.825  1.00  0.00     0.010 C 
ATOM      6  C   UNL     1     241.173 238.352 235.141  1.00  0.00    -0.006 C 
ATOM      7  C   UNL     1     241.218 237.081 235.963  1.00  0.00     0.013 C 
ATOM      8  C   UNL     1     239.648 238.541 234.881  1.00  0.00     0.126 C 
ATOM      9  C   UNL     1     241.884 239.553 235.782  1.00  0.00     0.014 C 
ATOM     10  C   UNL     1     238.457 236.831 233.377  1.00  0.00     0.014 C 
ENDROOT
BRANCH   8  11
ATOM     11  O   UNL     1     238.993 239.276 235.893  1.00  0.00    -0.392 OA
ATOM     12  H   UNL     1     238.163 238.801 236.150  1.00  0.00     0.211 HD
ENDBRANCH   8  11
TORSDOF 1
ENDMDL
MODEL 8
REMARK VINA RESULT:    -2.906     13.702     14.841
REMARK INTER + INTRA:          -2.991
REMARK INTER:                  -2.991
REMARK INTRA:                   0.000
REMARK UNBOUND:                 0.000
REMARK SMILES CC1(C)[C@H]2CC[C@](C)(C2)[C@@H]1O
REMARK SMILES IDX 1 1 2 2 4 3 5 4 6 5 7 6 9 7 10 8 8 9 3 10 11 11
REMARK H PARENT 11 12
REMARK Flexibility Score: inf
ROOT
ATOM      1  C   UNL     1     226.172 232.498 236.704  1.00  0.00     0.014 C 
ATOM      2  C   UNL     1     227.559 232.322 236.029  1.00  0.00    -0.006 C 
ATOM      3  C   UNL     1     227.375 232.077 234.492  1.00  0.00    -0.002 C 
ATOM      4  C   UNL     1     228.720 232.176 233.741  1.00  0.00     0.005 C 
ATOM      5  C   UNL     1     229.478 230.932 234.232  1.00  0.00     0.010 C 
ATOM      6  C   UNL     1     228.434 230.228 235.131  1.00  0.00    -0.006 C 
ATOM      7  C   UNL     1     227.144 230.578 234.419  1.00  0.00     0.013 C 
ATOM      8  C   UNL     1     228.317 231.022 236.467  1.00  0.00     0.126 C 
ATOM      9  C   UNL     1     228.693 228.722 235.283  1.00  0.00     0.014 C 
ATOM     10  C   UNL     1     228.388 233.589 236.357  1.00  0.00     0.014 C 
ENDROOT
BRANCH   8  11
ATOM     11  O   UNL     1     227.660 230.306 237.491  1.00  0.00    -0.392 OA
ATOM     12  H   UNL     1     228.329 229.782 237.999  1.00  0.00     0.211 HD
ENDBRANCH   8  11
TORSDOF 1
ENDMDL
MODEL 9
REMARK VINA RESULT:    -2.901      8.458      9.953
REMARK INTER + INTRA:          -2.986
REMARK INTER:                  -2.986
REMARK INTRA:                   0.000
REMARK UNBOUND:                 0.000
REMARK SMILES CC1(C)[C@H]2CC[C@](C)(C2)[C@@H]1O
REMARK SMILES IDX 1 1 2 2 4 3 5 4 6 5 7 6 9 7 10 8 8 9 3 10 11 11
REMARK H PARENT 11 12
REMARK Flexibility Score: inf
ROOT
ATOM      1  C   UNL     1     232.499 242.215 236.780  1.00  0.00     0.014 C 
ATOM      2  C   UNL     1     232.346 240.849 236.060  1.00  0.00    -0.006 C 
ATOM      3  C   UNL     1     232.111 241.079 234.527  1.00  0.00    -0.002 C 
ATOM      4  C   UNL     1     232.233 239.760 233.734  1.00  0.00     0.005 C 
ATOM      5  C   UNL     1     230.995 238.971 234.191  1.00  0.00     0.010 C 
ATOM      6  C   UNL     1     230.270 239.976 235.117  1.00  0.00    -0.006 C 
ATOM      7  C   UNL     1     230.609 241.293 234.450  1.00  0.00     0.013 C 
ATOM      8  C   UNL     1     231.053 240.060 236.463  1.00  0.00     0.126 C 
ATOM      9  C   UNL     1     228.767 239.694 235.249  1.00  0.00     0.014 C 
ATOM     10  C   UNL     1     233.621 240.025 236.371  1.00  0.00     0.014 C 
ENDROOT
BRANCH   8  11
ATOM     11  O   UNL     1     230.320 240.675 237.501  1.00  0.00    -0.392 OA
ATOM     12  H   UNL     1     230.862 241.408 237.888  1.00  0.00     0.211 HD
ENDBRANCH   8  11
TORSDOF 1
ENDMDL
