MODEL 1
REMARK VINA RESULT:    -5.122      0.000      0.000
REMARK INTER + INTRA:          -8.205
REMARK INTER:                  -7.068
REMARK INTRA:                  -1.137
REMARK UNBOUND:                -1.137
REMARK SMILES CCCCc1cccc(O)c1CCCC
REMARK SMILES IDX 5 1 11 2 9 3 8 4 7 5 6 6 4 7 3 8 2 9 1 10 12 11 13 12 14 13
REMARK SMILES IDX 15 14 10 15
REMARK H PARENT 10 16
REMARK Flexibility Score: inf
ROOT
ATOM      1  C   UNL     1       3.377  -5.339  23.638  1.00  0.00    -0.041 A 
ATOM      2  C   UNL     1       2.091  -5.101  24.202  1.00  0.00    -0.003 A 
ATOM      3  C   UNL     1       1.632  -5.938  25.245  1.00  0.00     0.119 A 
ATOM      4  C   UNL     1       2.451  -6.959  25.742  1.00  0.00     0.046 A 
ATOM      5  C   UNL     1       3.721  -7.165  25.210  1.00  0.00     0.004 A 
ATOM      6  C   UNL     1       4.181  -6.363  24.169  1.00  0.00     0.004 A 
ENDROOT
BRANCH   1   7
ATOM      7  C   UNL     1       3.948  -4.497  22.518  1.00  0.00     0.036 C 
BRANCH   7   8
ATOM      8  C   UNL     1       3.815  -5.220  21.172  1.00  0.00     0.004 C 
BRANCH   8   9
ATOM      9  C   UNL     1       4.644  -4.521  20.088  1.00  0.00    -0.003 C 
ATOM     10  C   UNL     1       3.816  -3.473  19.352  1.00  0.00     0.004 C 
ENDBRANCH   8   9
ENDBRANCH   7   8
ENDBRANCH   1   7
BRANCH   2  11
ATOM     11  C   UNL     1       1.173  -4.015  23.677  1.00  0.00     0.040 C 
BRANCH  11  12
ATOM     12  C   UNL     1       0.217  -4.577  22.618  1.00  0.00     0.005 C 
BRANCH  12  13
ATOM     13  C   UNL     1       0.199  -3.692  21.367  1.00  0.00    -0.003 C 
ATOM     14  C   UNL     1       1.059  -2.448  21.559  1.00  0.00     0.004 C 
ENDBRANCH  12  13
ENDBRANCH  11  12
ENDBRANCH   2  11
BRANCH   3  15
ATOM     15  O   UNL     1       0.359  -5.755  25.785  1.00  0.00    -0.508 OA
ATOM     16  H   UNL     1       0.224  -5.474  26.749  1.00  0.00     0.293 HD
ENDBRANCH   3  15
TORSDOF 7
ENDMDL
MODEL 2
REMARK VINA RESULT:    -5.115      1.412      3.280
REMARK INTER + INTRA:          -8.196
REMARK INTER:                  -6.895
REMARK INTRA:                  -1.301
REMARK UNBOUND:                -1.137
REMARK SMILES CCCCc1cccc(O)c1CCCC
REMARK SMILES IDX 5 1 11 2 9 3 8 4 7 5 6 6 4 7 3 8 2 9 1 10 12 11 13 12 14 13
REMARK SMILES IDX 15 14 10 15
REMARK H PARENT 10 16
REMARK Flexibility Score: inf
ROOT
ATOM      1  C   UNL     1       1.748  -4.840  24.109  1.00  0.00    -0.041 A 
ATOM      2  C   UNL     1       3.007  -5.489  23.974  1.00  0.00    -0.003 A 
ATOM      3  C   UNL     1       3.325  -6.560  24.841  1.00  0.00     0.119 A 
ATOM      4  C   UNL     1       2.393  -7.000  25.789  1.00  0.00     0.046 A 
ATOM      5  C   UNL     1       1.149  -6.383  25.893  1.00  0.00     0.004 A 
ATOM      6  C   UNL     1       0.828  -5.314  25.061  1.00  0.00     0.004 A 
ENDROOT
BRANCH   1   7
ATOM      7  C   UNL     1       1.324  -3.683  23.228  1.00  0.00     0.036 C 
BRANCH   7   8
ATOM      8  C   UNL     1       0.226  -4.119  22.250  1.00  0.00     0.004 C 
BRANCH   8   9
ATOM      9  C   UNL     1       0.359  -3.385  20.911  1.00  0.00    -0.003 C 
ATOM     10  C   UNL     1       1.329  -2.214  21.019  1.00  0.00     0.004 C 
ENDBRANCH   8   9
ENDBRANCH   7   8
ENDBRANCH   1   7
BRANCH   2  11
ATOM     11  C   UNL     1       4.045  -5.029  22.969  1.00  0.00     0.040 C 
BRANCH  11  12
ATOM     12  C   UNL     1       3.849  -5.738  21.624  1.00  0.00     0.005 C 
BRANCH  12  13
ATOM     13  C   UNL     1       4.026  -4.762  20.455  1.00  0.00    -0.003 C 
ATOM     14  C   UNL     1       4.846  -3.546  20.872  1.00  0.00     0.004 C 
ENDBRANCH  12  13
ENDBRANCH  11  12
ENDBRANCH   2  11
BRANCH   3  15
ATOM     15  O   UNL     1       4.569  -7.186  24.760  1.00  0.00    -0.508 OA
ATOM     16  H   UNL     1       4.697  -8.154  25.031  1.00  0.00     0.293 HD
ENDBRANCH   3  15
TORSDOF 7
ENDMDL
MODEL 3
REMARK VINA RESULT:    -5.064     12.395     14.198
REMARK INTER + INTRA:          -8.125
REMARK INTER:                  -6.899
REMARK INTRA:                  -1.226
REMARK UNBOUND:                -1.137
REMARK SMILES CCCCc1cccc(O)c1CCCC
REMARK SMILES IDX 5 1 11 2 9 3 8 4 7 5 6 6 4 7 3 8 2 9 1 10 12 11 13 12 14 13
REMARK SMILES IDX 15 14 10 15
REMARK H PARENT 10 16
REMARK Flexibility Score: inf
ROOT
ATOM      1  C   UNL     1      15.099  -7.361  26.107  1.00  0.00    -0.041 A 
ATOM      2  C   UNL     1      16.510  -7.286  26.281  1.00  0.00    -0.003 A 
ATOM      3  C   UNL     1      17.037  -7.173  27.589  1.00  0.00     0.119 A 
ATOM      4  C   UNL     1      16.180  -7.179  28.696  1.00  0.00     0.046 A 
ATOM      5  C   UNL     1      14.803  -7.288  28.521  1.00  0.00     0.004 A 
ATOM      6  C   UNL     1      14.267  -7.380  27.239  1.00  0.00     0.004 A 
ENDROOT
BRANCH   1   7
ATOM      7  C   UNL     1      14.448  -7.480  24.745  1.00  0.00     0.036 C 
BRANCH   7   8
ATOM      8  C   UNL     1      13.830  -6.143  24.320  1.00  0.00     0.004 C 
BRANCH   8   9
ATOM      9  C   UNL     1      13.633  -6.086  22.801  1.00  0.00    -0.003 C 
ATOM     10  C   UNL     1      13.638  -7.484  22.192  1.00  0.00     0.004 C 
ENDBRANCH   8   9
ENDBRANCH   7   8
ENDBRANCH   1   7
BRANCH   2  11
ATOM     11  C   UNL     1      17.466  -7.261  25.103  1.00  0.00     0.040 C 
BRANCH  11  12
ATOM     12  C   UNL     1      17.739  -5.819  24.657  1.00  0.00     0.005 C 
BRANCH  12  13
ATOM     13  C   UNL     1      17.373  -5.620  23.182  1.00  0.00    -0.003 C 
ATOM     14  C   UNL     1      17.824  -6.807  22.337  1.00  0.00     0.004 C 
ENDBRANCH  12  13
ENDBRANCH  11  12
ENDBRANCH   2  11
BRANCH   3  15
ATOM     15  O   UNL     1      18.412  -7.053  27.785  1.00  0.00    -0.508 OA
ATOM     16  H   UNL     1      19.023  -6.679  27.068  1.00  0.00     0.293 HD
ENDBRANCH   3  15
TORSDOF 7
ENDMDL
MODEL 4
REMARK VINA RESULT:    -4.946      2.220      3.819
REMARK INTER + INTRA:          -7.962
REMARK INTER:                  -6.957
REMARK INTRA:                  -1.005
REMARK UNBOUND:                -1.137
REMARK SMILES CCCCc1cccc(O)c1CCCC
REMARK SMILES IDX 5 1 11 2 9 3 8 4 7 5 6 6 4 7 3 8 2 9 1 10 12 11 13 12 14 13
REMARK SMILES IDX 15 14 10 15
REMARK H PARENT 10 16
REMARK Flexibility Score: inf
ROOT
ATOM      1  C   UNL     1       1.356  -4.797  25.861  1.00  0.00    -0.041 A 
ATOM      2  C   UNL     1       0.739  -3.925  24.919  1.00  0.00    -0.003 A 
ATOM      3  C   UNL     1       0.860  -2.527  25.095  1.00  0.00     0.119 A 
ATOM      4  C   UNL     1       1.613  -2.012  26.157  1.00  0.00     0.046 A 
ATOM      5  C   UNL     1       2.243  -2.871  27.055  1.00  0.00     0.004 A 
ATOM      6  C   UNL     1       2.117  -4.250  26.909  1.00  0.00     0.004 A 
ENDROOT
BRANCH   1   7
ATOM      7  C   UNL     1       1.276  -6.305  25.755  1.00  0.00     0.036 C 
BRANCH   7   8
ATOM      8  C   UNL     1       2.679  -6.925  25.765  1.00  0.00     0.004 C 
BRANCH   8   9
ATOM      9  C   UNL     1       3.379  -6.725  24.417  1.00  0.00    -0.003 C 
ATOM     10  C   UNL     1       4.591  -5.809  24.556  1.00  0.00     0.004 C 
ENDBRANCH   8   9
ENDBRANCH   7   8
ENDBRANCH   1   7
BRANCH   2  11
ATOM     11  C   UNL     1      -0.096  -4.448  23.767  1.00  0.00     0.040 C 
BRANCH  11  12
ATOM     12  C   UNL     1       0.724  -4.475  22.472  1.00  0.00     0.005 C 
BRANCH  12  13
ATOM     13  C   UNL     1      -0.002  -3.732  21.344  1.00  0.00    -0.003 C 
ATOM     14  C   UNL     1       0.989  -3.123  20.357  1.00  0.00     0.004 C 
ENDBRANCH  12  13
ENDBRANCH  11  12
ENDBRANCH   2  11
BRANCH   3  15
ATOM     15  O   UNL     1       0.230  -1.650  24.213  1.00  0.00    -0.508 OA
ATOM     16  H   UNL     1      -0.111  -1.957  23.309  1.00  0.00     0.293 HD
ENDBRANCH   3  15
TORSDOF 7
ENDMDL
MODEL 5
REMARK VINA RESULT:    -4.946      2.230      5.402
REMARK INTER + INTRA:          -7.962
REMARK INTER:                  -6.807
REMARK INTRA:                  -1.155
REMARK UNBOUND:                -1.137
REMARK SMILES CCCCc1cccc(O)c1CCCC
REMARK SMILES IDX 5 1 11 2 9 3 8 4 7 5 6 6 4 7 3 8 2 9 1 10 12 11 13 12 14 13
REMARK SMILES IDX 15 14 10 15
REMARK H PARENT 10 16
REMARK Flexibility Score: inf
ROOT
ATOM      1  C   UNL     1       1.001  -4.397  23.075  1.00  0.00    -0.041 A 
ATOM      2  C   UNL     1       2.366  -4.385  22.669  1.00  0.00    -0.003 A 
ATOM      3  C   UNL     1       2.687  -3.985  21.351  1.00  0.00     0.119 A 
ATOM      4  C   UNL     1       1.678  -3.567  20.475  1.00  0.00     0.046 A 
ATOM      5  C   UNL     1       0.349  -3.548  20.890  1.00  0.00     0.004 A 
ATOM      6  C   UNL     1       0.013  -3.957  22.178  1.00  0.00     0.004 A 
ENDROOT
BRANCH   1   7
ATOM      7  C   UNL     1       0.565  -4.813  24.464  1.00  0.00     0.036 C 
BRANCH   7   8
ATOM      8  C   UNL     1       0.587  -3.615  25.422  1.00  0.00     0.004 C 
BRANCH   8   9
ATOM      9  C   UNL     1       1.588  -3.840  26.561  1.00  0.00    -0.003 C 
ATOM     10  C   UNL     1       2.577  -2.684  26.661  1.00  0.00     0.004 C 
ENDBRANCH   8   9
ENDBRANCH   7   8
ENDBRANCH   1   7
BRANCH   2  11
ATOM     11  C   UNL     1       3.482  -4.846  23.585  1.00  0.00     0.040 C 
BRANCH  11  12
ATOM     12  C   UNL     1       3.580  -6.376  23.592  1.00  0.00     0.005 C 
BRANCH  12  13
ATOM     13  C   UNL     1       3.971  -6.897  24.980  1.00  0.00    -0.003 C 
ATOM     14  C   UNL     1       2.750  -7.387  25.750  1.00  0.00     0.004 C 
ENDBRANCH  12  13
ENDBRANCH  11  12
ENDBRANCH   2  11
BRANCH   3  15
ATOM     15  O   UNL     1       4.011  -4.006  20.912  1.00  0.00    -0.508 OA
ATOM     16  H   UNL     1       4.654  -4.738  21.193  1.00  0.00     0.293 HD
ENDBRANCH   3  15
TORSDOF 7
ENDMDL
MODEL 6
REMARK VINA RESULT:    -4.938     15.353     16.592
REMARK INTER + INTRA:          -7.951
REMARK INTER:                  -7.019
REMARK INTRA:                  -0.932
REMARK UNBOUND:                -1.137
REMARK SMILES CCCCc1cccc(O)c1CCCC
REMARK SMILES IDX 5 1 11 2 9 3 8 4 7 5 6 6 4 7 3 8 2 9 1 10 12 11 13 12 14 13
REMARK SMILES IDX 15 14 10 15
REMARK H PARENT 10 16
REMARK Flexibility Score: inf
ROOT
ATOM      1  C   UNL     1       8.057   7.955  28.325  1.00  0.00    -0.041 A 
ATOM      2  C   UNL     1       9.366   8.465  28.555  1.00  0.00    -0.003 A 
ATOM      3  C   UNL     1      10.152   8.866  27.449  1.00  0.00     0.119 A 
ATOM      4  C   UNL     1       9.629   8.799  26.152  1.00  0.00     0.046 A 
ATOM      5  C   UNL     1       8.335   8.332  25.937  1.00  0.00     0.004 A 
ATOM      6  C   UNL     1       7.555   7.915  27.013  1.00  0.00     0.004 A 
ENDROOT
BRANCH   1   7
ATOM      7  C   UNL     1       7.147   7.500  29.446  1.00  0.00     0.036 C 
BRANCH   7   8
ATOM      8  C   UNL     1       5.806   7.006  28.891  1.00  0.00     0.004 C 
BRANCH   8   9
ATOM      9  C   UNL     1       4.697   7.125  29.943  1.00  0.00    -0.003 C 
ATOM     10  C   UNL     1       5.279   7.380  31.330  1.00  0.00     0.004 C 
ENDBRANCH   8   9
ENDBRANCH   7   8
ENDBRANCH   1   7
BRANCH   2  11
ATOM     11  C   UNL     1       9.969   8.536  29.944  1.00  0.00     0.040 C 
BRANCH  11  12
ATOM     12  C   UNL     1       9.625   9.871  30.617  1.00  0.00     0.005 C 
BRANCH  12  13
ATOM     13  C   UNL     1       9.149   9.655  32.058  1.00  0.00    -0.003 C 
ATOM     14  C   UNL     1       9.197   8.179  32.440  1.00  0.00     0.004 C 
ENDBRANCH  12  13
ENDBRANCH  11  12
ENDBRANCH   2  11
BRANCH   3  15
ATOM     15  O   UNL     1      11.453   9.328  27.642  1.00  0.00    -0.508 OA
ATOM     16  H   UNL     1      11.799   9.582  28.561  1.00  0.00     0.293 HD
ENDBRANCH   3  15
TORSDOF 7
ENDMDL
MODEL 7
REMARK VINA RESULT:    -4.892      1.988      4.523
REMARK INTER + INTRA:          -7.888
REMARK INTER:                  -6.731
REMARK INTRA:                  -1.158
REMARK UNBOUND:                -1.137
REMARK SMILES CCCCc1cccc(O)c1CCCC
REMARK SMILES IDX 5 1 11 2 9 3 8 4 7 5 6 6 4 7 3 8 2 9 1 10 12 11 13 12 14 13
REMARK SMILES IDX 15 14 10 15
REMARK H PARENT 10 16
REMARK Flexibility Score: inf
ROOT
ATOM      1  C   UNL     1       2.678  -4.659  21.874  1.00  0.00    -0.041 A 
ATOM      2  C   UNL     1       1.373  -4.120  21.694  1.00  0.00    -0.003 A 
ATOM      3  C   UNL     1       1.133  -3.247  20.609  1.00  0.00     0.119 A 
ATOM      4  C   UNL     1       2.157  -2.953  19.701  1.00  0.00     0.046 A 
ATOM      5  C   UNL     1       3.422  -3.511  19.862  1.00  0.00     0.004 A 
ATOM      6  C   UNL     1       3.681  -4.357  20.937  1.00  0.00     0.004 A 
ENDROOT
BRANCH   1   7
ATOM      7  C   UNL     1       3.027  -5.599  23.008  1.00  0.00     0.036 C 
BRANCH   7   8
ATOM      8  C   UNL     1       4.361  -5.202  23.652  1.00  0.00     0.004 C 
BRANCH   8   9
ATOM      9  C   UNL     1       4.684  -6.101  24.850  1.00  0.00    -0.003 C 
ATOM     10  C   UNL     1       3.505  -7.006  25.193  1.00  0.00     0.004 C 
ENDBRANCH   8   9
ENDBRANCH   7   8
ENDBRANCH   1   7
BRANCH   2  11
ATOM     11  C   UNL     1       0.245  -4.405  22.667  1.00  0.00     0.040 C 
BRANCH  11  12
ATOM     12  C   UNL     1       0.209  -3.350  23.779  1.00  0.00     0.005 C 
BRANCH  12  13
ATOM     13  C   UNL     1       0.615  -3.956  25.128  1.00  0.00    -0.003 C 
ATOM     14  C   UNL     1       1.872  -3.289  25.676  1.00  0.00     0.004 C 
ENDBRANCH  12  13
ENDBRANCH  11  12
ENDBRANCH   2  11
BRANCH   3  15
ATOM     15  O   UNL     1      -0.125  -2.669  20.435  1.00  0.00    -0.508 OA
ATOM     16  H   UNL     1      -0.796  -2.615  21.193  1.00  0.00     0.293 HD
ENDBRANCH   3  15
TORSDOF 7
ENDMDL
MODEL 8
REMARK VINA RESULT:    -4.837      2.172      5.340
REMARK INTER + INTRA:          -7.812
REMARK INTER:                  -6.553
REMARK INTRA:                  -1.259
REMARK UNBOUND:                -1.137
REMARK SMILES CCCCc1cccc(O)c1CCCC
REMARK SMILES IDX 5 1 11 2 9 3 8 4 7 5 6 6 4 7 3 8 2 9 1 10 12 11 13 12 14 13
REMARK SMILES IDX 15 14 10 15
REMARK H PARENT 10 16
REMARK Flexibility Score: inf
ROOT
ATOM      1  C   UNL     1       2.412  -2.831  22.478  1.00  0.00    -0.041 A 
ATOM      2  C   UNL     1       3.124  -3.892  21.850  1.00  0.00    -0.003 A 
ATOM      3  C   UNL     1       2.886  -4.167  20.484  1.00  0.00     0.119 A 
ATOM      4  C   UNL     1       1.993  -3.376  19.751  1.00  0.00     0.046 A 
ATOM      5  C   UNL     1       1.326  -2.317  20.362  1.00  0.00     0.004 A 
ATOM      6  C   UNL     1       1.533  -2.046  21.712  1.00  0.00     0.004 A 
ENDROOT
BRANCH   1   7
ATOM      7  C   UNL     1       2.601  -2.468  23.936  1.00  0.00     0.036 C 
BRANCH   7   8
ATOM      8  C   UNL     1       1.260  -2.498  24.681  1.00  0.00     0.004 C 
BRANCH   8   9
ATOM      9  C   UNL     1       0.883  -3.930  25.077  1.00  0.00    -0.003 C 
ATOM     10  C   UNL     1      -0.013  -4.575  24.025  1.00  0.00     0.004 C 
ENDBRANCH   8   9
ENDBRANCH   7   8
ENDBRANCH   1   7
BRANCH   2  11
ATOM     11  C   UNL     1       4.086  -4.779  22.617  1.00  0.00     0.040 C 
BRANCH  11  12
ATOM     12  C   UNL     1       3.361  -6.008  23.178  1.00  0.00     0.005 C 
BRANCH  12  13
ATOM     13  C   UNL     1       3.943  -6.420  24.535  1.00  0.00    -0.003 C 
ATOM     14  C   UNL     1       2.887  -7.089  25.408  1.00  0.00     0.004 C 
ENDBRANCH  12  13
ENDBRANCH  11  12
ENDBRANCH   2  11
BRANCH   3  15
ATOM     15  O   UNL     1       3.536  -5.228  19.856  1.00  0.00    -0.508 OA
ATOM     16  H   UNL     1       3.022  -5.985  19.419  1.00  0.00     0.293 HD
ENDBRANCH   3  15
TORSDOF 7
ENDMDL
MODEL 9
REMARK VINA RESULT:    -4.738      2.237      5.055
REMARK INTER + INTRA:          -7.676
REMARK INTER:                  -6.925
REMARK INTRA:                  -0.751
REMARK UNBOUND:                -1.137
REMARK SMILES CCCCc1cccc(O)c1CCCC
REMARK SMILES IDX 5 1 11 2 9 3 8 4 7 5 6 6 4 7 3 8 2 9 1 10 12 11 13 12 14 13
REMARK SMILES IDX 15 14 10 15
REMARK H PARENT 10 16
REMARK Flexibility Score: inf
ROOT
ATOM      1  C   UNL     1       2.517  -4.444  22.315  1.00  0.00    -0.041 A 
ATOM      2  C   UNL     1       2.572  -4.060  20.945  1.00  0.00    -0.003 A 
ATOM      3  C   UNL     1       1.383  -3.652  20.297  1.00  0.00     0.119 A 
ATOM      4  C   UNL     1       0.179  -3.587  21.009  1.00  0.00     0.046 A 
ATOM      5  C   UNL     1       0.139  -3.931  22.357  1.00  0.00     0.004 A 
ATOM      6  C   UNL     1       1.296  -4.354  23.005  1.00  0.00     0.004 A 
ENDROOT
BRANCH   1   7
ATOM      7  C   UNL     1       3.737  -4.897  23.087  1.00  0.00     0.036 C 
BRANCH   7   8
ATOM      8  C   UNL     1       3.615  -6.375  23.479  1.00  0.00     0.004 C 
BRANCH   8   9
ATOM      9  C   UNL     1       3.799  -6.561  24.989  1.00  0.00    -0.003 C 
ATOM     10  C   UNL     1       2.545  -7.148  25.629  1.00  0.00     0.004 C 
ENDBRANCH   8   9
ENDBRANCH   7   8
ENDBRANCH   1   7
BRANCH   2  11
ATOM     11  C   UNL     1       3.855  -4.133  20.140  1.00  0.00     0.040 C 
BRANCH  11  12
ATOM     12  C   UNL     1       4.636  -2.817  20.244  1.00  0.00     0.005 C 
BRANCH  12  13
ATOM     13  C   UNL     1       4.689  -2.100  18.891  1.00  0.00    -0.003 C 
ATOM     14  C   UNL     1       5.408  -2.946  17.846  1.00  0.00     0.004 C 
ENDBRANCH  12  13
ENDBRANCH  11  12
ENDBRANCH   2  11
BRANCH   3  15
ATOM     15  O   UNL     1       1.399  -3.313  18.944  1.00  0.00    -0.508 OA
ATOM     16  H   UNL     1       1.972  -3.816  18.275  1.00  0.00     0.293 HD
ENDBRANCH   3  15
TORSDOF 7
ENDMDL
