MODEL 1
REMARK VINA RESULT:    -8.018      0.000      0.000
REMARK INTER + INTRA:         -10.201
REMARK INTER:                  -9.892
REMARK INTRA:                  -0.308
REMARK UNBOUND:                -0.308
REMARK SMILES COc1cc(-c2oc3cc(O)cc(O)c3c(=O)c2O)ccc1O
REMARK SMILES IDX 6 1 18 2 16 3 17 4 15 5 13 6 12 7 10 8 9 9 8 10 7 11 5 12
REMARK SMILES IDX 3 13 22 14 4 15 21 16 20 17 2 18 1 19 23 20 19 22 14 24
REMARK SMILES IDX 11 26
REMARK H PARENT 23 21 19 23 14 25 11 27
REMARK Flexibility Score: inf
ROOT
ATOM      1  C   UNL     1     -45.124 -11.287  12.612  1.00  0.00     0.180 A 
ATOM      2  C   UNL     1     -45.176 -11.558  13.993  1.00  0.00     0.208 A 
ATOM      3  C   UNL     1     -46.303 -12.211  14.514  1.00  0.00     0.238 A 
ATOM      4  O   UNL     1     -46.355 -12.469  15.748  1.00  0.00    -0.285 OA
ATOM      5  C   UNL     1     -47.364 -12.564  13.655  1.00  0.00     0.111 A 
ATOM      6  C   UNL     1     -48.536 -13.219  14.101  1.00  0.00     0.134 A 
ATOM      7  C   UNL     1     -49.553 -13.528  13.185  1.00  0.00     0.093 A 
ATOM      8  C   UNL     1     -49.420 -13.193  11.836  1.00  0.00     0.123 A 
ATOM      9  C   UNL     1     -48.264 -12.546  11.389  1.00  0.00     0.094 A 
ATOM     10  C   UNL     1     -47.239 -12.231  12.285  1.00  0.00     0.146 A 
ATOM     11  O   UNL     1     -46.151 -11.620  11.835  1.00  0.00    -0.452 OA
ENDROOT
BRANCH   1  12
ATOM     12  C   UNL     1     -43.961 -10.619  11.984  1.00  0.00     0.025 A 
ATOM     13  C   UNL     1     -42.579  -8.638  11.604  1.00  0.00     0.161 A 
ATOM     14  C   UNL     1     -41.709  -9.404  10.816  1.00  0.00     0.157 A 
ATOM     15  C   UNL     1     -43.700  -9.253  12.193  1.00  0.00     0.062 A 
ATOM     16  C   UNL     1     -41.954 -10.771  10.626  1.00  0.00     0.051 A 
ATOM     17  C   UNL     1     -43.067 -11.374  11.212  1.00  0.00     0.016 A 
BRANCH  13  18
ATOM     18  O   UNL     1     -42.292  -7.274  11.781  1.00  0.00    -0.493 OA
ATOM     19  C   UNL     1     -41.633  -6.731  12.920  1.00  0.00     0.278 C 
ENDBRANCH  13  18
BRANCH  14  20
ATOM     20  O   UNL     1     -40.599  -8.801  10.227  1.00  0.00    -0.504 OA
ATOM     21  H   UNL     1     -40.696  -8.142   9.464  1.00  0.00     0.293 HD
ENDBRANCH  14  20
ENDBRANCH   1  12
BRANCH   2  22
ATOM     22  O   UNL     1     -44.132 -11.154  14.830  1.00  0.00    -0.502 OA
ATOM     23  H   UNL     1     -44.282 -10.899  15.799  1.00  0.00     0.293 HD
ENDBRANCH   2  22
BRANCH   6  24
ATOM     24  O   UNL     1     -48.700 -13.567  15.444  1.00  0.00    -0.507 OA
ATOM     25  H   UNL     1     -48.234 -13.059  16.186  1.00  0.00     0.293 HD
ENDBRANCH   6  24
BRANCH   8  26
ATOM     26  O   UNL     1     -50.445 -13.510  10.946  1.00  0.00    -0.508 OA
ATOM     27  H   UNL     1     -51.179 -14.164  11.194  1.00  0.00     0.293 HD
ENDBRANCH   8  26
TORSDOF 6
ENDMDL
MODEL 2
REMARK VINA RESULT:    -7.823      1.058      2.154
REMARK INTER + INTRA:          -9.960
REMARK INTER:                  -9.720
REMARK INTRA:                  -0.241
REMARK UNBOUND:                -0.308
REMARK SMILES COc1cc(-c2oc3cc(O)cc(O)c3c(=O)c2O)ccc1O
REMARK SMILES IDX 6 1 18 2 16 3 17 4 15 5 13 6 12 7 10 8 9 9 8 10 7 11 5 12
REMARK SMILES IDX 3 13 22 14 4 15 21 16 20 17 2 18 1 19 23 20 19 22 14 24
REMARK SMILES IDX 11 26
REMARK H PARENT 23 21 19 23 14 25 11 27
REMARK Flexibility Score: inf
ROOT
ATOM      1  C   UNL     1     -44.707 -11.383  12.358  1.00  0.00     0.180 A 
ATOM      2  C   UNL     1     -44.868 -11.400  13.757  1.00  0.00     0.208 A 
ATOM      3  C   UNL     1     -46.003 -12.021  14.301  1.00  0.00     0.238 A 
ATOM      4  O   UNL     1     -46.152 -12.052  15.554  1.00  0.00    -0.285 OA
ATOM      5  C   UNL     1     -46.964 -12.594  13.444  1.00  0.00     0.111 A 
ATOM      6  C   UNL     1     -48.136 -13.234  13.912  1.00  0.00     0.134 A 
ATOM      7  C   UNL     1     -49.050 -13.772  12.994  1.00  0.00     0.093 A 
ATOM      8  C   UNL     1     -48.815 -13.682  11.620  1.00  0.00     0.123 A 
ATOM      9  C   UNL     1     -47.658 -13.051  11.151  1.00  0.00     0.094 A 
ATOM     10  C   UNL     1     -46.734 -12.510  12.050  1.00  0.00     0.146 A 
ATOM     11  O   UNL     1     -45.642 -11.921  11.579  1.00  0.00    -0.452 OA
ENDROOT
BRANCH   1  12
ATOM     12  C   UNL     1     -43.528 -10.766  11.709  1.00  0.00     0.025 A 
ATOM     13  C   UNL     1     -41.503 -10.930  10.347  1.00  0.00     0.161 A 
ATOM     14  C   UNL     1     -41.333  -9.541  10.446  1.00  0.00     0.157 A 
ATOM     15  C   UNL     1     -42.609 -11.536  10.975  1.00  0.00     0.062 A 
ATOM     16  C   UNL     1     -42.260  -8.769  11.158  1.00  0.00     0.051 A 
ATOM     17  C   UNL     1     -43.354  -9.376  11.777  1.00  0.00     0.016 A 
BRANCH  13  18
ATOM     18  O   UNL     1     -40.559 -11.667   9.615  1.00  0.00    -0.493 OA
ATOM     19  C   UNL     1     -39.987 -12.897  10.047  1.00  0.00     0.278 C 
ENDBRANCH  13  18
BRANCH  14  20
ATOM     20  O   UNL     1     -40.239  -8.935   9.831  1.00  0.00    -0.504 OA
ATOM     21  H   UNL     1     -39.594  -8.351  10.350  1.00  0.00     0.293 HD
ENDBRANCH  14  20
ENDBRANCH   1  12
BRANCH   2  22
ATOM     22  O   UNL     1     -43.925 -10.781  14.582  1.00  0.00    -0.502 OA
ATOM     23  H   UNL     1     -43.091 -11.258  14.904  1.00  0.00     0.293 HD
ENDBRANCH   2  22
BRANCH   6  24
ATOM     24  O   UNL     1     -48.400 -13.340  15.279  1.00  0.00    -0.507 OA
ATOM     25  H   UNL     1     -48.322 -12.544  15.901  1.00  0.00     0.293 HD
ENDBRANCH   6  24
BRANCH   8  26
ATOM     26  O   UNL     1     -49.738 -14.223  10.728  1.00  0.00    -0.508 OA
ATOM     27  H   UNL     1     -50.030 -13.721   9.897  1.00  0.00     0.293 HD
ENDBRANCH   8  26
TORSDOF 6
ENDMDL
MODEL 3
REMARK VINA RESULT:    -7.744      1.882      7.119
REMARK INTER + INTRA:          -9.863
REMARK INTER:                 -10.080
REMARK INTRA:                   0.217
REMARK UNBOUND:                -0.308
REMARK SMILES COc1cc(-c2oc3cc(O)cc(O)c3c(=O)c2O)ccc1O
REMARK SMILES IDX 6 1 18 2 16 3 17 4 15 5 13 6 12 7 10 8 9 9 8 10 7 11 5 12
REMARK SMILES IDX 3 13 22 14 4 15 21 16 20 17 2 18 1 19 23 20 19 22 14 24
REMARK SMILES IDX 11 26
REMARK H PARENT 23 21 19 23 14 25 11 27
REMARK Flexibility Score: inf
ROOT
ATOM      1  C   UNL     1     -45.200 -11.180  11.926  1.00  0.00     0.180 A 
ATOM      2  C   UNL     1     -45.229 -10.112  12.843  1.00  0.00     0.208 A 
ATOM      3  C   UNL     1     -44.179  -9.182  12.834  1.00  0.00     0.238 A 
ATOM      4  O   UNL     1     -44.200  -8.215  13.644  1.00  0.00    -0.285 OA
ATOM      5  C   UNL     1     -43.112  -9.343  11.927  1.00  0.00     0.111 A 
ATOM      6  C   UNL     1     -42.014  -8.453  11.857  1.00  0.00     0.134 A 
ATOM      7  C   UNL     1     -40.986  -8.688  10.932  1.00  0.00     0.093 A 
ATOM      8  C   UNL     1     -41.033  -9.793  10.079  1.00  0.00     0.123 A 
ATOM      9  C   UNL     1     -42.116 -10.676  10.144  1.00  0.00     0.094 A 
ATOM     10  C   UNL     1     -43.152 -10.458  11.057  1.00  0.00     0.146 A 
ATOM     11  O   UNL     1     -44.170 -11.309  11.095  1.00  0.00    -0.452 OA
ENDROOT
BRANCH   1  12
ATOM     12  C   UNL     1     -46.280 -12.191  11.860  1.00  0.00     0.025 A 
ATOM     13  C   UNL     1     -48.609 -12.811  11.445  1.00  0.00     0.161 A 
ATOM     14  C   UNL     1     -48.289 -14.153  11.695  1.00  0.00     0.157 A 
ATOM     15  C   UNL     1     -47.598 -11.834  11.522  1.00  0.00     0.062 A 
ATOM     16  C   UNL     1     -46.972 -14.514  12.010  1.00  0.00     0.051 A 
ATOM     17  C   UNL     1     -45.975 -13.541  12.084  1.00  0.00     0.016 A 
BRANCH  13  18
ATOM     18  O   UNL     1     -49.937 -12.491  11.120  1.00  0.00    -0.493 OA
ATOM     19  C   UNL     1     -51.070 -12.874  11.893  1.00  0.00     0.278 C 
ENDBRANCH  13  18
BRANCH  14  20
ATOM     20  O   UNL     1     -49.286 -15.125  11.624  1.00  0.00    -0.504 OA
ATOM     21  H   UNL     1     -49.450 -15.656  10.777  1.00  0.00     0.293 HD
ENDBRANCH  14  20
ENDBRANCH   1  12
BRANCH   2  22
ATOM     22  O   UNL     1     -46.274 -10.003  13.765  1.00  0.00    -0.502 OA
ATOM     23  H   UNL     1     -46.311  -9.264  14.457  1.00  0.00     0.293 HD
ENDBRANCH   2  22
BRANCH   6  24
ATOM     24  O   UNL     1     -41.936  -7.340  12.696  1.00  0.00    -0.507 OA
ATOM     25  H   UNL     1     -42.307  -7.355  13.638  1.00  0.00     0.293 HD
ENDBRANCH   6  24
BRANCH   8  26
ATOM     26  O   UNL     1     -39.999 -10.004   9.170  1.00  0.00    -0.508 OA
ATOM     27  H   UNL     1     -39.029 -10.029   9.466  1.00  0.00     0.293 HD
ENDBRANCH   8  26
TORSDOF 6
ENDMDL
MODEL 4
REMARK VINA RESULT:    -7.661      1.996      3.940
REMARK INTER + INTRA:          -9.760
REMARK INTER:                  -9.362
REMARK INTRA:                  -0.398
REMARK UNBOUND:                -0.308
REMARK SMILES COc1cc(-c2oc3cc(O)cc(O)c3c(=O)c2O)ccc1O
REMARK SMILES IDX 6 1 18 2 16 3 17 4 15 5 13 6 12 7 10 8 9 9 8 10 7 11 5 12
REMARK SMILES IDX 3 13 22 14 4 15 21 16 20 17 2 18 1 19 23 20 19 22 14 24
REMARK SMILES IDX 11 26
REMARK H PARENT 23 21 19 23 14 25 11 27
REMARK Flexibility Score: inf
ROOT
ATOM      1  C   UNL     1     -47.667 -12.656  12.526  1.00  0.00     0.180 A 
ATOM      2  C   UNL     1     -48.643 -12.666  11.511  1.00  0.00     0.208 A 
ATOM      3  C   UNL     1     -49.951 -13.063  11.831  1.00  0.00     0.238 A 
ATOM      4  O   UNL     1     -50.836 -13.065  10.931  1.00  0.00    -0.285 OA
ATOM      5  C   UNL     1     -50.256 -13.461  13.148  1.00  0.00     0.111 A 
ATOM      6  C   UNL     1     -51.547 -13.879  13.551  1.00  0.00     0.134 A 
ATOM      7  C   UNL     1     -51.769 -14.269  14.880  1.00  0.00     0.093 A 
ATOM      8  C   UNL     1     -50.728 -14.251  15.811  1.00  0.00     0.123 A 
ATOM      9  C   UNL     1     -49.450 -13.839  15.419  1.00  0.00     0.094 A 
ATOM     10  C   UNL     1     -49.209 -13.444  14.100  1.00  0.00     0.146 A 
ATOM     11  O   UNL     1     -47.989 -13.053  13.754  1.00  0.00    -0.452 OA
ENDROOT
BRANCH   1  12
ATOM     12  C   UNL     1     -46.272 -12.232  12.272  1.00  0.00     0.025 A 
ATOM     13  C   UNL     1     -44.515 -10.531  12.290  1.00  0.00     0.161 A 
ATOM     14  C   UNL     1     -43.597 -11.484  11.826  1.00  0.00     0.157 A 
ATOM     15  C   UNL     1     -45.851 -10.913  12.519  1.00  0.00     0.062 A 
ATOM     16  C   UNL     1     -44.009 -12.804  11.601  1.00  0.00     0.051 A 
ATOM     17  C   UNL     1     -45.334 -13.176  11.830  1.00  0.00     0.016 A 
BRANCH  13  18
ATOM     18  O   UNL     1     -44.061  -9.221  12.516  1.00  0.00    -0.493 OA
ATOM     19  C   UNL     1     -44.128  -8.550  13.770  1.00  0.00     0.278 C 
ENDBRANCH  13  18
BRANCH  14  20
ATOM     20  O   UNL     1     -42.274 -11.112  11.595  1.00  0.00    -0.504 OA
ATOM     21  H   UNL     1     -41.668 -10.809  12.348  1.00  0.00     0.293 HD
ENDBRANCH  14  20
ENDBRANCH   1  12
BRANCH   2  22
ATOM     22  O   UNL     1     -48.303 -12.314  10.202  1.00  0.00    -0.502 OA
ATOM     23  H   UNL     1     -47.678 -12.875   9.634  1.00  0.00     0.293 HD
ENDBRANCH   2  22
BRANCH   6  24
ATOM     24  O   UNL     1     -52.609 -13.909  12.645  1.00  0.00    -0.507 OA
ATOM     25  H   UNL     1     -53.337 -14.611  12.700  1.00  0.00     0.293 HD
ENDBRANCH   6  24
BRANCH   8  26
ATOM     26  O   UNL     1     -50.974 -14.644  17.125  1.00  0.00    -0.508 OA
ATOM     27  H   UNL     1     -50.732 -14.051  17.910  1.00  0.00     0.293 HD
ENDBRANCH   8  26
TORSDOF 6
ENDMDL
MODEL 5
REMARK VINA RESULT:    -7.491      1.733      2.409
REMARK INTER + INTRA:          -9.551
REMARK INTER:                  -9.182
REMARK INTRA:                  -0.369
REMARK UNBOUND:                -0.308
REMARK SMILES COc1cc(-c2oc3cc(O)cc(O)c3c(=O)c2O)ccc1O
REMARK SMILES IDX 6 1 18 2 16 3 17 4 15 5 13 6 12 7 10 8 9 9 8 10 7 11 5 12
REMARK SMILES IDX 3 13 22 14 4 15 21 16 20 17 2 18 1 19 23 20 19 22 14 24
REMARK SMILES IDX 11 26
REMARK H PARENT 23 21 19 23 14 25 11 27
REMARK Flexibility Score: inf
ROOT
ATOM      1  C   UNL     1     -46.861 -12.204  13.814  1.00  0.00     0.180 A 
ATOM      2  C   UNL     1     -46.966 -12.130  15.216  1.00  0.00     0.208 A 
ATOM      3  C   UNL     1     -48.183 -12.475  15.824  1.00  0.00     0.238 A 
ATOM      4  O   UNL     1     -48.285 -12.423  17.081  1.00  0.00    -0.285 OA
ATOM      5  C   UNL     1     -49.275 -12.868  15.025  1.00  0.00     0.111 A 
ATOM      6  C   UNL     1     -50.536 -13.227  15.559  1.00  0.00     0.134 A 
ATOM      7  C   UNL     1     -51.577 -13.597  14.695  1.00  0.00     0.093 A 
ATOM      8  C   UNL     1     -51.384 -13.614  13.312  1.00  0.00     0.123 A 
ATOM      9  C   UNL     1     -50.140 -13.261  12.778  1.00  0.00     0.094 A 
ATOM     10  C   UNL     1     -49.089 -12.890  13.622  1.00  0.00     0.146 A 
ATOM     11  O   UNL     1     -47.918 -12.564  13.091  1.00  0.00    -0.452 OA
ENDROOT
BRANCH   1  12
ATOM     12  C   UNL     1     -45.606 -11.874  13.100  1.00  0.00     0.025 A 
ATOM     13  C   UNL     1     -44.024 -10.245  12.192  1.00  0.00     0.161 A 
ATOM     14  C   UNL     1     -43.186 -11.295  11.789  1.00  0.00     0.157 A 
ATOM     15  C   UNL     1     -45.231 -10.541  12.855  1.00  0.00     0.062 A 
ATOM     16  C   UNL     1     -43.547 -12.623  12.053  1.00  0.00     0.051 A 
ATOM     17  C   UNL     1     -44.744 -12.909  12.710  1.00  0.00     0.016 A 
BRANCH  13  18
ATOM     18  O   UNL     1     -43.621  -8.928  11.921  1.00  0.00    -0.493 OA
ATOM     19  C   UNL     1     -43.075  -8.037  12.888  1.00  0.00     0.278 C 
ENDBRANCH  13  18
BRANCH  14  20
ATOM     20  O   UNL     1     -41.992 -11.009  11.130  1.00  0.00    -0.504 OA
ATOM     21  H   UNL     1     -41.981 -10.674  10.173  1.00  0.00     0.293 HD
ENDBRANCH  14  20
ENDBRANCH   1  12
BRANCH   2  22
ATOM     22  O   UNL     1     -45.883 -11.690  15.982  1.00  0.00    -0.502 OA
ATOM     23  H   UNL     1     -45.227 -10.995  15.645  1.00  0.00     0.293 HD
ENDBRANCH   2  22
BRANCH   6  24
ATOM     24  O   UNL     1     -50.762 -13.219  16.936  1.00  0.00    -0.507 OA
ATOM     25  H   UNL     1     -50.038 -12.956  17.594  1.00  0.00     0.293 HD
ENDBRANCH   6  24
BRANCH   8  26
ATOM     26  O   UNL     1     -52.435 -13.985  12.476  1.00  0.00    -0.508 OA
ATOM     27  H   UNL     1     -52.281 -14.553  11.651  1.00  0.00     0.293 HD
ENDBRANCH   8  26
TORSDOF 6
ENDMDL
MODEL 6
REMARK VINA RESULT:    -7.165      1.211      2.734
REMARK INTER + INTRA:          -9.149
REMARK INTER:                  -9.126
REMARK INTRA:                  -0.023
REMARK UNBOUND:                -0.308
REMARK SMILES COc1cc(-c2oc3cc(O)cc(O)c3c(=O)c2O)ccc1O
REMARK SMILES IDX 6 1 18 2 16 3 17 4 15 5 13 6 12 7 10 8 9 9 8 10 7 11 5 12
REMARK SMILES IDX 3 13 22 14 4 15 21 16 20 17 2 18 1 19 23 20 19 22 14 24
REMARK SMILES IDX 11 26
REMARK H PARENT 23 21 19 23 14 25 11 27
REMARK Flexibility Score: inf
ROOT
ATOM      1  C   UNL     1     -45.249 -11.580  11.877  1.00  0.00     0.180 A 
ATOM      2  C   UNL     1     -46.017 -12.313  10.952  1.00  0.00     0.208 A 
ATOM      3  C   UNL     1     -47.216 -12.902  11.382  1.00  0.00     0.238 A 
ATOM      4  O   UNL     1     -47.918 -13.552  10.559  1.00  0.00    -0.285 OA
ATOM      5  C   UNL     1     -47.617 -12.766  12.727  1.00  0.00     0.111 A 
ATOM      6  C   UNL     1     -48.808 -13.332  13.241  1.00  0.00     0.134 A 
ATOM      7  C   UNL     1     -49.132 -13.161  14.595  1.00  0.00     0.093 A 
ATOM      8  C   UNL     1     -48.290 -12.437  15.442  1.00  0.00     0.123 A 
ATOM      9  C   UNL     1     -47.112 -11.875  14.940  1.00  0.00     0.094 A 
ATOM     10  C   UNL     1     -46.772 -12.033  13.594  1.00  0.00     0.146 A 
ATOM     11  O   UNL     1     -45.651 -11.486  13.141  1.00  0.00    -0.452 OA
ENDROOT
BRANCH   1  12
ATOM     12  C   UNL     1     -43.983 -10.913  11.495  1.00  0.00     0.025 A 
ATOM     13  C   UNL     1     -42.500  -8.969  11.506  1.00  0.00     0.161 A 
ATOM     14  C   UNL     1     -41.541  -9.705  10.795  1.00  0.00     0.157 A 
ATOM     15  C   UNL     1     -43.717  -9.581  11.861  1.00  0.00     0.062 A 
ATOM     16  C   UNL     1     -41.795 -11.039  10.449  1.00  0.00     0.051 A 
ATOM     17  C   UNL     1     -43.003 -11.640  10.803  1.00  0.00     0.016 A 
BRANCH  13  18
ATOM     18  O   UNL     1     -42.203  -7.639  11.845  1.00  0.00    -0.493 OA
ATOM     19  C   UNL     1     -41.717  -7.220  13.115  1.00  0.00     0.278 C 
ENDBRANCH  13  18
BRANCH  14  20
ATOM     20  O   UNL     1     -40.336  -9.104  10.437  1.00  0.00    -0.504 OA
ATOM     21  H   UNL     1     -40.306  -8.181  10.019  1.00  0.00     0.293 HD
ENDBRANCH  14  20
ENDBRANCH   1  12
BRANCH   2  22
ATOM     22  O   UNL     1     -45.573 -12.474   9.636  1.00  0.00    -0.502 OA
ATOM     23  H   UNL     1     -45.985 -13.150   9.004  1.00  0.00     0.293 HD
ENDBRANCH   2  22
BRANCH   6  24
ATOM     24  O   UNL     1     -49.670 -14.062  12.420  1.00  0.00    -0.507 OA
ATOM     25  H   UNL     1     -49.994 -13.699  11.531  1.00  0.00     0.293 HD
ENDBRANCH   6  24
BRANCH   8  26
ATOM     26  O   UNL     1     -48.635 -12.282  16.784  1.00  0.00    -0.508 OA
ATOM     27  H   UNL     1     -48.004 -11.845  17.446  1.00  0.00     0.293 HD
ENDBRANCH   8  26
TORSDOF 6
ENDMDL
MODEL 7
REMARK VINA RESULT:    -7.120      1.496      3.356
REMARK INTER + INTRA:          -9.094
REMARK INTER:                  -9.154
REMARK INTRA:                   0.060
REMARK UNBOUND:                -0.308
REMARK SMILES COc1cc(-c2oc3cc(O)cc(O)c3c(=O)c2O)ccc1O
REMARK SMILES IDX 6 1 18 2 16 3 17 4 15 5 13 6 12 7 10 8 9 9 8 10 7 11 5 12
REMARK SMILES IDX 3 13 22 14 4 15 21 16 20 17 2 18 1 19 23 20 19 22 14 24
REMARK SMILES IDX 11 26
REMARK H PARENT 23 21 19 23 14 25 11 27
REMARK Flexibility Score: inf
ROOT
ATOM      1  C   UNL     1     -45.949 -11.747  12.339  1.00  0.00     0.180 A 
ATOM      2  C   UNL     1     -46.619 -12.483  11.343  1.00  0.00     0.208 A 
ATOM      3  C   UNL     1     -47.746 -13.239  11.701  1.00  0.00     0.238 A 
ATOM      4  O   UNL     1     -48.361 -13.893  10.815  1.00  0.00    -0.285 OA
ATOM      5  C   UNL     1     -48.172 -13.263  13.045  1.00  0.00     0.111 A 
ATOM      6  C   UNL     1     -49.294 -14.002  13.488  1.00  0.00     0.134 A 
ATOM      7  C   UNL     1     -49.649 -13.982  14.845  1.00  0.00     0.093 A 
ATOM      8  C   UNL     1     -48.903 -13.241  15.765  1.00  0.00     0.123 A 
ATOM      9  C   UNL     1     -47.793 -12.508  15.333  1.00  0.00     0.094 A 
ATOM     10  C   UNL     1     -47.425 -12.513  13.984  1.00  0.00     0.146 A 
ATOM     11  O   UNL     1     -46.370 -11.806  13.599  1.00  0.00    -0.452 OA
ENDROOT
BRANCH   1  12
ATOM     12  C   UNL     1     -44.765 -10.911  12.037  1.00  0.00     0.025 A 
ATOM     13  C   UNL     1     -42.648 -10.540  10.869  1.00  0.00     0.161 A 
ATOM     14  C   UNL     1     -42.559  -9.267  11.449  1.00  0.00     0.157 A 
ATOM     15  C   UNL     1     -43.758 -11.356  11.160  1.00  0.00     0.062 A 
ATOM     16  C   UNL     1     -43.572  -8.812  12.304  1.00  0.00     0.051 A 
ATOM     17  C   UNL     1     -44.670  -9.626  12.589  1.00  0.00     0.016 A 
BRANCH  13  18
ATOM     18  O   UNL     1     -41.619 -10.954  10.007  1.00  0.00    -0.493 OA
ATOM     19  C   UNL     1     -41.682 -10.886   8.587  1.00  0.00     0.278 C 
ENDBRANCH  13  18
BRANCH  14  20
ATOM     20  O   UNL     1     -41.462  -8.455  11.167  1.00  0.00    -0.504 OA
ATOM     21  H   UNL     1     -41.512  -7.717  10.475  1.00  0.00     0.293 HD
ENDBRANCH  14  20
ENDBRANCH   1  12
BRANCH   2  22
ATOM     22  O   UNL     1     -46.147 -12.482  10.027  1.00  0.00    -0.502 OA
ATOM     23  H   UNL     1     -45.835 -13.326   9.562  1.00  0.00     0.293 HD
ENDBRANCH   2  22
BRANCH   6  24
ATOM     24  O   UNL     1     -50.059 -14.754  12.594  1.00  0.00    -0.507 OA
ATOM     25  H   UNL     1     -51.071 -14.778  12.647  1.00  0.00     0.293 HD
ENDBRANCH   6  24
BRANCH   8  26
ATOM     26  O   UNL     1     -49.276 -13.238  17.108  1.00  0.00    -0.508 OA
ATOM     27  H   UNL     1     -50.217 -12.996  17.397  1.00  0.00     0.293 HD
ENDBRANCH   8  26
TORSDOF 6
ENDMDL
MODEL 8
REMARK VINA RESULT:    -6.743      1.388      7.498
REMARK INTER + INTRA:          -8.628
REMARK INTER:                  -8.812
REMARK INTRA:                   0.184
REMARK UNBOUND:                -0.308
REMARK SMILES COc1cc(-c2oc3cc(O)cc(O)c3c(=O)c2O)ccc1O
REMARK SMILES IDX 6 1 18 2 16 3 17 4 15 5 13 6 12 7 10 8 9 9 8 10 7 11 5 12
REMARK SMILES IDX 3 13 22 14 4 15 21 16 20 17 2 18 1 19 23 20 19 22 14 24
REMARK SMILES IDX 11 26
REMARK H PARENT 23 21 19 23 14 25 11 27
REMARK Flexibility Score: inf
ROOT
ATOM      1  C   UNL     1     -44.954 -10.864  12.570  1.00  0.00     0.180 A 
ATOM      2  C   UNL     1     -44.354 -11.306  11.375  1.00  0.00     0.208 A 
ATOM      3  C   UNL     1     -43.232 -10.620  10.885  1.00  0.00     0.238 A 
ATOM      4  O   UNL     1     -42.680 -11.013   9.821  1.00  0.00    -0.285 OA
ATOM      5  C   UNL     1     -42.741  -9.498  11.584  1.00  0.00     0.111 A 
ATOM      6  C   UNL     1     -41.619  -8.749  11.156  1.00  0.00     0.134 A 
ATOM      7  C   UNL     1     -41.197  -7.639  11.902  1.00  0.00     0.093 A 
ATOM      8  C   UNL     1     -41.875  -7.262  13.063  1.00  0.00     0.123 A 
ATOM      9  C   UNL     1     -42.985  -7.998  13.491  1.00  0.00     0.094 A 
ATOM     10  C   UNL     1     -43.419  -9.109  12.763  1.00  0.00     0.146 A 
ATOM     11  O   UNL     1     -44.472  -9.793  13.194  1.00  0.00    -0.452 OA
ENDROOT
BRANCH   1  12
ATOM     12  C   UNL     1     -46.128 -11.547  13.160  1.00  0.00     0.025 A 
ATOM     13  C   UNL     1     -48.188 -12.845  12.930  1.00  0.00     0.161 A 
ATOM     14  C   UNL     1     -48.314 -12.878  14.327  1.00  0.00     0.157 A 
ATOM     15  C   UNL     1     -47.087 -12.183  12.352  1.00  0.00     0.062 A 
ATOM     16  C   UNL     1     -47.347 -12.265  15.134  1.00  0.00     0.051 A 
ATOM     17  C   UNL     1     -46.259 -11.611  14.555  1.00  0.00     0.016 A 
BRANCH  13  18
ATOM     18  O   UNL     1     -49.171 -13.482  12.156  1.00  0.00    -0.493 OA
ATOM     19  C   UNL     1     -50.232 -12.808  11.488  1.00  0.00     0.278 C 
ENDBRANCH  13  18
BRANCH  14  20
ATOM     20  O   UNL     1     -49.402 -13.528  14.906  1.00  0.00    -0.504 OA
ATOM     21  H   UNL     1     -49.866 -13.157  15.727  1.00  0.00     0.293 HD
ENDBRANCH  14  20
ENDBRANCH   1  12
BRANCH   2  22
ATOM     22  O   UNL     1     -44.890 -12.391  10.675  1.00  0.00    -0.502 OA
ATOM     23  H   UNL     1     -44.345 -13.216  10.454  1.00  0.00     0.293 HD
ENDBRANCH   2  22
BRANCH   6  24
ATOM     24  O   UNL     1     -40.920  -9.099   9.999  1.00  0.00    -0.507 OA
ATOM     25  H   UNL     1     -40.583 -10.042   9.844  1.00  0.00     0.293 HD
ENDBRANCH   6  24
BRANCH   8  26
ATOM     26  O   UNL     1     -41.437  -6.154  13.786  1.00  0.00    -0.508 OA
ATOM     27  H   UNL     1     -40.451  -5.985  13.951  1.00  0.00     0.293 HD
ENDBRANCH   8  26
TORSDOF 6
ENDMDL
MODEL 9
REMARK VINA RESULT:    -6.690      1.972      7.574
REMARK INTER + INTRA:          -8.563
REMARK INTER:                  -8.459
REMARK INTRA:                  -0.104
REMARK UNBOUND:                -0.308
REMARK SMILES COc1cc(-c2oc3cc(O)cc(O)c3c(=O)c2O)ccc1O
REMARK SMILES IDX 6 1 18 2 16 3 17 4 15 5 13 6 12 7 10 8 9 9 8 10 7 11 5 12
REMARK SMILES IDX 3 13 22 14 4 15 21 16 20 17 2 18 1 19 23 20 19 22 14 24
REMARK SMILES IDX 11 26
REMARK H PARENT 23 21 19 23 14 25 11 27
REMARK Flexibility Score: inf
ROOT
ATOM      1  C   UNL     1     -47.372 -12.222  11.962  1.00  0.00     0.180 A 
ATOM      2  C   UNL     1     -46.744 -12.671  10.784  1.00  0.00     0.208 A 
ATOM      3  C   UNL     1     -45.467 -12.183  10.468  1.00  0.00     0.238 A 
ATOM      4  O   UNL     1     -44.890 -12.587   9.420  1.00  0.00    -0.285 OA
ATOM      5  C   UNL     1     -44.849 -11.244  11.318  1.00  0.00     0.111 A 
ATOM      6  C   UNL     1     -43.566 -10.701  11.069  1.00  0.00     0.134 A 
ATOM      7  C   UNL     1     -43.022  -9.763  11.960  1.00  0.00     0.093 A 
ATOM      8  C   UNL     1     -43.735  -9.359  13.091  1.00  0.00     0.123 A 
ATOM      9  C   UNL     1     -45.003  -9.893  13.343  1.00  0.00     0.094 A 
ATOM     10  C   UNL     1     -45.561 -10.830  12.468  1.00  0.00     0.146 A 
ATOM     11  O   UNL     1     -46.764 -11.324  12.733  1.00  0.00    -0.452 OA
ENDROOT
BRANCH   1  12
ATOM     12  C   UNL     1     -48.709 -12.705  12.374  1.00  0.00     0.025 A 
ATOM     13  C   UNL     1     -50.211 -13.694  14.031  1.00  0.00     0.161 A 
ATOM     14  C   UNL     1     -51.280 -13.559  13.133  1.00  0.00     0.157 A 
ATOM     15  C   UNL     1     -48.928 -13.258  13.648  1.00  0.00     0.062 A 
ATOM     16  C   UNL     1     -51.069 -12.987  11.871  1.00  0.00     0.051 A 
ATOM     17  C   UNL     1     -49.795 -12.557  11.498  1.00  0.00     0.016 A 
BRANCH  13  18
ATOM     18  O   UNL     1     -50.466 -14.260  15.290  1.00  0.00    -0.493 OA
ATOM     19  C   UNL     1     -49.558 -14.229  16.386  1.00  0.00     0.278 C 
ENDBRANCH  13  18
BRANCH  14  20
ATOM     20  O   UNL     1     -52.552 -13.991  13.504  1.00  0.00    -0.504 OA
ATOM     21  H   UNL     1     -53.301 -13.336  13.692  1.00  0.00     0.293 HD
ENDBRANCH  14  20
ENDBRANCH   1  12
BRANCH   2  22
ATOM     22  O   UNL     1     -47.399 -13.565   9.932  1.00  0.00    -0.502 OA
ATOM     23  H   UNL     1     -47.591 -13.347   8.961  1.00  0.00     0.293 HD
ENDBRANCH   2  22
BRANCH   6  24
ATOM     24  O   UNL     1     -42.828 -11.084   9.947  1.00  0.00    -0.507 OA
ATOM     25  H   UNL     1     -42.360 -10.404   9.360  1.00  0.00     0.293 HD
ENDBRANCH   6  24
BRANCH   8  26
ATOM     26  O   UNL     1     -43.173  -8.425  13.959  1.00  0.00    -0.508 OA
ATOM     27  H   UNL     1     -43.091  -8.608  14.953  1.00  0.00     0.293 HD
ENDBRANCH   8  26
TORSDOF 6
ENDMDL
