MODEL 1
REMARK VINA RESULT:    -6.102      0.000      0.000
REMARK INTER + INTRA:          -6.102
REMARK INTER:                  -6.102
REMARK INTRA:                   0.000
REMARK UNBOUND:                 0.000
REMARK SMILES CC1=CC[C@@]2(C)CCCC(C)(C)[C@@]23C[C@@H]13
REMARK SMILES IDX 1 1 2 2 3 3 4 4 5 5 7 6 8 7 9 8 10 9 13 10 15 11 14 12 11 13
REMARK SMILES IDX 12 14 6 15
REMARK H PARENT
REMARK Flexibility Score: inf
ROOT
ATOM      1  C   UNL     1     -55.537 -46.302  20.940  1.00  0.00     0.039 C 
ATOM      2  C   UNL     1     -54.439 -46.958  21.728  1.00  0.00    -0.074 C 
ATOM      3  C   UNL     1     -54.109 -46.459  22.939  1.00  0.00    -0.027 C 
ATOM      4  C   UNL     1     -53.024 -47.075  23.786  1.00  0.00     0.034 C 
ATOM      5  C   UNL     1     -51.877 -47.646  22.902  1.00  0.00    -0.022 C 
ATOM      6  C   UNL     1     -50.885 -48.419  23.804  1.00  0.00     0.008 C 
ATOM      7  C   UNL     1     -49.788 -49.153  23.013  1.00  0.00     0.001 C 
ATOM      8  C   UNL     1     -50.365 -50.121  21.967  1.00  0.00     0.007 C 
ATOM      9  C   UNL     1     -51.371 -49.480  20.968  1.00  0.00    -0.029 C 
ATOM     10  C   UNL     1     -52.429 -48.642  21.804  1.00  0.00    -0.012 C 
ATOM     11  C   UNL     1     -53.730 -48.167  21.136  1.00  0.00     0.022 C 
ATOM     12  C   UNL     1     -53.775 -49.373  22.072  1.00  0.00     0.017 C 
ATOM     13  C   UNL     1     -50.633 -48.577  19.948  1.00  0.00     0.012 C 
ATOM     14  C   UNL     1     -51.977 -50.653  20.141  1.00  0.00     0.012 C 
ATOM     15  C   UNL     1     -51.169 -46.414  22.254  1.00  0.00     0.012 C 
ENDROOT
TORSDOF 0
ENDMDL
MODEL 2
REMARK VINA RESULT:    -5.970      9.849     12.775
REMARK INTER + INTRA:          -5.970
REMARK INTER:                  -5.970
REMARK INTRA:                   0.000
REMARK UNBOUND:                 0.000
REMARK SMILES CC1=CC[C@@]2(C)CCCC(C)(C)[C@@]23C[C@@H]13
REMARK SMILES IDX 1 1 2 2 3 3 4 4 5 5 7 6 8 7 9 8 10 9 13 10 15 11 14 12 11 13
REMARK SMILES IDX 12 14 6 15
REMARK H PARENT
REMARK Flexibility Score: inf
ROOT
ATOM      1  C   UNL     1     -38.821 -46.517  29.304  1.00  0.00     0.039 C 
ATOM      2  C   UNL     1     -39.905 -47.161  28.488  1.00  0.00    -0.074 C 
ATOM      3  C   UNL     1     -40.340 -46.545  27.368  1.00  0.00    -0.027 C 
ATOM      4  C   UNL     1     -41.418 -47.140  26.498  1.00  0.00     0.034 C 
ATOM      5  C   UNL     1     -42.466 -47.914  27.352  1.00  0.00    -0.022 C 
ATOM      6  C   UNL     1     -43.441 -48.651  26.403  1.00  0.00     0.008 C 
ATOM      7  C   UNL     1     -44.432 -49.569  27.141  1.00  0.00     0.001 C 
ATOM      8  C   UNL     1     -43.723 -50.606  28.027  1.00  0.00     0.007 C 
ATOM      9  C   UNL     1     -42.717 -50.012  29.053  1.00  0.00    -0.029 C 
ATOM     10  C   UNL     1     -41.776 -48.988  28.286  1.00  0.00    -0.012 C 
ATOM     11  C   UNL     1     -40.482 -48.491  28.951  1.00  0.00     0.022 C 
ATOM     12  C   UNL     1     -40.394 -49.563  27.866  1.00  0.00     0.017 C 
ATOM     13  C   UNL     1     -43.466 -49.309  30.214  1.00  0.00     0.012 C 
ATOM     14  C   UNL     1     -41.975 -51.223  29.694  1.00  0.00     0.012 C 
ATOM     15  C   UNL     1     -43.232 -46.837  28.185  1.00  0.00     0.012 C 
ENDROOT
TORSDOF 0
ENDMDL
MODEL 3
REMARK VINA RESULT:    -5.659     10.060     12.802
REMARK INTER + INTRA:          -5.659
REMARK INTER:                  -5.659
REMARK INTRA:                   0.000
REMARK UNBOUND:                 0.000
REMARK SMILES CC1=CC[C@@]2(C)CCCC(C)(C)[C@@]23C[C@@H]13
REMARK SMILES IDX 1 1 2 2 3 3 4 4 5 5 7 6 8 7 9 8 10 9 13 10 15 11 14 12 11 13
REMARK SMILES IDX 12 14 6 15
REMARK H PARENT
REMARK Flexibility Score: inf
ROOT
ATOM      1  C   UNL     1     -43.272 -48.229  24.980  1.00  0.00     0.039 C 
ATOM      2  C   UNL     1     -42.488 -48.075  26.252  1.00  0.00    -0.074 C 
ATOM      3  C   UNL     1     -41.351 -47.346  26.241  1.00  0.00    -0.027 C 
ATOM      4  C   UNL     1     -40.522 -47.143  27.484  1.00  0.00     0.034 C 
ATOM      5  C   UNL     1     -40.564 -48.402  28.399  1.00  0.00    -0.022 C 
ATOM      6  C   UNL     1     -39.851 -48.077  29.733  1.00  0.00     0.008 C 
ATOM      7  C   UNL     1     -39.963 -49.206  30.774  1.00  0.00     0.001 C 
ATOM      8  C   UNL     1     -41.422 -49.587  31.072  1.00  0.00     0.007 C 
ATOM      9  C   UNL     1     -42.269 -49.961  29.822  1.00  0.00    -0.029 C 
ATOM     10  C   UNL     1     -42.051 -48.835  28.724  1.00  0.00    -0.012 C 
ATOM     11  C   UNL     1     -42.999 -48.749  27.517  1.00  0.00     0.022 C 
ATOM     12  C   UNL     1     -43.170 -47.757  28.666  1.00  0.00     0.017 C 
ATOM     13  C   UNL     1     -41.857 -51.352  29.276  1.00  0.00     0.012 C 
ATOM     14  C   UNL     1     -43.738 -50.113  30.316  1.00  0.00     0.012 C 
ATOM     15  C   UNL     1     -39.795 -49.525  27.634  1.00  0.00     0.012 C 
ENDROOT
TORSDOF 0
ENDMDL
MODEL 4
REMARK VINA RESULT:    -5.469      9.722     12.452
REMARK INTER + INTRA:          -5.469
REMARK INTER:                  -5.469
REMARK INTRA:                   0.000
REMARK UNBOUND:                 0.000
REMARK SMILES CC1=CC[C@@]2(C)CCCC(C)(C)[C@@]23C[C@@H]13
REMARK SMILES IDX 1 1 2 2 3 3 4 4 5 5 7 6 8 7 9 8 10 9 13 10 15 11 14 12 11 13
REMARK SMILES IDX 12 14 6 15
REMARK H PARENT
REMARK Flexibility Score: inf
ROOT
ATOM      1  C   UNL     1     -44.517 -49.052  26.674  1.00  0.00     0.039 C 
ATOM      2  C   UNL     1     -43.933 -49.290  28.037  1.00  0.00    -0.074 C 
ATOM      3  C   UNL     1     -42.596 -49.201  28.205  1.00  0.00    -0.027 C 
ATOM      4  C   UNL     1     -41.945 -49.418  29.548  1.00  0.00     0.034 C 
ATOM      5  C   UNL     1     -42.708 -50.494  30.375  1.00  0.00    -0.022 C 
ATOM      6  C   UNL     1     -42.111 -50.548  31.802  1.00  0.00     0.008 C 
ATOM      7  C   UNL     1     -42.888 -51.476  32.752  1.00  0.00     0.001 C 
ATOM      8  C   UNL     1     -44.376 -51.103  32.851  1.00  0.00     0.007 C 
ATOM      9  C   UNL     1     -45.123 -51.027  31.489  1.00  0.00    -0.029 C 
ATOM     10  C   UNL     1     -44.248 -50.152  30.494  1.00  0.00    -0.012 C 
ATOM     11  C   UNL     1     -44.868 -49.626  29.190  1.00  0.00     0.022 C 
ATOM     12  C   UNL     1     -44.693 -48.669  30.367  1.00  0.00     0.017 C 
ATOM     13  C   UNL     1     -45.361 -52.446  30.913  1.00  0.00     0.012 C 
ATOM     14  C   UNL     1     -46.536 -50.447  31.794  1.00  0.00     0.012 C 
ATOM     15  C   UNL     1     -42.477 -51.854  29.641  1.00  0.00     0.012 C 
ENDROOT
TORSDOF 0
ENDMDL
MODEL 5
REMARK VINA RESULT:    -5.445      8.898     11.920
REMARK INTER + INTRA:          -5.445
REMARK INTER:                  -5.445
REMARK INTRA:                   0.000
REMARK UNBOUND:                 0.000
REMARK SMILES CC1=CC[C@@]2(C)CCCC(C)(C)[C@@]23C[C@@H]13
REMARK SMILES IDX 1 1 2 2 3 3 4 4 5 5 7 6 8 7 9 8 10 9 13 10 15 11 14 12 11 13
REMARK SMILES IDX 12 14 6 15
REMARK H PARENT
REMARK Flexibility Score: inf
ROOT
ATOM      1  C   UNL     1     -41.779 -49.989  30.946  1.00  0.00     0.039 C 
ATOM      2  C   UNL     1     -41.784 -49.494  29.527  1.00  0.00    -0.074 C 
ATOM      3  C   UNL     1     -40.617 -49.418  28.853  1.00  0.00    -0.027 C 
ATOM      4  C   UNL     1     -40.552 -48.940  27.424  1.00  0.00     0.034 C 
ATOM      5  C   UNL     1     -41.619 -47.839  27.150  1.00  0.00    -0.022 C 
ATOM      6  C   UNL     1     -41.630 -47.515  25.637  1.00  0.00     0.008 C 
ATOM      7  C   UNL     1     -42.752 -46.544  25.231  1.00  0.00     0.001 C 
ATOM      8  C   UNL     1     -44.145 -47.051  25.639  1.00  0.00     0.007 C 
ATOM      9  C   UNL     1     -44.296 -47.403  27.146  1.00  0.00    -0.029 C 
ATOM     10  C   UNL     1     -43.069 -48.318  27.565  1.00  0.00    -0.012 C 
ATOM     11  C   UNL     1     -43.108 -49.092  28.893  1.00  0.00     0.022 C 
ATOM     12  C   UNL     1     -43.370 -49.843  27.589  1.00  0.00     0.017 C 
ATOM     13  C   UNL     1     -44.346 -46.117  28.009  1.00  0.00     0.012 C 
ATOM     14  C   UNL     1     -45.693 -48.076  27.302  1.00  0.00     0.012 C 
ATOM     15  C   UNL     1     -41.173 -46.586  27.968  1.00  0.00     0.012 C 
ENDROOT
TORSDOF 0
ENDMDL
MODEL 6
REMARK VINA RESULT:    -5.401      8.409     11.020
REMARK INTER + INTRA:          -5.401
REMARK INTER:                  -5.401
REMARK INTRA:                   0.000
REMARK UNBOUND:                 0.000
REMARK SMILES CC1=CC[C@@]2(C)CCCC(C)(C)[C@@]23C[C@@H]13
REMARK SMILES IDX 1 1 2 2 3 3 4 4 5 5 7 6 8 7 9 8 10 9 13 10 15 11 14 12 11 13
REMARK SMILES IDX 12 14 6 15
REMARK H PARENT
REMARK Flexibility Score: inf
ROOT
ATOM      1  C   UNL     1     -45.743 -46.054  24.857  1.00  0.00     0.039 C 
ATOM      2  C   UNL     1     -44.452 -46.349  25.566  1.00  0.00    -0.074 C 
ATOM      3  C   UNL     1     -43.285 -46.029  24.966  1.00  0.00    -0.027 C 
ATOM      4  C   UNL     1     -41.953 -46.289  25.625  1.00  0.00     0.034 C 
ATOM      5  C   UNL     1     -41.994 -47.588  26.483  1.00  0.00    -0.022 C 
ATOM      6  C   UNL     1     -40.670 -47.709  27.274  1.00  0.00     0.008 C 
ATOM      7  C   UNL     1     -40.661 -48.882  28.270  1.00  0.00     0.001 C 
ATOM      8  C   UNL     1     -41.829 -48.815  29.267  1.00  0.00     0.007 C 
ATOM      9  C   UNL     1     -43.238 -48.709  28.616  1.00  0.00    -0.029 C 
ATOM     10  C   UNL     1     -43.190 -47.564  27.518  1.00  0.00    -0.012 C 
ATOM     11  C   UNL     1     -44.499 -47.002  26.939  1.00  0.00     0.022 C 
ATOM     12  C   UNL     1     -43.742 -46.188  27.987  1.00  0.00     0.017 C 
ATOM     13  C   UNL     1     -43.655 -50.062  27.985  1.00  0.00     0.012 C 
ATOM     14  C   UNL     1     -44.242 -48.453  29.780  1.00  0.00     0.012 C 
ATOM     15  C   UNL     1     -42.132 -48.773  25.475  1.00  0.00     0.012 C 
ENDROOT
TORSDOF 0
ENDMDL
MODEL 7
REMARK VINA RESULT:    -5.348      8.155     11.155
REMARK INTER + INTRA:          -5.348
REMARK INTER:                  -5.348
REMARK INTRA:                   0.000
REMARK UNBOUND:                 0.000
REMARK SMILES CC1=CC[C@@]2(C)CCCC(C)(C)[C@@]23C[C@@H]13
REMARK SMILES IDX 1 1 2 2 3 3 4 4 5 5 7 6 8 7 9 8 10 9 13 10 15 11 14 12 11 13
REMARK SMILES IDX 12 14 6 15
REMARK H PARENT
REMARK Flexibility Score: inf
ROOT
ATOM      1  C   UNL     1     -39.564 -48.845  28.134  1.00  0.00     0.039 C 
ATOM      2  C   UNL     1     -40.786 -48.113  27.658  1.00  0.00    -0.074 C 
ATOM      3  C   UNL     1     -41.013 -46.857  28.097  1.00  0.00    -0.027 C 
ATOM      4  C   UNL     1     -42.215 -46.062  27.651  1.00  0.00     0.034 C 
ATOM      5  C   UNL     1     -43.449 -46.985  27.429  1.00  0.00    -0.022 C 
ATOM      6  C   UNL     1     -44.593 -46.152  26.804  1.00  0.00     0.008 C 
ATOM      7  C   UNL     1     -45.815 -46.999  26.404  1.00  0.00     0.001 C 
ATOM      8  C   UNL     1     -45.448 -48.139  25.440  1.00  0.00     0.007 C 
ATOM      9  C   UNL     1     -44.317 -49.081  25.941  1.00  0.00    -0.029 C 
ATOM     10  C   UNL     1     -43.112 -48.180  26.447  1.00  0.00    -0.012 C 
ATOM     11  C   UNL     1     -41.732 -48.812  26.693  1.00  0.00     0.022 C 
ATOM     12  C   UNL     1     -41.959 -47.997  25.421  1.00  0.00     0.017 C 
ATOM     13  C   UNL     1     -44.831 -50.002  27.076  1.00  0.00     0.012 C 
ATOM     14  C   UNL     1     -43.969 -50.024  24.751  1.00  0.00     0.012 C 
ATOM     15  C   UNL     1     -43.867 -47.504  28.841  1.00  0.00     0.012 C 
ENDROOT
TORSDOF 0
ENDMDL
MODEL 8
REMARK VINA RESULT:    -5.289      1.617      3.902
REMARK INTER + INTRA:          -5.289
REMARK INTER:                  -5.289
REMARK INTRA:                   0.000
REMARK UNBOUND:                 0.000
REMARK SMILES CC1=CC[C@@]2(C)CCCC(C)(C)[C@@]23C[C@@H]13
REMARK SMILES IDX 1 1 2 2 3 3 4 4 5 5 7 6 8 7 9 8 10 9 13 10 15 11 14 12 11 13
REMARK SMILES IDX 12 14 6 15
REMARK H PARENT
REMARK Flexibility Score: inf
ROOT
ATOM      1  C   UNL     1     -48.275 -46.368  25.206  1.00  0.00     0.039 C 
ATOM      2  C   UNL     1     -49.598 -46.583  24.528  1.00  0.00    -0.074 C 
ATOM      3  C   UNL     1     -50.736 -46.317  25.206  1.00  0.00    -0.027 C 
ATOM      4  C   UNL     1     -52.097 -46.501  24.583  1.00  0.00     0.034 C 
ATOM      5  C   UNL     1     -52.105 -47.709  23.600  1.00  0.00    -0.022 C 
ATOM      6  C   UNL     1     -53.463 -47.743  22.858  1.00  0.00     0.008 C 
ATOM      7  C   UNL     1     -53.526 -48.811  21.753  1.00  0.00     0.001 C 
ATOM      8  C   UNL     1     -52.401 -48.653  20.718  1.00  0.00     0.007 C 
ATOM      9  C   UNL     1     -50.964 -48.621  21.314  1.00  0.00    -0.029 C 
ATOM     10  C   UNL     1     -50.954 -47.590  22.521  1.00  0.00    -0.012 C 
ATOM     11  C   UNL     1     -49.617 -47.096  23.096  1.00  0.00     0.022 C 
ATOM     12  C   UNL     1     -50.409 -46.177  22.168  1.00  0.00     0.017 C 
ATOM     13  C   UNL     1     -50.535 -50.032  21.790  1.00  0.00     0.012 C 
ATOM     14  C   UNL     1     -50.008 -48.257  20.139  1.00  0.00     0.012 C 
ATOM     15  C   UNL     1     -51.937 -48.989  24.479  1.00  0.00     0.012 C 
ENDROOT
TORSDOF 0
ENDMDL
MODEL 9
REMARK VINA RESULT:    -5.248      1.763      2.962
REMARK INTER + INTRA:          -5.248
REMARK INTER:                  -5.248
REMARK INTRA:                   0.000
REMARK UNBOUND:                 0.000
REMARK SMILES CC1=CC[C@@]2(C)CCCC(C)(C)[C@@]23C[C@@H]13
REMARK SMILES IDX 1 1 2 2 3 3 4 4 5 5 7 6 8 7 9 8 10 9 13 10 15 11 14 12 11 13
REMARK SMILES IDX 12 14 6 15
REMARK H PARENT
REMARK Flexibility Score: inf
ROOT
ATOM      1  C   UNL     1     -53.850 -48.711  21.097  1.00  0.00     0.039 C 
ATOM      2  C   UNL     1     -53.113 -48.056  22.230  1.00  0.00    -0.074 C 
ATOM      3  C   UNL     1     -53.446 -46.799  22.591  1.00  0.00    -0.027 C 
ATOM      4  C   UNL     1     -52.753 -46.086  23.726  1.00  0.00     0.034 C 
ATOM      5  C   UNL     1     -51.252 -46.491  23.811  1.00  0.00    -0.022 C 
ATOM      6  C   UNL     1     -50.637 -45.875  25.091  1.00  0.00     0.008 C 
ATOM      7  C   UNL     1     -49.192 -46.333  25.353  1.00  0.00     0.001 C 
ATOM      8  C   UNL     1     -49.065 -47.863  25.429  1.00  0.00     0.007 C 
ATOM      9  C   UNL     1     -49.626 -48.628  24.196  1.00  0.00    -0.029 C 
ATOM     10  C   UNL     1     -51.076 -48.061  23.882  1.00  0.00    -0.012 C 
ATOM     11  C   UNL     1     -52.012 -48.832  22.937  1.00  0.00     0.022 C 
ATOM     12  C   UNL     1     -52.246 -48.917  24.444  1.00  0.00     0.017 C 
ATOM     13  C   UNL     1     -48.691 -48.459  22.972  1.00  0.00     0.012 C 
ATOM     14  C   UNL     1     -49.584 -50.142  24.561  1.00  0.00     0.012 C 
ATOM     15  C   UNL     1     -50.566 -45.894  22.541  1.00  0.00     0.012 C 
ENDROOT
TORSDOF 0
ENDMDL
