MODEL 1
REMARK VINA RESULT:    -6.345      0.000      0.000
REMARK INTER + INTRA:         -15.656
REMARK INTER:                 -13.764
REMARK INTRA:                  -1.892
REMARK UNBOUND:                -1.892
REMARK SMILES CCCCCCCCCCCCCCCCCCCCCC(=O)[O-]
REMARK SMILES IDX 12 1 11 2 10 3 9 4 8 5 7 6 6 7 5 8 4 9 3 10 2 11 1 12 13 13
REMARK SMILES IDX 14 14 15 15 16 16 17 17 18 18 19 19 20 20 21 21 22 22 23 23
REMARK SMILES IDX 24 24
REMARK H PARENT
REMARK Flexibility Score: inf
ROOT
ATOM      1  C   UNL     1      10.642  13.899   1.273  1.00  0.00     0.000 C 
ENDROOT
BRANCH   1   2
ATOM      2  C   UNL     1       9.215  14.434   1.496  1.00  0.00     0.000 C 
BRANCH   2   3
ATOM      3  C   UNL     1       8.665  14.266   2.924  1.00  0.00     0.000 C 
BRANCH   3   4
ATOM      4  C   UNL     1       7.166  14.596   3.030  1.00  0.00    -0.000 C 
BRANCH   4   5
ATOM      5  C   UNL     1       6.909  15.984   3.642  1.00  0.00    -0.000 C 
BRANCH   5   6
ATOM      6  C   UNL     1       5.450  16.443   3.474  1.00  0.00    -0.000 C 
BRANCH   6   7
ATOM      7  C   UNL     1       4.510  15.842   4.534  1.00  0.00    -0.000 C 
BRANCH   7   8
ATOM      8  C   UNL     1       3.369  14.954   3.988  1.00  0.00    -0.000 C 
BRANCH   8   9
ATOM      9  C   UNL     1       3.306  14.829   2.452  1.00  0.00    -0.000 C 
BRANCH   9  10
ATOM     10  C   UNL     1       3.712  13.436   1.919  1.00  0.00    -0.000 C 
BRANCH  10  11
ATOM     11  C   UNL     1       4.739  13.490   0.775  1.00  0.00    -0.003 C 
ATOM     12  C   UNL     1       4.919  14.895   0.204  1.00  0.00     0.004 C 
ENDBRANCH  10  11
ENDBRANCH   9  10
ENDBRANCH   8   9
ENDBRANCH   7   8
ENDBRANCH   6   7
ENDBRANCH   5   6
ENDBRANCH   4   5
ENDBRANCH   3   4
ENDBRANCH   2   3
ENDBRANCH   1   2
BRANCH   1  13
ATOM     13  C   UNL     1      11.661  15.013   0.980  1.00  0.00     0.000 C 
BRANCH  13  14
ATOM     14  C   UNL     1      11.001  16.380   0.721  1.00  0.00     0.000 C 
BRANCH  14  15
ATOM     15  C   UNL     1      11.589  17.559   1.522  1.00  0.00     0.000 C 
BRANCH  15  16
ATOM     16  C   UNL     1      10.752  18.012   2.735  1.00  0.00     0.000 C 
BRANCH  16  17
ATOM     17  C   UNL     1      11.372  19.156   3.558  1.00  0.00     0.000 C 
BRANCH  17  18
ATOM     18  C   UNL     1      12.907  19.162   3.507  1.00  0.00     0.000 C 
BRANCH  18  19
ATOM     19  C   UNL     1      13.484  20.210   4.470  1.00  0.00     0.000 C 
BRANCH  19  20
ATOM     20  C   UNL     1      12.768  20.227   5.833  1.00  0.00     0.006 C 
BRANCH  20  21
ATOM     21  C   UNL     1      13.712  20.260   7.046  1.00  0.00     0.053 C 
BRANCH  21  22
ATOM     22  C   UNL     1      13.077  20.910   8.236  1.00  0.00     0.041 C 
ATOM     23  O   UNL     1      13.214  20.404   9.382  1.00  0.00    -0.550 OA
ATOM     24  O   UNL     1      12.300  22.050   8.076  1.00  0.00    -0.550 OA
ENDBRANCH  21  22
ENDBRANCH  20  21
ENDBRANCH  19  20
ENDBRANCH  18  19
ENDBRANCH  17  18
ENDBRANCH  16  17
ENDBRANCH  15  16
ENDBRANCH  14  15
ENDBRANCH  13  14
ENDBRANCH   1  13
TORSDOF 20
ENDMDL
MODEL 2
REMARK VINA RESULT:    -6.339      0.921      2.437
REMARK INTER + INTRA:         -15.643
REMARK INTER:                 -13.821
REMARK INTRA:                  -1.822
REMARK UNBOUND:                -1.892
REMARK SMILES CCCCCCCCCCCCCCCCCCCCCC(=O)[O-]
REMARK SMILES IDX 12 1 11 2 10 3 9 4 8 5 7 6 6 7 5 8 4 9 3 10 2 11 1 12 13 13
REMARK SMILES IDX 14 14 15 15 16 16 17 17 18 18 19 19 20 20 21 21 22 22 23 23
REMARK SMILES IDX 24 24
REMARK H PARENT
REMARK Flexibility Score: inf
ROOT
ATOM      1  C   UNL     1       9.669  14.334   0.285  1.00  0.00     0.000 C 
ENDROOT
BRANCH   1   2
ATOM      2  C   UNL     1       9.051  14.182   1.687  1.00  0.00     0.000 C 
BRANCH   2   3
ATOM      3  C   UNL     1       7.516  14.063   1.719  1.00  0.00     0.000 C 
BRANCH   3   4
ATOM      4  C   UNL     1       6.827  14.918   0.640  1.00  0.00    -0.000 C 
BRANCH   4   5
ATOM      5  C   UNL     1       5.372  14.488   0.387  1.00  0.00    -0.000 C 
BRANCH   5   6
ATOM      6  C   UNL     1       5.072  13.075   0.918  1.00  0.00    -0.000 C 
BRANCH   6   7
ATOM      7  C   UNL     1       4.055  13.076   2.074  1.00  0.00    -0.000 C 
BRANCH   7   8
ATOM      8  C   UNL     1       2.931  14.131   1.974  1.00  0.00    -0.000 C 
BRANCH   8   9
ATOM      9  C   UNL     1       2.804  15.079   3.183  1.00  0.00    -0.000 C 
BRANCH   9  10
ATOM     10  C   UNL     1       3.841  14.815   4.299  1.00  0.00    -0.000 C 
BRANCH  10  11
ATOM     11  C   UNL     1       4.628  16.068   4.717  1.00  0.00    -0.003 C 
ATOM     12  C   UNL     1       6.014  16.140   4.078  1.00  0.00     0.004 C 
ENDBRANCH  10  11
ENDBRANCH   9  10
ENDBRANCH   8   9
ENDBRANCH   7   8
ENDBRANCH   6   7
ENDBRANCH   5   6
ENDBRANCH   4   5
ENDBRANCH   3   4
ENDBRANCH   2   3
ENDBRANCH   1   2
BRANCH   1  13
ATOM     13  C   UNL     1      11.203  14.220   0.290  1.00  0.00     0.000 C 
BRANCH  13  14
ATOM     14  C   UNL     1      11.892  15.406   0.989  1.00  0.00     0.000 C 
BRANCH  14  15
ATOM     15  C   UNL     1      11.294  16.793   0.676  1.00  0.00     0.000 C 
BRANCH  15  16
ATOM     16  C   UNL     1      11.629  17.899   1.696  1.00  0.00     0.000 C 
BRANCH  16  17
ATOM     17  C   UNL     1      10.629  18.030   2.860  1.00  0.00     0.000 C 
BRANCH  17  18
ATOM     18  C   UNL     1      11.218  18.769   4.070  1.00  0.00     0.000 C 
BRANCH  18  19
ATOM     19  C   UNL     1      12.519  19.492   3.692  1.00  0.00     0.000 C 
BRANCH  19  20
ATOM     20  C   UNL     1      13.329  19.947   4.920  1.00  0.00     0.006 C 
BRANCH  20  21
ATOM     21  C   UNL     1      12.502  20.094   6.207  1.00  0.00     0.053 C 
BRANCH  21  22
ATOM     22  C   UNL     1      13.279  20.756   7.303  1.00  0.00     0.041 C 
ATOM     23  O   UNL     1      12.835  21.799   7.853  1.00  0.00    -0.550 OA
ATOM     24  O   UNL     1      14.511  20.246   7.689  1.00  0.00    -0.550 OA
ENDBRANCH  21  22
ENDBRANCH  20  21
ENDBRANCH  19  20
ENDBRANCH  18  19
ENDBRANCH  17  18
ENDBRANCH  16  17
ENDBRANCH  15  16
ENDBRANCH  14  15
ENDBRANCH  13  14
ENDBRANCH   1  13
TORSDOF 20
ENDMDL
MODEL 3
REMARK VINA RESULT:    -6.318      4.957      9.940
REMARK INTER + INTRA:         -15.598
REMARK INTER:                 -13.482
REMARK INTRA:                  -2.115
REMARK UNBOUND:                -1.892
REMARK SMILES CCCCCCCCCCCCCCCCCCCCCC(=O)[O-]
REMARK SMILES IDX 12 1 11 2 10 3 9 4 8 5 7 6 6 7 5 8 4 9 3 10 2 11 1 12 13 13
REMARK SMILES IDX 14 14 15 15 16 16 17 17 18 18 19 19 20 20 21 21 22 22 23 23
REMARK SMILES IDX 24 24
REMARK H PARENT
REMARK Flexibility Score: inf
ROOT
ATOM      1  C   UNL     1       8.264  14.612   2.909  1.00  0.00     0.000 C 
ENDROOT
BRANCH   1   2
ATOM      2  C   UNL     1       8.219  14.773   1.379  1.00  0.00     0.000 C 
BRANCH   2   3
ATOM      3  C   UNL     1       8.856  13.623   0.578  1.00  0.00     0.000 C 
BRANCH   3   4
ATOM      4  C   UNL     1      10.170  14.030  -0.113  1.00  0.00    -0.000 C 
BRANCH   4   5
ATOM      5  C   UNL     1      11.389  13.909   0.818  1.00  0.00    -0.000 C 
BRANCH   5   6
ATOM      6  C   UNL     1      12.155  15.235   0.965  1.00  0.00    -0.000 C 
BRANCH   6   7
ATOM      7  C   UNL     1      11.260  16.469   0.746  1.00  0.00    -0.000 C 
BRANCH   7   8
ATOM      8  C   UNL     1      11.486  17.640   1.727  1.00  0.00    -0.000 C 
BRANCH   8   9
ATOM      9  C   UNL     1      10.416  17.798   2.826  1.00  0.00    -0.000 C 
BRANCH   9  10
ATOM     10  C   UNL     1      10.836  18.737   3.980  1.00  0.00    -0.000 C 
BRANCH  10  11
ATOM     11  C   UNL     1      12.166  19.467   3.728  1.00  0.00    -0.003 C 
ATOM     12  C   UNL     1      13.069  19.500   4.960  1.00  0.00     0.004 C 
ENDBRANCH  10  11
ENDBRANCH   9  10
ENDBRANCH   8   9
ENDBRANCH   7   8
ENDBRANCH   6   7
ENDBRANCH   5   6
ENDBRANCH   4   5
ENDBRANCH   3   4
ENDBRANCH   2   3
ENDBRANCH   1   2
BRANCH   1  13
ATOM     13  C   UNL     1       7.538  15.746   3.653  1.00  0.00     0.000 C 
BRANCH  13  14
ATOM     14  C   UNL     1       6.050  15.442   3.909  1.00  0.00     0.000 C 
BRANCH  14  15
ATOM     15  C   UNL     1       5.055  16.295   3.095  1.00  0.00     0.000 C 
BRANCH  15  16
ATOM     16  C   UNL     1       4.490  15.617   1.831  1.00  0.00     0.000 C 
BRANCH  16  17
ATOM     17  C   UNL     1       4.794  14.113   1.712  1.00  0.00     0.000 C 
BRANCH  17  18
ATOM     18  C   UNL     1       3.528  13.262   1.535  1.00  0.00     0.000 C 
BRANCH  18  19
ATOM     19  C   UNL     1       2.346  14.126   1.074  1.00  0.00     0.000 C 
BRANCH  19  20
ATOM     20  C   UNL     1       1.015  13.720   1.732  1.00  0.00     0.006 C 
BRANCH  20  21
ATOM     21  C   UNL     1       0.590  14.613   2.909  1.00  0.00     0.053 C 
BRANCH  21  22
ATOM     22  C   UNL     1      -0.764  14.246   3.434  1.00  0.00     0.041 C 
ATOM     23  O   UNL     1      -1.727  14.079   2.639  1.00  0.00    -0.550 OA
ATOM     24  O   UNL     1      -0.973  14.129   4.802  1.00  0.00    -0.550 OA
ENDBRANCH  21  22
ENDBRANCH  20  21
ENDBRANCH  19  20
ENDBRANCH  18  19
ENDBRANCH  17  18
ENDBRANCH  16  17
ENDBRANCH  15  16
ENDBRANCH  14  15
ENDBRANCH  13  14
ENDBRANCH   1  13
TORSDOF 20
ENDMDL
MODEL 4
REMARK VINA RESULT:    -6.251      0.811      2.203
REMARK INTER + INTRA:         -15.452
REMARK INTER:                 -13.836
REMARK INTRA:                  -1.616
REMARK UNBOUND:                -1.892
REMARK SMILES CCCCCCCCCCCCCCCCCCCCCC(=O)[O-]
REMARK SMILES IDX 12 1 11 2 10 3 9 4 8 5 7 6 6 7 5 8 4 9 3 10 2 11 1 12 13 13
REMARK SMILES IDX 14 14 15 15 16 16 17 17 18 18 19 19 20 20 21 21 22 22 23 23
REMARK SMILES IDX 24 24
REMARK H PARENT
REMARK Flexibility Score: inf
ROOT
ATOM      1  C   UNL     1      11.259  14.228   1.025  1.00  0.00     0.000 C 
ENDROOT
BRANCH   1   2
ATOM      2  C   UNL     1       9.758  14.558   0.932  1.00  0.00     0.000 C 
BRANCH   2   3
ATOM      3  C   UNL     1       8.969  14.410   2.246  1.00  0.00     0.000 C 
BRANCH   3   4
ATOM      4  C   UNL     1       7.447  14.528   2.047  1.00  0.00    -0.000 C 
BRANCH   4   5
ATOM      5  C   UNL     1       6.972  13.890   0.731  1.00  0.00    -0.000 C 
BRANCH   5   6
ATOM      6  C   UNL     1       5.445  13.955   0.560  1.00  0.00    -0.000 C 
BRANCH   6   7
ATOM      7  C   UNL     1       4.704  12.907   1.411  1.00  0.00    -0.000 C 
BRANCH   7   8
ATOM      8  C   UNL     1       3.402  13.394   2.085  1.00  0.00    -0.000 C 
BRANCH   8   9
ATOM      9  C   UNL     1       3.319  14.912   2.343  1.00  0.00    -0.000 C 
BRANCH   9  10
ATOM     10  C   UNL     1       2.784  15.282   3.745  1.00  0.00    -0.000 C 
BRANCH  10  11
ATOM     11  C   UNL     1       3.854  15.220   4.848  1.00  0.00    -0.003 C 
ATOM     12  C   UNL     1       5.174  15.869   4.433  1.00  0.00     0.004 C 
ENDBRANCH  10  11
ENDBRANCH   9  10
ENDBRANCH   8   9
ENDBRANCH   7   8
ENDBRANCH   6   7
ENDBRANCH   5   6
ENDBRANCH   4   5
ENDBRANCH   3   4
ENDBRANCH   2   3
ENDBRANCH   1   2
BRANCH   1  13
ATOM     13  C   UNL     1      12.156  15.469   0.877  1.00  0.00     0.000 C 
BRANCH  13  14
ATOM     14  C   UNL     1      11.356  16.768   0.673  1.00  0.00     0.000 C 
BRANCH  14  15
ATOM     15  C   UNL     1      11.660  17.895   1.681  1.00  0.00     0.000 C 
BRANCH  15  16
ATOM     16  C   UNL     1      10.666  18.014   2.853  1.00  0.00     0.000 C 
BRANCH  16  17
ATOM     17  C   UNL     1      11.082  19.004   3.956  1.00  0.00     0.000 C 
BRANCH  17  18
ATOM     18  C   UNL     1      12.507  19.544   3.766  1.00  0.00     0.000 C 
BRANCH  18  19
ATOM     19  C   UNL     1      13.298  19.481   5.080  1.00  0.00     0.000 C 
BRANCH  19  20
ATOM     20  C   UNL     1      12.540  20.109   6.265  1.00  0.00     0.006 C 
BRANCH  20  21
ATOM     21  C   UNL     1      13.410  20.978   7.187  1.00  0.00     0.053 C 
BRANCH  21  22
ATOM     22  C   UNL     1      12.698  21.345   8.452  1.00  0.00     0.041 C 
ATOM     23  O   UNL     1      11.960  22.366   8.490  1.00  0.00    -0.550 OA
ATOM     24  O   UNL     1      12.879  20.584   9.600  1.00  0.00    -0.550 OA
ENDBRANCH  21  22
ENDBRANCH  20  21
ENDBRANCH  19  20
ENDBRANCH  18  19
ENDBRANCH  17  18
ENDBRANCH  16  17
ENDBRANCH  15  16
ENDBRANCH  14  15
ENDBRANCH  13  14
ENDBRANCH   1  13
TORSDOF 20
ENDMDL
MODEL 5
REMARK VINA RESULT:    -6.220      2.192      4.443
REMARK INTER + INTRA:         -15.385
REMARK INTER:                 -13.193
REMARK INTRA:                  -2.192
REMARK UNBOUND:                -1.892
REMARK SMILES CCCCCCCCCCCCCCCCCCCCCC(=O)[O-]
REMARK SMILES IDX 12 1 11 2 10 3 9 4 8 5 7 6 6 7 5 8 4 9 3 10 2 11 1 12 13 13
REMARK SMILES IDX 14 14 15 15 16 16 17 17 18 18 19 19 20 20 21 21 22 22 23 23
REMARK SMILES IDX 24 24
REMARK H PARENT
REMARK Flexibility Score: inf
ROOT
ATOM      1  C   UNL     1       6.909  16.207   3.929  1.00  0.00     0.000 C 
ENDROOT
BRANCH   1   2
ATOM      2  C   UNL     1       5.375  16.269   3.802  1.00  0.00     0.000 C 
BRANCH   2   3
ATOM      3  C   UNL     1       4.595  15.922   5.083  1.00  0.00     0.000 C 
BRANCH   3   4
ATOM      4  C   UNL     1       3.297  15.146   4.802  1.00  0.00    -0.000 C 
BRANCH   4   5
ATOM      5  C   UNL     1       2.684  15.495   3.435  1.00  0.00    -0.000 C 
BRANCH   5   6
ATOM      6  C   UNL     1       1.355  14.765   3.178  1.00  0.00    -0.000 C 
BRANCH   6   7
ATOM      7  C   UNL     1       1.348  13.987   1.849  1.00  0.00    -0.000 C 
BRANCH   7   8
ATOM      8  C   UNL     1       2.718  13.853   1.147  1.00  0.00    -0.000 C 
BRANCH   8   9
ATOM      9  C   UNL     1       3.721  12.901   1.830  1.00  0.00    -0.000 C 
BRANCH   9  10
ATOM     10  C   UNL     1       5.199  13.323   1.664  1.00  0.00    -0.000 C 
BRANCH  10  11
ATOM     11  C   UNL     1       5.535  13.849   0.259  1.00  0.00    -0.003 C 
ATOM     12  C   UNL     1       5.716  15.366   0.220  1.00  0.00     0.004 C 
ENDBRANCH  10  11
ENDBRANCH   9  10
ENDBRANCH   8   9
ENDBRANCH   7   8
ENDBRANCH   6   7
ENDBRANCH   5   6
ENDBRANCH   4   5
ENDBRANCH   3   4
ENDBRANCH   2   3
ENDBRANCH   1   2
BRANCH   1  13
ATOM     13  C   UNL     1       7.499  14.879   3.425  1.00  0.00     0.000 C 
BRANCH  13  14
ATOM     14  C   UNL     1       8.708  15.073   2.492  1.00  0.00     0.000 C 
BRANCH  14  15
ATOM     15  C   UNL     1       9.115  13.831   1.673  1.00  0.00     0.000 C 
BRANCH  15  16
ATOM     16  C   UNL     1      10.624  13.698   1.388  1.00  0.00     0.000 C 
BRANCH  16  17
ATOM     17  C   UNL     1      11.081  14.276   0.036  1.00  0.00     0.000 C 
BRANCH  17  18
ATOM     18  C   UNL     1      12.040  15.465   0.190  1.00  0.00     0.000 C 
BRANCH  18  19
ATOM     19  C   UNL     1      11.275  16.739   0.577  1.00  0.00     0.000 C 
BRANCH  19  20
ATOM     20  C   UNL     1      11.927  17.496   1.749  1.00  0.00     0.006 C 
BRANCH  20  21
ATOM     21  C   UNL     1      10.964  18.399   2.536  1.00  0.00     0.053 C 
BRANCH  21  22
ATOM     22  C   UNL     1      11.592  18.942   3.782  1.00  0.00     0.041 C 
ATOM     23  O   UNL     1      12.668  19.594   3.717  1.00  0.00    -0.550 OA
ATOM     24  O   UNL     1      11.013  18.693   5.020  1.00  0.00    -0.550 OA
ENDBRANCH  21  22
ENDBRANCH  20  21
ENDBRANCH  19  20
ENDBRANCH  18  19
ENDBRANCH  17  18
ENDBRANCH  16  17
ENDBRANCH  15  16
ENDBRANCH  14  15
ENDBRANCH  13  14
ENDBRANCH   1  13
TORSDOF 20
ENDMDL
MODEL 6
REMARK VINA RESULT:    -6.201      1.450      2.619
REMARK INTER + INTRA:         -15.342
REMARK INTER:                 -12.955
REMARK INTRA:                  -2.387
REMARK UNBOUND:                -1.892
REMARK SMILES CCCCCCCCCCCCCCCCCCCCCC(=O)[O-]
REMARK SMILES IDX 12 1 11 2 10 3 9 4 8 5 7 6 6 7 5 8 4 9 3 10 2 11 1 12 13 13
REMARK SMILES IDX 14 14 15 15 16 16 17 17 18 18 19 19 20 20 21 21 22 22 23 23
REMARK SMILES IDX 24 24
REMARK H PARENT
REMARK Flexibility Score: inf
ROOT
ATOM      1  C   UNL     1       8.167  14.294   0.603  1.00  0.00     0.000 C 
ENDROOT
BRANCH   1   2
ATOM      2  C   UNL     1       8.172  14.129   2.134  1.00  0.00     0.000 C 
BRANCH   2   3
ATOM      3  C   UNL     1       8.634  15.365   2.927  1.00  0.00     0.000 C 
BRANCH   3   4
ATOM      4  C   UNL     1       7.499  16.011   3.742  1.00  0.00    -0.000 C 
BRANCH   4   5
ATOM      5  C   UNL     1       6.194  15.200   3.683  1.00  0.00    -0.000 C 
BRANCH   5   6
ATOM      6  C   UNL     1       4.943  16.095   3.643  1.00  0.00    -0.000 C 
BRANCH   6   7
ATOM      7  C   UNL     1       3.778  15.529   4.476  1.00  0.00    -0.000 C 
BRANCH   7   8
ATOM      8  C   UNL     1       2.560  15.029   3.668  1.00  0.00    -0.000 C 
BRANCH   8   9
ATOM      9  C   UNL     1       2.845  14.677   2.193  1.00  0.00    -0.000 C 
BRANCH   9  10
ATOM     10  C   UNL     1       3.612  13.348   2.003  1.00  0.00    -0.000 C 
BRANCH  10  11
ATOM     11  C   UNL     1       4.647  13.392   0.866  1.00  0.00    -0.003 C 
ATOM     12  C   UNL     1       4.774  14.777   0.231  1.00  0.00     0.004 C 
ENDBRANCH  10  11
ENDBRANCH   9  10
ENDBRANCH   8   9
ENDBRANCH   7   8
ENDBRANCH   6   7
ENDBRANCH   5   6
ENDBRANCH   4   5
ENDBRANCH   3   4
ENDBRANCH   2   3
ENDBRANCH   1   2
BRANCH   1  13
ATOM     13  C   UNL     1       9.149  13.346  -0.106  1.00  0.00     0.000 C 
BRANCH  13  14
ATOM     14  C   UNL     1      10.463  14.038  -0.515  1.00  0.00     0.000 C 
BRANCH  14  15
ATOM     15  C   UNL     1      11.609  13.937   0.512  1.00  0.00     0.000 C 
BRANCH  15  16
ATOM     16  C   UNL     1      12.066  15.277   1.121  1.00  0.00     0.000 C 
BRANCH  16  17
ATOM     17  C   UNL     1      11.333  16.518   0.578  1.00  0.00     0.000 C 
BRANCH  17  18
ATOM     18  C   UNL     1      11.724  17.809   1.311  1.00  0.00     0.000 C 
BRANCH  18  19
ATOM     19  C   UNL     1      10.849  18.020   2.555  1.00  0.00     0.000 C 
BRANCH  19  20
ATOM     20  C   UNL     1      11.375  19.139   3.474  1.00  0.00     0.006 C 
BRANCH  20  21
ATOM     21  C   UNL     1      12.900  19.136   3.668  1.00  0.00     0.053 C 
BRANCH  21  22
ATOM     22  C   UNL     1      13.289  19.496   5.069  1.00  0.00     0.041 C 
ATOM     23  O   UNL     1      12.420  19.912   5.881  1.00  0.00    -0.550 OA
ATOM     24  O   UNL     1      14.617  19.413   5.466  1.00  0.00    -0.550 OA
ENDBRANCH  21  22
ENDBRANCH  20  21
ENDBRANCH  19  20
ENDBRANCH  18  19
ENDBRANCH  17  18
ENDBRANCH  16  17
ENDBRANCH  15  16
ENDBRANCH  14  15
ENDBRANCH  13  14
ENDBRANCH   1  13
TORSDOF 20
ENDMDL
MODEL 7
REMARK VINA RESULT:    -6.101      3.443      9.058
REMARK INTER + INTRA:         -15.127
REMARK INTER:                 -13.243
REMARK INTRA:                  -1.884
REMARK UNBOUND:                -1.892
REMARK SMILES CCCCCCCCCCCCCCCCCCCCCC(=O)[O-]
REMARK SMILES IDX 12 1 11 2 10 3 9 4 8 5 7 6 6 7 5 8 4 9 3 10 2 11 1 12 13 13
REMARK SMILES IDX 14 14 15 15 16 16 17 17 18 18 19 19 20 20 21 21 22 22 23 23
REMARK SMILES IDX 24 24
REMARK H PARENT
REMARK Flexibility Score: inf
ROOT
ATOM      1  C   UNL     1       8.303  15.343   3.198  1.00  0.00     0.000 C 
ENDROOT
BRANCH   1   2
ATOM      2  C   UNL     1       9.125  14.141   2.696  1.00  0.00     0.000 C 
BRANCH   2   3
ATOM      3  C   UNL     1       9.677  14.274   1.265  1.00  0.00     0.000 C 
BRANCH   3   4
ATOM      4  C   UNL     1      11.158  13.871   1.155  1.00  0.00    -0.000 C 
BRANCH   4   5
ATOM      5  C   UNL     1      12.051  15.029   0.678  1.00  0.00    -0.000 C 
BRANCH   5   6
ATOM      6  C   UNL     1      11.263  16.332   0.460  1.00  0.00    -0.000 C 
BRANCH   6   7
ATOM      7  C   UNL     1      11.749  17.482   1.361  1.00  0.00    -0.000 C 
BRANCH   7   8
ATOM      8  C   UNL     1      10.862  17.791   2.587  1.00  0.00    -0.000 C 
BRANCH   8   9
ATOM      9  C   UNL     1      11.163  19.123   3.303  1.00  0.00    -0.000 C 
BRANCH   9  10
ATOM     10  C   UNL     1      11.516  18.966   4.800  1.00  0.00    -0.000 C 
BRANCH  10  11
ATOM     11  C   UNL     1      12.928  19.460   5.154  1.00  0.00    -0.003 C 
ATOM     12  C   UNL     1      13.754  19.833   3.924  1.00  0.00     0.004 C 
ENDBRANCH  10  11
ENDBRANCH   9  10
ENDBRANCH   8   9
ENDBRANCH   7   8
ENDBRANCH   6   7
ENDBRANCH   5   6
ENDBRANCH   4   5
ENDBRANCH   3   4
ENDBRANCH   2   3
ENDBRANCH   1   2
BRANCH   1  13
ATOM     13  C   UNL     1       6.788  15.078   3.193  1.00  0.00     0.000 C 
BRANCH  13  14
ATOM     14  C   UNL     1       6.219  14.868   1.777  1.00  0.00     0.000 C 
BRANCH  14  15
ATOM     15  C   UNL     1       5.919  13.404   1.398  1.00  0.00     0.000 C 
BRANCH  15  16
ATOM     16  C   UNL     1       4.426  13.065   1.216  1.00  0.00     0.000 C 
BRANCH  16  17
ATOM     17  C   UNL     1       3.614  14.115   0.437  1.00  0.00     0.000 C 
BRANCH  17  18
ATOM     18  C   UNL     1       2.110  14.051   0.740  1.00  0.00     0.000 C 
BRANCH  18  19
ATOM     19  C   UNL     1       1.863  13.702   2.215  1.00  0.00     0.000 C 
BRANCH  19  20
ATOM     20  C   UNL     1       1.747  14.948   3.113  1.00  0.00     0.006 C 
BRANCH  20  21
ATOM     21  C   UNL     1       3.095  15.534   3.562  1.00  0.00     0.053 C 
BRANCH  21  22
ATOM     22  C   UNL     1       3.259  15.492   5.050  1.00  0.00     0.041 C 
ATOM     23  O   UNL     1       2.497  14.775   5.751  1.00  0.00    -0.550 OA
ATOM     24  O   UNL     1       4.226  16.276   5.666  1.00  0.00    -0.550 OA
ENDBRANCH  21  22
ENDBRANCH  20  21
ENDBRANCH  19  20
ENDBRANCH  18  19
ENDBRANCH  17  18
ENDBRANCH  16  17
ENDBRANCH  15  16
ENDBRANCH  14  15
ENDBRANCH  13  14
ENDBRANCH   1  13
TORSDOF 20
ENDMDL
MODEL 8
REMARK VINA RESULT:    -6.004      4.202      9.488
REMARK INTER + INTRA:         -14.915
REMARK INTER:                 -13.489
REMARK INTRA:                  -1.426
REMARK UNBOUND:                -1.892
REMARK SMILES CCCCCCCCCCCCCCCCCCCCCC(=O)[O-]
REMARK SMILES IDX 12 1 11 2 10 3 9 4 8 5 7 6 6 7 5 8 4 9 3 10 2 11 1 12 13 13
REMARK SMILES IDX 14 14 15 15 16 16 17 17 18 18 19 19 20 20 21 21 22 22 23 23
REMARK SMILES IDX 24 24
REMARK H PARENT
REMARK Flexibility Score: inf
ROOT
ATOM      1  C   UNL     1      11.414  13.888   0.641  1.00  0.00     0.000 C 
ENDROOT
BRANCH   1   2
ATOM      2  C   UNL     1      12.070  15.236   0.992  1.00  0.00     0.000 C 
BRANCH   2   3
ATOM      3  C   UNL     1      11.210  16.480   0.707  1.00  0.00     0.000 C 
BRANCH   3   4
ATOM      4  C   UNL     1      11.714  17.737   1.438  1.00  0.00    -0.000 C 
BRANCH   4   5
ATOM      5  C   UNL     1      10.911  18.039   2.715  1.00  0.00    -0.000 C 
BRANCH   5   6
ATOM      6  C   UNL     1      11.501  19.210   3.520  1.00  0.00    -0.000 C 
BRANCH   6   7
ATOM      7  C   UNL     1      13.039  19.170   3.592  1.00  0.00    -0.000 C 
BRANCH   7   8
ATOM      8  C   UNL     1      13.654  19.567   4.953  1.00  0.00    -0.000 C 
BRANCH   8   9
ATOM      9  C   UNL     1      12.645  20.025   6.026  1.00  0.00    -0.000 C 
BRANCH   9  10
ATOM     10  C   UNL     1      13.209  21.077   7.008  1.00  0.00    -0.000 C 
BRANCH  10  11
ATOM     11  C   UNL     1      12.926  20.755   8.485  1.00  0.00    -0.003 C 
ATOM     12  C   UNL     1      12.060  21.811   9.169  1.00  0.00     0.004 C 
ENDBRANCH  10  11
ENDBRANCH   9  10
ENDBRANCH   8   9
ENDBRANCH   7   8
ENDBRANCH   6   7
ENDBRANCH   5   6
ENDBRANCH   4   5
ENDBRANCH   3   4
ENDBRANCH   2   3
ENDBRANCH   1   2
BRANCH   1  13
ATOM     13  C   UNL     1      10.177  13.581   1.503  1.00  0.00     0.000 C 
BRANCH  13  14
ATOM     14  C   UNL     1       8.853  13.743   0.734  1.00  0.00     0.000 C 
BRANCH  14  15
ATOM     15  C   UNL     1       7.643  14.172   1.589  1.00  0.00     0.000 C 
BRANCH  15  16
ATOM     16  C   UNL     1       7.975  15.087   2.785  1.00  0.00     0.000 C 
BRANCH  16  17
ATOM     17  C   UNL     1       6.773  15.446   3.678  1.00  0.00     0.000 C 
BRANCH  17  18
ATOM     18  C   UNL     1       5.641  16.134   2.903  1.00  0.00     0.000 C 
BRANCH  18  19
ATOM     19  C   UNL     1       4.268  15.648   3.390  1.00  0.00     0.000 C 
BRANCH  19  20
ATOM     20  C   UNL     1       4.124  14.116   3.339  1.00  0.00     0.006 C 
BRANCH  20  21
ATOM     21  C   UNL     1       4.118  13.525   1.920  1.00  0.00     0.053 C 
BRANCH  21  22
ATOM     22  C   UNL     1       3.168  14.247   1.014  1.00  0.00     0.041 C 
ATOM     23  O   UNL     1       1.970  13.868   0.921  1.00  0.00    -0.550 OA
ATOM     24  O   UNL     1       3.615  15.311   0.242  1.00  0.00    -0.550 OA
ENDBRANCH  21  22
ENDBRANCH  20  21
ENDBRANCH  19  20
ENDBRANCH  18  19
ENDBRANCH  17  18
ENDBRANCH  16  17
ENDBRANCH  15  16
ENDBRANCH  14  15
ENDBRANCH  13  14
ENDBRANCH   1  13
TORSDOF 20
ENDMDL
MODEL 9
REMARK VINA RESULT:    -5.987      1.746      3.021
REMARK INTER + INTRA:         -14.878
REMARK INTER:                 -12.905
REMARK INTRA:                  -1.973
REMARK UNBOUND:                -1.892
REMARK SMILES CCCCCCCCCCCCCCCCCCCCCC(=O)[O-]
REMARK SMILES IDX 12 1 11 2 10 3 9 4 8 5 7 6 6 7 5 8 4 9 3 10 2 11 1 12 13 13
REMARK SMILES IDX 14 14 15 15 16 16 17 17 18 18 19 19 20 20 21 21 22 22 23 23
REMARK SMILES IDX 24 24
REMARK H PARENT
REMARK Flexibility Score: inf
ROOT
ATOM      1  C   UNL     1       8.651  14.829   3.275  1.00  0.00     0.000 C 
ENDROOT
BRANCH   1   2
ATOM      2  C   UNL     1       7.132  14.965   3.058  1.00  0.00     0.000 C 
BRANCH   2   3
ATOM      3  C   UNL     1       6.441  16.045   3.909  1.00  0.00     0.000 C 
BRANCH   3   4
ATOM      4  C   UNL     1       4.925  16.128   3.655  1.00  0.00    -0.000 C 
BRANCH   4   5
ATOM      5  C   UNL     1       4.108  16.130   4.958  1.00  0.00    -0.000 C 
BRANCH   5   6
ATOM      6  C   UNL     1       2.882  15.202   4.889  1.00  0.00    -0.000 C 
BRANCH   6   7
ATOM      7  C   UNL     1       2.041  15.418   3.617  1.00  0.00    -0.000 C 
BRANCH   7   8
ATOM      8  C   UNL     1       1.427  14.142   2.998  1.00  0.00    -0.000 C 
BRANCH   8   9
ATOM      9  C   UNL     1       1.603  13.997   1.473  1.00  0.00    -0.000 C 
BRANCH   9  10
ATOM     10  C   UNL     1       3.055  14.208   0.986  1.00  0.00    -0.000 C 
BRANCH  10  11
ATOM     11  C   UNL     1       4.052  13.188   1.561  1.00  0.00    -0.003 C 
ATOM     12  C   UNL     1       5.373  13.149   0.794  1.00  0.00     0.004 C 
ENDBRANCH  10  11
ENDBRANCH   9  10
ENDBRANCH   8   9
ENDBRANCH   7   8
ENDBRANCH   6   7
ENDBRANCH   5   6
ENDBRANCH   4   5
ENDBRANCH   3   4
ENDBRANCH   2   3
ENDBRANCH   1   2
BRANCH   1  13
ATOM     13  C   UNL     1       9.321  13.892   2.256  1.00  0.00     0.000 C 
BRANCH  13  14
ATOM     14  C   UNL     1       8.857  14.145   0.809  1.00  0.00     0.000 C 
BRANCH  14  15
ATOM     15  C   UNL     1       9.860  14.905  -0.081  1.00  0.00     0.000 C 
BRANCH  15  16
ATOM     16  C   UNL     1      11.245  15.151   0.551  1.00  0.00     0.000 C 
BRANCH  16  17
ATOM     17  C   UNL     1      11.638  16.633   0.694  1.00  0.00     0.000 C 
BRANCH  17  18
ATOM     18  C   UNL     1      10.981  17.308   1.907  1.00  0.00     0.000 C 
BRANCH  18  19
ATOM     19  C   UNL     1      11.909  18.372   2.511  1.00  0.00     0.000 C 
BRANCH  19  20
ATOM     20  C   UNL     1      11.239  19.178   3.640  1.00  0.00     0.006 C 
BRANCH  20  21
ATOM     21  C   UNL     1      11.986  19.130   4.983  1.00  0.00     0.053 C 
BRANCH  21  22
ATOM     22  C   UNL     1      13.346  19.751   4.894  1.00  0.00     0.041 C 
ATOM     23  O   UNL     1      14.336  19.188   5.431  1.00  0.00    -0.550 OA
ATOM     24  O   UNL     1      13.513  20.972   4.253  1.00  0.00    -0.550 OA
ENDBRANCH  21  22
ENDBRANCH  20  21
ENDBRANCH  19  20
ENDBRANCH  18  19
ENDBRANCH  17  18
ENDBRANCH  16  17
ENDBRANCH  15  16
ENDBRANCH  14  15
ENDBRANCH  13  14
ENDBRANCH   1  13
TORSDOF 20
ENDMDL
