MODEL 1
REMARK VINA RESULT:    -5.074      0.000      0.000
REMARK INTER + INTRA:          -7.825
REMARK INTER:                  -6.853
REMARK INTRA:                  -0.972
REMARK UNBOUND:                -0.972
REMARK SMILES C=CC(C)=CCC=C(C)CCC=C(C)C
REMARK SMILES IDX 8 1 7 2 9 3 10 4 11 5 12 6 14 7 13 8 15 9 6 10 5 11 3 12
REMARK SMILES IDX 4 13 2 14 1 15
REMARK H PARENT
REMARK Flexibility Score: inf
ROOT
ATOM      1  C   UNL     1       1.351  -1.558  16.723  1.00  0.00    -0.077 C 
ATOM      2  C   UNL     1       2.655  -1.541  16.364  1.00  0.00    -0.024 C 
ATOM      3  C   UNL     1       0.858  -2.386  17.885  1.00  0.00     0.039 C 
ENDROOT
BRANCH   1   4
ATOM      4  C   UNL     1       0.345  -0.772  15.908  1.00  0.00     0.034 C 
BRANCH   4   5
ATOM      5  C   UNL     1       0.537  -0.994  14.401  1.00  0.00     0.032 C 
BRANCH   5   6
ATOM      6  C   UNL     1      -0.165  -2.243  13.919  1.00  0.00    -0.028 C 
ATOM      7  C   UNL     1       1.968  -3.443  13.386  1.00  0.00     0.039 C 
ATOM      8  C   UNL     1       0.463  -3.359  13.490  1.00  0.00    -0.080 C 
ATOM      9  C   UNL     1      -0.376  -4.544  13.088  1.00  0.00     0.039 C 
ENDBRANCH   5   6
ENDBRANCH   4   5
ENDBRANCH   1   4
BRANCH   2  10
ATOM     10  C   UNL     1       3.740  -2.298  17.087  1.00  0.00     0.055 C 
BRANCH  10  11
ATOM     11  C   UNL     1       5.025  -2.300  16.299  1.00  0.00    -0.020 C 
ATOM     12  C   UNL     1       6.243  -2.436  16.857  1.00  0.00    -0.055 C 
ATOM     13  C   UNL     1       6.416  -2.598  18.351  1.00  0.00     0.044 C 
BRANCH  12  14
ATOM     14  C   UNL     1       7.431  -2.351  15.968  1.00  0.00    -0.005 C 
ATOM     15  C   UNL     1       8.678  -2.207  16.416  1.00  0.00     0.009 C 
ENDBRANCH  12  14
ENDBRANCH  10  11
ENDBRANCH   2  10
TORSDOF 6
ENDMDL
MODEL 2
REMARK VINA RESULT:    -5.010      1.772      6.738
REMARK INTER + INTRA:          -7.739
REMARK INTER:                  -6.982
REMARK INTRA:                  -0.757
REMARK UNBOUND:                -0.972
REMARK SMILES C=CC(C)=CCC=C(C)CCC=C(C)C
REMARK SMILES IDX 8 1 7 2 9 3 10 4 11 5 12 6 14 7 13 8 15 9 6 10 5 11 3 12
REMARK SMILES IDX 4 13 2 14 1 15
REMARK H PARENT
REMARK Flexibility Score: inf
ROOT
ATOM      1  C   UNL     1       3.566  -2.616  17.853  1.00  0.00    -0.077 C 
ATOM      2  C   UNL     1       2.992  -2.006  16.791  1.00  0.00    -0.024 C 
ATOM      3  C   UNL     1       2.942  -3.823  18.510  1.00  0.00     0.039 C 
ENDROOT
BRANCH   1   4
ATOM      4  C   UNL     1       4.841  -2.044  18.439  1.00  0.00     0.034 C 
BRANCH   4   5
ATOM      5  C   UNL     1       6.016  -3.023  18.307  1.00  0.00     0.032 C 
BRANCH   5   6
ATOM      6  C   UNL     1       7.290  -2.325  17.890  1.00  0.00    -0.028 C 
ATOM      7  C   UNL     1       6.742  -2.420  15.447  1.00  0.00     0.039 C 
ATOM      8  C   UNL     1       7.615  -2.021  16.614  1.00  0.00    -0.080 C 
ATOM      9  C   UNL     1       8.900  -1.276  16.360  1.00  0.00     0.039 C 
ENDBRANCH   5   6
ENDBRANCH   4   5
ENDBRANCH   1   4
BRANCH   2  10
ATOM     10  C   UNL     1       1.716  -2.473  16.138  1.00  0.00     0.055 C 
BRANCH  10  11
ATOM     11  C   UNL     1       0.575  -1.533  16.431  1.00  0.00    -0.020 C 
ATOM     12  C   UNL     1      -0.010  -0.754  15.501  1.00  0.00    -0.055 C 
ATOM     13  C   UNL     1       0.449  -0.763  14.060  1.00  0.00     0.044 C 
BRANCH  12  14
ATOM     14  C   UNL     1      -1.080   0.178  15.943  1.00  0.00    -0.005 C 
ATOM     15  C   UNL     1      -1.716   0.069  17.108  1.00  0.00     0.009 C 
ENDBRANCH  12  14
ENDBRANCH  10  11
ENDBRANCH   2  10
TORSDOF 6
ENDMDL
MODEL 3
REMARK VINA RESULT:    -4.999      3.416      6.972
REMARK INTER + INTRA:          -7.724
REMARK INTER:                  -6.949
REMARK INTRA:                  -0.774
REMARK UNBOUND:                -0.972
REMARK SMILES C=CC(C)=CCC=C(C)CCC=C(C)C
REMARK SMILES IDX 8 1 7 2 9 3 10 4 11 5 12 6 14 7 13 8 15 9 6 10 5 11 3 12
REMARK SMILES IDX 4 13 2 14 1 15
REMARK H PARENT
REMARK Flexibility Score: inf
ROOT
ATOM      1  C   UNL     1       3.783  -3.888  19.510  1.00  0.00    -0.077 C 
ATOM      2  C   UNL     1       2.855  -3.440  18.634  1.00  0.00    -0.024 C 
ATOM      3  C   UNL     1       3.427  -4.837  20.629  1.00  0.00     0.039 C 
ENDROOT
BRANCH   1   4
ATOM      4  C   UNL     1       5.208  -3.385  19.406  1.00  0.00     0.034 C 
BRANCH   4   5
ATOM      5  C   UNL     1       5.455  -2.647  18.083  1.00  0.00     0.032 C 
BRANCH   5   6
ATOM      6  C   UNL     1       6.928  -2.439  17.817  1.00  0.00    -0.028 C 
ATOM      7  C   UNL     1       6.623  -2.207  15.341  1.00  0.00     0.039 C 
ATOM      8  C   UNL     1       7.463  -2.210  16.597  1.00  0.00    -0.080 C 
ATOM      9  C   UNL     1       8.948  -1.971  16.499  1.00  0.00     0.039 C 
ENDBRANCH   5   6
ENDBRANCH   4   5
ENDBRANCH   1   4
BRANCH   2  10
ATOM     10  C   UNL     1       1.406  -3.855  18.653  1.00  0.00     0.055 C 
BRANCH  10  11
ATOM     11  C   UNL     1       0.498  -2.666  18.830  1.00  0.00    -0.020 C 
ATOM     12  C   UNL     1      -0.102  -2.350  19.994  1.00  0.00    -0.055 C 
ATOM     13  C   UNL     1       0.095  -3.188  21.238  1.00  0.00     0.044 C 
BRANCH  12  14
ATOM     14  C   UNL     1      -1.028  -1.188  20.009  1.00  0.00    -0.005 C 
ATOM     15  C   UNL     1      -1.638  -0.718  18.922  1.00  0.00     0.009 C 
ENDBRANCH  12  14
ENDBRANCH  10  11
ENDBRANCH   2  10
TORSDOF 6
ENDMDL
MODEL 4
REMARK VINA RESULT:    -4.968      1.568      5.905
REMARK INTER + INTRA:          -7.682
REMARK INTER:                  -6.524
REMARK INTRA:                  -1.159
REMARK UNBOUND:                -0.972
REMARK SMILES C=CC(C)=CCC=C(C)CCC=C(C)C
REMARK SMILES IDX 8 1 7 2 9 3 10 4 11 5 12 6 14 7 13 8 15 9 6 10 5 11 3 12
REMARK SMILES IDX 4 13 2 14 1 15
REMARK H PARENT
REMARK Flexibility Score: inf
ROOT
ATOM      1  C   UNL     1       3.574  -3.141  18.343  1.00  0.00    -0.077 C 
ATOM      2  C   UNL     1       3.103  -1.998  17.792  1.00  0.00    -0.024 C 
ATOM      3  C   UNL     1       2.817  -4.444  18.239  1.00  0.00     0.039 C 
ENDROOT
BRANCH   1   4
ATOM      4  C   UNL     1       4.865  -3.109  19.134  1.00  0.00     0.034 C 
BRANCH   4   5
ATOM      5  C   UNL     1       5.680  -1.841  18.840  1.00  0.00     0.032 C 
BRANCH   5   6
ATOM      6  C   UNL     1       7.047  -2.164  18.284  1.00  0.00    -0.028 C 
ATOM      7  C   UNL     1       6.256  -2.216  15.907  1.00  0.00     0.039 C 
ATOM      8  C   UNL     1       7.327  -2.305  16.969  1.00  0.00    -0.080 C 
ATOM      9  C   UNL     1       8.753  -2.577  16.565  1.00  0.00     0.039 C 
ENDBRANCH   5   6
ENDBRANCH   4   5
ENDBRANCH   1   4
BRANCH   2  10
ATOM     10  C   UNL     1       1.822  -1.907  17.002  1.00  0.00     0.055 C 
BRANCH  10  11
ATOM     11  C   UNL     1       1.991  -1.034  15.785  1.00  0.00    -0.020 C 
ATOM     12  C   UNL     1       2.190  -1.514  14.543  1.00  0.00    -0.055 C 
ATOM     13  C   UNL     1       2.265  -3.000  14.271  1.00  0.00     0.044 C 
BRANCH  12  14
ATOM     14  C   UNL     1       2.409  -0.537  13.445  1.00  0.00    -0.005 C 
ATOM     15  C   UNL     1       2.667  -0.890  12.186  1.00  0.00     0.009 C 
ENDBRANCH  12  14
ENDBRANCH  10  11
ENDBRANCH   2  10
TORSDOF 6
ENDMDL
MODEL 5
REMARK VINA RESULT:    -4.947      2.157      4.539
REMARK INTER + INTRA:          -7.654
REMARK INTER:                  -6.797
REMARK INTRA:                  -0.857
REMARK UNBOUND:                -0.972
REMARK SMILES C=CC(C)=CCC=C(C)CCC=C(C)C
REMARK SMILES IDX 8 1 7 2 9 3 10 4 11 5 12 6 14 7 13 8 15 9 6 10 5 11 3 12
REMARK SMILES IDX 4 13 2 14 1 15
REMARK H PARENT
REMARK Flexibility Score: inf
ROOT
ATOM      1  C   UNL     1       0.032  -3.549  13.237  1.00  0.00    -0.077 C 
ATOM      2  C   UNL     1       1.364  -3.494  13.468  1.00  0.00    -0.024 C 
ATOM      3  C   UNL     1      -0.832  -2.311  13.264  1.00  0.00     0.039 C 
ENDROOT
BRANCH   1   4
ATOM      4  C   UNL     1      -0.627  -4.892  13.000  1.00  0.00     0.034 C 
BRANCH   4   5
ATOM      5  C   UNL     1      -1.940  -4.751  12.217  1.00  0.00     0.032 C 
BRANCH   5   6
ATOM      6  C   UNL     1      -2.125  -5.869  11.217  1.00  0.00    -0.028 C 
ATOM      7  C   UNL     1      -0.762  -4.739   9.444  1.00  0.00     0.039 C 
ATOM      8  C   UNL     1      -1.578  -5.892   9.982  1.00  0.00    -0.080 C 
ATOM      9  C   UNL     1      -1.813  -7.103   9.116  1.00  0.00     0.039 C 
ENDBRANCH   5   6
ENDBRANCH   4   5
ENDBRANCH   1   4
BRANCH   2  10
ATOM     10  C   UNL     1       2.122  -2.218  13.735  1.00  0.00     0.055 C 
BRANCH  10  11
ATOM     11  C   UNL     1       2.924  -2.314  15.007  1.00  0.00    -0.020 C 
ATOM     12  C   UNL     1       2.450  -1.961  16.218  1.00  0.00    -0.055 C 
ATOM     13  C   UNL     1       1.046  -1.426  16.393  1.00  0.00     0.044 C 
BRANCH  12  14
ATOM     14  C   UNL     1       3.374  -2.042  17.379  1.00  0.00    -0.005 C 
ATOM     15  C   UNL     1       4.572  -2.622  17.328  1.00  0.00     0.009 C 
ENDBRANCH  12  14
ENDBRANCH  10  11
ENDBRANCH   2  10
TORSDOF 6
ENDMDL
MODEL 6
REMARK VINA RESULT:    -4.932      1.622      1.963
REMARK INTER + INTRA:          -7.634
REMARK INTER:                  -6.378
REMARK INTRA:                  -1.257
REMARK UNBOUND:                -0.972
REMARK SMILES C=CC(C)=CCC=C(C)CCC=C(C)C
REMARK SMILES IDX 8 1 7 2 9 3 10 4 11 5 12 6 14 7 13 8 15 9 6 10 5 11 3 12
REMARK SMILES IDX 4 13 2 14 1 15
REMARK H PARENT
REMARK Flexibility Score: inf
ROOT
ATOM      1  C   UNL     1       1.720  -2.454  17.512  1.00  0.00    -0.077 C 
ATOM      2  C   UNL     1       2.940  -1.984  17.863  1.00  0.00    -0.024 C 
ATOM      3  C   UNL     1       1.292  -3.867  17.827  1.00  0.00     0.039 C 
ENDROOT
BRANCH   1   4
ATOM      4  C   UNL     1       0.776  -1.562  16.732  1.00  0.00     0.034 C 
BRANCH   4   5
ATOM      5  C   UNL     1       1.522  -0.725  15.683  1.00  0.00     0.032 C 
BRANCH   5   6
ATOM      6  C   UNL     1       1.631  -1.445  14.358  1.00  0.00    -0.028 C 
ATOM      7  C   UNL     1       4.130  -1.593  14.451  1.00  0.00     0.039 C 
ATOM      8  C   UNL     1       2.791  -1.867  13.808  1.00  0.00    -0.080 C 
ATOM      9  C   UNL     1       2.733  -2.618  12.503  1.00  0.00     0.039 C 
ENDBRANCH   5   6
ENDBRANCH   4   5
ENDBRANCH   1   4
BRANCH   2  10
ATOM     10  C   UNL     1       3.967  -2.786  18.621  1.00  0.00     0.055 C 
BRANCH  10  11
ATOM     11  C   UNL     1       5.237  -2.941  17.825  1.00  0.00    -0.020 C 
ATOM     12  C   UNL     1       6.399  -2.340  18.147  1.00  0.00    -0.055 C 
ATOM     13  C   UNL     1       6.515  -1.442  19.358  1.00  0.00     0.044 C 
BRANCH  12  14
ATOM     14  C   UNL     1       7.556  -2.524  17.234  1.00  0.00    -0.005 C 
ATOM     15  C   UNL     1       7.650  -1.947  16.037  1.00  0.00     0.009 C 
ENDBRANCH  12  14
ENDBRANCH  10  11
ENDBRANCH   2  10
TORSDOF 6
ENDMDL
MODEL 7
REMARK VINA RESULT:    -4.930      2.225      7.312
REMARK INTER + INTRA:          -7.631
REMARK INTER:                  -6.458
REMARK INTRA:                  -1.173
REMARK UNBOUND:                -0.972
REMARK SMILES C=CC(C)=CCC=C(C)CCC=C(C)C
REMARK SMILES IDX 8 1 7 2 9 3 10 4 11 5 12 6 14 7 13 8 15 9 6 10 5 11 3 12
REMARK SMILES IDX 4 13 2 14 1 15
REMARK H PARENT
REMARK Flexibility Score: inf
ROOT
ATOM      1  C   UNL     1       0.553  -2.690  13.195  1.00  0.00    -0.077 C 
ATOM      2  C   UNL     1      -0.782  -2.902  13.140  1.00  0.00    -0.024 C 
ATOM      3  C   UNL     1       1.541  -3.831  13.158  1.00  0.00     0.039 C 
ENDROOT
BRANCH   1   4
ATOM      4  C   UNL     1       1.075  -1.278  13.353  1.00  0.00     0.034 C 
BRANCH   4   5
ATOM      5  C   UNL     1       0.834  -0.738  14.770  1.00  0.00     0.032 C 
BRANCH   5   6
ATOM      6  C   UNL     1       2.052  -0.897  15.651  1.00  0.00    -0.028 C 
ATOM      7  C   UNL     1       1.150  -2.917  16.826  1.00  0.00     0.039 C 
ATOM      8  C   UNL     1       2.221  -1.886  16.556  1.00  0.00    -0.080 C 
ATOM      9  C   UNL     1       3.515  -1.941  17.325  1.00  0.00     0.039 C 
ENDBRANCH   5   6
ENDBRANCH   4   5
ENDBRANCH   1   4
BRANCH   2  10
ATOM     10  C   UNL     1      -1.416  -4.263  13.003  1.00  0.00     0.055 C 
BRANCH  10  11
ATOM     11  C   UNL     1      -1.677  -4.603  11.558  1.00  0.00    -0.020 C 
ATOM     12  C   UNL     1      -1.220  -5.719  10.958  1.00  0.00    -0.055 C 
ATOM     13  C   UNL     1      -0.388  -6.736  11.707  1.00  0.00     0.044 C 
BRANCH  12  14
ATOM     14  C   UNL     1      -1.494  -5.894   9.508  1.00  0.00    -0.005 C 
ATOM     15  C   UNL     1      -1.950  -7.027   8.976  1.00  0.00     0.009 C 
ENDBRANCH  12  14
ENDBRANCH  10  11
ENDBRANCH   2  10
TORSDOF 6
ENDMDL
MODEL 8
REMARK VINA RESULT:    -4.920      2.247      5.244
REMARK INTER + INTRA:          -7.617
REMARK INTER:                  -6.383
REMARK INTRA:                  -1.234
REMARK UNBOUND:                -0.972
REMARK SMILES C=CC(C)=CCC=C(C)CCC=C(C)C
REMARK SMILES IDX 8 1 7 2 9 3 10 4 11 5 12 6 14 7 13 8 15 9 6 10 5 11 3 12
REMARK SMILES IDX 4 13 2 14 1 15
REMARK H PARENT
REMARK Flexibility Score: inf
ROOT
ATOM      1  C   UNL     1       3.324  -2.555  17.038  1.00  0.00    -0.077 C 
ATOM      2  C   UNL     1       2.226  -3.327  17.206  1.00  0.00    -0.024 C 
ATOM      3  C   UNL     1       4.043  -1.930  18.209  1.00  0.00     0.039 C 
ENDROOT
BRANCH   1   4
ATOM      4  C   UNL     1       3.816  -2.258  15.637  1.00  0.00     0.034 C 
BRANCH   4   5
ATOM      5  C   UNL     1       3.073  -1.068  15.013  1.00  0.00     0.032 C 
BRANCH   5   6
ATOM      6  C   UNL     1       1.864  -1.509  14.220  1.00  0.00    -0.028 C 
ATOM      7  C   UNL     1       0.228  -0.580  15.874  1.00  0.00     0.039 C 
ATOM      8  C   UNL     1       0.583  -1.271  14.578  1.00  0.00    -0.080 C 
ATOM      9  C   UNL     1      -0.516  -1.730  13.655  1.00  0.00     0.039 C 
ENDBRANCH   5   6
ENDBRANCH   4   5
ENDBRANCH   1   4
BRANCH   2  10
ATOM     10  C   UNL     1       1.635  -3.673  18.550  1.00  0.00     0.055 C 
BRANCH  10  11
ATOM     11  C   UNL     1       0.473  -2.773  18.885  1.00  0.00    -0.020 C 
ATOM     12  C   UNL     1       0.111  -2.456  20.143  1.00  0.00    -0.055 C 
ATOM     13  C   UNL     1       0.860  -2.997  21.341  1.00  0.00     0.044 C 
BRANCH  12  14
ATOM     14  C   UNL     1      -1.097  -1.613  20.330  1.00  0.00    -0.005 C 
ATOM     15  C   UNL     1      -1.776  -1.064  19.323  1.00  0.00     0.009 C 
ENDBRANCH  12  14
ENDBRANCH  10  11
ENDBRANCH   2  10
TORSDOF 6
ENDMDL
