MODEL 1
REMARK VINA RESULT:    -2.293      0.000      0.000
REMARK INTER + INTRA:          -2.637
REMARK INTER:                  -2.495
REMARK INTRA:                  -0.143
REMARK UNBOUND:                -0.143
REMARK SMILES CC1=CC[C@@H](C(C)(C)O)CC1
REMARK SMILES IDX 6 1 7 2 8 3 5 4 1 5 2 6 3 7 11 8 4 9 10 10 9 11
REMARK H PARENT 9 12
REMARK Flexibility Score: inf
ROOT
ATOM      1  C   UNL     1     -17.448 -15.761   9.122  1.00  0.00     0.062 C 
ATOM      2  C   UNL     1     -18.510 -16.879   9.088  1.00  0.00     0.042 C 
ATOM      3  C   UNL     1     -16.056 -16.417   9.257  1.00  0.00     0.042 C 
ENDROOT
BRANCH   1   4
ATOM      4  C   UNL     1     -17.695 -14.724  10.279  1.00  0.00     0.024 C 
ATOM      5  C   UNL     1     -19.125 -11.782  13.199  1.00  0.00     0.039 C 
ATOM      6  C   UNL     1     -18.775 -12.777  12.127  1.00  0.00    -0.077 C 
ATOM      7  C   UNL     1     -19.043 -14.084  12.331  1.00  0.00    -0.028 C 
ATOM      8  C   UNL     1     -18.014 -12.301  10.905  1.00  0.00     0.031 C 
ATOM      9  C   UNL     1     -18.777 -15.151  11.298  1.00  0.00     0.034 C 
ATOM     10  C   UNL     1     -18.037 -13.315   9.756  1.00  0.00     0.011 C 
ENDBRANCH   1   4
BRANCH   1  11
ATOM     11  O   UNL     1     -17.507 -15.096   7.880  1.00  0.00    -0.390 OA
ATOM     12  H   UNL     1     -16.634 -15.223   7.421  1.00  0.00     0.211 HD
ENDBRANCH   1  11
TORSDOF 2
ENDMDL
MODEL 2
REMARK VINA RESULT:    -2.237      1.890      4.634
REMARK INTER + INTRA:          -2.575
REMARK INTER:                  -2.436
REMARK INTRA:                  -0.139
REMARK UNBOUND:                -0.143
REMARK SMILES CC1=CC[C@@H](C(C)(C)O)CC1
REMARK SMILES IDX 6 1 7 2 8 3 5 4 1 5 2 6 3 7 11 8 4 9 10 10 9 11
REMARK H PARENT 9 12
REMARK Flexibility Score: inf
ROOT
ATOM      1  C   UNL     1     -18.240 -12.875  10.705  1.00  0.00     0.062 C 
ATOM      2  C   UNL     1     -19.105 -13.240  11.930  1.00  0.00     0.042 C 
ATOM      3  C   UNL     1     -19.124 -12.107   9.697  1.00  0.00     0.042 C 
ENDROOT
BRANCH   1   4
ATOM      4  C   UNL     1     -17.584 -14.135  10.029  1.00  0.00     0.024 C 
ATOM      5  C   UNL     1     -15.203 -17.122   7.875  1.00  0.00     0.039 C 
ATOM      6  C   UNL     1     -15.921 -15.989   8.555  1.00  0.00    -0.077 C 
ATOM      7  C   UNL     1     -15.540 -15.622   9.798  1.00  0.00    -0.028 C 
ATOM      8  C   UNL     1     -17.133 -15.378   7.880  1.00  0.00     0.031 C 
ATOM      9  C   UNL     1     -16.163 -14.467  10.542  1.00  0.00     0.034 C 
ATOM     10  C   UNL     1     -17.542 -14.034   8.491  1.00  0.00     0.011 C 
ENDBRANCH   1   4
BRANCH   1  11
ATOM     11  O   UNL     1     -17.226 -12.007  11.158  1.00  0.00    -0.390 OA
ATOM     12  H   UNL     1     -16.593 -12.536  11.713  1.00  0.00     0.211 HD
ENDBRANCH   1  11
TORSDOF 2
ENDMDL
MODEL 3
REMARK VINA RESULT:    -1.850      1.051      2.116
REMARK INTER + INTRA:          -2.155
REMARK INTER:                  -2.022
REMARK INTRA:                  -0.133
REMARK UNBOUND:                -0.143
REMARK SMILES CC1=CC[C@@H](C(C)(C)O)CC1
REMARK SMILES IDX 6 1 7 2 8 3 5 4 1 5 2 6 3 7 11 8 4 9 10 10 9 11
REMARK H PARENT 9 12
REMARK Flexibility Score: inf
ROOT
ATOM      1  C   UNL     1     -17.903 -15.526   9.029  1.00  0.00     0.062 C 
ATOM      2  C   UNL     1     -17.122 -14.833   7.894  1.00  0.00     0.042 C 
ATOM      3  C   UNL     1     -19.078 -16.312   8.403  1.00  0.00     0.042 C 
ENDROOT
BRANCH   1   4
ATOM      4  C   UNL     1     -18.423 -14.513  10.115  1.00  0.00     0.024 C 
ATOM      5  C   UNL     1     -19.122 -11.735  13.436  1.00  0.00     0.039 C 
ATOM      6  C   UNL     1     -18.737 -12.709  12.356  1.00  0.00    -0.077 C 
ATOM      7  C   UNL     1     -18.175 -12.242  11.221  1.00  0.00    -0.028 C 
ATOM      8  C   UNL     1     -19.110 -14.169  12.518  1.00  0.00     0.031 C 
ATOM      9  C   UNL     1     -17.709 -13.141  10.103  1.00  0.00     0.034 C 
ATOM     10  C   UNL     1     -18.364 -15.087  11.545  1.00  0.00     0.011 C 
ENDBRANCH   1   4
BRANCH   1  11
ATOM     11  O   UNL     1     -17.025 -16.447   9.633  1.00  0.00    -0.390 OA
ATOM     12  H   UNL     1     -16.147 -15.999   9.759  1.00  0.00     0.211 HD
ENDBRANCH   1  11
TORSDOF 2
ENDMDL
MODEL 4
REMARK VINA RESULT:    -0.766      1.374      2.231
REMARK INTER + INTRA:          -0.976
REMARK INTER:                  -0.848
REMARK INTRA:                  -0.127
REMARK UNBOUND:                -0.143
REMARK SMILES CC1=CC[C@@H](C(C)(C)O)CC1
REMARK SMILES IDX 6 1 7 2 8 3 5 4 1 5 2 6 3 7 11 8 4 9 10 10 9 11
REMARK H PARENT 9 12
REMARK Flexibility Score: inf
ROOT
ATOM      1  C   UNL     1     -16.989 -14.245   8.638  1.00  0.00     0.062 C 
ATOM      2  C   UNL     1     -15.679 -14.997   8.324  1.00  0.00     0.042 C 
ATOM      3  C   UNL     1     -16.835 -12.781   8.167  1.00  0.00     0.042 C 
ENDROOT
BRANCH   1   4
ATOM      4  C   UNL     1     -17.374 -14.306  10.162  1.00  0.00     0.024 C 
ATOM      5  C   UNL     1     -19.125 -14.824  14.149  1.00  0.00     0.039 C 
ATOM      6  C   UNL     1     -18.659 -14.704  12.724  1.00  0.00    -0.077 C 
ATOM      7  C   UNL     1     -18.007 -15.741  12.157  1.00  0.00    -0.028 C 
ATOM      8  C   UNL     1     -18.820 -13.377  12.009  1.00  0.00     0.031 C 
ATOM      9  C   UNL     1     -17.546 -15.738  10.720  1.00  0.00     0.034 C 
ATOM     10  C   UNL     1     -18.641 -13.492  10.491  1.00  0.00     0.011 C 
ENDBRANCH   1   4
BRANCH   1  11
ATOM     11  O   UNL     1     -18.007 -14.851   7.875  1.00  0.00    -0.390 OA
ATOM     12  H   UNL     1     -17.717 -14.860   6.925  1.00  0.00     0.211 HD
ENDBRANCH   1  11
TORSDOF 2
ENDMDL
MODEL 5
REMARK VINA RESULT:    -0.190      2.173      3.544
REMARK INTER + INTRA:          -0.349
REMARK INTER:                  -0.207
REMARK INTRA:                  -0.143
REMARK UNBOUND:                -0.143
REMARK SMILES CC1=CC[C@@H](C(C)(C)O)CC1
REMARK SMILES IDX 6 1 7 2 8 3 5 4 1 5 2 6 3 7 11 8 4 9 10 10 9 11
REMARK H PARENT 9 12
REMARK Flexibility Score: inf
ROOT
ATOM      1  C   UNL     1     -18.412 -15.721  12.278  1.00  0.00     0.062 C 
ATOM      2  C   UNL     1     -19.122 -17.065  12.015  1.00  0.00     0.042 C 
ATOM      3  C   UNL     1     -19.125 -15.016  13.454  1.00  0.00     0.042 C 
ENDROOT
BRANCH   1   4
ATOM      4  C   UNL     1     -18.376 -14.794  11.007  1.00  0.00     0.024 C 
ATOM      5  C   UNL     1     -17.737 -11.784   7.883  1.00  0.00     0.039 C 
ATOM      6  C   UNL     1     -17.859 -12.731   9.045  1.00  0.00    -0.077 C 
ATOM      7  C   UNL     1     -16.995 -13.763   9.145  1.00  0.00    -0.028 C 
ATOM      8  C   UNL     1     -19.028 -12.576   9.997  1.00  0.00     0.031 C 
ATOM      9  C   UNL     1     -17.003 -14.736  10.298  1.00  0.00     0.034 C 
ATOM     10  C   UNL     1     -18.841 -13.355  11.304  1.00  0.00     0.011 C 
ENDBRANCH   1   4
BRANCH   1  11
ATOM     11  O   UNL     1     -17.093 -16.020  12.674  1.00  0.00    -0.390 OA
ATOM     12  H   UNL     1     -16.492 -15.327  12.293  1.00  0.00     0.211 HD
ENDBRANCH   1  11
TORSDOF 2
ENDMDL
