MODEL 1
REMARK VINA RESULT:    -5.169      0.000      0.000
REMARK INTER + INTRA:          -6.337
REMARK INTER:                  -7.284
REMARK INTRA:                   0.947
REMARK UNBOUND:                 0.947
REMARK SMILES CC1=CCCC(C)=CCC(C)(C)C=CC1
REMARK SMILES IDX 2 1 3 2 1 3 4 4 5 5 6 6 7 7 8 8 15 10 14 11 13 12 10 13
REMARK SMILES IDX 11 14 12 15 9 16
REMARK H PARENT
REMARK Flexibility Score: 60.00
ROOT
ATOM      1  C   UNL     1     109.665 112.127 114.825  1.00  0.00    -0.074 C 
ATOM      2  C   UNL     1     109.791 112.449 113.510  1.00  0.00    -0.027 C 
ATOM      3  C   UNL     1     109.825 113.261 115.809  1.00  0.00     0.039 C 
ENDROOT
BRANCH   2   4
ATOM      4  C   UNL     1     109.858 111.513 112.330  1.00  0.00     0.032 C 
BRANCH   4   5
ATOM      5  C   UNL     1     110.830 110.356 112.632  1.00  0.00     0.034 C 
BRANCH   5   6
ATOM      6  C   UNL     1     112.220 110.843 112.992  1.00  0.00    -0.077 C 
ATOM      7  C   UNL     1     112.948 111.723 112.010  1.00  0.00     0.039 C 
ATOM      8  C   UNL     1     112.830 110.549 114.166  1.00  0.00    -0.027 CG0
ATOM      9  G   UNL     1     112.252 109.669 115.259  1.00  0.00     0.000 G0
ENDBRANCH   5   6
ENDBRANCH   4   5
ENDBRANCH   2   4
BRANCH   1  10
ATOM     10  C   UNL     1     109.209 110.794 115.418  1.00  0.00     0.057 C 
BRANCH  10  11
ATOM     11  C   UNL     1     109.621 110.425 116.819  1.00  0.00    -0.026 C 
ATOM     12  C   UNL     1     110.854 110.255 117.348  1.00  0.00    -0.024 C 
BRANCH  12  13
ATOM     13  C   UNL     1     112.262 110.258 116.731  1.00  0.00    -0.014 C 
ATOM     14  C   UNL     1     113.121 109.345 117.635  1.00  0.00     0.016 C 
ATOM     15  C   UNL     1     112.957 111.636 116.701  1.00  0.00     0.016 C 
BRANCH  13  16
ATOM     16  C   UNL     1     112.252 109.660 115.271  1.00  0.00     0.038 CG0
ATOM     17  G   UNL     1     112.825 110.553 114.185  1.00  0.00     0.000 G0
ENDBRANCH  13  16
ENDBRANCH  12  13
ENDBRANCH  10  11
ENDBRANCH   1  10
TORSDOF 0
ENDMDL
MODEL 2
REMARK VINA RESULT:    -5.127      1.655      3.597
REMARK INTER + INTRA:          -6.278
REMARK INTER:                  -7.076
REMARK INTRA:                   0.798
REMARK UNBOUND:                 0.947
REMARK SMILES CC1=CCCC(C)=CCC(C)(C)C=CC1
REMARK SMILES IDX 2 1 3 2 1 3 4 4 5 5 6 6 7 7 8 8 15 10 14 11 13 12 10 13
REMARK SMILES IDX 11 14 12 15 9 16
REMARK H PARENT
REMARK Flexibility Score: 60.00
ROOT
ATOM      1  C   UNL     1     112.594 110.024 115.021  1.00  0.00    -0.074 C 
ATOM      2  C   UNL     1     112.409 109.626 113.735  1.00  0.00    -0.027 C 
ATOM      3  C   UNL     1     112.500 108.944 116.073  1.00  0.00     0.039 C 
ENDROOT
BRANCH   2   4
ATOM      4  C   UNL     1     112.270 110.493 112.509  1.00  0.00     0.032 C 
BRANCH   4   5
ATOM      5  C   UNL     1     111.463 111.761 112.852  1.00  0.00     0.034 C 
BRANCH   5   6
ATOM      6  C   UNL     1     110.008 111.460 113.153  1.00  0.00    -0.077 C 
ATOM      7  C   UNL     1     109.224 110.644 112.160  1.00  0.00     0.039 C 
ATOM      8  C   UNL     1     109.385 111.866 114.287  1.00  0.00    -0.027 CG0
ATOM      9  G   UNL     1     110.016 112.704 115.384  1.00  0.00     0.000 G0
ENDBRANCH   5   6
ENDBRANCH   4   5
ENDBRANCH   2   4
BRANCH   1  10
ATOM     10  C   UNL     1     113.056 111.394 115.517  1.00  0.00     0.057 C 
BRANCH  10  11
ATOM     11  C   UNL     1     112.671 111.852 116.898  1.00  0.00    -0.026 C 
ATOM     12  C   UNL     1     111.449 112.077 117.433  1.00  0.00    -0.024 C 
BRANCH  12  13
ATOM     13  C   UNL     1     110.033 112.065 116.836  1.00  0.00    -0.014 C 
ATOM     14  C   UNL     1     109.170 112.934 117.778  1.00  0.00     0.016 C 
ATOM     15  C   UNL     1     109.364 110.675 116.774  1.00  0.00     0.016 C 
BRANCH  13  16
ATOM     16  C   UNL     1     110.010 112.706 115.393  1.00  0.00     0.038 CG0
ATOM     17  G   UNL     1     109.389 111.855 114.300  1.00  0.00     0.000 G0
ENDBRANCH  13  16
ENDBRANCH  12  13
ENDBRANCH  10  11
ENDBRANCH   1  10
TORSDOF 0
ENDMDL
MODEL 3
REMARK VINA RESULT:    -5.111      3.968      6.566
REMARK INTER + INTRA:          -6.255
REMARK INTER:                  -6.909
REMARK INTRA:                   0.655
REMARK UNBOUND:                 0.947
REMARK SMILES CC1=CCCC(C)=CCC(C)(C)C=CC1
REMARK SMILES IDX 2 1 3 2 1 3 4 4 5 5 6 6 7 7 8 8 15 10 14 11 13 12 10 13
REMARK SMILES IDX 11 14 12 15 9 16
REMARK H PARENT
REMARK Flexibility Score: 60.00
ROOT
ATOM      1  C   UNL     1     112.534 111.386 107.073  1.00  0.00    -0.074 C 
ATOM      2  C   UNL     1     111.288 110.995 106.695  1.00  0.00    -0.027 C 
ATOM      3  C   UNL     1     113.215 112.397 106.181  1.00  0.00     0.039 C 
ENDROOT
BRANCH   2   4
ATOM      4  C   UNL     1     110.450 109.886 107.278  1.00  0.00     0.032 C 
BRANCH   4   5
ATOM      5  C   UNL     1     109.138 110.462 107.846  1.00  0.00     0.034 C 
BRANCH   5   6
ATOM      6  C   UNL     1     109.348 111.773 108.579  1.00  0.00    -0.077 C 
ATOM      7  C   UNL     1     109.075 113.058 107.842  1.00  0.00     0.039 C 
ATOM      8  C   UNL     1     109.742 111.845 109.874  1.00  0.00    -0.027 CG0
ATOM      9  G   UNL     1     110.073 110.657 110.758  1.00  0.00     0.000 G0
ENDBRANCH   5   6
ENDBRANCH   4   5
ENDBRANCH   2   4
BRANCH   1  10
ATOM     10  C   UNL     1     113.257 111.061 108.379  1.00  0.00     0.057 C 
BRANCH  10  11
ATOM     11  C   UNL     1     113.058 111.949 109.579  1.00  0.00    -0.026 C 
ATOM     12  C   UNL     1     112.416 111.709 110.745  1.00  0.00    -0.024 C 
BRANCH  12  13
ATOM     13  C   UNL     1     111.571 110.525 111.244  1.00  0.00    -0.014 C 
ATOM     14  C   UNL     1     111.612 110.598 112.787  1.00  0.00     0.016 C 
ATOM     15  C   UNL     1     112.105 109.132 110.849  1.00  0.00     0.016 C 
BRANCH  13  16
ATOM     16  C   UNL     1     110.071 110.648 110.771  1.00  0.00     0.038 CG0
ATOM     17  G   UNL     1     109.754 111.831 109.874  1.00  0.00     0.000 G0
ENDBRANCH  13  16
ENDBRANCH  12  13
ENDBRANCH  10  11
ENDBRANCH   1  10
TORSDOF 0
ENDMDL
MODEL 4
REMARK VINA RESULT:    -5.094      1.839      4.228
REMARK INTER + INTRA:          -6.231
REMARK INTER:                  -6.729
REMARK INTRA:                   0.498
REMARK UNBOUND:                 0.947
REMARK SMILES CC1=CCCC(C)=CCC(C)(C)C=CC1
REMARK SMILES IDX 2 1 3 2 1 3 4 4 5 5 6 6 7 7 8 8 15 10 14 11 13 12 10 13
REMARK SMILES IDX 11 14 12 15 9 16
REMARK H PARENT
REMARK Flexibility Score: 60.00
ROOT
ATOM      1  C   UNL     1     109.969 110.234 115.424  1.00  0.00    -0.074 C 
ATOM      2  C   UNL     1     111.299 109.954 115.385  1.00  0.00    -0.027 C 
ATOM      3  C   UNL     1     109.388 110.522 116.788  1.00  0.00     0.039 C 
ENDROOT
BRANCH   2   4
ATOM      4  C   UNL     1     112.106 109.460 114.211  1.00  0.00     0.032 C 
BRANCH   4   5
ATOM      5  C   UNL     1     113.285 110.417 113.946  1.00  0.00     0.034 C 
BRANCH   5   6
ATOM      6  C   UNL     1     112.856 111.870 113.899  1.00  0.00    -0.077 C 
ATOM      7  C   UNL     1     113.133 112.739 115.098  1.00  0.00     0.039 C 
ATOM      8  C   UNL     1     112.260 112.435 112.821  1.00  0.00    -0.027 CG0
ATOM      9  G   UNL     1     111.894 111.708 111.540  1.00  0.00     0.000 G0
ENDBRANCH   5   6
ENDBRANCH   4   5
ENDBRANCH   2   4
BRANCH   1  10
ATOM     10  C   UNL     1     109.030 110.465 114.241  1.00  0.00     0.057 C 
BRANCH  10  11
ATOM     11  C   UNL     1     108.998 111.812 113.569  1.00  0.00    -0.026 C 
ATOM     12  C   UNL     1     109.486 112.198 112.368  1.00  0.00    -0.024 C 
BRANCH  12  13
ATOM     13  C   UNL     1     110.330 111.476 111.305  1.00  0.00    -0.014 C 
ATOM     14  C   UNL     1     109.921 112.095 109.949  1.00  0.00     0.016 C 
ATOM     15  C   UNL     1     110.079 109.957 111.196  1.00  0.00     0.016 C 
BRANCH  13  16
ATOM     16  C   UNL     1     111.873 111.723 111.529  1.00  0.00     0.038 CG0
ATOM     17  G   UNL     1     112.250 112.434 112.816  1.00  0.00     0.000 G0
ENDBRANCH  13  16
ENDBRANCH  12  13
ENDBRANCH  10  11
ENDBRANCH   1  10
TORSDOF 0
ENDMDL
MODEL 5
REMARK VINA RESULT:    -5.081      3.821      5.987
REMARK INTER + INTRA:          -6.212
REMARK INTER:                  -7.290
REMARK INTRA:                   1.077
REMARK UNBOUND:                 0.947
REMARK SMILES CC1=CCCC(C)=CCC(C)(C)C=CC1
REMARK SMILES IDX 2 1 3 2 1 3 4 4 5 5 6 6 7 7 8 8 15 10 14 11 13 12 10 13
REMARK SMILES IDX 11 14 12 15 9 16
REMARK H PARENT
REMARK Flexibility Score: 60.00
ROOT
ATOM      1  C   UNL     1     112.644 110.219 110.068  1.00  0.00    -0.074 C 
ATOM      2  C   UNL     1     112.540 109.867 108.760  1.00  0.00    -0.027 C 
ATOM      3  C   UNL     1     112.460 109.109 111.075  1.00  0.00     0.039 C 
ENDROOT
BRANCH   2   4
ATOM      4  C   UNL     1     112.499 110.775 107.557  1.00  0.00     0.032 C 
BRANCH   4   5
ATOM      5  C   UNL     1     111.421 111.860 107.754  1.00  0.00     0.034 C 
BRANCH   5   6
ATOM      6  C   UNL     1     110.077 111.278 108.145  1.00  0.00    -0.077 C 
ATOM      7  C   UNL     1     109.410 110.314 107.199  1.00  0.00     0.039 C 
ATOM      8  C   UNL     1     109.458 111.561 109.317  1.00  0.00    -0.027 CG0
ATOM      9  G   UNL     1     109.977 112.517 110.376  1.00  0.00     0.000 G0
ENDBRANCH   5   6
ENDBRANCH   4   5
ENDBRANCH   2   4
BRANCH   1  10
ATOM     10  C   UNL     1     113.096 111.564 110.639  1.00  0.00     0.057 C 
BRANCH  10  11
ATOM     11  C   UNL     1     112.634 111.982 112.009  1.00  0.00    -0.026 C 
ATOM     12  C   UNL     1     111.382 112.101 112.508  1.00  0.00    -0.024 C 
BRANCH  12  13
ATOM     13  C   UNL     1     109.990 111.972 111.868  1.00  0.00    -0.014 C 
ATOM     14  C   UNL     1     109.050 112.853 112.723  1.00  0.00     0.016 C 
ATOM     15  C   UNL     1     109.397 110.547 111.880  1.00  0.00     0.016 C 
BRANCH  13  16
ATOM     16  C   UNL     1     109.984 112.514 110.386  1.00  0.00     0.038 CG0
ATOM     17  G   UNL     1     109.471 111.552 109.330  1.00  0.00     0.000 G0
ENDBRANCH  13  16
ENDBRANCH  12  13
ENDBRANCH  10  11
ENDBRANCH   1  10
TORSDOF 0
ENDMDL
MODEL 6
REMARK VINA RESULT:    -5.041      3.506      4.822
REMARK INTER + INTRA:          -6.157
REMARK INTER:                  -7.019
REMARK INTRA:                   0.862
REMARK UNBOUND:                 0.947
REMARK SMILES CC1=CCCC(C)=CCC(C)(C)C=CC1
REMARK SMILES IDX 2 1 3 2 1 3 4 4 5 5 6 6 7 7 8 8 15 10 14 11 13 12 10 13
REMARK SMILES IDX 11 14 12 15 9 16
REMARK H PARENT
REMARK Flexibility Score: 60.00
ROOT
ATOM      1  C   UNL     1     109.547 112.171 110.169  1.00  0.00    -0.074 C 
ATOM      2  C   UNL     1     109.689 112.616 108.893  1.00  0.00    -0.027 C 
ATOM      3  C   UNL     1     109.619 113.219 111.254  1.00  0.00     0.039 C 
ENDROOT
BRANCH   2   4
ATOM      4  C   UNL     1     109.837 111.795 107.637  1.00  0.00     0.032 C 
BRANCH   4   5
ATOM      5  C   UNL     1     110.745 110.579 107.910  1.00  0.00     0.034 C 
BRANCH   5   6
ATOM      6  C   UNL     1     112.188 110.973 108.154  1.00  0.00    -0.077 C 
ATOM      7  C   UNL     1     112.875 111.845 107.136  1.00  0.00     0.039 C 
ATOM      8  C   UNL     1     112.883 110.604 109.258  1.00  0.00    -0.027 CG0
ATOM      9  G   UNL     1     112.354 109.720 110.373  1.00  0.00     0.000 G0
ENDBRANCH   5   6
ENDBRANCH   4   5
ENDBRANCH   2   4
BRANCH   1  10
ATOM     10  C   UNL     1     109.151 110.768 110.629  1.00  0.00     0.057 C 
BRANCH  10  11
ATOM     11  C   UNL     1     109.634 110.259 111.961  1.00  0.00    -0.026 C 
ATOM     12  C   UNL     1     110.891 110.141 112.445  1.00  0.00    -0.024 C 
BRANCH  12  13
ATOM     13  C   UNL     1     112.276 110.362 111.814  1.00  0.00    -0.014 C 
ATOM     14  C   UNL     1     113.283 109.653 112.747  1.00  0.00     0.016 C 
ATOM     15  C   UNL     1     112.719 111.837 111.716  1.00  0.00     0.016 C 
BRANCH  13  16
ATOM     16  C   UNL     1     112.366 109.707 110.380  1.00  0.00     0.038 CG0
ATOM     17  G   UNL     1     112.882 110.607 109.272  1.00  0.00     0.000 G0
ENDBRANCH  13  16
ENDBRANCH  12  13
ENDBRANCH  10  11
ENDBRANCH   1  10
TORSDOF 0
ENDMDL
MODEL 7
REMARK VINA RESULT:    -5.033      5.123      7.888
REMARK INTER + INTRA:          -6.145
REMARK INTER:                  -6.851
REMARK INTRA:                   0.707
REMARK UNBOUND:                 0.947
REMARK SMILES CC1=CCCC(C)=CCC(C)(C)C=CC1
REMARK SMILES IDX 2 1 3 2 1 3 4 4 5 5 6 6 7 7 8 8 15 10 14 11 13 12 10 13
REMARK SMILES IDX 11 14 12 15 9 16
REMARK H PARENT
REMARK Flexibility Score: 60.00
ROOT
ATOM      1  C   UNL     1     109.351 111.628 108.547  1.00  0.00    -0.074 C 
ATOM      2  C   UNL     1     109.958 111.843 109.744  1.00  0.00    -0.027 C 
ATOM      3  C   UNL     1     108.786 112.846 107.856  1.00  0.00     0.039 C 
ENDROOT
BRANCH   2   4
ATOM      4  C   UNL     1     110.448 110.815 110.732  1.00  0.00     0.032 C 
BRANCH   4   5
ATOM      5  C   UNL     1     111.654 110.056 110.144  1.00  0.00     0.034 C 
BRANCH   5   6
ATOM      6  C   UNL     1     112.721 110.988 109.605  1.00  0.00    -0.077 C 
ATOM      7  C   UNL     1     113.404 111.927 110.564  1.00  0.00     0.039 C 
ATOM      8  C   UNL     1     113.113 110.998 108.307  1.00  0.00    -0.027 CG0
ATOM      9  G   UNL     1     112.525 110.133 107.207  1.00  0.00     0.000 G0
ENDBRANCH   5   6
ENDBRANCH   4   5
ENDBRANCH   2   4
BRANCH   1  10
ATOM     10  C   UNL     1     109.323 110.332 107.736  1.00  0.00     0.057 C 
BRANCH  10  11
ATOM     11  C   UNL     1     109.506 110.388 106.242  1.00  0.00    -0.026 C 
ATOM     12  C   UNL     1     110.626 110.577 105.508  1.00  0.00    -0.024 C 
BRANCH  12  13
ATOM     13  C   UNL     1     112.078 110.909 105.890  1.00  0.00    -0.014 C 
ATOM     14  C   UNL     1     112.100 112.426 106.187  1.00  0.00     0.016 C 
ATOM     15  C   UNL     1     113.117 110.658 104.777  1.00  0.00     0.016 C 
BRANCH  13  16
ATOM     16  C   UNL     1     112.525 110.132 107.189  1.00  0.00     0.038 CG0
ATOM     17  G   UNL     1     113.112 110.983 108.301  1.00  0.00     0.000 G0
ENDBRANCH  13  16
ENDBRANCH  12  13
ENDBRANCH  10  11
ENDBRANCH   1  10
TORSDOF 0
ENDMDL
MODEL 8
REMARK VINA RESULT:    -5.017      1.509      3.451
REMARK INTER + INTRA:          -6.122
REMARK INTER:                  -6.754
REMARK INTRA:                   0.632
REMARK UNBOUND:                 0.947
REMARK SMILES CC1=CCCC(C)=CCC(C)(C)C=CC1
REMARK SMILES IDX 2 1 3 2 1 3 4 4 5 5 6 6 7 7 8 8 15 10 14 11 13 12 10 13
REMARK SMILES IDX 11 14 12 15 9 16
REMARK H PARENT
REMARK Flexibility Score: 60.00
ROOT
ATOM      1  C   UNL     1     112.572 111.269 111.811  1.00  0.00    -0.074 C 
ATOM      2  C   UNL     1     111.319 110.924 111.414  1.00  0.00    -0.027 C 
ATOM      3  C   UNL     1     113.362 112.129 110.854  1.00  0.00     0.039 C 
ENDROOT
BRANCH   2   4
ATOM      4  C   UNL     1     110.379 109.943 112.068  1.00  0.00     0.032 C 
BRANCH   4   5
ATOM      5  C   UNL     1     109.062 110.650 112.444  1.00  0.00     0.034 C 
BRANCH   5   6
ATOM      6  C   UNL     1     109.292 111.963 113.165  1.00  0.00    -0.077 C 
ATOM      7  C   UNL     1     109.096 113.245 112.400  1.00  0.00     0.039 C 
ATOM      8  C   UNL     1     109.639 112.043 114.473  1.00  0.00    -0.027 CG0
ATOM      9  G   UNL     1     109.891 110.857 115.387  1.00  0.00     0.000 G0
ENDBRANCH   5   6
ENDBRANCH   4   5
ENDBRANCH   2   4
BRANCH   1  10
ATOM     10  C   UNL     1     113.213 111.039 113.180  1.00  0.00     0.057 C 
BRANCH  10  11
ATOM     11  C   UNL     1     112.972 112.029 114.288  1.00  0.00    -0.026 C 
ATOM     12  C   UNL     1     112.263 111.900 115.433  1.00  0.00    -0.024 C 
BRANCH  12  13
ATOM     13  C   UNL     1     111.367 110.778 115.982  1.00  0.00    -0.014 C 
ATOM     14  C   UNL     1     111.293 111.005 117.509  1.00  0.00     0.016 C 
ATOM     15  C   UNL     1     111.908 109.349 115.769  1.00  0.00     0.016 C 
BRANCH  13  16
ATOM     16  C   UNL     1     109.907 110.864 115.386  1.00  0.00     0.038 CG0
ATOM     17  G   UNL     1     109.633 112.043 114.471  1.00  0.00     0.000 G0
ENDBRANCH  13  16
ENDBRANCH  12  13
ENDBRANCH  10  11
ENDBRANCH   1  10
TORSDOF 0
ENDMDL
MODEL 9
REMARK VINA RESULT:    -4.992      1.967      5.320
REMARK INTER + INTRA:          -6.087
REMARK INTER:                  -6.886
REMARK INTRA:                   0.798
REMARK UNBOUND:                 0.947
REMARK SMILES CC1=CCCC(C)=CCC(C)(C)C=CC1
REMARK SMILES IDX 2 1 3 2 1 3 4 4 5 5 6 6 7 7 8 8 15 10 14 11 13 12 10 13
REMARK SMILES IDX 11 14 12 15 9 16
REMARK H PARENT
REMARK Flexibility Score: 60.00
ROOT
ATOM      1  C   UNL     1     112.844 110.414 113.473  1.00  0.00    -0.074 C 
ATOM      2  C   UNL     1     112.214 110.243 114.666  1.00  0.00    -0.027 C 
ATOM      3  C   UNL     1     113.327 109.158 112.787  1.00  0.00     0.039 C 
ENDROOT
BRANCH   2   4
ATOM      4  C   UNL     1     111.789 111.304 115.649  1.00  0.00     0.032 C 
BRANCH   4   5
ATOM      5  C   UNL     1     110.629 112.131 115.060  1.00  0.00     0.034 C 
BRANCH   5   6
ATOM      6  C   UNL     1     109.542 111.261 114.459  1.00  0.00    -0.077 C 
ATOM      7  C   UNL     1     108.786 110.328 115.369  1.00  0.00     0.039 C 
ATOM      8  C   UNL     1     109.195 111.302 113.150  1.00  0.00    -0.027 CG0
ATOM      9  G   UNL     1     109.858 112.169 112.094  1.00  0.00     0.000 G0
ENDBRANCH   5   6
ENDBRANCH   4   5
ENDBRANCH   2   4
BRANCH   1  10
ATOM     10  C   UNL     1     112.967 111.703 112.661  1.00  0.00     0.057 C 
BRANCH  10  11
ATOM     11  C   UNL     1     112.828 111.652 111.162  1.00  0.00    -0.026 C 
ATOM     12  C   UNL     1     111.719 111.589 110.391  1.00  0.00    -0.024 C 
BRANCH  12  13
ATOM     13  C   UNL     1     110.226 111.437 110.726  1.00  0.00    -0.014 C 
ATOM     14  C   UNL     1     109.982 109.920 110.889  1.00  0.00     0.016 C 
ATOM     15  C   UNL     1     109.259 111.928 109.627  1.00  0.00     0.016 C 
BRANCH  13  16
ATOM     16  C   UNL     1     109.863 112.158 112.082  1.00  0.00     0.038 CG0
ATOM     17  G   UNL     1     109.204 111.288 113.138  1.00  0.00     0.000 G0
ENDBRANCH  13  16
ENDBRANCH  12  13
ENDBRANCH  10  11
ENDBRANCH   1  10
TORSDOF 0
ENDMDL
