MODEL 1
REMARK VINA RESULT:    -4.611      0.000      0.000
REMARK INTER + INTRA:          -6.221
REMARK INTER:                  -6.094
REMARK INTRA:                  -0.127
REMARK UNBOUND:                -0.127
REMARK SMILES CCCCCCCO
REMARK SMILES IDX 5 1 4 2 3 3 2 4 1 5 6 6 7 7 8 8
REMARK H PARENT 8 9
REMARK Flexibility Score: inf
ROOT
ATOM      1  C   UNL     1      35.289 -18.727 -29.271  1.00  0.00     0.002 C 
ENDROOT
BRANCH   1   2
ATOM      2  C   UNL     1      34.462 -18.352 -28.030  1.00  0.00     0.000 C 
BRANCH   2   3
ATOM      3  C   UNL     1      33.026 -17.934 -28.378  1.00  0.00    -0.000 C 
BRANCH   3   4
ATOM      4  C   UNL     1      32.091 -19.149 -28.391  1.00  0.00    -0.003 C 
ATOM      5  C   UNL     1      31.702 -19.531 -29.816  1.00  0.00     0.004 C 
ENDBRANCH   3   4
ENDBRANCH   2   3
ENDBRANCH   1   2
BRANCH   1   6
ATOM      6  C   UNL     1      36.467 -17.769 -29.508  1.00  0.00     0.028 C 
BRANCH   6   7
ATOM      7  C   UNL     1      37.377 -18.254 -30.640  1.00  0.00     0.156 C 
BRANCH   7   8
ATOM      8  O   UNL     1      38.141 -19.356 -30.226  1.00  0.00    -0.396 OA
ATOM      9  H   UNL     1      38.353 -19.216 -29.267  1.00  0.00     0.210 HD
ENDBRANCH   7   8
ENDBRANCH   6   7
ENDBRANCH   1   6
TORSDOF 6
ENDMDL
MODEL 2
REMARK VINA RESULT:    -4.045      1.886      4.220
REMARK INTER + INTRA:          -5.472
REMARK INTER:                  -5.308
REMARK INTRA:                  -0.164
REMARK UNBOUND:                -0.127
REMARK SMILES CCCCCCCO
REMARK SMILES IDX 5 1 4 2 3 3 2 4 1 5 6 6 7 7 8 8
REMARK H PARENT 8 9
REMARK Flexibility Score: inf
ROOT
ATOM      1  C   UNL     1      32.882 -18.759 -28.181  1.00  0.00     0.002 C 
ENDROOT
BRANCH   1   2
ATOM      2  C   UNL     1      34.067 -17.785 -28.288  1.00  0.00     0.000 C 
BRANCH   2   3
ATOM      3  C   UNL     1      35.342 -18.457 -28.818  1.00  0.00    -0.000 C 
BRANCH   3   4
ATOM      4  C   UNL     1      36.234 -17.443 -29.543  1.00  0.00    -0.003 C 
ATOM      5  C   UNL     1      36.955 -18.087 -30.723  1.00  0.00     0.004 C 
ENDBRANCH   3   4
ENDBRANCH   2   3
ENDBRANCH   1   2
BRANCH   1   6
ATOM      6  C   UNL     1      31.968 -18.717 -29.415  1.00  0.00     0.028 C 
BRANCH   6   7
ATOM      7  C   UNL     1      32.097 -19.985 -30.264  1.00  0.00     0.156 C 
BRANCH   7   8
ATOM      8  O   UNL     1      33.241 -19.925 -31.074  1.00  0.00    -0.396 OA
ATOM      9  H   UNL     1      33.098 -20.560 -31.824  1.00  0.00     0.210 HD
ENDBRANCH   7   8
ENDBRANCH   6   7
ENDBRANCH   1   6
TORSDOF 6
ENDMDL
MODEL 3
REMARK VINA RESULT:    -3.653      2.412      4.657
REMARK INTER + INTRA:          -4.954
REMARK INTER:                  -4.831
REMARK INTRA:                  -0.123
REMARK UNBOUND:                -0.127
REMARK SMILES CCCCCCCO
REMARK SMILES IDX 5 1 4 2 3 3 2 4 1 5 6 6 7 7 8 8
REMARK H PARENT 8 9
REMARK Flexibility Score: inf
ROOT
ATOM      1  C   UNL     1      34.251 -17.887 -28.448  1.00  0.00     0.002 C 
ENDROOT
BRANCH   1   2
ATOM      2  C   UNL     1      35.285 -18.551 -29.372  1.00  0.00     0.000 C 
BRANCH   2   3
ATOM      3  C   UNL     1      36.675 -17.907 -29.266  1.00  0.00    -0.000 C 
BRANCH   3   4
ATOM      4  C   UNL     1      37.518 -18.218 -30.508  1.00  0.00    -0.003 C 
ATOM      5  C   UNL     1      36.710 -18.023 -31.787  1.00  0.00     0.004 C 
ENDBRANCH   3   4
ENDBRANCH   2   3
ENDBRANCH   1   2
BRANCH   1   6
ATOM      6  C   UNL     1      33.034 -18.787 -28.179  1.00  0.00     0.028 C 
BRANCH   6   7
ATOM      7  C   UNL     1      31.952 -18.618 -29.249  1.00  0.00     0.156 C 
BRANCH   7   8
ATOM      8  O   UNL     1      31.667 -19.847 -29.865  1.00  0.00    -0.396 OA
ATOM      9  H   UNL     1      31.076 -20.349 -29.246  1.00  0.00     0.210 HD
ENDBRANCH   7   8
ENDBRANCH   6   7
ENDBRANCH   1   6
TORSDOF 6
ENDMDL
MODEL 4
REMARK VINA RESULT:    -3.329      2.253      2.683
REMARK INTER + INTRA:          -4.526
REMARK INTER:                  -4.354
REMARK INTRA:                  -0.172
REMARK UNBOUND:                -0.127
REMARK SMILES CCCCCCCO
REMARK SMILES IDX 5 1 4 2 3 3 2 4 1 5 6 6 7 7 8 8
REMARK H PARENT 8 9
REMARK Flexibility Score: inf
ROOT
ATOM      1  C   UNL     1      35.880 -18.751 -29.543  1.00  0.00     0.002 C 
ENDROOT
BRANCH   1   2
ATOM      2  C   UNL     1      34.386 -19.072 -29.379  1.00  0.00     0.000 C 
BRANCH   2   3
ATOM      3  C   UNL     1      33.774 -19.709 -30.635  1.00  0.00    -0.000 C 
BRANCH   3   4
ATOM      4  C   UNL     1      32.254 -19.850 -30.493  1.00  0.00    -0.003 C 
ATOM      5  C   UNL     1      31.730 -19.021 -29.324  1.00  0.00     0.004 C 
ENDBRANCH   3   4
ENDBRANCH   2   3
ENDBRANCH   1   2
BRANCH   1   6
ATOM      6  C   UNL     1      36.216 -17.294 -29.185  1.00  0.00     0.028 C 
BRANCH   6   7
ATOM      7  C   UNL     1      34.955 -16.468 -28.918  1.00  0.00     0.156 C 
BRANCH   7   8
ATOM      8  O   UNL     1      34.813 -16.209 -27.546  1.00  0.00    -0.396 OA
ATOM      9  H   UNL     1      34.830 -15.224 -27.434  1.00  0.00     0.210 HD
ENDBRANCH   7   8
ENDBRANCH   6   7
ENDBRANCH   1   6
TORSDOF 6
ENDMDL
MODEL 5
REMARK VINA RESULT:    -3.223      2.577      4.534
REMARK INTER + INTRA:          -4.387
REMARK INTER:                  -4.141
REMARK INTRA:                  -0.246
REMARK UNBOUND:                -0.127
REMARK SMILES CCCCCCCO
REMARK SMILES IDX 5 1 4 2 3 3 2 4 1 5 6 6 7 7 8 8
REMARK H PARENT 8 9
REMARK Flexibility Score: inf
ROOT
ATOM      1  C   UNL     1      33.502 -19.598 -30.320  1.00  0.00     0.002 C 
ENDROOT
BRANCH   1   2
ATOM      2  C   UNL     1      34.714 -19.209 -29.458  1.00  0.00     0.000 C 
BRANCH   2   3
ATOM      3  C   UNL     1      35.896 -18.695 -30.294  1.00  0.00    -0.000 C 
BRANCH   3   4
ATOM      4  C   UNL     1      36.494 -17.427 -29.675  1.00  0.00    -0.003 C 
ATOM      5  C   UNL     1      35.449 -16.659 -28.871  1.00  0.00     0.004 C 
ENDBRANCH   3   4
ENDBRANCH   2   3
ENDBRANCH   1   2
BRANCH   1   6
ATOM      6  C   UNL     1      32.165 -19.194 -29.679  1.00  0.00     0.028 C 
BRANCH   6   7
ATOM      7  C   UNL     1      32.315 -18.903 -28.183  1.00  0.00     0.156 C 
BRANCH   7   8
ATOM      8  O   UNL     1      32.169 -17.531 -27.928  1.00  0.00    -0.396 OA
ATOM      9  H   UNL     1      32.779 -17.310 -27.177  1.00  0.00     0.210 HD
ENDBRANCH   7   8
ENDBRANCH   6   7
ENDBRANCH   1   6
TORSDOF 6
ENDMDL
MODEL 6
REMARK VINA RESULT:    -3.190      2.338      4.377
REMARK INTER + INTRA:          -4.343
REMARK INTER:                  -4.110
REMARK INTRA:                  -0.232
REMARK UNBOUND:                -0.127
REMARK SMILES CCCCCCCO
REMARK SMILES IDX 5 1 4 2 3 3 2 4 1 5 6 6 7 7 8 8
REMARK H PARENT 8 9
REMARK Flexibility Score: inf
ROOT
ATOM      1  C   UNL     1      33.648 -19.120 -29.753  1.00  0.00     0.002 C 
ENDROOT
BRANCH   1   2
ATOM      2  C   UNL     1      35.107 -19.327 -30.193  1.00  0.00     0.000 C 
BRANCH   2   3
ATOM      3  C   UNL     1      36.099 -18.490 -29.373  1.00  0.00    -0.000 C 
BRANCH   3   4
ATOM      4  C   UNL     1      36.886 -17.534 -30.276  1.00  0.00    -0.003 C 
ATOM      5  C   UNL     1      36.820 -17.973 -31.735  1.00  0.00     0.004 C 
ENDBRANCH   3   4
ENDBRANCH   2   3
ENDBRANCH   1   2
BRANCH   1   6
ATOM      6  C   UNL     1      33.530 -18.680 -28.286  1.00  0.00     0.028 C 
BRANCH   6   7
ATOM      7  C   UNL     1      32.881 -17.299 -28.154  1.00  0.00     0.156 C 
BRANCH   7   8
ATOM      8  O   UNL     1      33.833 -16.338 -27.777  1.00  0.00    -0.396 OA
ATOM      9  H   UNL     1      34.338 -16.717 -27.012  1.00  0.00     0.210 HD
ENDBRANCH   7   8
ENDBRANCH   6   7
ENDBRANCH   1   6
TORSDOF 6
ENDMDL
MODEL 7
REMARK VINA RESULT:    -2.534      1.333      2.221
REMARK INTER + INTRA:          -3.475
REMARK INTER:                  -3.381
REMARK INTRA:                  -0.094
REMARK UNBOUND:                -0.127
REMARK SMILES CCCCCCCO
REMARK SMILES IDX 5 1 4 2 3 3 2 4 1 5 6 6 7 7 8 8
REMARK H PARENT 8 9
REMARK Flexibility Score: inf
ROOT
ATOM      1  C   UNL     1      34.999 -18.937 -29.560  1.00  0.00     0.002 C 
ENDROOT
BRANCH   1   2
ATOM      2  C   UNL     1      34.153 -18.736 -28.291  1.00  0.00     0.000 C 
BRANCH   2   3
ATOM      3  C   UNL     1      33.192 -17.543 -28.402  1.00  0.00    -0.000 C 
BRANCH   3   4
ATOM      4  C   UNL     1      33.812 -16.283 -27.788  1.00  0.00    -0.003 C 
ATOM      5  C   UNL     1      34.707 -15.563 -28.793  1.00  0.00     0.004 C 
ENDBRANCH   3   4
ENDBRANCH   2   3
ENDBRANCH   1   2
BRANCH   1   6
ATOM      6  C   UNL     1      36.478 -18.574 -29.348  1.00  0.00     0.028 C 
BRANCH   6   7
ATOM      7  C   UNL     1      37.161 -18.178 -30.660  1.00  0.00     0.156 C 
BRANCH   7   8
ATOM      8  O   UNL     1      38.407 -18.813 -30.781  1.00  0.00    -0.396 OA
ATOM      9  H   UNL     1      38.833 -18.459 -31.605  1.00  0.00     0.210 HD
ENDBRANCH   7   8
ENDBRANCH   6   7
ENDBRANCH   1   6
TORSDOF 6
ENDMDL
MODEL 8
REMARK VINA RESULT:    -2.236      2.219      2.661
REMARK INTER + INTRA:          -3.082
REMARK INTER:                  -2.924
REMARK INTRA:                  -0.158
REMARK UNBOUND:                -0.127
REMARK SMILES CCCCCCCO
REMARK SMILES IDX 5 1 4 2 3 3 2 4 1 5 6 6 7 7 8 8
REMARK H PARENT 8 9
REMARK Flexibility Score: inf
ROOT
ATOM      1  C   UNL     1      35.728 -18.183 -29.928  1.00  0.00     0.002 C 
ENDROOT
BRANCH   1   2
ATOM      2  C   UNL     1      35.149 -17.428 -28.720  1.00  0.00     0.000 C 
BRANCH   2   3
ATOM      3  C   UNL     1      34.149 -18.272 -27.916  1.00  0.00    -0.000 C 
BRANCH   3   4
ATOM      4  C   UNL     1      32.706 -17.878 -28.250  1.00  0.00    -0.003 C 
ATOM      5  C   UNL     1      31.758 -19.061 -28.084  1.00  0.00     0.004 C 
ENDBRANCH   3   4
ENDBRANCH   2   3
ENDBRANCH   1   2
BRANCH   1   6
ATOM      6  C   UNL     1      35.086 -19.565 -30.124  1.00  0.00     0.028 C 
BRANCH   6   7
ATOM      7  C   UNL     1      34.083 -19.570 -31.281  1.00  0.00     0.156 C 
BRANCH   7   8
ATOM      8  O   UNL     1      32.920 -20.270 -30.926  1.00  0.00    -0.396 OA
ATOM      9  H   UNL     1      33.150 -21.235 -30.934  1.00  0.00     0.210 HD
ENDBRANCH   7   8
ENDBRANCH   6   7
ENDBRANCH   1   6
TORSDOF 6
ENDMDL
MODEL 9
REMARK VINA RESULT:    -2.029      2.835      2.998
REMARK INTER + INTRA:          -2.808
REMARK INTER:                  -2.790
REMARK INTRA:                  -0.018
REMARK UNBOUND:                -0.127
REMARK SMILES CCCCCCCO
REMARK SMILES IDX 5 1 4 2 3 3 2 4 1 5 6 6 7 7 8 8
REMARK H PARENT 8 9
REMARK Flexibility Score: inf
ROOT
ATOM      1  C   UNL     1      33.641 -17.296 -28.136  1.00  0.00     0.002 C 
ENDROOT
BRANCH   1   2
ATOM      2  C   UNL     1      33.535 -18.826 -28.233  1.00  0.00     0.000 C 
BRANCH   2   3
ATOM      3  C   UNL     1      33.320 -19.315 -29.673  1.00  0.00    -0.000 C 
BRANCH   3   4
ATOM      4  C   UNL     1      31.853 -19.693 -29.910  1.00  0.00    -0.003 C 
ATOM      5  C   UNL     1      30.951 -18.463 -29.859  1.00  0.00     0.004 C 
ENDBRANCH   3   4
ENDBRANCH   2   3
ENDBRANCH   1   2
BRANCH   1   6
ATOM      6  C   UNL     1      35.077 -16.788 -28.343  1.00  0.00     0.028 C 
BRANCH   6   7
ATOM      7  C   UNL     1      35.136 -15.639 -29.353  1.00  0.00     0.156 C 
BRANCH   7   8
ATOM      8  O   UNL     1      34.435 -14.521 -28.875  1.00  0.00    -0.396 OA
ATOM      9  H   UNL     1      33.818 -14.236 -29.598  1.00  0.00     0.210 HD
ENDBRANCH   7   8
ENDBRANCH   6   7
ENDBRANCH   1   6
TORSDOF 6
ENDMDL
