MODEL 1
REMARK VINA RESULT:    -4.084      0.000      0.000
REMARK INTER + INTRA:          -4.818
REMARK INTER:                  -4.680
REMARK INTRA:                  -0.137
REMARK UNBOUND:                -0.137
REMARK SMILES O=C([O-])C=Cc1ccc(O)cc1
REMARK SMILES IDX 6 1 7 2 12 3 8 4 11 5 9 6 5 7 4 8 2 9 1 10 3 11 10 12
REMARK H PARENT 10 13
REMARK Flexibility Score: inf
ROOT
ATOM      1  C   UNL     1      11.827  13.884  19.982  1.00  0.00    -0.025 A 
ATOM      2  C   UNL     1      11.046  14.451  18.960  1.00  0.00     0.012 A 
ATOM      3  C   UNL     1      11.415  12.661  20.552  1.00  0.00     0.012 A 
ATOM      4  C   UNL     1       9.896  13.802  18.500  1.00  0.00     0.047 A 
ATOM      5  C   UNL     1      10.264  12.016  20.089  1.00  0.00     0.047 A 
ATOM      6  C   UNL     1       9.504  12.582  19.062  1.00  0.00     0.115 A 
ENDROOT
BRANCH   1   7
ATOM      7  C   UNL     1      13.032  14.615  20.443  1.00  0.00     0.010 C 
ATOM      8  C   UNL     1      12.991  15.684  21.252  1.00  0.00     0.025 C 
BRANCH   8   9
ATOM      9  C   UNL     1      14.210  16.378  21.700  1.00  0.00     0.064 C 
ATOM     10  O   UNL     1      15.123  16.685  20.888  1.00  0.00    -0.545 OA
ATOM     11  O   UNL     1      14.355  16.703  23.042  1.00  0.00    -0.545 OA
ENDBRANCH   8   9
ENDBRANCH   1   7
BRANCH   6  12
ATOM     12  O   UNL     1       8.360  11.925  18.611  1.00  0.00    -0.508 OA
ATOM     13  H   UNL     1       7.843  12.257  17.805  1.00  0.00     0.293 HD
ENDBRANCH   6  12
TORSDOF 3
ENDMDL
MODEL 2
REMARK VINA RESULT:    -3.681      2.508      3.212
REMARK INTER + INTRA:          -4.356
REMARK INTER:                  -4.222
REMARK INTRA:                  -0.134
REMARK UNBOUND:                -0.137
REMARK SMILES O=C([O-])C=Cc1ccc(O)cc1
REMARK SMILES IDX 6 1 7 2 12 3 8 4 11 5 9 6 5 7 4 8 2 9 1 10 3 11 10 12
REMARK H PARENT 10 13
REMARK Flexibility Score: inf
ROOT
ATOM      1  C   UNL     1      11.914  13.993  22.489  1.00  0.00    -0.025 A 
ATOM      2  C   UNL     1      11.402  14.028  23.798  1.00  0.00     0.012 A 
ATOM      3  C   UNL     1      11.242  13.221  21.518  1.00  0.00     0.012 A 
ATOM      4  C   UNL     1      10.235  13.333  24.125  1.00  0.00     0.047 A 
ATOM      5  C   UNL     1      10.075  12.526  21.850  1.00  0.00     0.047 A 
ATOM      6  C   UNL     1       9.567  12.582  23.150  1.00  0.00     0.115 A 
ENDROOT
BRANCH   1   7
ATOM      7  C   UNL     1      13.161  14.739  22.194  1.00  0.00     0.010 C 
ATOM      8  C   UNL     1      13.274  15.646  21.212  1.00  0.00     0.025 C 
BRANCH   8   9
ATOM      9  C   UNL     1      14.526  16.377  20.957  1.00  0.00     0.064 C 
ATOM     10  O   UNL     1      15.109  17.014  21.875  1.00  0.00    -0.545 OA
ATOM     11  O   UNL     1      15.078  16.361  19.683  1.00  0.00    -0.545 OA
ENDBRANCH   8   9
ENDBRANCH   1   7
BRANCH   6  12
ATOM     12  O   UNL     1       8.402  11.884  23.464  1.00  0.00    -0.508 OA
ATOM     13  H   UNL     1       8.407  11.114  24.123  1.00  0.00     0.293 HD
ENDBRANCH   6  12
TORSDOF 3
ENDMDL
MODEL 3
REMARK VINA RESULT:    -3.417      1.610      5.854
REMARK INTER + INTRA:          -4.054
REMARK INTER:                  -3.905
REMARK INTRA:                  -0.149
REMARK UNBOUND:                -0.137
REMARK SMILES O=C([O-])C=Cc1ccc(O)cc1
REMARK SMILES IDX 6 1 7 2 12 3 8 4 11 5 9 6 5 7 4 8 2 9 1 10 3 11 10 12
REMARK H PARENT 10 13
REMARK Flexibility Score: inf
ROOT
ATOM      1  C   UNL     1      12.494  14.644  21.948  1.00  0.00    -0.025 A 
ATOM      2  C   UNL     1      13.364  15.514  21.267  1.00  0.00     0.012 A 
ATOM      3  C   UNL     1      12.504  14.641  23.358  1.00  0.00     0.012 A 
ATOM      4  C   UNL     1      14.203  16.379  21.974  1.00  0.00     0.047 A 
ATOM      5  C   UNL     1      13.346  15.508  24.061  1.00  0.00     0.047 A 
ATOM      6  C   UNL     1      14.194  16.380  23.374  1.00  0.00     0.115 A 
ENDROOT
BRANCH   1   7
ATOM      7  C   UNL     1      11.631  13.737  21.153  1.00  0.00     0.010 C 
ATOM      8  C   UNL     1      11.146  14.041  19.940  1.00  0.00     0.025 C 
BRANCH   8   9
ATOM      9  C   UNL     1      10.302  13.109  19.175  1.00  0.00     0.064 C 
ATOM     10  O   UNL     1      10.298  11.875  19.426  1.00  0.00    -0.545 OA
ATOM     11  O   UNL     1       9.491  13.600  18.159  1.00  0.00    -0.545 OA
ENDBRANCH   8   9
ENDBRANCH   1   7
BRANCH   6  12
ATOM     12  O   UNL     1      15.026  17.239  24.090  1.00  0.00    -0.508 OA
ATOM     13  H   UNL     1      15.897  16.916  24.495  1.00  0.00     0.293 HD
ENDBRANCH   6  12
TORSDOF 3
ENDMDL
MODEL 4
REMARK VINA RESULT:    -3.367      2.780      3.429
REMARK INTER + INTRA:          -3.996
REMARK INTER:                  -3.863
REMARK INTRA:                  -0.133
REMARK UNBOUND:                -0.137
REMARK SMILES O=C([O-])C=Cc1ccc(O)cc1
REMARK SMILES IDX 6 1 7 2 12 3 8 4 11 5 9 6 5 7 4 8 2 9 1 10 3 11 10 12
REMARK H PARENT 10 13
REMARK Flexibility Score: inf
ROOT
ATOM      1  C   UNL     1      11.667  13.425  22.218  1.00  0.00    -0.025 A 
ATOM      2  C   UNL     1      11.354  13.932  23.492  1.00  0.00     0.012 A 
ATOM      3  C   UNL     1      10.764  12.534  21.602  1.00  0.00     0.012 A 
ATOM      4  C   UNL     1      10.159  13.580  24.124  1.00  0.00     0.047 A 
ATOM      5  C   UNL     1       9.569  12.185  22.238  1.00  0.00     0.047 A 
ATOM      6  C   UNL     1       9.262  12.706  23.497  1.00  0.00     0.115 A 
ENDROOT
BRANCH   1   7
ATOM      7  C   UNL     1      12.953  13.820  21.593  1.00  0.00     0.010 C 
ATOM      8  C   UNL     1      13.050  14.665  20.556  1.00  0.00     0.025 C 
BRANCH   8   9
ATOM      9  C   UNL     1      14.346  15.043  19.970  1.00  0.00     0.064 C 
ATOM     10  O   UNL     1      15.105  14.182  19.452  1.00  0.00    -0.545 OA
ATOM     11  O   UNL     1      14.738  16.376  19.984  1.00  0.00    -0.545 OA
ENDBRANCH   8   9
ENDBRANCH   1   7
BRANCH   6  12
ATOM     12  O   UNL     1       8.066  12.349  24.118  1.00  0.00    -0.508 OA
ATOM     13  H   UNL     1       7.760  11.384  24.159  1.00  0.00     0.293 HD
ENDBRANCH   6  12
TORSDOF 3
ENDMDL
MODEL 5
REMARK VINA RESULT:    -3.320     24.001     25.945
REMARK INTER + INTRA:          -3.943
REMARK INTER:                  -3.804
REMARK INTRA:                  -0.139
REMARK UNBOUND:                -0.137
REMARK SMILES O=C([O-])C=Cc1ccc(O)cc1
REMARK SMILES IDX 6 1 7 2 12 3 8 4 11 5 9 6 5 7 4 8 2 9 1 10 3 11 10 12
REMARK H PARENT 10 13
REMARK Flexibility Score: inf
ROOT
ATOM      1  C   UNL     1      -1.870  30.629   6.347  1.00  0.00    -0.025 A 
ATOM      2  C   UNL     1      -0.943  31.549   5.827  1.00  0.00     0.012 A 
ATOM      3  C   UNL     1      -1.720  30.195   7.681  1.00  0.00     0.012 A 
ATOM      4  C   UNL     1       0.094  32.043   6.623  1.00  0.00     0.047 A 
ATOM      5  C   UNL     1      -0.681  30.692   8.474  1.00  0.00     0.047 A 
ATOM      6  C   UNL     1       0.225  31.617   7.950  1.00  0.00     0.115 A 
ENDROOT
BRANCH   1   7
ATOM      7  C   UNL     1      -2.946  30.125   5.459  1.00  0.00     0.010 C 
ATOM      8  C   UNL     1      -3.156  28.826   5.205  1.00  0.00     0.025 C 
BRANCH   8   9
ATOM      9  C   UNL     1      -4.243  28.362   4.328  1.00  0.00     0.064 C 
ATOM     10  O   UNL     1      -5.103  29.162   3.875  1.00  0.00    -0.545 OA
ATOM     11  O   UNL     1      -4.320  27.017   3.989  1.00  0.00    -0.545 OA
ENDBRANCH   8   9
ENDBRANCH   1   7
BRANCH   6  12
ATOM     12  O   UNL     1       1.254  32.104   8.755  1.00  0.00    -0.508 OA
ATOM     13  H   UNL     1       1.623  31.562   9.527  1.00  0.00     0.293 HD
ENDBRANCH   6  12
TORSDOF 3
ENDMDL
MODEL 6
REMARK VINA RESULT:    -2.809     24.169     25.212
REMARK INTER + INTRA:          -3.357
REMARK INTER:                  -3.223
REMARK INTRA:                  -0.134
REMARK UNBOUND:                -0.137
REMARK SMILES O=C([O-])C=Cc1ccc(O)cc1
REMARK SMILES IDX 6 1 7 2 12 3 8 4 11 5 9 6 5 7 4 8 2 9 1 10 3 11 10 12
REMARK H PARENT 10 13
REMARK Flexibility Score: inf
ROOT
ATOM      1  C   UNL     1      -2.772  29.860   6.171  1.00  0.00    -0.025 A 
ATOM      2  C   UNL     1      -2.215  29.298   5.009  1.00  0.00     0.012 A 
ATOM      3  C   UNL     1      -4.085  29.495   6.539  1.00  0.00     0.012 A 
ATOM      4  C   UNL     1      -2.937  28.377   4.246  1.00  0.00     0.047 A 
ATOM      5  C   UNL     1      -4.804  28.574   5.772  1.00  0.00     0.047 A 
ATOM      6  C   UNL     1      -4.234  28.011   4.627  1.00  0.00     0.115 A 
ENDROOT
BRANCH   1   7
ATOM      7  C   UNL     1      -1.970  30.841   6.942  1.00  0.00     0.010 C 
ATOM      8  C   UNL     1      -1.036  30.499   7.841  1.00  0.00     0.025 C 
BRANCH   8   9
ATOM      9  C   UNL     1      -0.250  31.502   8.578  1.00  0.00     0.064 C 
ATOM     10  O   UNL     1       0.732  32.083   8.043  1.00  0.00    -0.545 OA
ATOM     11  O   UNL     1      -0.599  31.818   9.884  1.00  0.00    -0.545 OA
ENDBRANCH   8   9
ENDBRANCH   1   7
BRANCH   6  12
ATOM     12  O   UNL     1      -4.964  27.092   3.875  1.00  0.00    -0.508 OA
ATOM     13  H   UNL     1      -5.319  26.236   4.285  1.00  0.00     0.293 HD
ENDBRANCH   6  12
TORSDOF 3
ENDMDL
MODEL 7
REMARK VINA RESULT:    -2.601      2.985      5.410
REMARK INTER + INTRA:          -3.119
REMARK INTER:                  -2.982
REMARK INTRA:                  -0.137
REMARK UNBOUND:                -0.137
REMARK SMILES O=C([O-])C=Cc1ccc(O)cc1
REMARK SMILES IDX 6 1 7 2 12 3 8 4 11 5 9 6 5 7 4 8 2 9 1 10 3 11 10 12
REMARK H PARENT 10 13
REMARK Flexibility Score: inf
ROOT
ATOM      1  C   UNL     1      12.897  14.703  21.737  1.00  0.00    -0.025 A 
ATOM      2  C   UNL     1      13.552  15.821  22.282  1.00  0.00     0.012 A 
ATOM      3  C   UNL     1      12.982  14.478  20.347  1.00  0.00     0.012 A 
ATOM      4  C   UNL     1      14.295  16.679  21.466  1.00  0.00     0.047 A 
ATOM      5  C   UNL     1      13.725  15.339  19.534  1.00  0.00     0.047 A 
ATOM      6  C   UNL     1      14.385  16.438  20.090  1.00  0.00     0.115 A 
ENDROOT
BRANCH   1   7
ATOM      7  C   UNL     1      12.112  13.828  22.642  1.00  0.00     0.010 C 
ATOM      8  C   UNL     1      10.783  13.915  22.796  1.00  0.00     0.025 C 
BRANCH   8   9
ATOM      9  C   UNL     1      10.036  13.021  23.695  1.00  0.00     0.064 C 
ATOM     10  O   UNL     1      10.545  11.951  24.123  1.00  0.00    -0.545 OA
ATOM     11  O   UNL     1       8.746  13.363  24.081  1.00  0.00    -0.545 OA
ENDBRANCH   8   9
ENDBRANCH   1   7
BRANCH   6  12
ATOM     12  O   UNL     1      15.123  17.286  19.266  1.00  0.00    -0.508 OA
ATOM     13  H   UNL     1      15.022  17.265  18.258  1.00  0.00     0.293 HD
ENDBRANCH   6  12
TORSDOF 3
ENDMDL
MODEL 8
REMARK VINA RESULT:    -2.101      2.527      5.707
REMARK INTER + INTRA:          -2.545
REMARK INTER:                  -2.409
REMARK INTRA:                  -0.136
REMARK UNBOUND:                -0.137
REMARK SMILES O=C([O-])C=Cc1ccc(O)cc1
REMARK SMILES IDX 6 1 7 2 12 3 8 4 11 5 9 6 5 7 4 8 2 9 1 10 3 11 10 12
REMARK H PARENT 10 13
REMARK Flexibility Score: inf
ROOT
ATOM      1  C   UNL     1      11.932  12.522  21.414  1.00  0.00    -0.025 A 
ATOM      2  C   UNL     1      11.747  13.229  22.615  1.00  0.00     0.012 A 
ATOM      3  C   UNL     1      13.209  11.996  21.126  1.00  0.00     0.012 A 
ATOM      4  C   UNL     1      12.802  13.384  23.519  1.00  0.00     0.047 A 
ATOM      5  C   UNL     1      14.261  12.155  22.033  1.00  0.00     0.047 A 
ATOM      6  C   UNL     1      14.061  12.845  23.231  1.00  0.00     0.115 A 
ENDROOT
BRANCH   1   7
ATOM      7  C   UNL     1      10.785  12.393  20.482  1.00  0.00     0.010 C 
ATOM      8  C   UNL     1      10.605  13.177  19.409  1.00  0.00     0.025 C 
BRANCH   8   9
ATOM      9  C   UNL     1       9.460  13.011  18.498  1.00  0.00     0.064 C 
ATOM     10  O   UNL     1       9.198  13.870  17.615  1.00  0.00    -0.545 OA
ATOM     11  O   UNL     1       8.656  11.884  18.611  1.00  0.00    -0.545 OA
ENDBRANCH   8   9
ENDBRANCH   1   7
BRANCH   6  12
ATOM     12  O   UNL     1      15.120  12.993  24.125  1.00  0.00    -0.508 OA
ATOM     13  H   UNL     1      14.985  13.402  25.042  1.00  0.00     0.293 HD
ENDBRANCH   6  12
TORSDOF 3
ENDMDL
