MODEL 1
REMARK VINA RESULT:    -4.038      0.000      0.000
REMARK INTER + INTRA:         -11.824
REMARK INTER:                  -8.759
REMARK INTRA:                  -3.065
REMARK UNBOUND:                -3.065
REMARK SMILES CCCCCCCCCCCCCCCCCCCCCC(=O)[O-]
REMARK SMILES IDX 12 1 11 2 10 3 9 4 8 5 7 6 6 7 5 8 4 9 3 10 2 11 1 12 13 13
REMARK SMILES IDX 14 14 15 15 16 16 17 17 18 18 19 19 20 20 21 21 22 22 23 23
REMARK SMILES IDX 24 24
REMARK H PARENT
REMARK Flexibility Score: inf
ROOT
ATOM      1  C   UNL     1       1.559  -1.325   5.238  1.00  0.00     0.000 C 
ENDROOT
BRANCH   1   2
ATOM      2  C   UNL     1       2.971  -1.849   5.544  1.00  0.00     0.000 C 
BRANCH   2   3
ATOM      3  C   UNL     1       2.939  -3.338   5.909  1.00  0.00     0.000 C 
BRANCH   3   4
ATOM      4  C   UNL     1       2.790  -3.529   7.425  1.00  0.00    -0.000 C 
BRANCH   4   5
ATOM      5  C   UNL     1       1.374  -4.004   7.785  1.00  0.00    -0.000 C 
BRANCH   5   6
ATOM      6  C   UNL     1       0.630  -3.016   8.705  1.00  0.00    -0.000 C 
BRANCH   6   7
ATOM      7  C   UNL     1      -0.625  -2.393   8.067  1.00  0.00    -0.000 C 
BRANCH   7   8
ATOM      8  C   UNL     1      -1.384  -3.378   7.158  1.00  0.00    -0.000 C 
BRANCH   8   9
ATOM      9  C   UNL     1      -2.358  -2.654   6.205  1.00  0.00    -0.000 C 
BRANCH   9  10
ATOM     10  C   UNL     1      -1.857  -2.525   4.748  1.00  0.00    -0.000 C 
BRANCH  10  11
ATOM     11  C   UNL     1      -2.699  -1.604   3.844  1.00  0.00    -0.003 C 
ATOM     12  C   UNL     1      -4.039  -1.218   4.473  1.00  0.00     0.004 C 
ENDBRANCH  10  11
ENDBRANCH   9  10
ENDBRANCH   8   9
ENDBRANCH   7   8
ENDBRANCH   6   7
ENDBRANCH   5   6
ENDBRANCH   4   5
ENDBRANCH   3   4
ENDBRANCH   2   3
ENDBRANCH   1   2
BRANCH   1  13
ATOM     13  C   UNL     1       1.217  -0.052   6.031  1.00  0.00     0.000 C 
BRANCH  13  14
ATOM     14  C   UNL     1       2.213   0.217   7.171  1.00  0.00     0.000 C 
BRANCH  14  15
ATOM     15  C   UNL     1       1.517   0.557   8.498  1.00  0.00     0.000 C 
BRANCH  15  16
ATOM     16  C   UNL     1       1.746   2.015   8.937  1.00  0.00     0.000 C 
BRANCH  16  17
ATOM     17  C   UNL     1       0.440   2.821   9.018  1.00  0.00     0.000 C 
BRANCH  17  18
ATOM     18  C   UNL     1       0.384   3.965   7.990  1.00  0.00     0.000 C 
BRANCH  18  19
ATOM     19  C   UNL     1       1.626   4.009   7.084  1.00  0.00     0.000 C 
BRANCH  19  20
ATOM     20  C   UNL     1       1.310   3.633   5.627  1.00  0.00     0.006 C 
BRANCH  20  21
ATOM     21  C   UNL     1       1.589   4.790   4.658  1.00  0.00     0.053 C 
BRANCH  21  22
ATOM     22  C   UNL     1       0.625   5.925   4.849  1.00  0.00     0.041 C 
ATOM     23  O   UNL     1       1.036   7.043   5.266  1.00  0.00    -0.550 OA
ATOM     24  O   UNL     1      -0.730   5.740   4.596  1.00  0.00    -0.550 OA
ENDBRANCH  21  22
ENDBRANCH  20  21
ENDBRANCH  19  20
ENDBRANCH  18  19
ENDBRANCH  17  18
ENDBRANCH  16  17
ENDBRANCH  15  16
ENDBRANCH  14  15
ENDBRANCH  13  14
ENDBRANCH   1  13
TORSDOF 20
ENDMDL
MODEL 2
REMARK VINA RESULT:    -3.980      1.570      3.081
REMARK INTER + INTRA:         -11.698
REMARK INTER:                  -9.711
REMARK INTRA:                  -1.987
REMARK UNBOUND:                -3.065
REMARK SMILES CCCCCCCCCCCCCCCCCCCCCC(=O)[O-]
REMARK SMILES IDX 12 1 11 2 10 3 9 4 8 5 7 6 6 7 5 8 4 9 3 10 2 11 1 12 13 13
REMARK SMILES IDX 14 14 15 15 16 16 17 17 18 18 19 19 20 20 21 21 22 22 23 23
REMARK SMILES IDX 24 24
REMARK H PARENT
REMARK Flexibility Score: inf
ROOT
ATOM      1  C   UNL     1       0.796  -1.684   5.375  1.00  0.00     0.000 C 
ENDROOT
BRANCH   1   2
ATOM      2  C   UNL     1       0.147  -2.670   6.358  1.00  0.00     0.000 C 
BRANCH   2   3
ATOM      3  C   UNL     1      -1.378  -2.691   6.192  1.00  0.00     0.000 C 
BRANCH   3   4
ATOM      4  C   UNL     1      -1.994  -3.886   6.933  1.00  0.00    -0.000 C 
BRANCH   4   5
ATOM      5  C   UNL     1      -3.522  -3.750   7.027  1.00  0.00    -0.000 C 
BRANCH   5   6
ATOM      6  C   UNL     1      -3.992  -2.282   6.984  1.00  0.00    -0.000 C 
BRANCH   6   7
ATOM      7  C   UNL     1      -5.003  -1.983   5.862  1.00  0.00    -0.000 C 
BRANCH   7   8
ATOM      8  C   UNL     1      -4.537  -0.856   4.923  1.00  0.00    -0.000 C 
BRANCH   8   9
ATOM      9  C   UNL     1      -3.589  -1.374   3.820  1.00  0.00    -0.000 C 
BRANCH   9  10
ATOM     10  C   UNL     1      -3.857  -2.830   3.374  1.00  0.00    -0.000 C 
BRANCH  10  11
ATOM     11  C   UNL     1      -2.608  -3.625   2.947  1.00  0.00    -0.003 C 
ATOM     12  C   UNL     1      -2.798  -5.139   3.067  1.00  0.00     0.004 C 
ENDBRANCH  10  11
ENDBRANCH   9  10
ENDBRANCH   8   9
ENDBRANCH   7   8
ENDBRANCH   6   7
ENDBRANCH   5   6
ENDBRANCH   4   5
ENDBRANCH   3   4
ENDBRANCH   2   3
ENDBRANCH   1   2
BRANCH   1  13
ATOM     13  C   UNL     1       2.305  -1.510   5.621  1.00  0.00     0.000 C 
BRANCH  13  14
ATOM     14  C   UNL     1       2.609  -0.428   6.670  1.00  0.00     0.000 C 
BRANCH  14  15
ATOM     15  C   UNL     1       1.618   0.745   6.615  1.00  0.00     0.000 C 
BRANCH  15  16
ATOM     16  C   UNL     1       2.057   1.940   7.482  1.00  0.00     0.000 C 
BRANCH  16  17
ATOM     17  C   UNL     1       0.930   2.963   7.695  1.00  0.00     0.000 C 
BRANCH  17  18
ATOM     18  C   UNL     1       1.199   4.299   6.980  1.00  0.00     0.000 C 
BRANCH  18  19
ATOM     19  C   UNL     1       1.425   4.128   5.468  1.00  0.00     0.000 C 
BRANCH  19  20
ATOM     20  C   UNL     1       0.490   5.011   4.626  1.00  0.00     0.006 C 
BRANCH  20  21
ATOM     21  C   UNL     1      -0.678   5.568   5.452  1.00  0.00     0.053 C 
BRANCH  21  22
ATOM     22  C   UNL     1      -0.766   7.063   5.361  1.00  0.00     0.041 C 
ATOM     23  O   UNL     1      -0.525   7.648   4.268  1.00  0.00    -0.550 OA
ATOM     24  O   UNL     1      -1.083   7.815   6.488  1.00  0.00    -0.550 OA
ENDBRANCH  21  22
ENDBRANCH  20  21
ENDBRANCH  19  20
ENDBRANCH  18  19
ENDBRANCH  17  18
ENDBRANCH  16  17
ENDBRANCH  15  16
ENDBRANCH  14  15
ENDBRANCH  13  14
ENDBRANCH   1  13
TORSDOF 20
ENDMDL
MODEL 3
REMARK VINA RESULT:    -3.976      1.526      2.573
REMARK INTER + INTRA:         -11.690
REMARK INTER:                  -9.749
REMARK INTRA:                  -1.941
REMARK UNBOUND:                -3.065
REMARK SMILES CCCCCCCCCCCCCCCCCCCCCC(=O)[O-]
REMARK SMILES IDX 12 1 11 2 10 3 9 4 8 5 7 6 6 7 5 8 4 9 3 10 2 11 1 12 13 13
REMARK SMILES IDX 14 14 15 15 16 16 17 17 18 18 19 19 20 20 21 21 22 22 23 23
REMARK SMILES IDX 24 24
REMARK H PARENT
REMARK Flexibility Score: inf
ROOT
ATOM      1  C   UNL     1       4.025  -1.448   7.094  1.00  0.00     0.000 C 
ENDROOT
BRANCH   1   2
ATOM      2  C   UNL     1       2.973  -2.465   6.625  1.00  0.00     0.000 C 
BRANCH   2   3
ATOM      3  C   UNL     1       2.507  -2.159   5.196  1.00  0.00     0.000 C 
BRANCH   3   4
ATOM      4  C   UNL     1       1.062  -1.639   5.189  1.00  0.00    -0.000 C 
BRANCH   4   5
ATOM      5  C   UNL     1       0.190  -2.418   6.187  1.00  0.00    -0.000 C 
BRANCH   5   6
ATOM      6  C   UNL     1      -1.110  -2.949   5.552  1.00  0.00    -0.000 C 
BRANCH   6   7
ATOM      7  C   UNL     1      -1.635  -2.087   4.390  1.00  0.00    -0.000 C 
BRANCH   7   8
ATOM      8  C   UNL     1      -2.641  -2.838   3.496  1.00  0.00    -0.000 C 
BRANCH   8   9
ATOM      9  C   UNL     1      -4.102  -2.490   3.849  1.00  0.00    -0.000 C 
BRANCH   9  10
ATOM     10  C   UNL     1      -4.344  -1.004   4.199  1.00  0.00    -0.000 C 
BRANCH  10  11
ATOM     11  C   UNL     1      -4.896  -0.744   5.614  1.00  0.00    -0.003 C 
ATOM     12  C   UNL     1      -4.550  -1.862   6.600  1.00  0.00     0.004 C 
ENDBRANCH  10  11
ENDBRANCH   9  10
ENDBRANCH   8   9
ENDBRANCH   7   8
ENDBRANCH   6   7
ENDBRANCH   5   6
ENDBRANCH   4   5
ENDBRANCH   3   4
ENDBRANCH   2   3
ENDBRANCH   1   2
BRANCH   1  13
ATOM     13  C   UNL     1       3.654  -0.787   8.432  1.00  0.00     0.000 C 
BRANCH  13  14
ATOM     14  C   UNL     1       2.169  -0.972   8.788  1.00  0.00     0.000 C 
BRANCH  14  15
ATOM     15  C   UNL     1       1.334   0.290   8.520  1.00  0.00     0.000 C 
BRANCH  15  16
ATOM     16  C   UNL     1       1.988   1.231   7.492  1.00  0.00     0.000 C 
BRANCH  16  17
ATOM     17  C   UNL     1       1.235   2.564   7.347  1.00  0.00     0.000 C 
BRANCH  17  18
ATOM     18  C   UNL     1       2.010   3.594   6.506  1.00  0.00     0.000 C 
BRANCH  18  19
ATOM     19  C   UNL     1       1.258   4.928   6.362  1.00  0.00     0.000 C 
BRANCH  19  20
ATOM     20  C   UNL     1       0.549   5.065   5.005  1.00  0.00     0.006 C 
BRANCH  20  21
ATOM     21  C   UNL     1      -0.839   5.707   5.140  1.00  0.00     0.053 C 
BRANCH  21  22
ATOM     22  C   UNL     1      -0.757   7.202   5.242  1.00  0.00     0.041 C 
ATOM     23  O   UNL     1      -0.906   7.771   6.359  1.00  0.00    -0.550 OA
ATOM     24  O   UNL     1      -0.548   7.969   4.101  1.00  0.00    -0.550 OA
ENDBRANCH  21  22
ENDBRANCH  20  21
ENDBRANCH  19  20
ENDBRANCH  18  19
ENDBRANCH  17  18
ENDBRANCH  16  17
ENDBRANCH  15  16
ENDBRANCH  14  15
ENDBRANCH  13  14
ENDBRANCH   1  13
TORSDOF 20
ENDMDL
MODEL 4
REMARK VINA RESULT:    -3.939      1.604      3.064
REMARK INTER + INTRA:         -11.609
REMARK INTER:                  -9.630
REMARK INTRA:                  -1.979
REMARK UNBOUND:                -3.065
REMARK SMILES CCCCCCCCCCCCCCCCCCCCCC(=O)[O-]
REMARK SMILES IDX 12 1 11 2 10 3 9 4 8 5 7 6 6 7 5 8 4 9 3 10 2 11 1 12 13 13
REMARK SMILES IDX 14 14 15 15 16 16 17 17 18 18 19 19 20 20 21 21 22 22 23 23
REMARK SMILES IDX 24 24
REMARK H PARENT
REMARK Flexibility Score: inf
ROOT
ATOM      1  C   UNL     1       1.146  -0.361   5.617  1.00  0.00     0.000 C 
ENDROOT
BRANCH   1   2
ATOM      2  C   UNL     1       0.819  -1.831   5.310  1.00  0.00     0.000 C 
BRANCH   2   3
ATOM      3  C   UNL     1       0.047  -2.478   6.467  1.00  0.00     0.000 C 
BRANCH   3   4
ATOM      4  C   UNL     1      -1.426  -2.694   6.092  1.00  0.00    -0.000 C 
BRANCH   4   5
ATOM      5  C   UNL     1      -1.579  -2.964   4.587  1.00  0.00    -0.000 C 
BRANCH   5   6
ATOM      6  C   UNL     1      -2.769  -3.891   4.267  1.00  0.00    -0.000 C 
BRANCH   6   7
ATOM      7  C   UNL     1      -4.144  -3.211   4.401  1.00  0.00    -0.000 C 
BRANCH   7   8
ATOM      8  C   UNL     1      -4.222  -1.869   3.649  1.00  0.00    -0.000 C 
BRANCH   8   9
ATOM      9  C   UNL     1      -4.453  -0.680   4.605  1.00  0.00    -0.000 C 
BRANCH   9  10
ATOM     10  C   UNL     1      -4.937  -1.077   6.020  1.00  0.00    -0.000 C 
BRANCH  10  11
ATOM     11  C   UNL     1      -5.816  -0.030   6.730  1.00  0.00    -0.003 C 
ATOM     12  C   UNL     1      -6.190  -0.438   8.157  1.00  0.00     0.004 C 
ENDBRANCH  10  11
ENDBRANCH   9  10
ENDBRANCH   8   9
ENDBRANCH   7   8
ENDBRANCH   6   7
ENDBRANCH   5   6
ENDBRANCH   4   5
ENDBRANCH   3   4
ENDBRANCH   2   3
ENDBRANCH   1   2
BRANCH   1  13
ATOM     13  C   UNL     1       2.052  -0.203   6.850  1.00  0.00     0.000 C 
BRANCH  13  14
ATOM     14  C   UNL     1       2.037   1.229   7.411  1.00  0.00     0.000 C 
BRANCH  14  15
ATOM     15  C   UNL     1       1.243   1.343   8.721  1.00  0.00     0.000 C 
BRANCH  15  16
ATOM     16  C   UNL     1       1.312   2.750   9.342  1.00  0.00     0.000 C 
BRANCH  16  17
ATOM     17  C   UNL     1       0.009   3.544   9.156  1.00  0.00     0.000 C 
BRANCH  17  18
ATOM     18  C   UNL     1       0.072   4.520   7.967  1.00  0.00     0.000 C 
BRANCH  18  19
ATOM     19  C   UNL     1       1.422   5.251   7.873  1.00  0.00     0.000 C 
BRANCH  19  20
ATOM     20  C   UNL     1       2.125   5.024   6.525  1.00  0.00     0.006 C 
BRANCH  20  21
ATOM     21  C   UNL     1       1.260   4.212   5.551  1.00  0.00     0.053 C 
BRANCH  21  22
ATOM     22  C   UNL     1       0.738   5.058   4.427  1.00  0.00     0.041 C 
ATOM     23  O   UNL     1      -0.434   5.522   4.473  1.00  0.00    -0.550 OA
ATOM     24  O   UNL     1       1.534   5.308   3.313  1.00  0.00    -0.550 OA
ENDBRANCH  21  22
ENDBRANCH  20  21
ENDBRANCH  19  20
ENDBRANCH  18  19
ENDBRANCH  17  18
ENDBRANCH  16  17
ENDBRANCH  15  16
ENDBRANCH  14  15
ENDBRANCH  13  14
ENDBRANCH   1  13
TORSDOF 20
ENDMDL
MODEL 5
REMARK VINA RESULT:    -3.896      5.389      8.358
REMARK INTER + INTRA:         -11.517
REMARK INTER:                  -8.902
REMARK INTRA:                  -2.615
REMARK UNBOUND:                -3.065
REMARK SMILES CCCCCCCCCCCCCCCCCCCCCC(=O)[O-]
REMARK SMILES IDX 12 1 11 2 10 3 9 4 8 5 7 6 6 7 5 8 4 9 3 10 2 11 1 12 13 13
REMARK SMILES IDX 14 14 15 15 16 16 17 17 18 18 19 19 20 20 21 21 22 22 23 23
REMARK SMILES IDX 24 24
REMARK H PARENT
REMARK Flexibility Score: inf
ROOT
ATOM      1  C   UNL     1      -2.501  -3.402   3.001  1.00  0.00     0.000 C 
ENDROOT
BRANCH   1   2
ATOM      2  C   UNL     1      -2.725  -4.886   2.671  1.00  0.00     0.000 C 
BRANCH   2   3
ATOM      3  C   UNL     1      -3.682  -5.048   1.482  1.00  0.00     0.000 C 
BRANCH   3   4
ATOM      4  C   UNL     1      -3.115  -6.036   0.453  1.00  0.00    -0.000 C 
BRANCH   4   5
ATOM      5  C   UNL     1      -2.773  -5.323  -0.866  1.00  0.00    -0.000 C 
BRANCH   5   6
ATOM      6  C   UNL     1      -1.498  -4.463  -0.764  1.00  0.00    -0.000 C 
BRANCH   6   7
ATOM      7  C   UNL     1      -0.802  -4.216  -2.115  1.00  0.00    -0.000 C 
BRANCH   7   8
ATOM      8  C   UNL     1       0.535  -4.968  -2.245  1.00  0.00    -0.000 C 
BRANCH   8   9
ATOM      9  C   UNL     1       0.346  -6.394  -2.806  1.00  0.00    -0.000 C 
BRANCH   9  10
ATOM     10  C   UNL     1       1.311  -7.450  -2.220  1.00  0.00    -0.000 C 
BRANCH  10  11
ATOM     11  C   UNL     1       0.633  -8.606  -1.460  1.00  0.00    -0.003 C 
ATOM     12  C   UNL     1      -0.892  -8.486  -1.432  1.00  0.00     0.004 C 
ENDBRANCH  10  11
ENDBRANCH   9  10
ENDBRANCH   8   9
ENDBRANCH   7   8
ENDBRANCH   6   7
ENDBRANCH   5   6
ENDBRANCH   4   5
ENDBRANCH   3   4
ENDBRANCH   2   3
ENDBRANCH   1   2
BRANCH   1  13
ATOM     13  C   UNL     1      -3.806  -2.673   3.362  1.00  0.00     0.000 C 
BRANCH  13  14
ATOM     14  C   UNL     1      -3.554  -1.294   3.996  1.00  0.00     0.000 C 
BRANCH  14  15
ATOM     15  C   UNL     1      -4.345  -1.088   5.297  1.00  0.00     0.000 C 
BRANCH  15  16
ATOM     16  C   UNL     1      -4.557  -2.396   6.082  1.00  0.00     0.000 C 
BRANCH  16  17
ATOM     17  C   UNL     1      -3.380  -2.724   7.014  1.00  0.00     0.000 C 
BRANCH  17  18
ATOM     18  C   UNL     1      -2.618  -3.991   6.585  1.00  0.00     0.000 C 
BRANCH  18  19
ATOM     19  C   UNL     1      -1.096  -3.778   6.531  1.00  0.00     0.000 C 
BRANCH  19  20
ATOM     20  C   UNL     1      -0.710  -2.296   6.406  1.00  0.00     0.006 C 
BRANCH  20  21
ATOM     21  C   UNL     1       0.133  -2.022   5.152  1.00  0.00     0.053 C 
BRANCH  21  22
ATOM     22  C   UNL     1       1.558  -1.701   5.495  1.00  0.00     0.041 C 
ATOM     23  O   UNL     1       2.496  -2.112   4.756  1.00  0.00    -0.550 OA
ATOM     24  O   UNL     1       1.854  -0.974   6.644  1.00  0.00    -0.550 OA
ENDBRANCH  21  22
ENDBRANCH  20  21
ENDBRANCH  19  20
ENDBRANCH  18  19
ENDBRANCH  17  18
ENDBRANCH  16  17
ENDBRANCH  15  16
ENDBRANCH  14  15
ENDBRANCH  13  14
ENDBRANCH   1  13
TORSDOF 20
ENDMDL
MODEL 6
REMARK VINA RESULT:    -3.891      4.504      7.571
REMARK INTER + INTRA:         -11.507
REMARK INTER:                  -9.121
REMARK INTRA:                  -2.386
REMARK UNBOUND:                -3.065
REMARK SMILES CCCCCCCCCCCCCCCCCCCCCC(=O)[O-]
REMARK SMILES IDX 12 1 11 2 10 3 9 4 8 5 7 6 6 7 5 8 4 9 3 10 2 11 1 12 13 13
REMARK SMILES IDX 14 14 15 15 16 16 17 17 18 18 19 19 20 20 21 21 22 22 23 23
REMARK SMILES IDX 24 24
REMARK H PARENT
REMARK Flexibility Score: inf
ROOT
ATOM      1  C   UNL     1      -4.025  -1.453   3.934  1.00  0.00     0.000 C 
ENDROOT
BRANCH   1   2
ATOM      2  C   UNL     1      -2.512  -1.722   3.947  1.00  0.00     0.000 C 
BRANCH   2   3
ATOM      3  C   UNL     1      -2.215  -3.214   3.752  1.00  0.00     0.000 C 
BRANCH   3   4
ATOM      4  C   UNL     1      -3.256  -3.865   2.829  1.00  0.00    -0.000 C 
BRANCH   4   5
ATOM      5  C   UNL     1      -2.589  -4.469   1.583  1.00  0.00    -0.000 C 
BRANCH   5   6
ATOM      6  C   UNL     1      -3.359  -5.682   1.025  1.00  0.00    -0.000 C 
BRANCH   6   7
ATOM      7  C   UNL     1      -4.284  -5.343  -0.159  1.00  0.00    -0.000 C 
BRANCH   7   8
ATOM      8  C   UNL     1      -3.543  -5.326  -1.509  1.00  0.00    -0.000 C 
BRANCH   8   9
ATOM      9  C   UNL     1      -2.282  -6.216  -1.490  1.00  0.00    -0.000 C 
BRANCH   9  10
ATOM     10  C   UNL     1      -1.005  -5.534  -2.034  1.00  0.00    -0.000 C 
BRANCH  10  11
ATOM     11  C   UNL     1      -0.929  -4.012  -1.812  1.00  0.00    -0.003 C 
ATOM     12  C   UNL     1      -0.851  -3.223  -3.122  1.00  0.00     0.004 C 
ENDBRANCH  10  11
ENDBRANCH   9  10
ENDBRANCH   8   9
ENDBRANCH   7   8
ENDBRANCH   6   7
ENDBRANCH   5   6
ENDBRANCH   4   5
ENDBRANCH   3   4
ENDBRANCH   2   3
ENDBRANCH   1   2
BRANCH   1  13
ATOM     13  C   UNL     1      -4.517  -0.781   5.226  1.00  0.00     0.000 C 
BRANCH  13  14
ATOM     14  C   UNL     1      -5.354  -1.729   6.101  1.00  0.00     0.000 C 
BRANCH  14  15
ATOM     15  C   UNL     1      -4.606  -3.025   6.451  1.00  0.00     0.000 C 
BRANCH  15  16
ATOM     16  C   UNL     1      -3.829  -2.927   7.776  1.00  0.00     0.000 C 
BRANCH  16  17
ATOM     17  C   UNL     1      -2.346  -2.581   7.568  1.00  0.00     0.000 C 
BRANCH  17  18
ATOM     18  C   UNL     1      -1.440  -3.826   7.570  1.00  0.00     0.000 C 
BRANCH  18  19
ATOM     19  C   UNL     1      -0.167  -3.634   6.728  1.00  0.00     0.000 C 
BRANCH  19  20
ATOM     20  C   UNL     1       0.240  -2.157   6.598  1.00  0.00     0.006 C 
BRANCH  20  21
ATOM     21  C   UNL     1       0.905  -1.858   5.247  1.00  0.00     0.053 C 
BRANCH  21  22
ATOM     22  C   UNL     1       2.396  -1.743   5.370  1.00  0.00     0.041 C 
ATOM     23  O   UNL     1       3.147  -2.272   4.504  1.00  0.00    -0.550 OA
ATOM     24  O   UNL     1       2.958  -1.078   6.455  1.00  0.00    -0.550 OA
ENDBRANCH  21  22
ENDBRANCH  20  21
ENDBRANCH  19  20
ENDBRANCH  18  19
ENDBRANCH  17  18
ENDBRANCH  16  17
ENDBRANCH  15  16
ENDBRANCH  14  15
ENDBRANCH  13  14
ENDBRANCH   1  13
TORSDOF 20
ENDMDL
MODEL 7
REMARK VINA RESULT:    -3.887      0.995      2.438
REMARK INTER + INTRA:         -11.497
REMARK INTER:                  -8.960
REMARK INTRA:                  -2.537
REMARK UNBOUND:                -3.065
REMARK SMILES CCCCCCCCCCCCCCCCCCCCCC(=O)[O-]
REMARK SMILES IDX 12 1 11 2 10 3 9 4 8 5 7 6 6 7 5 8 4 9 3 10 2 11 1 12 13 13
REMARK SMILES IDX 14 14 15 15 16 16 17 17 18 18 19 19 20 20 21 21 22 22 23 23
REMARK SMILES IDX 24 24
REMARK H PARENT
REMARK Flexibility Score: inf
ROOT
ATOM      1  C   UNL     1       3.413  -3.072   6.560  1.00  0.00     0.000 C 
ENDROOT
BRANCH   1   2
ATOM      2  C   UNL     1       2.172  -3.918   6.882  1.00  0.00     0.000 C 
BRANCH   2   3
ATOM      3  C   UNL     1       1.792  -3.799   8.363  1.00  0.00     0.000 C 
BRANCH   3   4
ATOM      4  C   UNL     1       0.637  -2.806   8.556  1.00  0.00    -0.000 C 
BRANCH   4   5
ATOM      5  C   UNL     1      -0.694  -3.406   8.076  1.00  0.00    -0.000 C 
BRANCH   5   6
ATOM      6  C   UNL     1      -1.379  -2.547   6.995  1.00  0.00    -0.000 C 
BRANCH   6   7
ATOM      7  C   UNL     1      -2.031  -3.366   5.867  1.00  0.00    -0.000 C 
BRANCH   7   8
ATOM      8  C   UNL     1      -1.697  -2.823   4.465  1.00  0.00    -0.000 C 
BRANCH   8   9
ATOM      9  C   UNL     1      -2.596  -1.630   4.076  1.00  0.00    -0.000 C 
BRANCH   9  10
ATOM     10  C   UNL     1      -4.066  -1.752   4.539  1.00  0.00    -0.000 C 
BRANCH  10  11
ATOM     11  C   UNL     1      -4.644  -0.499   5.224  1.00  0.00    -0.003 C 
ATOM     12  C   UNL     1      -5.535  -0.835   6.423  1.00  0.00     0.004 C 
ENDBRANCH  10  11
ENDBRANCH   9  10
ENDBRANCH   8   9
ENDBRANCH   7   8
ENDBRANCH   6   7
ENDBRANCH   5   6
ENDBRANCH   4   5
ENDBRANCH   3   4
ENDBRANCH   2   3
ENDBRANCH   1   2
BRANCH   1  13
ATOM     13  C   UNL     1       3.150  -2.031   5.459  1.00  0.00     0.000 C 
BRANCH  13  14
ATOM     14  C   UNL     1       1.650  -1.806   5.208  1.00  0.00     0.000 C 
BRANCH  14  15
ATOM     15  C   UNL     1       1.192  -0.389   5.586  1.00  0.00     0.000 C 
BRANCH  15  16
ATOM     16  C   UNL     1       2.095   0.267   6.647  1.00  0.00     0.000 C 
BRANCH  16  17
ATOM     17  C   UNL     1       1.294   0.885   7.804  1.00  0.00     0.000 C 
BRANCH  17  18
ATOM     18  C   UNL     1       1.677   2.352   8.074  1.00  0.00     0.000 C 
BRANCH  18  19
ATOM     19  C   UNL     1       1.623   3.221   6.807  1.00  0.00     0.000 C 
BRANCH  19  20
ATOM     20  C   UNL     1       0.472   4.241   6.838  1.00  0.00     0.006 C 
BRANCH  20  21
ATOM     21  C   UNL     1       0.894   5.604   6.273  1.00  0.00     0.053 C 
BRANCH  21  22
ATOM     22  C   UNL     1      -0.162   6.192   5.383  1.00  0.00     0.041 C 
ATOM     23  O   UNL     1      -0.594   5.538   4.394  1.00  0.00    -0.550 OA
ATOM     24  O   UNL     1      -0.646   7.474   5.625  1.00  0.00    -0.550 OA
ENDBRANCH  21  22
ENDBRANCH  20  21
ENDBRANCH  19  20
ENDBRANCH  18  19
ENDBRANCH  17  18
ENDBRANCH  16  17
ENDBRANCH  15  16
ENDBRANCH  14  15
ENDBRANCH  13  14
ENDBRANCH   1  13
TORSDOF 20
ENDMDL
MODEL 8
REMARK VINA RESULT:    -3.854      5.348      9.335
REMARK INTER + INTRA:         -11.426
REMARK INTER:                  -8.295
REMARK INTRA:                  -3.131
REMARK UNBOUND:                -3.065
REMARK SMILES CCCCCCCCCCCCCCCCCCCCCC(=O)[O-]
REMARK SMILES IDX 12 1 11 2 10 3 9 4 8 5 7 6 6 7 5 8 4 9 3 10 2 11 1 12 13 13
REMARK SMILES IDX 14 14 15 15 16 16 17 17 18 18 19 19 20 20 21 21 22 22 23 23
REMARK SMILES IDX 24 24
REMARK H PARENT
REMARK Flexibility Score: inf
ROOT
ATOM      1  C   UNL     1      -2.587  -3.302   2.962  1.00  0.00     0.000 C 
ENDROOT
BRANCH   1   2
ATOM      2  C   UNL     1      -3.857  -2.537   3.361  1.00  0.00     0.000 C 
BRANCH   2   3
ATOM      3  C   UNL     1      -3.512  -1.269   4.152  1.00  0.00     0.000 C 
BRANCH   3   4
ATOM      4  C   UNL     1      -4.529  -1.029   5.277  1.00  0.00    -0.000 C 
BRANCH   4   5
ATOM      5  C   UNL     1      -4.713  -2.292   6.133  1.00  0.00    -0.000 C 
BRANCH   5   6
ATOM      6  C   UNL     1      -3.477  -2.610   6.998  1.00  0.00    -0.000 C 
BRANCH   6   7
ATOM      7  C   UNL     1      -2.850  -3.986   6.709  1.00  0.00    -0.000 C 
BRANCH   7   8
ATOM      8  C   UNL     1      -1.331  -3.910   6.466  1.00  0.00    -0.000 C 
BRANCH   8   9
ATOM      9  C   UNL     1      -0.807  -2.459   6.520  1.00  0.00    -0.000 C 
BRANCH   9  10
ATOM     10  C   UNL     1      -0.031  -2.007   5.261  1.00  0.00    -0.000 C 
BRANCH  10  11
ATOM     11  C   UNL     1       1.107  -1.001   5.518  1.00  0.00    -0.003 C 
ATOM     12  C   UNL     1       1.375  -0.775   7.009  1.00  0.00     0.004 C 
ENDBRANCH  10  11
ENDBRANCH   9  10
ENDBRANCH   8   9
ENDBRANCH   7   8
ENDBRANCH   6   7
ENDBRANCH   5   6
ENDBRANCH   4   5
ENDBRANCH   3   4
ENDBRANCH   2   3
ENDBRANCH   1   2
BRANCH   1  13
ATOM     13  C   UNL     1      -2.775  -4.828   3.013  1.00  0.00     0.000 C 
BRANCH  13  14
ATOM     14  C   UNL     1      -4.250  -5.234   3.171  1.00  0.00     0.000 C 
BRANCH  14  15
ATOM     15  C   UNL     1      -4.817  -5.906   1.911  1.00  0.00     0.000 C 
BRANCH  15  16
ATOM     16  C   UNL     1      -5.178  -4.896   0.806  1.00  0.00     0.000 C 
BRANCH  16  17
ATOM     17  C   UNL     1      -4.628  -5.303  -0.570  1.00  0.00     0.000 C 
BRANCH  17  18
ATOM     18  C   UNL     1      -3.634  -6.476  -0.489  1.00  0.00     0.000 C 
BRANCH  18  19
ATOM     19  C   UNL     1      -2.182  -6.041  -0.752  1.00  0.00     0.000 C 
BRANCH  19  20
ATOM     20  C   UNL     1      -2.087  -4.641  -1.379  1.00  0.00     0.006 C 
BRANCH  20  21
ATOM     21  C   UNL     1      -0.639  -4.251  -1.705  1.00  0.00     0.053 C 
BRANCH  21  22
ATOM     22  C   UNL     1      -0.449  -3.970  -3.167  1.00  0.00     0.041 C 
ATOM     23  O   UNL     1      -0.036  -4.879  -3.939  1.00  0.00    -0.550 OA
ATOM     24  O   UNL     1      -0.700  -2.699  -3.672  1.00  0.00    -0.550 OA
ENDBRANCH  21  22
ENDBRANCH  20  21
ENDBRANCH  19  20
ENDBRANCH  18  19
ENDBRANCH  17  18
ENDBRANCH  16  17
ENDBRANCH  15  16
ENDBRANCH  14  15
ENDBRANCH  13  14
ENDBRANCH   1  13
TORSDOF 20
ENDMDL
MODEL 9
REMARK VINA RESULT:    -3.816      4.344      7.359
REMARK INTER + INTRA:         -11.343
REMARK INTER:                  -7.949
REMARK INTRA:                  -3.394
REMARK UNBOUND:                -3.065
REMARK SMILES CCCCCCCCCCCCCCCCCCCCCC(=O)[O-]
REMARK SMILES IDX 12 1 11 2 10 3 9 4 8 5 7 6 6 7 5 8 4 9 3 10 2 11 1 12 13 13
REMARK SMILES IDX 14 14 15 15 16 16 17 17 18 18 19 19 20 20 21 21 22 22 23 23
REMARK SMILES IDX 24 24
REMARK H PARENT
REMARK Flexibility Score: inf
ROOT
ATOM      1  C   UNL     1      -4.138  -1.149   4.031  1.00  0.00     0.000 C 
ENDROOT
BRANCH   1   2
ATOM      2  C   UNL     1      -4.865  -0.570   5.254  1.00  0.00     0.000 C 
BRANCH   2   3
ATOM      3  C   UNL     1      -4.707  -1.485   6.475  1.00  0.00     0.000 C 
BRANCH   3   4
ATOM      4  C   UNL     1      -5.541  -0.972   7.657  1.00  0.00    -0.000 C 
BRANCH   4   5
ATOM      5  C   UNL     1      -6.268   0.332   7.295  1.00  0.00    -0.000 C 
BRANCH   5   6
ATOM      6  C   UNL     1      -7.787   0.258   7.552  1.00  0.00    -0.000 C 
BRANCH   6   7
ATOM      7  C   UNL     1      -8.567  -0.506   6.467  1.00  0.00    -0.000 C 
BRANCH   7   8
ATOM      8  C   UNL     1      -8.993  -1.915   6.918  1.00  0.00    -0.000 C 
BRANCH   8   9
ATOM      9  C   UNL     1      -8.282  -3.022   6.110  1.00  0.00    -0.000 C 
BRANCH   9  10
ATOM     10  C   UNL     1      -7.841  -2.600   4.690  1.00  0.00    -0.000 C 
BRANCH  10  11
ATOM     11  C   UNL     1      -6.921  -3.601   3.965  1.00  0.00    -0.003 C 
ATOM     12  C   UNL     1      -6.160  -4.514   4.929  1.00  0.00     0.004 C 
ENDBRANCH  10  11
ENDBRANCH   9  10
ENDBRANCH   8   9
ENDBRANCH   7   8
ENDBRANCH   6   7
ENDBRANCH   5   6
ENDBRANCH   4   5
ENDBRANCH   3   4
ENDBRANCH   2   3
ENDBRANCH   1   2
BRANCH   1  13
ATOM     13  C   UNL     1      -2.763  -1.740   4.386  1.00  0.00     0.000 C 
BRANCH  13  14
ATOM     14  C   UNL     1      -2.391  -2.940   3.499  1.00  0.00     0.000 C 
BRANCH  14  15
ATOM     15  C   UNL     1      -2.536  -4.284   4.229  1.00  0.00     0.000 C 
BRANCH  15  16
ATOM     16  C   UNL     1      -2.500  -4.138   5.762  1.00  0.00     0.000 C 
BRANCH  16  17
ATOM     17  C   UNL     1      -1.071  -4.190   6.327  1.00  0.00     0.000 C 
BRANCH  17  18
ATOM     18  C   UNL     1      -0.865  -3.224   7.508  1.00  0.00     0.000 C 
BRANCH  18  19
ATOM     19  C   UNL     1       0.119  -2.088   7.179  1.00  0.00     0.000 C 
BRANCH  19  20
ATOM     20  C   UNL     1       0.640  -2.156   5.734  1.00  0.00     0.006 C 
BRANCH  20  21
ATOM     21  C   UNL     1       1.862  -1.252   5.518  1.00  0.00     0.053 C 
BRANCH  21  22
ATOM     22  C   UNL     1       3.136  -2.041   5.448  1.00  0.00     0.041 C 
ATOM     23  O   UNL     1       3.701  -2.430   6.508  1.00  0.00    -0.550 OA
ATOM     24  O   UNL     1       3.717  -2.322   4.215  1.00  0.00    -0.550 OA
ENDBRANCH  21  22
ENDBRANCH  20  21
ENDBRANCH  19  20
ENDBRANCH  18  19
ENDBRANCH  17  18
ENDBRANCH  16  17
ENDBRANCH  15  16
ENDBRANCH  14  15
ENDBRANCH  13  14
ENDBRANCH   1  13
TORSDOF 20
ENDMDL
