MODEL 1
REMARK VINA RESULT:    -2.119      0.000      0.000
REMARK INTER + INTRA:          -2.119
REMARK INTER:                  -2.119
REMARK INTRA:                   0.000
REMARK UNBOUND:                 0.000
REMARK SMILES CC(=O)[O-]
REMARK SMILES IDX 1 1 2 2 3 3 4 4
REMARK H PARENT
REMARK Flexibility Score: inf
ROOT
ATOM      1  C   UNL     1       0.537  42.431  10.603  1.00  0.00     0.063 C 
ATOM      2  C   UNL     1       1.827  43.066  10.997  1.00  0.00     0.038 C 
ATOM      3  O   UNL     1       1.879  43.816  12.007  1.00  0.00    -0.550 OA
ATOM      4  O   UNL     1       2.985  42.790  10.283  1.00  0.00    -0.550 OA
ENDROOT
TORSDOF 0
ENDMDL
MODEL 2
REMARK VINA RESULT:    -2.072      6.143      6.410
REMARK INTER + INTRA:          -2.072
REMARK INTER:                  -2.072
REMARK INTRA:                   0.000
REMARK UNBOUND:                 0.000
REMARK SMILES CC(=O)[O-]
REMARK SMILES IDX 1 1 2 2 3 3 4 4
REMARK H PARENT
REMARK Flexibility Score: inf
ROOT
ATOM      1  C   UNL     1       7.969  43.788  11.378  1.00  0.00     0.063 C 
ATOM      2  C   UNL     1       7.737  42.372  11.781  1.00  0.00     0.038 C 
ATOM      3  O   UNL     1       7.687  41.467  10.908  1.00  0.00    -0.550 OA
ATOM      4  O   UNL     1       7.629  42.040  13.125  1.00  0.00    -0.550 OA
ENDROOT
TORSDOF 0
ENDMDL
MODEL 3
REMARK VINA RESULT:    -2.050      4.963      5.351
REMARK INTER + INTRA:          -2.050
REMARK INTER:                  -2.050
REMARK INTRA:                   0.000
REMARK UNBOUND:                 0.000
REMARK SMILES CC(=O)[O-]
REMARK SMILES IDX 1 1 2 2 3 3 4 4
REMARK H PARENT
REMARK Flexibility Score: inf
ROOT
ATOM      1  C   UNL     1       7.603  42.443  12.481  1.00  0.00     0.063 C 
ATOM      2  C   UNL     1       6.633  43.574  12.423  1.00  0.00     0.038 C 
ATOM      3  O   UNL     1       5.622  43.578  13.173  1.00  0.00    -0.550 OA
ATOM      4  O   UNL     1       6.871  44.652  11.580  1.00  0.00    -0.550 OA
ENDROOT
TORSDOF 0
ENDMDL
MODEL 4
REMARK VINA RESULT:    -2.049      1.408      2.087
REMARK INTER + INTRA:          -2.049
REMARK INTER:                  -2.049
REMARK INTRA:                   0.000
REMARK UNBOUND:                 0.000
REMARK SMILES CC(=O)[O-]
REMARK SMILES IDX 1 1 2 2 3 3 4 4
REMARK H PARENT
REMARK Flexibility Score: inf
ROOT
ATOM      1  C   UNL     1       2.749  43.083   9.908  1.00  0.00     0.063 C 
ATOM      2  C   UNL     1       1.599  43.060  10.857  1.00  0.00     0.038 C 
ATOM      3  O   UNL     1       0.567  42.394  10.582  1.00  0.00    -0.550 OA
ATOM      4  O   UNL     1       1.685  43.730  12.070  1.00  0.00    -0.550 OA
ENDROOT
TORSDOF 0
ENDMDL
MODEL 5
REMARK VINA RESULT:    -2.046      5.000      5.544
REMARK INTER + INTRA:          -2.046
REMARK INTER:                  -2.046
REMARK INTRA:                   0.000
REMARK UNBOUND:                 0.000
REMARK SMILES CC(=O)[O-]
REMARK SMILES IDX 1 1 2 2 3 3 4 4
REMARK H PARENT
REMARK Flexibility Score: inf
ROOT
ATOM      1  C   UNL     1       7.635  42.248  12.716  1.00  0.00     0.063 C 
ATOM      2  C   UNL     1       6.716  43.385  12.425  1.00  0.00     0.038 C 
ATOM      3  O   UNL     1       6.920  44.123  11.426  1.00  0.00    -0.550 OA
ATOM      4  O   UNL     1       5.602  43.602  13.226  1.00  0.00    -0.550 OA
ENDROOT
TORSDOF 0
ENDMDL
MODEL 6
REMARK VINA RESULT:    -2.045      6.213      6.344
REMARK INTER + INTRA:          -2.045
REMARK INTER:                  -2.045
REMARK INTRA:                   0.000
REMARK UNBOUND:                 0.000
REMARK SMILES CC(=O)[O-]
REMARK SMILES IDX 1 1 2 2 3 3 4 4
REMARK H PARENT
REMARK Flexibility Score: inf
ROOT
ATOM      1  C   UNL     1       7.590  42.294  12.847  1.00  0.00     0.063 C 
ATOM      2  C   UNL     1       7.832  42.309  11.376  1.00  0.00     0.038 C 
ATOM      3  O   UNL     1       7.564  41.294  10.681  1.00  0.00    -0.550 OA
ATOM      4  O   UNL     1       8.304  43.461  10.761  1.00  0.00    -0.550 OA
ENDROOT
TORSDOF 0
ENDMDL
MODEL 7
REMARK VINA RESULT:    -1.992      3.879      4.276
REMARK INTER + INTRA:          -1.992
REMARK INTER:                  -1.992
REMARK INTRA:                   0.000
REMARK UNBOUND:                 0.000
REMARK SMILES CC(=O)[O-]
REMARK SMILES IDX 1 1 2 2 3 3 4 4
REMARK H PARENT
REMARK Flexibility Score: inf
ROOT
ATOM      1  C   UNL     1       4.158  44.170  11.679  1.00  0.00     0.063 C 
ATOM      2  C   UNL     1       5.432  44.261  12.448  1.00  0.00     0.038 C 
ATOM      3  O   UNL     1       6.294  45.125  12.141  1.00  0.00    -0.550 OA
ATOM      4  O   UNL     1       5.648  43.428  13.537  1.00  0.00    -0.550 OA
ENDROOT
TORSDOF 0
ENDMDL
MODEL 8
REMARK VINA RESULT:    -1.976      3.884      4.205
REMARK INTER + INTRA:          -1.976
REMARK INTER:                  -1.976
REMARK INTRA:                   0.000
REMARK UNBOUND:                 0.000
REMARK SMILES CC(=O)[O-]
REMARK SMILES IDX 1 1 2 2 3 3 4 4
REMARK H PARENT
REMARK Flexibility Score: inf
ROOT
ATOM      1  C   UNL     1       4.144  44.388  11.636  1.00  0.00     0.063 C 
ATOM      2  C   UNL     1       5.441  44.339  12.369  1.00  0.00     0.038 C 
ATOM      3  O   UNL     1       5.589  43.551  13.339  1.00  0.00    -0.550 OA
ATOM      4  O   UNL     1       6.507  45.125  11.950  1.00  0.00    -0.550 OA
ENDROOT
TORSDOF 0
ENDMDL
MODEL 9
REMARK VINA RESULT:    -1.908     13.716     14.092
REMARK INTER + INTRA:          -1.908
REMARK INTER:                  -1.908
REMARK INTRA:                   0.000
REMARK UNBOUND:                 0.000
REMARK SMILES CC(=O)[O-]
REMARK SMILES IDX 1 1 2 2 3 3 4 4
REMARK H PARENT
REMARK Flexibility Score: inf
ROOT
ATOM      1  C   UNL     1       8.387  32.037  11.759  1.00  0.00     0.063 C 
ATOM      2  C   UNL     1       8.121  30.571  11.806  1.00  0.00     0.038 C 
ATOM      3  O   UNL     1       7.002  30.121  11.447  1.00  0.00    -0.550 OA
ATOM      4  O   UNL     1       9.125  29.694  12.196  1.00  0.00    -0.550 OA
ENDROOT
TORSDOF 0
ENDMDL
