MODEL 1
REMARK VINA RESULT:    -2.723      0.000      0.000
REMARK INTER + INTRA:          -3.566
REMARK INTER:                  -3.439
REMARK INTRA:                  -0.127
REMARK UNBOUND:                -0.127
REMARK SMILES CSCC[C@@H]([NH3+])C(=O)[O-]
REMARK SMILES IDX 4 1 5 2 6 3 7 7 8 8 9 9 3 10 2 11 1 12
REMARK H PARENT 6 4 6 5 6 6
REMARK Flexibility Score: inf
ROOT
ATOM      1  C   UNL     1      15.103  32.744  22.862  1.00  0.00     0.082 C 
ENDROOT
BRANCH   1   2
ATOM      2  C   UNL     1      13.647  32.340  22.547  1.00  0.00     0.228 C 
BRANCH   2   3
ATOM      3  N   UNL     1      13.251  32.838  21.224  1.00  0.00    -0.350 N 
ATOM      4  H   UNL     1      13.574  33.826  21.105  1.00  0.00     0.345 HD
ATOM      5  H   UNL     1      13.698  32.257  20.478  1.00  0.00     0.345 HD
ATOM      6  H   UNL     1      12.212  32.799  21.111  1.00  0.00     0.345 HD
ENDBRANCH   2   3
BRANCH   2   7
ATOM      7  C   UNL     1      13.468  30.846  22.615  1.00  0.00     0.099 C 
ATOM      8  O   UNL     1      14.310  30.128  23.218  1.00  0.00    -0.544 OA
ATOM      9  O   UNL     1      12.363  30.251  22.018  1.00  0.00    -0.544 OA
ENDBRANCH   2   7
ENDBRANCH   1   2
BRANCH   1  10
ATOM     10  C   UNL     1      15.188  33.799  23.969  1.00  0.00     0.076 C 
BRANCH  10  11
ATOM     11  S   UNL     1      16.338  35.125  23.472  1.00  0.00    -0.165 SA
ATOM     12  C   UNL     1      16.766  34.360  21.877  1.00  0.00     0.085 C 
ENDBRANCH  10  11
ENDBRANCH   1  10
TORSDOF 5
ENDMDL
MODEL 2
REMARK VINA RESULT:    -2.649      1.987      2.279
REMARK INTER + INTRA:          -3.474
REMARK INTER:                  -3.350
REMARK INTRA:                  -0.124
REMARK UNBOUND:                -0.127
REMARK SMILES CSCC[C@@H]([NH3+])C(=O)[O-]
REMARK SMILES IDX 4 1 5 2 6 3 7 7 8 8 9 9 3 10 2 11 1 12
REMARK H PARENT 6 4 6 5 6 6
REMARK Flexibility Score: inf
ROOT
ATOM      1  C   UNL     1      14.607  31.972  23.540  1.00  0.00     0.082 C 
ENDROOT
BRANCH   1   2
ATOM      2  C   UNL     1      14.049  30.769  22.750  1.00  0.00     0.228 C 
BRANCH   2   3
ATOM      3  N   UNL     1      14.460  29.507  23.376  1.00  0.00    -0.350 N 
ATOM      4  H   UNL     1      14.010  28.702  22.881  1.00  0.00     0.345 HD
ATOM      5  H   UNL     1      15.497  29.396  23.303  1.00  0.00     0.345 HD
ATOM      6  H   UNL     1      14.184  29.489  24.385  1.00  0.00     0.345 HD
ENDBRANCH   2   3
BRANCH   2   7
ATOM      7  C   UNL     1      12.547  30.834  22.647  1.00  0.00     0.099 C 
ATOM      8  O   UNL     1      11.875  31.477  23.497  1.00  0.00    -0.544 OA
ATOM      9  O   UNL     1      11.894  30.189  21.604  1.00  0.00    -0.544 OA
ENDBRANCH   2   7
ENDBRANCH   1   2
BRANCH   1  10
ATOM     10  C   UNL     1      15.445  32.906  22.663  1.00  0.00     0.076 C 
BRANCH  10  11
ATOM     11  S   UNL     1      15.635  34.523  23.486  1.00  0.00    -0.165 SA
ATOM     12  C   UNL     1      13.926  34.573  24.111  1.00  0.00     0.085 C 
ENDBRANCH  10  11
ENDBRANCH   1  10
TORSDOF 5
ENDMDL
MODEL 3
REMARK VINA RESULT:    -2.618      3.463      4.406
REMARK INTER + INTRA:          -3.435
REMARK INTER:                  -3.313
REMARK INTRA:                  -0.121
REMARK UNBOUND:                -0.127
REMARK SMILES CSCC[C@@H]([NH3+])C(=O)[O-]
REMARK SMILES IDX 4 1 5 2 6 3 7 7 8 8 9 9 3 10 2 11 1 12
REMARK H PARENT 6 4 6 5 6 6
REMARK Flexibility Score: inf
ROOT
ATOM      1  C   UNL     1      15.078  32.764  22.948  1.00  0.00     0.082 C 
ENDROOT
BRANCH   1   2
ATOM      2  C   UNL     1      15.841  33.625  21.918  1.00  0.00     0.228 C 
BRANCH   2   3
ATOM      3  N   UNL     1      14.902  34.268  20.991  1.00  0.00    -0.350 N 
ATOM      4  H   UNL     1      15.399  34.530  20.108  1.00  0.00     0.345 HD
ATOM      5  H   UNL     1      14.133  33.603  20.748  1.00  0.00     0.345 HD
ATOM      6  H   UNL     1      14.489  35.128  21.421  1.00  0.00     0.345 HD
ENDBRANCH   2   3
BRANCH   2   7
ATOM      7  C   UNL     1      16.692  34.664  22.600  1.00  0.00     0.099 C 
ATOM      8  O   UNL     1      16.368  35.115  23.731  1.00  0.00    -0.544 OA
ATOM      9  O   UNL     1      17.851  35.124  21.987  1.00  0.00    -0.544 OA
ENDBRANCH   2   7
ENDBRANCH   1   2
BRANCH   1  10
ATOM     10  C   UNL     1      13.582  33.087  22.982  1.00  0.00     0.076 C 
BRANCH  10  11
ATOM     11  S   UNL     1      12.616  31.541  23.041  1.00  0.00    -0.165 SA
ATOM     12  C   UNL     1      14.077  30.455  23.066  1.00  0.00     0.085 C 
ENDBRANCH  10  11
ENDBRANCH   1  10
TORSDOF 5
ENDMDL
MODEL 4
REMARK VINA RESULT:    -2.574      3.433      4.378
REMARK INTER + INTRA:          -3.378
REMARK INTER:                  -3.286
REMARK INTRA:                  -0.092
REMARK UNBOUND:                -0.127
REMARK SMILES CSCC[C@@H]([NH3+])C(=O)[O-]
REMARK SMILES IDX 4 1 5 2 6 3 7 7 8 8 9 9 3 10 2 11 1 12
REMARK H PARENT 6 4 6 5 6 6
REMARK Flexibility Score: inf
ROOT
ATOM      1  C   UNL     1      15.161  32.883  23.666  1.00  0.00     0.082 C 
ENDROOT
BRANCH   1   2
ATOM      2  C   UNL     1      15.478  34.282  23.098  1.00  0.00     0.228 C 
BRANCH   2   3
ATOM      3  N   UNL     1      16.103  35.125  24.124  1.00  0.00    -0.350 N 
ATOM      4  H   UNL     1      16.335  34.546  24.965  1.00  0.00     0.345 HD
ATOM      5  H   UNL     1      16.991  35.534  23.754  1.00  0.00     0.345 HD
ATOM      6  H   UNL     1      15.460  35.900  24.407  1.00  0.00     0.345 HD
ENDBRANCH   2   3
BRANCH   2   7
ATOM      7  C   UNL     1      16.370  34.190  21.887  1.00  0.00     0.099 C 
ATOM      8  O   UNL     1      15.966  33.624  20.836  1.00  0.00    -0.544 OA
ATOM      9  O   UNL     1      17.645  34.741  21.921  1.00  0.00    -0.544 OA
ENDBRANCH   2   7
ENDBRANCH   1   2
BRANCH   1  10
ATOM     10  C   UNL     1      13.671  32.701  23.968  1.00  0.00     0.076 C 
BRANCH  10  11
ATOM     11  S   UNL     1      12.913  31.619  22.709  1.00  0.00    -0.165 SA
ATOM     12  C   UNL     1      14.051  30.229  23.004  1.00  0.00     0.085 C 
ENDBRANCH  10  11
ENDBRANCH   1  10
TORSDOF 5
ENDMDL
MODEL 5
REMARK VINA RESULT:    -2.529      3.370      4.209
REMARK INTER + INTRA:          -3.322
REMARK INTER:                  -3.133
REMARK INTRA:                  -0.189
REMARK UNBOUND:                -0.127
REMARK SMILES CSCC[C@@H]([NH3+])C(=O)[O-]
REMARK SMILES IDX 4 1 5 2 6 3 7 7 8 8 9 9 3 10 2 11 1 12
REMARK H PARENT 6 4 6 5 6 6
REMARK Flexibility Score: inf
ROOT
ATOM      1  C   UNL     1      15.189  32.262  23.680  1.00  0.00     0.082 C 
ENDROOT
BRANCH   1   2
ATOM      2  C   UNL     1      15.184  33.727  23.194  1.00  0.00     0.228 C 
BRANCH   2   3
ATOM      3  N   UNL     1      15.934  34.580  24.125  1.00  0.00    -0.350 N 
ATOM      4  H   UNL     1      16.962  34.453  23.973  1.00  0.00     0.345 HD
ATOM      5  H   UNL     1      15.701  35.584  23.951  1.00  0.00     0.345 HD
ATOM      6  H   UNL     1      15.700  34.340  25.116  1.00  0.00     0.345 HD
ENDBRANCH   2   3
BRANCH   2   7
ATOM      7  C   UNL     1      15.759  33.843  21.806  1.00  0.00     0.099 C 
ATOM      8  O   UNL     1      15.017  33.722  20.795  1.00  0.00    -0.544 OA
ATOM      9  O   UNL     1      17.114  34.093  21.635  1.00  0.00    -0.544 OA
ENDBRANCH   2   7
ENDBRANCH   1   2
BRANCH   1  10
ATOM     10  C   UNL     1      13.781  31.753  24.005  1.00  0.00     0.076 C 
BRANCH  10  11
ATOM     11  S   UNL     1      13.146  30.761  22.611  1.00  0.00    -0.165 SA
ATOM     12  C   UNL     1      12.056  32.074  21.979  1.00  0.00     0.085 C 
ENDBRANCH  10  11
ENDBRANCH   1  10
TORSDOF 5
ENDMDL
MODEL 6
REMARK VINA RESULT:    -2.463      3.827      4.331
REMARK INTER + INTRA:          -3.238
REMARK INTER:                  -3.161
REMARK INTRA:                  -0.077
REMARK UNBOUND:                -0.127
REMARK SMILES CSCC[C@@H]([NH3+])C(=O)[O-]
REMARK SMILES IDX 4 1 5 2 6 3 7 7 8 8 9 9 3 10 2 11 1 12
REMARK H PARENT 6 4 6 5 6 6
REMARK Flexibility Score: inf
ROOT
ATOM      1  C   UNL     1      14.236  33.999  20.379  1.00  0.00     0.082 C 
ENDROOT
BRANCH   1   2
ATOM      2  C   UNL     1      14.230  33.468  21.828  1.00  0.00     0.228 C 
BRANCH   2   3
ATOM      3  N   UNL     1      13.863  32.047  21.853  1.00  0.00    -0.350 N 
ATOM      4  H   UNL     1      13.260  31.821  21.027  1.00  0.00     0.345 HD
ATOM      5  H   UNL     1      14.726  31.458  21.797  1.00  0.00     0.345 HD
ATOM      6  H   UNL     1      13.346  31.814  22.732  1.00  0.00     0.345 HD
ENDBRANCH   2   3
BRANCH   2   7
ATOM      7  C   UNL     1      15.568  33.671  22.489  1.00  0.00     0.099 C 
ATOM      8  O   UNL     1      15.648  33.823  23.738  1.00  0.00    -0.544 OA
ATOM      9  O   UNL     1      16.727  33.682  21.723  1.00  0.00    -0.544 OA
ENDBRANCH   2   7
ENDBRANCH   1   2
BRANCH   1  10
ATOM     10  C   UNL     1      12.937  34.726  20.020  1.00  0.00     0.076 C 
BRANCH  10  11
ATOM     11  S   UNL     1      11.891  33.647  18.985  1.00  0.00    -0.165 SA
ATOM     12  C   UNL     1      12.930  33.815  17.499  1.00  0.00     0.085 C 
ENDBRANCH  10  11
ENDBRANCH   1  10
TORSDOF 5
ENDMDL
MODEL 7
REMARK VINA RESULT:    -2.411      2.450      2.687
REMARK INTER + INTRA:          -3.172
REMARK INTER:                  -3.104
REMARK INTRA:                  -0.068
REMARK UNBOUND:                -0.127
REMARK SMILES CSCC[C@@H]([NH3+])C(=O)[O-]
REMARK SMILES IDX 4 1 5 2 6 3 7 7 8 8 9 9 3 10 2 11 1 12
REMARK H PARENT 6 4 6 5 6 6
REMARK Flexibility Score: inf
ROOT
ATOM      1  C   UNL     1      13.365  32.404  22.060  1.00  0.00     0.082 C 
ENDROOT
BRANCH   1   2
ATOM      2  C   UNL     1      13.079  31.056  22.755  1.00  0.00     0.228 C 
BRANCH   2   3
ATOM      3  N   UNL     1      12.454  30.117  21.817  1.00  0.00    -0.350 N 
ATOM      4  H   UNL     1      11.414  30.235  21.837  1.00  0.00     0.345 HD
ATOM      5  H   UNL     1      12.786  30.313  20.845  1.00  0.00     0.345 HD
ATOM      6  H   UNL     1      12.693  29.130  22.068  1.00  0.00     0.345 HD
ENDBRANCH   2   3
BRANCH   2   7
ATOM      7  C   UNL     1      14.340  30.459  23.326  1.00  0.00     0.099 C 
ATOM      8  O   UNL     1      14.619  29.247  23.128  1.00  0.00    -0.544 OA
ATOM      9  O   UNL     1      15.208  31.250  24.068  1.00  0.00    -0.544 OA
ENDBRANCH   2   7
ENDBRANCH   1   2
BRANCH   1  10
ATOM     10  C   UNL     1      12.324  33.472  22.410  1.00  0.00     0.076 C 
BRANCH  10  11
ATOM     11  S   UNL     1      12.593  34.958  21.386  1.00  0.00    -0.165 SA
ATOM     12  C   UNL     1      14.401  34.759  21.310  1.00  0.00     0.085 C 
ENDBRANCH  10  11
ENDBRANCH   1  10
TORSDOF 5
ENDMDL
MODEL 8
REMARK VINA RESULT:    -2.361      3.023      3.863
REMARK INTER + INTRA:          -3.109
REMARK INTER:                  -2.923
REMARK INTRA:                  -0.186
REMARK UNBOUND:                -0.127
REMARK SMILES CSCC[C@@H]([NH3+])C(=O)[O-]
REMARK SMILES IDX 4 1 5 2 6 3 7 7 8 8 9 9 3 10 2 11 1 12
REMARK H PARENT 6 4 6 5 6 6
REMARK Flexibility Score: inf
ROOT
ATOM      1  C   UNL     1      15.423  33.688  20.702  1.00  0.00     0.082 C 
ENDROOT
BRANCH   1   2
ATOM      2  C   UNL     1      16.425  33.612  21.873  1.00  0.00     0.228 C 
BRANCH   2   3
ATOM      3  N   UNL     1      17.111  34.898  22.047  1.00  0.00    -0.350 N 
ATOM      4  H   UNL     1      17.471  35.236  21.124  1.00  0.00     0.345 HD
ATOM      5  H   UNL     1      16.440  35.611  22.415  1.00  0.00     0.345 HD
ATOM      6  H   UNL     1      17.911  34.803  22.715  1.00  0.00     0.345 HD
ENDBRANCH   2   3
BRANCH   2   7
ATOM      7  C   UNL     1      15.739  33.213  23.154  1.00  0.00     0.099 C 
ATOM      8  O   UNL     1      15.676  34.015  24.123  1.00  0.00    -0.544 OA
ATOM      9  O   UNL     1      15.161  31.954  23.268  1.00  0.00    -0.544 OA
ENDBRANCH   2   7
ENDBRANCH   1   2
BRANCH   1  10
ATOM     10  C   UNL     1      14.288  34.681  20.972  1.00  0.00     0.076 C 
BRANCH  10  11
ATOM     11  S   UNL     1      12.752  34.094  20.181  1.00  0.00    -0.165 SA
ATOM     12  C   UNL     1      12.165  33.192  21.649  1.00  0.00     0.085 C 
ENDBRANCH  10  11
ENDBRANCH   1  10
TORSDOF 5
ENDMDL
MODEL 9
REMARK VINA RESULT:    -2.121      3.100      3.763
REMARK INTER + INTRA:          -2.806
REMARK INTER:                  -2.622
REMARK INTRA:                  -0.184
REMARK UNBOUND:                -0.127
REMARK SMILES CSCC[C@@H]([NH3+])C(=O)[O-]
REMARK SMILES IDX 4 1 5 2 6 3 7 7 8 8 9 9 3 10 2 11 1 12
REMARK H PARENT 6 4 6 5 6 6
REMARK Flexibility Score: inf
ROOT
ATOM      1  C   UNL     1      13.752  32.228  22.260  1.00  0.00     0.082 C 
ENDROOT
BRANCH   1   2
ATOM      2  C   UNL     1      14.598  32.588  23.500  1.00  0.00     0.228 C 
BRANCH   2   3
ATOM      3  N   UNL     1      15.216  31.384  24.067  1.00  0.00    -0.350 N 
ATOM      4  H   UNL     1      14.595  30.979  24.806  1.00  0.00     0.345 HD
ATOM      5  H   UNL     1      15.343  30.664  23.319  1.00  0.00     0.345 HD
ATOM      6  H   UNL     1      16.148  31.609  24.486  1.00  0.00     0.345 HD
ENDBRANCH   2   3
BRANCH   2   7
ATOM      7  C   UNL     1      15.656  33.606  23.162  1.00  0.00     0.099 C 
ATOM      8  O   UNL     1      16.007  34.470  24.010  1.00  0.00    -0.544 OA
ATOM      9  O   UNL     1      16.260  33.589  21.911  1.00  0.00    -0.544 OA
ENDBRANCH   2   7
ENDBRANCH   1   2
BRANCH   1  10
ATOM     10  C   UNL     1      12.327  32.783  22.347  1.00  0.00     0.076 C 
BRANCH  10  11
ATOM     11  S   UNL     1      12.285  34.484  21.689  1.00  0.00    -0.165 SA
ATOM     12  C   UNL     1      13.192  34.076  20.165  1.00  0.00     0.085 C 
ENDBRANCH  10  11
ENDBRANCH   1  10
TORSDOF 5
ENDMDL
