MODEL 1
REMARK VINA RESULT:    -1.043      0.000      0.000
REMARK INTER + INTRA:          -1.446
REMARK INTER:                  -1.226
REMARK INTRA:                  -0.220
REMARK UNBOUND:                -0.220
REMARK SMILES O=c1c(O)c(-c2ccc(O)c(O)c2)oc2cc(O)ccc12
REMARK SMILES IDX 5 1 3 2 2 3 1 4 21 5 15 6 14 7 16 8 17 9 19 10 20 11 6 12
REMARK SMILES IDX 7 13 8 14 9 15 13 16 11 17 10 18 12 20 4 22 18 24
REMARK H PARENT 10 19 12 21 4 23 18 25
REMARK Flexibility Score: inf
ROOT
ATOM      1  C   UNL     1      29.519  38.013  27.329  1.00  0.00     0.180 A 
ATOM      2  C   UNL     1      28.158  38.242  27.044  1.00  0.00     0.208 A 
ATOM      3  C   UNL     1      27.389  37.190  26.522  1.00  0.00     0.235 A 
ATOM      4  O   UNL     1      26.170  37.373  26.250  1.00  0.00    -0.285 OA
ATOM      5  C   UNL     1      27.986  35.936  26.315  1.00  0.00     0.069 A 
ATOM      6  C   UNL     1      29.349  35.780  26.647  1.00  0.00     0.142 A 
ATOM      7  O   UNL     1      30.043  36.805  27.131  1.00  0.00    -0.452 OA
ATOM      8  C   UNL     1      29.977  34.544  26.464  1.00  0.00     0.094 A 
ATOM      9  C   UNL     1      29.257  33.456  25.950  1.00  0.00     0.119 A 
ATOM     10  C   UNL     1      27.907  33.609  25.619  1.00  0.00     0.047 A 
ATOM     11  C   UNL     1      27.270  34.840  25.799  1.00  0.00     0.020 A 
ENDROOT
BRANCH   1  12
ATOM     12  C   UNL     1      30.401  39.075  27.863  1.00  0.00     0.025 A 
ATOM     13  C   UNL     1      30.259  39.551  29.177  1.00  0.00     0.016 A 
ATOM     14  C   UNL     1      31.089  40.570  29.650  1.00  0.00     0.051 A 
ATOM     15  C   UNL     1      32.062  41.143  28.824  1.00  0.00     0.157 A 
ATOM     16  C   UNL     1      31.362  39.662  27.025  1.00  0.00     0.062 A 
ATOM     17  C   UNL     1      32.197  40.685  27.491  1.00  0.00     0.158 A 
BRANCH  15  18
ATOM     18  O   UNL     1      32.860  42.154  29.360  1.00  0.00    -0.504 OA
ATOM     19  H   UNL     1      32.499  42.947  29.871  1.00  0.00     0.293 HD
ENDBRANCH  15  18
BRANCH  17  20
ATOM     20  O   UNL     1      33.139  41.213  26.606  1.00  0.00    -0.504 OA
ATOM     21  H   UNL     1      33.181  42.185  26.339  1.00  0.00     0.293 HD
ENDBRANCH  17  20
ENDBRANCH   1  12
BRANCH   2  22
ATOM     22  O   UNL     1      27.579  39.486  27.307  1.00  0.00    -0.502 OA
ATOM     23  H   UNL     1      27.878  40.071  28.079  1.00  0.00     0.293 HD
ENDBRANCH   2  22
BRANCH   9  24
ATOM     24  O   UNL     1      29.874  32.221  25.765  1.00  0.00    -0.508 OA
ATOM     25  H   UNL     1      29.763  31.698  24.903  1.00  0.00     0.293 HD
ENDBRANCH   9  24
TORSDOF 5
ENDMDL
MODEL 2
REMARK VINA RESULT:     0.332      3.115      5.286
REMARK INTER + INTRA:           0.170
REMARK INTER:                   0.317
REMARK INTRA:                  -0.147
REMARK UNBOUND:                -0.220
REMARK SMILES O=c1c(O)c(-c2ccc(O)c(O)c2)oc2cc(O)ccc12
REMARK SMILES IDX 5 1 3 2 2 3 1 4 21 5 15 6 14 7 16 8 17 9 19 10 20 11 6 12
REMARK SMILES IDX 7 13 8 14 9 15 13 16 11 17 10 18 12 20 4 22 18 24
REMARK H PARENT 10 19 12 21 4 23 18 25
REMARK Flexibility Score: inf
ROOT
ATOM      1  C   UNL     1      29.547  37.018  26.813  1.00  0.00     0.180 A 
ATOM      2  C   UNL     1      28.187  37.184  27.146  1.00  0.00     0.208 A 
ATOM      3  C   UNL     1      27.442  38.167  26.476  1.00  0.00     0.235 A 
ATOM      4  O   UNL     1      26.225  38.342  26.764  1.00  0.00    -0.285 OA
ATOM      5  C   UNL     1      28.059  38.944  25.483  1.00  0.00     0.069 A 
ATOM      6  C   UNL     1      29.418  38.701  25.191  1.00  0.00     0.142 A 
ATOM      7  O   UNL     1      30.091  37.767  25.855  1.00  0.00    -0.452 OA
ATOM      8  C   UNL     1      30.066  39.447  24.201  1.00  0.00     0.094 A 
ATOM      9  C   UNL     1      29.370  40.439  23.497  1.00  0.00     0.119 A 
ATOM     10  C   UNL     1      28.023  40.683  23.785  1.00  0.00     0.047 A 
ATOM     11  C   UNL     1      27.366  39.941  24.772  1.00  0.00     0.020 A 
ENDROOT
BRANCH   1  12
ATOM     12  C   UNL     1      30.405  36.017  27.486  1.00  0.00     0.025 A 
ATOM     13  C   UNL     1      30.145  34.642  27.380  1.00  0.00     0.016 A 
ATOM     14  C   UNL     1      30.956  33.718  28.044  1.00  0.00     0.051 A 
ATOM     15  C   UNL     1      32.029  34.145  28.834  1.00  0.00     0.157 A 
ATOM     16  C   UNL     1      31.468  36.450  28.295  1.00  0.00     0.062 A 
ATOM     17  C   UNL     1      32.285  35.531  28.965  1.00  0.00     0.158 A 
BRANCH  15  18
ATOM     18  O   UNL     1      32.802  33.171  29.467  1.00  0.00    -0.504 OA
ATOM     19  H   UNL     1      32.696  32.178  29.314  1.00  0.00     0.293 HD
ENDBRANCH  15  18
BRANCH  17  20
ATOM     20  O   UNL     1      33.331  36.033  29.741  1.00  0.00    -0.504 OA
ATOM     21  H   UNL     1      34.258  36.219  29.388  1.00  0.00     0.293 HD
ENDBRANCH  17  20
ENDBRANCH   1  12
BRANCH   2  22
ATOM     22  O   UNL     1      27.587  36.363  28.104  1.00  0.00    -0.502 OA
ATOM     23  H   UNL     1      26.584  36.340  28.246  1.00  0.00     0.293 HD
ENDBRANCH   2  22
BRANCH   9  24
ATOM     24  O   UNL     1      30.007  41.188  22.509  1.00  0.00    -0.508 OA
ATOM     25  H   UNL     1      31.013  41.314  22.508  1.00  0.00     0.293 HD
ENDBRANCH   9  24
TORSDOF 5
ENDMDL
MODEL 3
REMARK VINA RESULT:     0.410      3.098      5.390
REMARK INTER + INTRA:           0.262
REMARK INTER:                   0.531
REMARK INTRA:                  -0.269
REMARK UNBOUND:                -0.220
REMARK SMILES O=c1c(O)c(-c2ccc(O)c(O)c2)oc2cc(O)ccc12
REMARK SMILES IDX 5 1 3 2 2 3 1 4 21 5 15 6 14 7 16 8 17 9 19 10 20 11 6 12
REMARK SMILES IDX 7 13 8 14 9 15 13 16 11 17 10 18 12 20 4 22 18 24
REMARK H PARENT 10 19 12 21 4 23 18 25
REMARK Flexibility Score: inf
ROOT
ATOM      1  C   UNL     1      29.566  37.775  26.244  1.00  0.00     0.180 A 
ATOM      2  C   UNL     1      28.206  37.406  26.257  1.00  0.00     0.208 A 
ATOM      3  C   UNL     1      27.487  37.515  27.458  1.00  0.00     0.235 A 
ATOM      4  O   UNL     1      26.270  37.182  27.497  1.00  0.00    -0.285 OA
ATOM      5  C   UNL     1      28.130  38.005  28.605  1.00  0.00     0.069 A 
ATOM      6  C   UNL     1      29.489  38.375  28.505  1.00  0.00     0.142 A 
ATOM      7  O   UNL     1      30.136  38.247  27.351  1.00  0.00    -0.452 OA
ATOM      8  C   UNL     1      30.163  38.876  29.623  1.00  0.00     0.094 A 
ATOM      9  C   UNL     1      29.494  39.012  30.848  1.00  0.00     0.119 A 
ATOM     10  C   UNL     1      28.147  38.644  30.950  1.00  0.00     0.047 A 
ATOM     11  C   UNL     1      27.465  38.143  29.838  1.00  0.00     0.020 A 
ENDROOT
BRANCH   1  12
ATOM     12  C   UNL     1      30.398  37.670  25.023  1.00  0.00     0.025 A 
ATOM     13  C   UNL     1      30.303  38.617  23.991  1.00  0.00     0.016 A 
ATOM     14  C   UNL     1      31.082  38.484  22.840  1.00  0.00     0.051 A 
ATOM     15  C   UNL     1      31.956  37.403  22.688  1.00  0.00     0.157 A 
ATOM     16  C   UNL     1      31.258  36.573  24.865  1.00  0.00     0.062 A 
ATOM     17  C   UNL     1      32.042  36.431  23.713  1.00  0.00     0.158 A 
BRANCH  15  18
ATOM     18  O   UNL     1      32.708  37.331  21.514  1.00  0.00    -0.504 OA
ATOM     19  H   UNL     1      33.042  38.138  21.007  1.00  0.00     0.293 HD
ENDBRANCH  15  18
BRANCH  17  20
ATOM     20  O   UNL     1      32.885  35.321  23.630  1.00  0.00    -0.504 OA
ATOM     21  H   UNL     1      32.918  34.695  22.838  1.00  0.00     0.293 HD
ENDBRANCH  17  20
ENDBRANCH   1  12
BRANCH   2  22
ATOM     22  O   UNL     1      27.579  36.969  25.088  1.00  0.00    -0.502 OA
ATOM     23  H   UNL     1      27.754  36.055  24.687  1.00  0.00     0.293 HD
ENDBRANCH   2  22
BRANCH   9  24
ATOM     24  O   UNL     1      30.156  39.510  31.967  1.00  0.00    -0.508 OA
ATOM     25  H   UNL     1      30.787  38.930  32.510  1.00  0.00     0.293 HD
ENDBRANCH   9  24
TORSDOF 5
ENDMDL
MODEL 4
REMARK VINA RESULT:     0.589      1.570      6.658
REMARK INTER + INTRA:           0.473
REMARK INTER:                   0.655
REMARK INTRA:                  -0.182
REMARK UNBOUND:                -0.220
REMARK SMILES O=c1c(O)c(-c2ccc(O)c(O)c2)oc2cc(O)ccc12
REMARK SMILES IDX 5 1 3 2 2 3 1 4 21 5 15 6 14 7 16 8 17 9 19 10 20 11 6 12
REMARK SMILES IDX 7 13 8 14 9 15 13 16 11 17 10 18 12 20 4 22 18 24
REMARK H PARENT 10 19 12 21 4 23 18 25
REMARK Flexibility Score: inf
ROOT
ATOM      1  C   UNL     1      29.048  37.690  27.526  1.00  0.00     0.180 A 
ATOM      2  C   UNL     1      28.564  38.102  28.785  1.00  0.00     0.208 A 
ATOM      3  C   UNL     1      29.283  39.073  29.500  1.00  0.00     0.235 A 
ATOM      4  O   UNL     1      28.876  39.451  30.634  1.00  0.00    -0.285 OA
ATOM      5  C   UNL     1      30.448  39.621  28.941  1.00  0.00     0.069 A 
ATOM      6  C   UNL     1      30.854  39.173  27.666  1.00  0.00     0.142 A 
ATOM      7  O   UNL     1      30.150  38.245  27.026  1.00  0.00    -0.452 OA
ATOM      8  C   UNL     1      32.003  39.701  27.070  1.00  0.00     0.094 A 
ATOM      9  C   UNL     1      32.758  40.677  27.737  1.00  0.00     0.119 A 
ATOM     10  C   UNL     1      32.359  41.122  29.002  1.00  0.00     0.047 A 
ATOM     11  C   UNL     1      31.210  40.600  29.604  1.00  0.00     0.020 A 
ENDROOT
BRANCH   1  12
ATOM     12  C   UNL     1      28.358  36.659  26.719  1.00  0.00     0.025 A 
ATOM     13  C   UNL     1      27.086  36.888  26.171  1.00  0.00     0.016 A 
ATOM     14  C   UNL     1      26.447  35.891  25.432  1.00  0.00     0.051 A 
ATOM     15  C   UNL     1      27.053  34.645  25.236  1.00  0.00     0.157 A 
ATOM     16  C   UNL     1      28.960  35.403  26.542  1.00  0.00     0.062 A 
ATOM     17  C   UNL     1      28.326  34.396  25.803  1.00  0.00     0.158 A 
BRANCH  15  18
ATOM     18  O   UNL     1      26.362  33.693  24.485  1.00  0.00    -0.504 OA
ATOM     19  H   UNL     1      25.907  32.883  24.881  1.00  0.00     0.293 HD
ENDBRANCH  15  18
BRANCH  17  20
ATOM     20  O   UNL     1      28.989  33.177  25.659  1.00  0.00    -0.504 OA
ATOM     21  H   UNL     1      28.962  32.434  26.342  1.00  0.00     0.293 HD
ENDBRANCH  17  20
ENDBRANCH   1  12
BRANCH   2  22
ATOM     22  O   UNL     1      27.375  37.575  29.295  1.00  0.00    -0.502 OA
ATOM     23  H   UNL     1      26.486  38.050  29.196  1.00  0.00     0.293 HD
ENDBRANCH   2  22
BRANCH   9  24
ATOM     24  O   UNL     1      33.904  41.210  27.152  1.00  0.00    -0.508 OA
ATOM     25  H   UNL     1      33.866  42.044  26.577  1.00  0.00     0.293 HD
ENDBRANCH   9  24
TORSDOF 5
ENDMDL
MODEL 5
REMARK VINA RESULT:     1.124      3.277      4.593
REMARK INTER + INTRA:           1.101
REMARK INTER:                   1.327
REMARK INTRA:                  -0.226
REMARK UNBOUND:                -0.220
REMARK SMILES O=c1c(O)c(-c2ccc(O)c(O)c2)oc2cc(O)ccc12
REMARK SMILES IDX 5 1 3 2 2 3 1 4 21 5 15 6 14 7 16 8 17 9 19 10 20 11 6 12
REMARK SMILES IDX 7 13 8 14 9 15 13 16 11 17 10 18 12 20 4 22 18 24
REMARK H PARENT 10 19 12 21 4 23 18 25
REMARK Flexibility Score: inf
ROOT
ATOM      1  C   UNL     1      29.034  38.153  26.537  1.00  0.00     0.180 A 
ATOM      2  C   UNL     1      28.529  39.051  25.573  1.00  0.00     0.208 A 
ATOM      3  C   UNL     1      29.181  39.147  24.333  1.00  0.00     0.235 A 
ATOM      4  O   UNL     1      28.755  39.950  23.458  1.00  0.00    -0.285 OA
ATOM      5  C   UNL     1      30.300  38.340  24.077  1.00  0.00     0.069 A 
ATOM      6  C   UNL     1      30.729  37.450  25.085  1.00  0.00     0.142 A 
ATOM      7  O   UNL     1      30.090  37.396  26.249  1.00  0.00    -0.452 OA
ATOM      8  C   UNL     1      31.834  36.622  24.864  1.00  0.00     0.094 A 
ATOM      9  C   UNL     1      32.521  36.672  23.642  1.00  0.00     0.119 A 
ATOM     10  C   UNL     1      32.098  37.555  22.642  1.00  0.00     0.047 A 
ATOM     11  C   UNL     1      30.994  38.385  22.853  1.00  0.00     0.020 A 
ENDROOT
BRANCH   1  12
ATOM     12  C   UNL     1      28.415  38.007  27.874  1.00  0.00     0.025 A 
ATOM     13  C   UNL     1      27.166  37.387  28.038  1.00  0.00     0.016 A 
ATOM     14  C   UNL     1      26.593  37.282  29.308  1.00  0.00     0.051 A 
ATOM     15  C   UNL     1      27.245  37.801  30.432  1.00  0.00     0.157 A 
ATOM     16  C   UNL     1      29.061  38.547  28.997  1.00  0.00     0.062 A 
ATOM     17  C   UNL     1      28.494  38.447  30.274  1.00  0.00     0.158 A 
BRANCH  15  18
ATOM     18  O   UNL     1      26.620  37.659  31.672  1.00  0.00    -0.504 OA
ATOM     19  H   UNL     1      26.044  38.371  32.099  1.00  0.00     0.293 HD
ENDBRANCH  15  18
BRANCH  17  20
ATOM     20  O   UNL     1      29.199  38.996  31.346  1.00  0.00    -0.504 OA
ATOM     21  H   UNL     1      29.202  39.979  31.576  1.00  0.00     0.293 HD
ENDBRANCH  17  20
ENDBRANCH   1  12
BRANCH   2  22
ATOM     22  O   UNL     1      27.384  39.805  25.838  1.00  0.00    -0.502 OA
ATOM     23  H   UNL     1      26.527  39.693  25.310  1.00  0.00     0.293 HD
ENDBRANCH   2  22
BRANCH   9  24
ATOM     24  O   UNL     1      33.622  35.851  23.413  1.00  0.00    -0.508 OA
ATOM     25  H   UNL     1      34.080  35.820  22.508  1.00  0.00     0.293 HD
ENDBRANCH   9  24
TORSDOF 5
ENDMDL
MODEL 6
REMARK VINA RESULT:     1.156      2.994      4.538
REMARK INTER + INTRA:           1.139
REMARK INTER:                   1.399
REMARK INTRA:                  -0.260
REMARK UNBOUND:                -0.220
REMARK SMILES O=c1c(O)c(-c2ccc(O)c(O)c2)oc2cc(O)ccc12
REMARK SMILES IDX 5 1 3 2 2 3 1 4 21 5 15 6 14 7 16 8 17 9 19 10 20 11 6 12
REMARK SMILES IDX 7 13 8 14 9 15 13 16 11 17 10 18 12 20 4 22 18 24
REMARK H PARENT 10 19 12 21 4 23 18 25
REMARK Flexibility Score: inf
ROOT
ATOM      1  C   UNL     1      29.063  37.110  26.505  1.00  0.00     0.180 A 
ATOM      2  C   UNL     1      28.555  35.818  26.260  1.00  0.00     0.208 A 
ATOM      3  C   UNL     1      29.241  34.711  26.785  1.00  0.00     0.235 A 
ATOM      4  O   UNL     1      28.812  33.543  26.571  1.00  0.00    -0.285 OA
ATOM      5  C   UNL     1      30.399  34.916  27.551  1.00  0.00     0.069 A 
ATOM      6  C   UNL     1      30.830  36.242  27.771  1.00  0.00     0.142 A 
ATOM      7  O   UNL     1      30.157  37.262  27.249  1.00  0.00    -0.452 OA
ATOM      8  C   UNL     1      31.974  36.489  28.537  1.00  0.00     0.094 A 
ATOM      9  C   UNL     1      32.697  35.422  29.090  1.00  0.00     0.119 A 
ATOM     10  C   UNL     1      32.272  34.106  28.872  1.00  0.00     0.047 A 
ATOM     11  C   UNL     1      31.129  33.850  28.109  1.00  0.00     0.020 A 
ENDROOT
BRANCH   1  12
ATOM     12  C   UNL     1      28.409  38.326  25.972  1.00  0.00     0.025 A 
ATOM     13  C   UNL     1      27.224  38.826  26.535  1.00  0.00     0.016 A 
ATOM     14  C   UNL     1      26.614  39.962  25.999  1.00  0.00     0.051 A 
ATOM     15  C   UNL     1      27.162  40.612  24.888  1.00  0.00     0.157 A 
ATOM     16  C   UNL     1      28.950  38.963  24.844  1.00  0.00     0.062 A 
ATOM     17  C   UNL     1      28.344  40.103  24.299  1.00  0.00     0.158 A 
BRANCH  15  18
ATOM     18  O   UNL     1      26.504  41.744  24.404  1.00  0.00    -0.504 OA
ATOM     19  H   UNL     1      26.847  42.314  23.644  1.00  0.00     0.293 HD
ENDBRANCH  15  18
BRANCH  17  20
ATOM     20  O   UNL     1      28.944  40.691  23.185  1.00  0.00    -0.504 OA
ATOM     21  H   UNL     1      28.990  41.687  23.027  1.00  0.00     0.293 HD
ENDBRANCH  17  20
ENDBRANCH   1  12
BRANCH   2  22
ATOM     22  O   UNL     1      27.373  35.647  25.536  1.00  0.00    -0.502 OA
ATOM     23  H   UNL     1      26.862  34.772  25.532  1.00  0.00     0.293 HD
ENDBRANCH   2  22
BRANCH   9  24
ATOM     24  O   UNL     1      33.836  35.657  29.855  1.00  0.00    -0.508 OA
ATOM     25  H   UNL     1      33.825  36.302  30.637  1.00  0.00     0.293 HD
ENDBRANCH   9  24
TORSDOF 5
ENDMDL
MODEL 7
REMARK VINA RESULT:     1.416      1.367      2.746
REMARK INTER + INTRA:           1.444
REMARK INTER:                   1.724
REMARK INTRA:                  -0.279
REMARK UNBOUND:                -0.220
REMARK SMILES O=c1c(O)c(-c2ccc(O)c(O)c2)oc2cc(O)ccc12
REMARK SMILES IDX 5 1 3 2 2 3 1 4 21 5 15 6 14 7 16 8 17 9 19 10 20 11 6 12
REMARK SMILES IDX 7 13 8 14 9 15 13 16 11 17 10 18 12 20 4 22 18 24
REMARK H PARENT 10 19 12 21 4 23 18 25
REMARK Flexibility Score: inf
ROOT
ATOM      1  C   UNL     1      30.393  37.329  27.574  1.00  0.00     0.180 A 
ATOM      2  C   UNL     1      31.017  36.119  27.940  1.00  0.00     0.208 A 
ATOM      3  C   UNL     1      30.442  34.909  27.522  1.00  0.00     0.235 A 
ATOM      4  O   UNL     1      30.976  33.811  27.845  1.00  0.00    -0.285 OA
ATOM      5  C   UNL     1      29.278  34.932  26.738  1.00  0.00     0.069 A 
ATOM      6  C   UNL     1      28.727  36.185  26.394  1.00  0.00     0.142 A 
ATOM      7  O   UNL     1      29.298  37.308  26.818  1.00  0.00    -0.452 OA
ATOM      8  C   UNL     1      27.573  36.251  25.606  1.00  0.00     0.094 A 
ATOM      9  C   UNL     1      26.958  35.074  25.156  1.00  0.00     0.119 A 
ATOM     10  C   UNL     1      27.501  33.830  25.497  1.00  0.00     0.047 A 
ATOM     11  C   UNL     1      28.655  33.755  26.283  1.00  0.00     0.020 A 
ENDROOT
BRANCH   1  12
ATOM     12  C   UNL     1      30.927  38.646  27.991  1.00  0.00     0.025 A 
ATOM     13  C   UNL     1      30.337  39.377  29.034  1.00  0.00     0.016 A 
ATOM     14  C   UNL     1      30.845  40.627  29.394  1.00  0.00     0.051 A 
ATOM     15  C   UNL     1      31.938  41.177  28.716  1.00  0.00     0.157 A 
ATOM     16  C   UNL     1      32.010  39.204  27.295  1.00  0.00     0.062 A 
ATOM     17  C   UNL     1      32.526  40.458  27.648  1.00  0.00     0.158 A 
BRANCH  15  18
ATOM     18  O   UNL     1      32.399  42.429  29.127  1.00  0.00    -0.504 OA
ATOM     19  H   UNL     1      31.811  43.140  29.538  1.00  0.00     0.293 HD
ENDBRANCH  15  18
BRANCH  17  20
ATOM     20  O   UNL     1      33.612  40.945  26.920  1.00  0.00    -0.504 OA
ATOM     21  H   UNL     1      33.529  41.456  26.053  1.00  0.00     0.293 HD
ENDBRANCH  17  20
ENDBRANCH   1  12
BRANCH   2  22
ATOM     22  O   UNL     1      32.202  36.128  28.679  1.00  0.00    -0.502 OA
ATOM     23  H   UNL     1      32.730  35.283  28.868  1.00  0.00     0.293 HD
ENDBRANCH   2  22
BRANCH   9  24
ATOM     24  O   UNL     1      25.809  35.129  24.371  1.00  0.00    -0.508 OA
ATOM     25  H   UNL     1      25.710  34.560  23.537  1.00  0.00     0.293 HD
ENDBRANCH   9  24
TORSDOF 5
ENDMDL
