MODEL 1
REMARK VINA RESULT:    -7.749      0.000      0.000
REMARK INTER + INTRA:          -9.513
REMARK INTER:                  -9.335
REMARK INTRA:                  -0.178
REMARK UNBOUND:                -0.178
REMARK SMILES O=c1c(O)c(-c2ccc(O)c(O)c2)oc2cc(O)cc(O)c12
REMARK SMILES IDX 5 1 3 2 2 3 1 4 22 5 20 6 19 7 17 8 16 9 15 10 14 11 6 12
REMARK SMILES IDX 7 13 8 14 9 15 13 16 11 17 10 18 12 20 4 22 21 24 18 26
REMARK H PARENT 10 19 12 21 4 23 21 25 18 27
REMARK Flexibility Score: inf
ROOT
ATOM      1  C   UNL     1      -3.991 -22.241  47.458  1.00  0.00     0.180 A 
ATOM      2  C   UNL     1      -4.493 -23.180  48.376  1.00  0.00     0.208 A 
ATOM      3  C   UNL     1      -3.660 -23.633  49.412  1.00  0.00     0.238 A 
ATOM      4  O   UNL     1      -4.132 -24.431  50.262  1.00  0.00    -0.285 OA
ATOM      5  C   UNL     1      -2.331 -23.154  49.507  1.00  0.00     0.111 A 
ATOM      6  C   UNL     1      -1.387 -23.574  50.491  1.00  0.00     0.134 A 
ATOM      7  C   UNL     1      -0.142 -22.936  50.572  1.00  0.00     0.093 A 
ATOM      8  C   UNL     1       0.216 -21.939  49.660  1.00  0.00     0.123 A 
ATOM      9  C   UNL     1      -0.677 -21.564  48.659  1.00  0.00     0.094 A 
ATOM     10  C   UNL     1      -1.939 -22.157  48.576  1.00  0.00     0.146 A 
ATOM     11  O   UNL     1      -2.763 -21.762  47.613  1.00  0.00    -0.452 OA
ENDROOT
BRANCH   1  12
ATOM     12  C   UNL     1      -4.802 -21.737  46.325  1.00  0.00     0.025 A 
ATOM     13  C   UNL     1      -4.452 -22.018  44.994  1.00  0.00     0.016 A 
ATOM     14  C   UNL     1      -5.217 -21.510  43.941  1.00  0.00     0.051 A 
ATOM     15  C   UNL     1      -6.333 -20.704  44.201  1.00  0.00     0.157 A 
ATOM     16  C   UNL     1      -5.908 -20.910  46.581  1.00  0.00     0.062 A 
ATOM     17  C   UNL     1      -6.678 -20.401  45.529  1.00  0.00     0.158 A 
BRANCH  15  18
ATOM     18  O   UNL     1      -7.097 -20.201  43.149  1.00  0.00    -0.504 OA
ATOM     19  H   UNL     1      -7.159 -20.684  42.260  1.00  0.00     0.293 HD
ENDBRANCH  15  18
BRANCH  17  20
ATOM     20  O   UNL     1      -7.778 -19.596  45.823  1.00  0.00    -0.504 OA
ATOM     21  H   UNL     1      -8.676 -19.987  46.083  1.00  0.00     0.293 HD
ENDBRANCH  17  20
ENDBRANCH   1  12
BRANCH   2  22
ATOM     22  O   UNL     1      -5.815 -23.624  48.276  1.00  0.00    -0.502 OA
ATOM     23  H   UNL     1      -6.197 -24.005  47.419  1.00  0.00     0.293 HD
ENDBRANCH   2  22
BRANCH   6  24
ATOM     24  O   UNL     1      -1.609 -24.621  51.390  1.00  0.00    -0.507 OA
ATOM     25  H   UNL     1      -1.442 -25.596  51.188  1.00  0.00     0.293 HD
ENDBRANCH   6  24
BRANCH   8  26
ATOM     26  O   UNL     1       1.462 -21.321  49.737  1.00  0.00    -0.508 OA
ATOM     27  H   UNL     1       2.318 -21.860  49.782  1.00  0.00     0.293 HD
ENDBRANCH   8  26
TORSDOF 6
ENDMDL
MODEL 2
REMARK VINA RESULT:    -7.512      2.798      3.657
REMARK INTER + INTRA:          -9.227
REMARK INTER:                  -8.906
REMARK INTRA:                  -0.321
REMARK UNBOUND:                -0.178
REMARK SMILES O=c1c(O)c(-c2ccc(O)c(O)c2)oc2cc(O)cc(O)c12
REMARK SMILES IDX 5 1 3 2 2 3 1 4 22 5 20 6 19 7 17 8 16 9 15 10 14 11 6 12
REMARK SMILES IDX 7 13 8 14 9 15 13 16 11 17 10 18 12 20 4 22 21 24 18 26
REMARK H PARENT 10 19 12 21 4 23 21 25 18 27
REMARK Flexibility Score: inf
ROOT
ATOM      1  C   UNL     1      -5.686 -20.740  46.248  1.00  0.00     0.180 A 
ATOM      2  C   UNL     1      -6.075 -20.522  47.581  1.00  0.00     0.208 A 
ATOM      3  C   UNL     1      -5.652 -21.423  48.571  1.00  0.00     0.238 A 
ATOM      4  O   UNL     1      -5.957 -21.192  49.770  1.00  0.00    -0.285 OA
ATOM      5  C   UNL     1      -4.859 -22.540  48.214  1.00  0.00     0.111 A 
ATOM      6  C   UNL     1      -4.408 -23.539  49.128  1.00  0.00     0.134 A 
ATOM      7  C   UNL     1      -3.519 -24.528  48.687  1.00  0.00     0.093 A 
ATOM      8  C   UNL     1      -3.119 -24.593  47.350  1.00  0.00     0.123 A 
ATOM      9  C   UNL     1      -3.602 -23.657  46.438  1.00  0.00     0.094 A 
ATOM     10  C   UNL     1      -4.461 -22.638  46.855  1.00  0.00     0.146 A 
ATOM     11  O   UNL     1      -4.888 -21.760  45.955  1.00  0.00    -0.452 OA
ENDROOT
BRANCH   1  12
ATOM     12  C   UNL     1      -6.114 -19.848  45.146  1.00  0.00     0.025 A 
ATOM     13  C   UNL     1      -7.245 -20.140  44.366  1.00  0.00     0.016 A 
ATOM     14  C   UNL     1      -7.615 -19.297  43.315  1.00  0.00     0.051 A 
ATOM     15  C   UNL     1      -6.854 -18.157  43.021  1.00  0.00     0.157 A 
ATOM     16  C   UNL     1      -5.342 -18.716  44.834  1.00  0.00     0.062 A 
ATOM     17  C   UNL     1      -5.710 -17.868  43.784  1.00  0.00     0.158 A 
BRANCH  15  18
ATOM     18  O   UNL     1      -7.227 -17.315  41.974  1.00  0.00    -0.504 OA
ATOM     19  H   UNL     1      -7.315 -17.657  41.024  1.00  0.00     0.293 HD
ENDBRANCH  15  18
BRANCH  17  20
ATOM     20  O   UNL     1      -4.927 -16.746  43.514  1.00  0.00    -0.504 OA
ATOM     21  H   UNL     1      -5.333 -15.828  43.379  1.00  0.00     0.293 HD
ENDBRANCH  17  20
ENDBRANCH   1  12
BRANCH   2  22
ATOM     22  O   UNL     1      -6.840 -19.400  47.915  1.00  0.00    -0.502 OA
ATOM     23  H   UNL     1      -6.435 -18.478  48.019  1.00  0.00     0.293 HD
ENDBRANCH   2  22
BRANCH   6  24
ATOM     24  O   UNL     1      -4.819 -23.620  50.462  1.00  0.00    -0.507 OA
ATOM     25  H   UNL     1      -4.403 -23.103  51.223  1.00  0.00     0.293 HD
ENDBRANCH   6  24
BRANCH   8  26
ATOM     26  O   UNL     1      -2.248 -25.590  46.916  1.00  0.00    -0.508 OA
ATOM     27  H   UNL     1      -2.591 -26.461  46.530  1.00  0.00     0.293 HD
ENDBRANCH   8  26
TORSDOF 6
ENDMDL
MODEL 3
REMARK VINA RESULT:    -7.457      1.356      6.913
REMARK INTER + INTRA:          -9.160
REMARK INTER:                  -9.000
REMARK INTRA:                  -0.160
REMARK UNBOUND:                -0.178
REMARK SMILES O=c1c(O)c(-c2ccc(O)c(O)c2)oc2cc(O)cc(O)c12
REMARK SMILES IDX 5 1 3 2 2 3 1 4 22 5 20 6 19 7 17 8 16 9 15 10 14 11 6 12
REMARK SMILES IDX 7 13 8 14 9 15 13 16 11 17 10 18 12 20 4 22 21 24 18 26
REMARK H PARENT 10 19 12 21 4 23 21 25 18 27
REMARK Flexibility Score: inf
ROOT
ATOM      1  C   UNL     1      -3.744 -21.592  47.820  1.00  0.00     0.180 A 
ATOM      2  C   UNL     1      -4.843 -20.931  48.398  1.00  0.00     0.208 A 
ATOM      3  C   UNL     1      -5.903 -20.522  47.573  1.00  0.00     0.238 A 
ATOM      4  O   UNL     1      -6.907 -19.981  48.103  1.00  0.00    -0.285 OA
ATOM      5  C   UNL     1      -5.844 -20.762  46.179  1.00  0.00     0.111 A 
ATOM      6  C   UNL     1      -6.843 -20.355  45.244  1.00  0.00     0.134 A 
ATOM      7  C   UNL     1      -6.744 -20.762  43.907  1.00  0.00     0.093 A 
ATOM      8  C   UNL     1      -5.649 -21.505  43.460  1.00  0.00     0.123 A 
ATOM      9  C   UNL     1      -4.640 -21.856  44.353  1.00  0.00     0.094 A 
ATOM     10  C   UNL     1      -4.728 -21.496  45.700  1.00  0.00     0.146 A 
ATOM     11  O   UNL     1      -3.749 -21.861  46.520  1.00  0.00    -0.452 OA
ENDROOT
BRANCH   1  12
ATOM     12  C   UNL     1      -2.579 -22.031  48.621  1.00  0.00     0.025 A 
ATOM     13  C   UNL     1      -1.299 -21.494  48.404  1.00  0.00     0.016 A 
ATOM     14  C   UNL     1      -0.208 -21.942  49.155  1.00  0.00     0.051 A 
ATOM     15  C   UNL     1      -0.379 -22.941  50.122  1.00  0.00     0.157 A 
ATOM     16  C   UNL     1      -2.741 -23.048  49.577  1.00  0.00     0.062 A 
ATOM     17  C   UNL     1      -1.652 -23.498  50.332  1.00  0.00     0.158 A 
BRANCH  15  18
ATOM     18  O   UNL     1       0.710 -23.384  50.872  1.00  0.00    -0.504 OA
ATOM     19  H   UNL     1       0.605 -24.080  51.601  1.00  0.00     0.293 HD
ENDBRANCH  15  18
BRANCH  17  20
ATOM     20  O   UNL     1      -1.854 -24.498  51.282  1.00  0.00    -0.504 OA
ATOM     21  H   UNL     1      -1.383 -24.490  52.179  1.00  0.00     0.293 HD
ENDBRANCH  17  20
ENDBRANCH   1  12
BRANCH   2  22
ATOM     22  O   UNL     1      -4.890 -20.723  49.779  1.00  0.00    -0.502 OA
ATOM     23  H   UNL     1      -5.429 -21.315  50.400  1.00  0.00     0.293 HD
ENDBRANCH   2  22
BRANCH   6  24
ATOM     24  O   UNL     1      -7.928 -19.536  45.568  1.00  0.00    -0.507 OA
ATOM     25  H   UNL     1      -8.125 -19.182  46.492  1.00  0.00     0.293 HD
ENDBRANCH   6  24
BRANCH   8  26
ATOM     26  O   UNL     1      -5.550 -21.892  42.125  1.00  0.00    -0.508 OA
ATOM     27  H   UNL     1      -4.662 -22.149  41.712  1.00  0.00     0.293 HD
ENDBRANCH   8  26
TORSDOF 6
ENDMDL
MODEL 4
REMARK VINA RESULT:    -7.382      2.192      6.675
REMARK INTER + INTRA:          -9.071
REMARK INTER:                  -8.754
REMARK INTRA:                  -0.317
REMARK UNBOUND:                -0.178
REMARK SMILES O=c1c(O)c(-c2ccc(O)c(O)c2)oc2cc(O)cc(O)c12
REMARK SMILES IDX 5 1 3 2 2 3 1 4 22 5 20 6 19 7 17 8 16 9 15 10 14 11 6 12
REMARK SMILES IDX 7 13 8 14 9 15 13 16 11 17 10 18 12 20 4 22 21 24 18 26
REMARK H PARENT 10 19 12 21 4 23 21 25 18 27
REMARK Flexibility Score: inf
ROOT
ATOM      1  C   UNL     1      -3.627 -21.644  47.250  1.00  0.00     0.180 A 
ATOM      2  C   UNL     1      -5.006 -21.393  47.131  1.00  0.00     0.208 A 
ATOM      3  C   UNL     1      -5.467 -20.610  46.061  1.00  0.00     0.238 A 
ATOM      4  O   UNL     1      -6.706 -20.435  45.929  1.00  0.00    -0.285 OA
ATOM      5  C   UNL     1      -4.543 -20.074  45.132  1.00  0.00     0.111 A 
ATOM      6  C   UNL     1      -4.894 -19.234  44.032  1.00  0.00     0.134 A 
ATOM      7  C   UNL     1      -3.914 -18.870  43.100  1.00  0.00     0.093 A 
ATOM      8  C   UNL     1      -2.582 -19.260  43.266  1.00  0.00     0.123 A 
ATOM      9  C   UNL     1      -2.220 -20.030  44.368  1.00  0.00     0.094 A 
ATOM     10  C   UNL     1      -3.181 -20.440  45.295  1.00  0.00     0.146 A 
ATOM     11  O   UNL     1      -2.794 -21.182  46.325  1.00  0.00    -0.452 OA
ENDROOT
BRANCH   1  12
ATOM     12  C   UNL     1      -3.064 -22.439  48.365  1.00  0.00     0.025 A 
ATOM     13  C   UNL     1      -2.827 -21.866  49.625  1.00  0.00     0.016 A 
ATOM     14  C   UNL     1      -2.272 -22.629  50.655  1.00  0.00     0.051 A 
ATOM     15  C   UNL     1      -1.933 -23.971  50.438  1.00  0.00     0.157 A 
ATOM     16  C   UNL     1      -2.703 -23.779  48.145  1.00  0.00     0.062 A 
ATOM     17  C   UNL     1      -2.147 -24.547  49.174  1.00  0.00     0.158 A 
BRANCH  15  18
ATOM     18  O   UNL     1      -1.381 -24.732  51.468  1.00  0.00    -0.504 OA
ATOM     19  H   UNL     1      -1.938 -25.393  51.996  1.00  0.00     0.293 HD
ENDBRANCH  15  18
BRANCH  17  20
ATOM     20  O   UNL     1      -1.816 -25.878  48.922  1.00  0.00    -0.504 OA
ATOM     21  H   UNL     1      -1.532 -26.196  48.004  1.00  0.00     0.293 HD
ENDBRANCH  17  20
ENDBRANCH   1  12
BRANCH   2  22
ATOM     22  O   UNL     1      -5.903 -21.951  48.048  1.00  0.00    -0.502 OA
ATOM     23  H   UNL     1      -5.755 -21.904  49.049  1.00  0.00     0.293 HD
ENDBRANCH   2  22
BRANCH   6  24
ATOM     24  O   UNL     1      -6.175 -18.714  43.825  1.00  0.00    -0.507 OA
ATOM     25  H   UNL     1      -6.725 -18.857  42.991  1.00  0.00     0.293 HD
ENDBRANCH   6  24
BRANCH   8  26
ATOM     26  O   UNL     1      -1.611 -18.879  42.343  1.00  0.00    -0.508 OA
ATOM     27  H   UNL     1      -0.952 -19.547  41.962  1.00  0.00     0.293 HD
ENDBRANCH   8  26
TORSDOF 6
ENDMDL
MODEL 5
REMARK VINA RESULT:    -7.314      4.260      5.688
REMARK INTER + INTRA:          -8.989
REMARK INTER:                  -8.999
REMARK INTRA:                   0.010
REMARK UNBOUND:                -0.178
REMARK SMILES O=c1c(O)c(-c2ccc(O)c(O)c2)oc2cc(O)cc(O)c12
REMARK SMILES IDX 5 1 3 2 2 3 1 4 22 5 20 6 19 7 17 8 16 9 15 10 14 11 6 12
REMARK SMILES IDX 7 13 8 14 9 15 13 16 11 17 10 18 12 20 4 22 21 24 18 26
REMARK H PARENT 10 19 12 21 4 23 21 25 18 27
REMARK Flexibility Score: inf
ROOT
ATOM      1  C   UNL     1      -2.854 -25.408  46.447  1.00  0.00     0.180 A 
ATOM      2  C   UNL     1      -3.061 -24.113  45.940  1.00  0.00     0.208 A 
ATOM      3  C   UNL     1      -2.649 -23.009  46.703  1.00  0.00     0.238 A 
ATOM      4  O   UNL     1      -2.787 -21.855  46.220  1.00  0.00    -0.285 OA
ATOM      5  C   UNL     1      -2.051 -23.212  47.969  1.00  0.00     0.111 A 
ATOM      6  C   UNL     1      -1.631 -22.165  48.845  1.00  0.00     0.134 A 
ATOM      7  C   UNL     1      -0.931 -22.483  50.016  1.00  0.00     0.093 A 
ATOM      8  C   UNL     1      -0.694 -23.812  50.375  1.00  0.00     0.123 A 
ATOM      9  C   UNL     1      -1.152 -24.842  49.557  1.00  0.00     0.094 A 
ATOM     10  C   UNL     1      -1.821 -24.556  48.364  1.00  0.00     0.146 A 
ATOM     11  O   UNL     1      -2.231 -25.567  47.608  1.00  0.00    -0.452 OA
ENDROOT
BRANCH   1  12
ATOM     12  C   UNL     1      -3.284 -26.620  45.712  1.00  0.00     0.025 A 
ATOM     13  C   UNL     1      -4.570 -26.719  45.154  1.00  0.00     0.016 A 
ATOM     14  C   UNL     1      -4.962 -27.882  44.486  1.00  0.00     0.051 A 
ATOM     15  C   UNL     1      -4.081 -28.967  44.378  1.00  0.00     0.157 A 
ATOM     16  C   UNL     1      -2.412 -27.718  45.619  1.00  0.00     0.062 A 
ATOM     17  C   UNL     1      -2.801 -28.884  44.950  1.00  0.00     0.158 A 
BRANCH  15  18
ATOM     18  O   UNL     1      -4.474 -30.125  43.708  1.00  0.00    -0.504 OA
ATOM     19  H   UNL     1      -5.353 -30.175  43.206  1.00  0.00     0.293 HD
ENDBRANCH  15  18
BRANCH  17  20
ATOM     20  O   UNL     1      -1.903 -29.947  44.866  1.00  0.00    -0.504 OA
ATOM     21  H   UNL     1      -0.969 -29.894  45.254  1.00  0.00     0.293 HD
ENDBRANCH  17  20
ENDBRANCH   1  12
BRANCH   2  22
ATOM     22  O   UNL     1      -3.634 -23.936  44.677  1.00  0.00    -0.502 OA
ATOM     23  H   UNL     1      -3.974 -23.038  44.356  1.00  0.00     0.293 HD
ENDBRANCH   2  22
BRANCH   6  24
ATOM     24  O   UNL     1      -1.898 -20.811  48.626  1.00  0.00    -0.507 OA
ATOM     25  H   UNL     1      -2.752 -20.451  48.226  1.00  0.00     0.293 HD
ENDBRANCH   6  24
BRANCH   8  26
ATOM     26  O   UNL     1      -0.012 -24.120  51.550  1.00  0.00    -0.508 OA
ATOM     27  H   UNL     1       0.999 -24.182  51.574  1.00  0.00     0.293 HD
ENDBRANCH   8  26
TORSDOF 6
ENDMDL
MODEL 6
REMARK VINA RESULT:    -7.210      2.610      3.035
REMARK INTER + INTRA:          -8.863
REMARK INTER:                  -8.544
REMARK INTRA:                  -0.319
REMARK UNBOUND:                -0.178
REMARK SMILES O=c1c(O)c(-c2ccc(O)c(O)c2)oc2cc(O)cc(O)c12
REMARK SMILES IDX 5 1 3 2 2 3 1 4 22 5 20 6 19 7 17 8 16 9 15 10 14 11 6 12
REMARK SMILES IDX 7 13 8 14 9 15 13 16 11 17 10 18 12 20 4 22 21 24 18 26
REMARK H PARENT 10 19 12 21 4 23 21 25 18 27
REMARK Flexibility Score: inf
ROOT
ATOM      1  C   UNL     1      -1.656 -22.023  46.571  1.00  0.00     0.180 A 
ATOM      2  C   UNL     1      -2.707 -22.769  47.132  1.00  0.00     0.208 A 
ATOM      3  C   UNL     1      -2.573 -23.257  48.442  1.00  0.00     0.238 A 
ATOM      4  O   UNL     1      -3.539 -23.877  48.958  1.00  0.00    -0.285 OA
ATOM      5  C   UNL     1      -1.384 -23.008  49.167  1.00  0.00     0.111 A 
ATOM      6  C   UNL     1      -1.123 -23.488  50.486  1.00  0.00     0.134 A 
ATOM      7  C   UNL     1       0.032 -23.070  51.158  1.00  0.00     0.093 A 
ATOM      8  C   UNL     1       0.968 -22.242  50.534  1.00  0.00     0.123 A 
ATOM      9  C   UNL     1       0.751 -21.817  49.226  1.00  0.00     0.094 A 
ATOM     10  C   UNL     1      -0.409 -22.187  48.542  1.00  0.00     0.146 A 
ATOM     11  O   UNL     1      -0.581 -21.750  47.300  1.00  0.00    -0.452 OA
ENDROOT
BRANCH   1  12
ATOM     12  C   UNL     1      -1.714 -21.496  45.188  1.00  0.00     0.025 A 
ATOM     13  C   UNL     1      -1.139 -22.197  44.114  1.00  0.00     0.016 A 
ATOM     14  C   UNL     1      -1.184 -21.669  42.821  1.00  0.00     0.051 A 
ATOM     15  C   UNL     1      -1.792 -20.429  42.584  1.00  0.00     0.157 A 
ATOM     16  C   UNL     1      -2.304 -20.244  44.949  1.00  0.00     0.062 A 
ATOM     17  C   UNL     1      -2.352 -19.712  43.655  1.00  0.00     0.158 A 
BRANCH  15  18
ATOM     18  O   UNL     1      -1.839 -19.906  41.292  1.00  0.00    -0.504 OA
ATOM     19  H   UNL     1      -1.456 -18.993  41.075  1.00  0.00     0.293 HD
ENDBRANCH  15  18
BRANCH  17  20
ATOM     20  O   UNL     1      -2.958 -18.473  43.455  1.00  0.00    -0.504 OA
ATOM     21  H   UNL     1      -3.878 -18.259  43.822  1.00  0.00     0.293 HD
ENDBRANCH  17  20
ENDBRANCH   1  12
BRANCH   2  22
ATOM     22  O   UNL     1      -3.882 -22.985  46.405  1.00  0.00    -0.502 OA
ATOM     23  H   UNL     1      -3.972 -22.730  45.429  1.00  0.00     0.293 HD
ENDBRANCH   2  22
BRANCH   6  24
ATOM     24  O   UNL     1      -1.947 -24.391  51.165  1.00  0.00    -0.507 OA
ATOM     25  H   UNL     1      -1.819 -25.392  51.173  1.00  0.00     0.293 HD
ENDBRANCH   6  24
BRANCH   8  26
ATOM     26  O   UNL     1       2.123 -21.844  51.204  1.00  0.00    -0.508 OA
ATOM     27  H   UNL     1       2.521 -22.401  51.951  1.00  0.00     0.293 HD
ENDBRANCH   8  26
TORSDOF 6
ENDMDL
MODEL 7
REMARK VINA RESULT:    -7.202      3.526      5.431
REMARK INTER + INTRA:          -8.854
REMARK INTER:                  -8.853
REMARK INTRA:                  -0.001
REMARK UNBOUND:                -0.178
REMARK SMILES O=c1c(O)c(-c2ccc(O)c(O)c2)oc2cc(O)cc(O)c12
REMARK SMILES IDX 5 1 3 2 2 3 1 4 22 5 20 6 19 7 17 8 16 9 15 10 14 11 6 12
REMARK SMILES IDX 7 13 8 14 9 15 13 16 11 17 10 18 12 20 4 22 21 24 18 26
REMARK H PARENT 10 19 12 21 4 23 21 25 18 27
REMARK Flexibility Score: inf
ROOT
ATOM      1  C   UNL     1      -3.685 -24.326  47.383  1.00  0.00     0.180 A 
ATOM      2  C   UNL     1      -3.047 -24.263  48.634  1.00  0.00     0.208 A 
ATOM      3  C   UNL     1      -3.271 -23.149  49.458  1.00  0.00     0.238 A 
ATOM      4  O   UNL     1      -2.741 -23.124  50.599  1.00  0.00    -0.285 OA
ATOM      5  C   UNL     1      -4.118 -22.104  49.015  1.00  0.00     0.111 A 
ATOM      6  C   UNL     1      -4.385 -20.911  49.751  1.00  0.00     0.134 A 
ATOM      7  C   UNL     1      -5.342 -20.005  49.275  1.00  0.00     0.093 A 
ATOM      8  C   UNL     1      -5.992 -20.219  48.056  1.00  0.00     0.123 A 
ATOM      9  C   UNL     1      -5.693 -21.351  47.303  1.00  0.00     0.094 A 
ATOM     10  C   UNL     1      -4.771 -22.290  47.769  1.00  0.00     0.146 A 
ATOM     11  O   UNL     1      -4.524 -23.362  47.024  1.00  0.00    -0.452 OA
ENDROOT
BRANCH   1  12
ATOM     12  C   UNL     1      -3.478 -25.456  46.448  1.00  0.00     0.025 A 
ATOM     13  C   UNL     1      -2.188 -25.921  46.138  1.00  0.00     0.016 A 
ATOM     14  C   UNL     1      -2.015 -26.972  45.234  1.00  0.00     0.051 A 
ATOM     15  C   UNL     1      -3.126 -27.565  44.618  1.00  0.00     0.157 A 
ATOM     16  C   UNL     1      -4.586 -26.039  45.812  1.00  0.00     0.062 A 
ATOM     17  C   UNL     1      -4.417 -27.093  44.907  1.00  0.00     0.158 A 
BRANCH  15  18
ATOM     18  O   UNL     1      -2.950 -28.616  43.718  1.00  0.00    -0.504 OA
ATOM     19  H   UNL     1      -2.232 -28.590  43.005  1.00  0.00     0.293 HD
ENDBRANCH  15  18
BRANCH  17  20
ATOM     20  O   UNL     1      -5.542 -27.656  44.307  1.00  0.00    -0.504 OA
ATOM     21  H   UNL     1      -5.870 -28.585  44.544  1.00  0.00     0.293 HD
ENDBRANCH  17  20
ENDBRANCH   1  12
BRANCH   2  22
ATOM     22  O   UNL     1      -2.232 -25.316  49.060  1.00  0.00    -0.502 OA
ATOM     23  H   UNL     1      -1.992 -26.096  48.460  1.00  0.00     0.293 HD
ENDBRANCH   2  22
BRANCH   6  24
ATOM     24  O   UNL     1      -3.725 -20.557  50.932  1.00  0.00    -0.507 OA
ATOM     25  H   UNL     1      -3.551 -19.608  51.230  1.00  0.00     0.293 HD
ENDBRANCH   6  24
BRANCH   8  26
ATOM     26  O   UNL     1      -6.930 -19.304  47.582  1.00  0.00    -0.508 OA
ATOM     27  H   UNL     1      -6.781 -18.305  47.658  1.00  0.00     0.293 HD
ENDBRANCH   8  26
TORSDOF 6
ENDMDL
MODEL 8
REMARK VINA RESULT:    -7.194      1.836      7.266
REMARK INTER + INTRA:          -8.843
REMARK INTER:                  -8.534
REMARK INTRA:                  -0.309
REMARK UNBOUND:                -0.178
REMARK SMILES O=c1c(O)c(-c2ccc(O)c(O)c2)oc2cc(O)cc(O)c12
REMARK SMILES IDX 5 1 3 2 2 3 1 4 22 5 20 6 19 7 17 8 16 9 15 10 14 11 6 12
REMARK SMILES IDX 7 13 8 14 9 15 13 16 11 17 10 18 12 20 4 22 21 24 18 26
REMARK H PARENT 10 19 12 21 4 23 21 25 18 27
REMARK Flexibility Score: inf
ROOT
ATOM      1  C   UNL     1      -3.695 -21.534  46.809  1.00  0.00     0.180 A 
ATOM      2  C   UNL     1      -2.858 -21.082  45.773  1.00  0.00     0.208 A 
ATOM      3  C   UNL     1      -3.425 -20.380  44.698  1.00  0.00     0.238 A 
ATOM      4  O   UNL     1      -2.664 -19.931  43.802  1.00  0.00    -0.285 OA
ATOM      5  C   UNL     1      -4.821 -20.152  44.663  1.00  0.00     0.111 A 
ATOM      6  C   UNL     1      -5.508 -19.486  43.603  1.00  0.00     0.134 A 
ATOM      7  C   UNL     1      -6.872 -19.200  43.735  1.00  0.00     0.093 A 
ATOM      8  C   UNL     1      -7.588 -19.614  44.861  1.00  0.00     0.123 A 
ATOM      9  C   UNL     1      -6.940 -20.316  45.874  1.00  0.00     0.094 A 
ATOM     10  C   UNL     1      -5.572 -20.585  45.787  1.00  0.00     0.146 A 
ATOM     11  O   UNL     1      -4.991 -21.247  46.780  1.00  0.00    -0.452 OA
ENDROOT
BRANCH   1  12
ATOM     12  C   UNL     1      -3.175 -22.303  47.963  1.00  0.00     0.025 A 
ATOM     13  C   UNL     1      -3.253 -23.705  48.002  1.00  0.00     0.016 A 
ATOM     14  C   UNL     1      -2.778 -24.408  49.113  1.00  0.00     0.051 A 
ATOM     15  C   UNL     1      -2.231 -23.721  50.205  1.00  0.00     0.157 A 
ATOM     16  C   UNL     1      -2.646 -21.617  49.069  1.00  0.00     0.062 A 
ATOM     17  C   UNL     1      -2.168 -22.318  50.183  1.00  0.00     0.158 A 
BRANCH  15  18
ATOM     18  O   UNL     1      -1.756 -24.425  51.310  1.00  0.00    -0.504 OA
ATOM     19  H   UNL     1      -1.087 -25.180  51.211  1.00  0.00     0.293 HD
ENDBRANCH  15  18
BRANCH  17  20
ATOM     20  O   UNL     1      -1.636 -21.603  51.255  1.00  0.00    -0.504 OA
ATOM     21  H   UNL     1      -1.136 -20.732  51.125  1.00  0.00     0.293 HD
ENDBRANCH  17  20
ENDBRANCH   1  12
BRANCH   2  22
ATOM     22  O   UNL     1      -1.479 -21.300  45.839  1.00  0.00    -0.502 OA
ATOM     23  H   UNL     1      -1.042 -22.133  45.464  1.00  0.00     0.293 HD
ENDBRANCH   2  22
BRANCH   6  24
ATOM     24  O   UNL     1      -4.906 -19.112  42.397  1.00  0.00    -0.507 OA
ATOM     25  H   UNL     1      -4.800 -18.160  42.080  1.00  0.00     0.293 HD
ENDBRANCH   6  24
BRANCH   8  26
ATOM     26  O   UNL     1      -8.949 -19.339  44.978  1.00  0.00    -0.508 OA
ATOM     27  H   UNL     1      -9.291 -18.391  45.080  1.00  0.00     0.293 HD
ENDBRANCH   8  26
TORSDOF 6
ENDMDL
MODEL 9
REMARK VINA RESULT:    -7.117      4.015      6.982
REMARK INTER + INTRA:          -8.751
REMARK INTER:                  -8.488
REMARK INTRA:                  -0.264
REMARK UNBOUND:                -0.178
REMARK SMILES O=c1c(O)c(-c2ccc(O)c(O)c2)oc2cc(O)cc(O)c12
REMARK SMILES IDX 5 1 3 2 2 3 1 4 22 5 20 6 19 7 17 8 16 9 15 10 14 11 6 12
REMARK SMILES IDX 7 13 8 14 9 15 13 16 11 17 10 18 12 20 4 22 21 24 18 26
REMARK H PARENT 10 19 12 21 4 23 21 25 18 27
REMARK Flexibility Score: inf
ROOT
ATOM      1  C   UNL     1      -0.992 -21.742  46.409  1.00  0.00     0.180 A 
ATOM      2  C   UNL     1      -1.979 -20.959  45.784  1.00  0.00     0.208 A 
ATOM      3  C   UNL     1      -1.659 -20.279  44.598  1.00  0.00     0.238 A 
ATOM      4  O   UNL     1      -2.562 -19.624  44.015  1.00  0.00    -0.285 OA
ATOM      5  C   UNL     1      -0.353 -20.376  44.060  1.00  0.00     0.111 A 
ATOM      6  C   UNL     1       0.093 -19.698  42.886  1.00  0.00     0.134 A 
ATOM      7  C   UNL     1       1.366 -19.972  42.372  1.00  0.00     0.093 A 
ATOM      8  C   UNL     1       2.234 -20.849  43.027  1.00  0.00     0.123 A 
ATOM      9  C   UNL     1       1.830 -21.470  44.206  1.00  0.00     0.094 A 
ATOM     10  C   UNL     1       0.552 -21.245  44.724  1.00  0.00     0.146 A 
ATOM     11  O   UNL     1       0.203 -21.866  45.844  1.00  0.00    -0.452 OA
ENDROOT
BRANCH   1  12
ATOM     12  C   UNL     1      -1.247 -22.468  47.674  1.00  0.00     0.025 A 
ATOM     13  C   UNL     1      -1.351 -21.787  48.899  1.00  0.00     0.016 A 
ATOM     14  C   UNL     1      -1.566 -22.495  50.085  1.00  0.00     0.051 A 
ATOM     15  C   UNL     1      -1.668 -23.893  50.065  1.00  0.00     0.157 A 
ATOM     16  C   UNL     1      -1.328 -23.870  47.663  1.00  0.00     0.062 A 
ATOM     17  C   UNL     1      -1.545 -24.583  48.848  1.00  0.00     0.158 A 
BRANCH  15  18
ATOM     18  O   UNL     1      -1.886 -24.597  51.249  1.00  0.00    -0.504 OA
ATOM     19  H   UNL     1      -2.723 -24.457  51.803  1.00  0.00     0.293 HD
ENDBRANCH  15  18
BRANCH  17  20
ATOM     20  O   UNL     1      -1.635 -25.973  48.794  1.00  0.00    -0.504 OA
ATOM     21  H   UNL     1      -0.813 -26.565  48.783  1.00  0.00     0.293 HD
ENDBRANCH  17  20
ENDBRANCH   1  12
BRANCH   2  22
ATOM     22  O   UNL     1      -3.268 -20.894  46.321  1.00  0.00    -0.502 OA
ATOM     23  H   UNL     1      -3.532 -21.392  47.162  1.00  0.00     0.293 HD
ENDBRANCH   2  22
BRANCH   6  24
ATOM     24  O   UNL     1      -0.660 -18.735  42.208  1.00  0.00    -0.507 OA
ATOM     25  H   UNL     1      -1.647 -18.575  42.346  1.00  0.00     0.293 HD
ENDBRANCH   6  24
BRANCH   8  26
ATOM     26  O   UNL     1       3.506 -21.103  42.517  1.00  0.00    -0.508 OA
ATOM     27  H   UNL     1       3.785 -22.033  42.231  1.00  0.00     0.293 HD
ENDBRANCH   8  26
TORSDOF 6
ENDMDL
