MODEL 1
REMARK VINA RESULT:    -4.583      0.000      0.000
REMARK INTER + INTRA:          -6.530
REMARK INTER:                  -5.922
REMARK INTRA:                  -0.607
REMARK UNBOUND:                -0.607
REMARK SMILES CO[C@]1(CO)O[C@H](CO)[C@H](O)[C@@H]1O
REMARK SMILES IDX 3 1 12 2 10 3 7 4 6 5 2 6 1 7 4 8 5 9 13 11 11 13 8 15 9 16
REMARK H PARENT 5 10 13 12 11 14 9 17
REMARK Flexibility Score: inf
ROOT
ATOM      1  C   UNL     1     147.526 153.416 129.700  1.00  0.00     0.221 C 
ATOM      2  C   UNL     1     148.124 154.825 129.554  1.00  0.00     0.207 C 
ATOM      3  C   UNL     1     149.092 154.649 128.412  1.00  0.00     0.180 C 
ATOM      4  C   UNL     1     148.361 153.605 127.569  1.00  0.00     0.179 C 
ATOM      5  O   UNL     1     147.572 152.800 128.418  1.00  0.00    -0.337 OA
ENDROOT
BRANCH   1   6
ATOM      6  O   UNL     1     148.302 152.695 130.656  1.00  0.00    -0.349 OA
ATOM      7  C   UNL     1     148.214 151.292 130.501  1.00  0.00     0.198 C 
ENDBRANCH   1   6
BRANCH   1   8
ATOM      8  C   UNL     1     146.064 153.502 130.186  1.00  0.00     0.224 C 
BRANCH   8   9
ATOM      9  O   UNL     1     145.917 154.542 131.116  1.00  0.00    -0.391 OA
ATOM     10  H   UNL     1     146.357 154.232 131.949  1.00  0.00     0.210 HD
ENDBRANCH   8   9
ENDBRANCH   1   8
BRANCH   2  11
ATOM     11  O   UNL     1     148.758 155.254 130.734  1.00  0.00    -0.385 OA
ATOM     12  H   UNL     1     149.729 155.295 130.533  1.00  0.00     0.211 HD
ENDBRANCH   2  11
BRANCH   3  13
ATOM     13  O   UNL     1     150.325 154.152 128.876  1.00  0.00    -0.387 OA
ATOM     14  H   UNL     1     150.214 153.975 129.847  1.00  0.00     0.211 HD
ENDBRANCH   3  13
BRANCH   4  15
ATOM     15  C   UNL     1     149.302 152.731 126.725  1.00  0.00     0.191 C 
BRANCH  15  16
ATOM     16  O   UNL     1     150.377 153.494 126.248  1.00  0.00    -0.394 OA
ATOM     17  H   UNL     1     150.509 154.236 126.893  1.00  0.00     0.210 HD
ENDBRANCH  15  16
ENDBRANCH   4  15
TORSDOF 7
ENDMDL
MODEL 2
REMARK VINA RESULT:    -4.390      1.789      2.781
REMARK INTER + INTRA:          -6.280
REMARK INTER:                  -5.575
REMARK INTRA:                  -0.705
REMARK UNBOUND:                -0.607
REMARK SMILES CO[C@]1(CO)O[C@H](CO)[C@H](O)[C@@H]1O
REMARK SMILES IDX 3 1 12 2 10 3 7 4 6 5 2 6 1 7 4 8 5 9 13 11 11 13 8 15 9 16
REMARK H PARENT 5 10 13 12 11 14 9 17
REMARK Flexibility Score: inf
ROOT
ATOM      1  C   UNL     1     148.463 153.069 128.845  1.00  0.00     0.221 C 
ATOM      2  C   UNL     1     149.044 154.490 128.765  1.00  0.00     0.207 C 
ATOM      3  C   UNL     1     148.143 155.151 127.753  1.00  0.00     0.180 C 
ATOM      4  C   UNL     1     146.815 154.454 128.045  1.00  0.00     0.179 C 
ATOM      5  O   UNL     1     147.076 153.158 128.539  1.00  0.00    -0.337 OA
ENDROOT
BRANCH   1   6
ATOM      6  O   UNL     1     149.155 152.248 127.905  1.00  0.00    -0.349 OA
ATOM      7  C   UNL     1     148.433 151.086 127.542  1.00  0.00     0.198 C 
ENDBRANCH   1   6
BRANCH   1   8
ATOM      8  C   UNL     1     148.649 152.492 130.264  1.00  0.00     0.224 C 
BRANCH   8   9
ATOM      9  O   UNL     1     149.803 153.022 130.861  1.00  0.00    -0.391 OA
ATOM     10  H   UNL     1     150.567 152.518 130.479  1.00  0.00     0.210 HD
ENDBRANCH   8   9
ENDBRANCH   1   8
BRANCH   2  11
ATOM     11  O   UNL     1     150.391 154.488 128.365  1.00  0.00    -0.385 OA
ATOM     12  H   UNL     1     150.398 154.712 127.398  1.00  0.00     0.211 HD
ENDBRANCH   2  11
BRANCH   3  13
ATOM     13  O   UNL     1     148.581 154.877 126.443  1.00  0.00    -0.387 OA
ATOM     14  H   UNL     1     148.928 155.731 126.074  1.00  0.00     0.211 HD
ENDBRANCH   3  13
BRANCH   4  15
ATOM     15  C   UNL     1     145.879 154.385 126.829  1.00  0.00     0.191 C 
BRANCH  15  16
ATOM     16  O   UNL     1     146.316 153.398 125.934  1.00  0.00    -0.394 OA
ATOM     17  H   UNL     1     146.299 152.537 126.428  1.00  0.00     0.210 HD
ENDBRANCH  15  16
ENDBRANCH   4  15
TORSDOF 7
ENDMDL
MODEL 3
REMARK VINA RESULT:    -4.377      1.669      2.490
REMARK INTER + INTRA:          -6.263
REMARK INTER:                  -5.624
REMARK INTRA:                  -0.639
REMARK UNBOUND:                -0.607
REMARK SMILES CO[C@]1(CO)O[C@H](CO)[C@H](O)[C@@H]1O
REMARK SMILES IDX 3 1 12 2 10 3 7 4 6 5 2 6 1 7 4 8 5 9 13 11 11 13 8 15 9 16
REMARK H PARENT 5 10 13 12 11 14 9 17
REMARK Flexibility Score: inf
ROOT
ATOM      1  C   UNL     1     145.729 154.137 129.019  1.00  0.00     0.221 C 
ATOM      2  C   UNL     1     146.293 154.880 130.241  1.00  0.00     0.207 C 
ATOM      3  C   UNL     1     147.781 154.759 130.032  1.00  0.00     0.180 C 
ATOM      4  C   UNL     1     147.867 154.801 128.507  1.00  0.00     0.179 C 
ATOM      5  O   UNL     1     146.678 154.265 127.967  1.00  0.00    -0.337 OA
ENDROOT
BRANCH   1   6
ATOM      6  O   UNL     1     145.524 152.771 129.378  1.00  0.00    -0.349 OA
ATOM      7  C   UNL     1     145.677 151.880 128.289  1.00  0.00     0.198 C 
ENDBRANCH   1   6
BRANCH   1   8
ATOM      8  C   UNL     1     144.384 154.760 128.587  1.00  0.00     0.224 C 
BRANCH   8   9
ATOM      9  O   UNL     1     143.904 155.626 129.581  1.00  0.00    -0.391 OA
ATOM     10  H   UNL     1     143.460 155.051 130.257  1.00  0.00     0.210 HD
ENDBRANCH   8   9
ENDBRANCH   1   8
BRANCH   2  11
ATOM     11  O   UNL     1     145.872 154.301 131.451  1.00  0.00    -0.385 OA
ATOM     12  H   UNL     1     145.974 155.001 132.148  1.00  0.00     0.211 HD
ENDBRANCH   2  11
BRANCH   3  13
ATOM     13  O   UNL     1     148.257 153.532 130.533  1.00  0.00    -0.387 OA
ATOM     14  H   UNL     1     148.630 153.034 129.759  1.00  0.00     0.211 HD
ENDBRANCH   3  13
BRANCH   4  15
ATOM     15  C   UNL     1     149.091 154.065 127.942  1.00  0.00     0.191 C 
BRANCH  15  16
ATOM     16  O   UNL     1     150.259 154.499 128.583  1.00  0.00    -0.394 OA
ATOM     17  H   UNL     1     150.124 154.349 129.555  1.00  0.00     0.210 HD
ENDBRANCH  15  16
ENDBRANCH   4  15
TORSDOF 7
ENDMDL
MODEL 4
REMARK VINA RESULT:    -4.365      1.588      3.933
REMARK INTER + INTRA:          -6.248
REMARK INTER:                  -5.860
REMARK INTRA:                  -0.389
REMARK UNBOUND:                -0.607
REMARK SMILES CO[C@]1(CO)O[C@H](CO)[C@H](O)[C@@H]1O
REMARK SMILES IDX 3 1 12 2 10 3 7 4 6 5 2 6 1 7 4 8 5 9 13 11 11 13 8 15 9 16
REMARK H PARENT 5 10 13 12 11 14 9 17
REMARK Flexibility Score: inf
ROOT
ATOM      1  C   UNL     1     148.806 154.351 127.892  1.00  0.00     0.221 C 
ATOM      2  C   UNL     1     147.417 154.686 128.458  1.00  0.00     0.207 C 
ATOM      3  C   UNL     1     147.302 153.729 129.617  1.00  0.00     0.180 C 
ATOM      4  C   UNL     1     148.756 153.654 130.080  1.00  0.00     0.179 C 
ATOM      5  O   UNL     1     149.601 153.872 128.970  1.00  0.00    -0.337 OA
ENDROOT
BRANCH   1   6
ATOM      6  O   UNL     1     148.651 153.362 126.875  1.00  0.00    -0.349 OA
ATOM      7  C   UNL     1     149.876 152.785 126.467  1.00  0.00     0.198 C 
ENDBRANCH   1   6
BRANCH   1   8
ATOM      8  C   UNL     1     149.456 155.612 127.284  1.00  0.00     0.224 C 
BRANCH   8   9
ATOM      9  O   UNL     1     148.682 156.097 126.219  1.00  0.00    -0.391 OA
ATOM     10  H   UNL     1     147.839 156.432 126.620  1.00  0.00     0.210 HD
ENDBRANCH   8   9
ENDBRANCH   1   8
BRANCH   2  11
ATOM     11  O   UNL     1     146.400 154.500 127.506  1.00  0.00    -0.385 OA
ATOM     12  H   UNL     1     146.802 154.705 126.621  1.00  0.00     0.211 HD
ENDBRANCH   2  11
BRANCH   3  13
ATOM     13  O   UNL     1     146.843 152.471 129.182  1.00  0.00    -0.387 OA
ATOM     14  H   UNL     1     146.100 152.644 128.546  1.00  0.00     0.211 HD
ENDBRANCH   3  13
BRANCH   4  15
ATOM     15  C   UNL     1     149.112 152.329 130.771  1.00  0.00     0.191 C 
BRANCH  15  16
ATOM     16  O   UNL     1     149.869 152.571 131.926  1.00  0.00    -0.394 OA
ATOM     17  H   UNL     1     150.339 153.434 131.785  1.00  0.00     0.210 HD
ENDBRANCH  15  16
ENDBRANCH   4  15
TORSDOF 7
ENDMDL
MODEL 5
REMARK VINA RESULT:    -4.361      1.624      2.697
REMARK INTER + INTRA:          -6.243
REMARK INTER:                  -5.714
REMARK INTRA:                  -0.529
REMARK UNBOUND:                -0.607
REMARK SMILES CO[C@]1(CO)O[C@H](CO)[C@H](O)[C@@H]1O
REMARK SMILES IDX 3 1 12 2 10 3 7 4 6 5 2 6 1 7 4 8 5 9 13 11 11 13 8 15 9 16
REMARK H PARENT 5 10 13 12 11 14 9 17
REMARK Flexibility Score: inf
ROOT
ATOM      1  C   UNL     1     147.316 153.971 128.920  1.00  0.00     0.221 C 
ATOM      2  C   UNL     1     148.574 153.186 129.325  1.00  0.00     0.207 C 
ATOM      3  C   UNL     1     149.667 153.935 128.605  1.00  0.00     0.180 C 
ATOM      4  C   UNL     1     149.123 155.362 128.654  1.00  0.00     0.179 C 
ATOM      5  O   UNL     1     147.713 155.315 128.675  1.00  0.00    -0.337 OA
ENDROOT
BRANCH   1   6
ATOM      6  O   UNL     1     146.765 153.365 127.751  1.00  0.00    -0.349 OA
ATOM      7  C   UNL     1     145.903 154.226 127.031  1.00  0.00     0.198 C 
ENDBRANCH   1   6
BRANCH   1   8
ATOM      8  C   UNL     1     146.272 153.933 130.056  1.00  0.00     0.224 C 
BRANCH   8   9
ATOM      9  O   UNL     1     146.362 155.092 130.843  1.00  0.00    -0.391 OA
ATOM     10  H   UNL     1     145.652 155.703 130.515  1.00  0.00     0.210 HD
ENDBRANCH   8   9
ENDBRANCH   1   8
BRANCH   2  11
ATOM     11  O   UNL     1     148.502 151.837 128.936  1.00  0.00    -0.385 OA
ATOM     12  H   UNL     1     148.928 151.778 128.042  1.00  0.00     0.211 HD
ENDBRANCH   2  11
BRANCH   3  13
ATOM     13  O   UNL     1     149.788 153.484 127.277  1.00  0.00    -0.387 OA
ATOM     14  H   UNL     1     149.097 152.782 127.150  1.00  0.00     0.211 HD
ENDBRANCH   3  13
BRANCH   4  15
ATOM     15  C   UNL     1     149.612 156.244 127.495  1.00  0.00     0.191 C 
BRANCH  15  16
ATOM     16  O   UNL     1     148.791 156.069 126.371  1.00  0.00    -0.394 OA
ATOM     17  H   UNL     1     148.593 155.099 126.310  1.00  0.00     0.210 HD
ENDBRANCH  15  16
ENDBRANCH   4  15
TORSDOF 7
ENDMDL
MODEL 6
REMARK VINA RESULT:    -4.349      1.869      3.906
REMARK INTER + INTRA:          -6.228
REMARK INTER:                  -5.661
REMARK INTRA:                  -0.567
REMARK UNBOUND:                -0.607
REMARK SMILES CO[C@]1(CO)O[C@H](CO)[C@H](O)[C@@H]1O
REMARK SMILES IDX 3 1 12 2 10 3 7 4 6 5 2 6 1 7 4 8 5 9 13 11 11 13 8 15 9 16
REMARK H PARENT 5 10 13 12 11 14 9 17
REMARK Flexibility Score: inf
ROOT
ATOM      1  C   UNL     1     147.596 153.471 127.042  1.00  0.00     0.221 C 
ATOM      2  C   UNL     1     148.876 154.319 126.985  1.00  0.00     0.207 C 
ATOM      3  C   UNL     1     149.321 154.329 128.426  1.00  0.00     0.180 C 
ATOM      4  C   UNL     1     148.865 152.944 128.882  1.00  0.00     0.179 C 
ATOM      5  O   UNL     1     147.734 152.563 128.128  1.00  0.00    -0.337 OA
ENDROOT
BRANCH   1   6
ATOM      6  O   UNL     1     146.484 154.347 127.230  1.00  0.00    -0.349 OA
ATOM      7  C   UNL     1     145.356 153.990 126.454  1.00  0.00     0.198 C 
ENDBRANCH   1   6
BRANCH   1   8
ATOM      8  C   UNL     1     147.413 152.687 125.725  1.00  0.00     0.224 C 
BRANCH   8   9
ATOM      9  O   UNL     1     148.427 153.016 124.814  1.00  0.00    -0.391 OA
ATOM     10  H   UNL     1     149.195 153.330 125.358  1.00  0.00     0.210 HD
ENDBRANCH   8   9
ENDBRANCH   1   8
BRANCH   2  11
ATOM     11  O   UNL     1     148.632 155.611 126.489  1.00  0.00    -0.385 OA
ATOM     12  H   UNL     1     149.401 156.172 126.772  1.00  0.00     0.211 HD
ENDBRANCH   2  11
BRANCH   3  13
ATOM     13  O   UNL     1     148.658 155.343 129.144  1.00  0.00    -0.387 OA
ATOM     14  H   UNL     1     147.703 155.076 129.198  1.00  0.00     0.211 HD
ENDBRANCH   3  13
BRANCH   4  15
ATOM     15  C   UNL     1     148.558 152.864 130.385  1.00  0.00     0.191 C 
BRANCH  15  16
ATOM     16  O   UNL     1     149.703 153.175 131.133  1.00  0.00    -0.394 OA
ATOM     17  H   UNL     1     149.756 152.506 131.865  1.00  0.00     0.210 HD
ENDBRANCH  15  16
ENDBRANCH   4  15
TORSDOF 7
ENDMDL
MODEL 7
REMARK VINA RESULT:    -4.236      2.944      4.721
REMARK INTER + INTRA:          -6.082
REMARK INTER:                  -5.377
REMARK INTRA:                  -0.705
REMARK UNBOUND:                -0.607
REMARK SMILES CO[C@]1(CO)O[C@H](CO)[C@H](O)[C@@H]1O
REMARK SMILES IDX 3 1 12 2 10 3 7 4 6 5 2 6 1 7 4 8 5 9 13 11 11 13 8 15 9 16
REMARK H PARENT 5 10 13 12 11 14 9 17
REMARK Flexibility Score: inf
ROOT
ATOM      1  C   UNL     1     148.426 151.968 126.063  1.00  0.00     0.221 C 
ATOM      2  C   UNL     1     149.540 152.770 126.756  1.00  0.00     0.207 C 
ATOM      3  C   UNL     1     148.805 153.998 127.229  1.00  0.00     0.180 C 
ATOM      4  C   UNL     1     147.429 153.413 127.543  1.00  0.00     0.179 C 
ATOM      5  O   UNL     1     147.200 152.305 126.699  1.00  0.00    -0.337 OA
ENDROOT
BRANCH   1   6
ATOM      6  O   UNL     1     148.413 152.319 124.679  1.00  0.00    -0.349 OA
ATOM      7  C   UNL     1     147.276 151.834 123.992  1.00  0.00     0.198 C 
ENDBRANCH   1   6
BRANCH   1   8
ATOM      8  C   UNL     1     148.689 150.453 126.205  1.00  0.00     0.224 C 
BRANCH   8   9
ATOM      9  O   UNL     1     149.954 150.126 125.694  1.00  0.00    -0.391 OA
ATOM     10  H   UNL     1     149.926 150.344 124.727  1.00  0.00     0.210 HD
ENDBRANCH   8   9
ENDBRANCH   1   8
BRANCH   2  11
ATOM     11  O   UNL     1     150.592 153.079 125.877  1.00  0.00    -0.385 OA
ATOM     12  H   UNL     1     151.431 152.812 126.337  1.00  0.00     0.211 HD
ENDBRANCH   2  11
BRANCH   3  13
ATOM     13  O   UNL     1     148.726 154.958 126.202  1.00  0.00    -0.387 OA
ATOM     14  H   UNL     1     148.653 154.456 125.348  1.00  0.00     0.211 HD
ENDBRANCH   3  13
BRANCH   4  15
ATOM     15  C   UNL     1     146.286 154.431 127.412  1.00  0.00     0.191 C 
BRANCH  15  16
ATOM     16  O   UNL     1     145.749 154.396 126.118  1.00  0.00    -0.394 OA
ATOM     17  H   UNL     1     146.124 153.591 125.675  1.00  0.00     0.210 HD
ENDBRANCH  15  16
ENDBRANCH   4  15
TORSDOF 7
ENDMDL
MODEL 8
REMARK VINA RESULT:    -4.222      1.973      3.429
REMARK INTER + INTRA:          -6.063
REMARK INTER:                  -5.417
REMARK INTRA:                  -0.646
REMARK UNBOUND:                -0.607
REMARK SMILES CO[C@]1(CO)O[C@H](CO)[C@H](O)[C@@H]1O
REMARK SMILES IDX 3 1 12 2 10 3 7 4 6 5 2 6 1 7 4 8 5 9 13 11 11 13 8 15 9 16
REMARK H PARENT 5 10 13 12 11 14 9 17
REMARK Flexibility Score: inf
ROOT
ATOM      1  C   UNL     1     148.430 154.253 127.677  1.00  0.00     0.221 C 
ATOM      2  C   UNL     1     147.174 153.519 127.179  1.00  0.00     0.207 C 
ATOM      3  C   UNL     1     147.756 152.456 126.282  1.00  0.00     0.180 C 
ATOM      4  C   UNL     1     149.069 152.153 127.003  1.00  0.00     0.179 C 
ATOM      5  O   UNL     1     149.499 153.314 127.680  1.00  0.00    -0.337 OA
ENDROOT
BRANCH   1   6
ATOM      6  O   UNL     1     148.693 155.343 126.794  1.00  0.00    -0.349 OA
ATOM      7  C   UNL     1     149.528 156.332 127.364  1.00  0.00     0.198 C 
ENDBRANCH   1   6
BRANCH   1   8
ATOM      8  C   UNL     1     148.204 154.793 129.105  1.00  0.00     0.224 C 
BRANCH   8   9
ATOM      9  O   UNL     1     146.881 154.567 129.511  1.00  0.00    -0.391 OA
ATOM     10  H   UNL     1     146.366 155.368 129.232  1.00  0.00     0.210 HD
ENDBRANCH   8   9
ENDBRANCH   1   8
BRANCH   2  11
ATOM     11  O   UNL     1     146.297 154.378 126.494  1.00  0.00    -0.385 OA
ATOM     12  H   UNL     1     146.311 154.095 125.543  1.00  0.00     0.211 HD
ENDBRANCH   2  11
BRANCH   3  13
ATOM     13  O   UNL     1     147.993 152.968 124.992  1.00  0.00    -0.387 OA
ATOM     14  H   UNL     1     147.557 152.344 124.354  1.00  0.00     0.211 HD
ENDBRANCH   3  13
BRANCH   4  15
ATOM     15  C   UNL     1     150.175 151.637 126.070  1.00  0.00     0.191 C 
BRANCH  15  16
ATOM     16  O   UNL     1     150.962 152.704 125.613  1.00  0.00    -0.394 OA
ATOM     17  H   UNL     1     150.340 153.447 125.398  1.00  0.00     0.210 HD
ENDBRANCH  15  16
ENDBRANCH   4  15
TORSDOF 7
ENDMDL
MODEL 9
REMARK VINA RESULT:    -4.133      2.113      3.963
REMARK INTER + INTRA:          -5.948
REMARK INTER:                  -5.318
REMARK INTRA:                  -0.630
REMARK UNBOUND:                -0.607
REMARK SMILES CO[C@]1(CO)O[C@H](CO)[C@H](O)[C@@H]1O
REMARK SMILES IDX 3 1 12 2 10 3 7 4 6 5 2 6 1 7 4 8 5 9 13 11 11 13 8 15 9 16
REMARK H PARENT 5 10 13 12 11 14 9 17
REMARK Flexibility Score: inf
ROOT
ATOM      1  C   UNL     1     148.129 152.513 127.315  1.00  0.00     0.221 C 
ATOM      2  C   UNL     1     149.218 153.032 126.362  1.00  0.00     0.207 C 
ATOM      3  C   UNL     1     149.517 154.397 126.928  1.00  0.00     0.180 C 
ATOM      4  C   UNL     1     149.303 154.147 128.420  1.00  0.00     0.179 C 
ATOM      5  O   UNL     1     148.343 153.125 128.580  1.00  0.00    -0.337 OA
ENDROOT
BRANCH   1   6
ATOM      6  O   UNL     1     146.854 152.860 126.773  1.00  0.00    -0.349 OA
ATOM      7  C   UNL     1     145.851 153.004 127.759  1.00  0.00     0.198 C 
ENDBRANCH   1   6
BRANCH   1   8
ATOM      8  C   UNL     1     148.225 150.979 127.454  1.00  0.00     0.224 C 
BRANCH   8   9
ATOM      9  O   UNL     1     149.066 150.449 126.463  1.00  0.00    -0.391 OA
ATOM     10  H   UNL     1     148.579 150.553 125.605  1.00  0.00     0.210 HD
ENDBRANCH   8   9
ENDBRANCH   1   8
BRANCH   2  11
ATOM     11  O   UNL     1     148.770 153.089 125.030  1.00  0.00    -0.385 OA
ATOM     12  H   UNL     1     148.008 152.457 124.962  1.00  0.00     0.211 HD
ENDBRANCH   2  11
BRANCH   3  13
ATOM     13  O   UNL     1     148.605 155.351 126.437  1.00  0.00    -0.387 OA
ATOM     14  H   UNL     1     147.705 154.934 126.484  1.00  0.00     0.211 HD
ENDBRANCH   3  13
BRANCH   4  15
ATOM     15  C   UNL     1     148.881 155.404 129.197  1.00  0.00     0.191 C 
BRANCH  15  16
ATOM     16  O   UNL     1     149.827 156.425 129.022  1.00  0.00    -0.394 OA
ATOM     17  H   UNL     1     149.326 157.282 129.027  1.00  0.00     0.210 HD
ENDBRANCH  15  16
ENDBRANCH   4  15
TORSDOF 7
ENDMDL
