MODEL 1
REMARK VINA RESULT:    -3.532      0.000      0.000
REMARK INTER + INTRA:         -13.027
REMARK INTER:                  -8.074
REMARK INTRA:                  -4.953
REMARK UNBOUND:                -4.953
REMARK SMILES CCCCCCCCCCCCCCCCCCCCCCCC(=O)[O-]
REMARK SMILES IDX 13 1 14 2 15 3 16 4 17 5 18 6 19 7 20 8 21 9 22 10 23 11
REMARK SMILES IDX 24 12 25 13 26 14 12 15 11 16 10 17 9 18 8 19 7 20 6 21 5 22
REMARK SMILES IDX 4 23 3 24 2 25 1 26
REMARK H PARENT
REMARK Flexibility Score: inf
ROOT
ATOM      1  C   UNL     1     164.619 174.666 151.815  1.00  0.00     0.000 C 
ENDROOT
BRANCH   1   2
ATOM      2  C   UNL     1     165.738 173.899 151.086  1.00  0.00     0.000 C 
BRANCH   2   3
ATOM      3  C   UNL     1     165.934 174.361 149.632  1.00  0.00     0.000 C 
BRANCH   3   4
ATOM      4  C   UNL     1     167.302 175.026 149.393  1.00  0.00     0.000 C 
BRANCH   4   5
ATOM      5  C   UNL     1     167.270 176.562 149.262  1.00  0.00     0.000 C 
BRANCH   5   6
ATOM      6  C   UNL     1     167.554 177.336 150.565  1.00  0.00     0.000 C 
BRANCH   6   7
ATOM      7  C   UNL     1     168.302 176.535 151.649  1.00  0.00     0.000 C 
BRANCH   7   8
ATOM      8  C   UNL     1     167.680 176.612 153.054  1.00  0.00     0.000 C 
BRANCH   8   9
ATOM      9  C   UNL     1     166.647 177.744 153.185  1.00  0.00     0.000 C 
BRANCH   9  10
ATOM     10  C   UNL     1     165.537 177.421 154.202  1.00  0.00     0.006 C 
BRANCH  10  11
ATOM     11  C   UNL     1     165.782 176.140 155.015  1.00  0.00     0.053 C 
BRANCH  11  12
ATOM     12  C   UNL     1     165.610 176.368 156.486  1.00  0.00     0.041 C 
ATOM     13  O   UNL     1     166.595 176.709 157.194  1.00  0.00    -0.550 OA
ATOM     14  O   UNL     1     164.358 176.228 157.070  1.00  0.00    -0.550 OA
ENDBRANCH  11  12
ENDBRANCH  10  11
ENDBRANCH   9  10
ENDBRANCH   8   9
ENDBRANCH   7   8
ENDBRANCH   6   7
ENDBRANCH   5   6
ENDBRANCH   4   5
ENDBRANCH   3   4
ENDBRANCH   2   3
ENDBRANCH   1   2
BRANCH   1  15
ATOM     15  C   UNL     1     163.654 175.440 150.900  1.00  0.00     0.000 C 
BRANCH  15  16
ATOM     16  C   UNL     1     163.792 176.966 151.036  1.00  0.00     0.000 C 
BRANCH  16  17
ATOM     17  C   UNL     1     162.438 177.700 151.025  1.00  0.00     0.000 C 
BRANCH  17  18
ATOM     18  C   UNL     1     161.212 176.834 150.659  1.00  0.00    -0.000 C 
BRANCH  18  19
ATOM     19  C   UNL     1     160.069 176.829 151.696  1.00  0.00    -0.000 C 
BRANCH  19  20
ATOM     20  C   UNL     1     160.421 177.505 153.035  1.00  0.00    -0.000 C 
BRANCH  20  21
ATOM     21  C   UNL     1     160.632 176.516 154.199  1.00  0.00    -0.000 C 
BRANCH  21  22
ATOM     22  C   UNL     1     162.084 176.009 154.268  1.00  0.00    -0.000 C 
BRANCH  22  23
ATOM     23  C   UNL     1     162.184 174.537 154.706  1.00  0.00    -0.000 C 
BRANCH  23  24
ATOM     24  C   UNL     1     161.082 173.619 154.148  1.00  0.00    -0.000 C 
BRANCH  24  25
ATOM     25  C   UNL     1     161.400 173.091 152.741  1.00  0.00    -0.003 C 
ATOM     26  C   UNL     1     160.195 173.228 151.816  1.00  0.00     0.004 C 
ENDBRANCH  24  25
ENDBRANCH  23  24
ENDBRANCH  22  23
ENDBRANCH  21  22
ENDBRANCH  20  21
ENDBRANCH  19  20
ENDBRANCH  18  19
ENDBRANCH  17  18
ENDBRANCH  16  17
ENDBRANCH  15  16
ENDBRANCH   1  15
TORSDOF 22
ENDMDL
MODEL 2
REMARK VINA RESULT:    -3.485      1.604      6.228
REMARK INTER + INTRA:         -12.920
REMARK INTER:                  -8.824
REMARK INTRA:                  -4.096
REMARK UNBOUND:                -4.953
REMARK SMILES CCCCCCCCCCCCCCCCCCCCCCCC(=O)[O-]
REMARK SMILES IDX 13 1 14 2 15 3 16 4 17 5 18 6 19 7 20 8 21 9 22 10 23 11
REMARK SMILES IDX 24 12 25 13 26 14 12 15 11 16 10 17 9 18 8 19 7 20 6 21 5 22
REMARK SMILES IDX 4 23 3 24 2 25 1 26
REMARK H PARENT
REMARK Flexibility Score: inf
ROOT
ATOM      1  C   UNL     1     163.786 176.962 151.067  1.00  0.00     0.000 C 
ENDROOT
BRANCH   1   2
ATOM      2  C   UNL     1     162.351 177.435 150.770  1.00  0.00     0.000 C 
BRANCH   2   3
ATOM      3  C   UNL     1     161.580 177.851 152.034  1.00  0.00     0.000 C 
BRANCH   3   4
ATOM      4  C   UNL     1     160.173 177.229 152.112  1.00  0.00     0.000 C 
BRANCH   4   5
ATOM      5  C   UNL     1     159.934 176.030 151.172  1.00  0.00     0.000 C 
BRANCH   5   6
ATOM      6  C   UNL     1     159.267 174.806 151.830  1.00  0.00     0.000 C 
BRANCH   6   7
ATOM      7  C   UNL     1     160.133 174.075 152.875  1.00  0.00     0.000 C 
BRANCH   7   8
ATOM      8  C   UNL     1     161.639 174.051 152.562  1.00  0.00     0.000 C 
BRANCH   8   9
ATOM      9  C   UNL     1     162.493 174.614 153.711  1.00  0.00     0.000 C 
BRANCH   9  10
ATOM     10  C   UNL     1     161.644 175.120 154.891  1.00  0.00     0.006 C 
BRANCH  10  11
ATOM     11  C   UNL     1     161.933 176.574 155.297  1.00  0.00     0.053 C 
BRANCH  11  12
ATOM     12  C   UNL     1     161.187 176.970 156.534  1.00  0.00     0.041 C 
ATOM     13  O   UNL     1     161.773 176.985 157.649  1.00  0.00    -0.550 OA
ATOM     14  O   UNL     1     159.852 177.344 156.452  1.00  0.00    -0.550 OA
ENDBRANCH  11  12
ENDBRANCH  10  11
ENDBRANCH   9  10
ENDBRANCH   8   9
ENDBRANCH   7   8
ENDBRANCH   6   7
ENDBRANCH   5   6
ENDBRANCH   4   5
ENDBRANCH   3   4
ENDBRANCH   2   3
ENDBRANCH   1   2
BRANCH   1  15
ATOM     15  C   UNL     1     164.507 177.729 152.190  1.00  0.00     0.000 C 
BRANCH  15  16
ATOM     16  C   UNL     1     165.295 176.808 153.136  1.00  0.00     0.000 C 
BRANCH  16  17
ATOM     17  C   UNL     1     166.410 177.541 153.906  1.00  0.00     0.000 C 
BRANCH  17  18
ATOM     18  C   UNL     1     167.845 177.304 153.387  1.00  0.00    -0.000 C 
BRANCH  18  19
ATOM     19  C   UNL     1     167.969 176.330 152.195  1.00  0.00    -0.000 C 
BRANCH  19  20
ATOM     20  C   UNL     1     168.437 176.989 150.883  1.00  0.00    -0.000 C 
BRANCH  20  21
ATOM     21  C   UNL     1     167.317 177.166 149.838  1.00  0.00    -0.000 C 
BRANCH  21  22
ATOM     22  C   UNL     1     167.228 175.964 148.880  1.00  0.00    -0.000 C 
BRANCH  22  23
ATOM     23  C   UNL     1     166.375 174.813 149.441  1.00  0.00    -0.000 C 
BRANCH  23  24
ATOM     24  C   UNL     1     167.167 173.560 149.854  1.00  0.00    -0.000 C 
BRANCH  24  25
ATOM     25  C   UNL     1     166.461 172.738 150.943  1.00  0.00    -0.003 C 
ATOM     26  C   UNL     1     165.238 173.474 151.481  1.00  0.00     0.004 C 
ENDBRANCH  24  25
ENDBRANCH  23  24
ENDBRANCH  22  23
ENDBRANCH  21  22
ENDBRANCH  20  21
ENDBRANCH  19  20
ENDBRANCH  18  19
ENDBRANCH  17  18
ENDBRANCH  16  17
ENDBRANCH  15  16
ENDBRANCH   1  15
TORSDOF 22
ENDMDL
MODEL 3
REMARK VINA RESULT:    -3.422      3.054      6.466
REMARK INTER + INTRA:         -12.777
REMARK INTER:                  -8.778
REMARK INTRA:                  -3.999
REMARK UNBOUND:                -4.953
REMARK SMILES CCCCCCCCCCCCCCCCCCCCCCCC(=O)[O-]
REMARK SMILES IDX 13 1 14 2 15 3 16 4 17 5 18 6 19 7 20 8 21 9 22 10 23 11
REMARK SMILES IDX 24 12 25 13 26 14 12 15 11 16 10 17 9 18 8 19 7 20 6 21 5 22
REMARK SMILES IDX 4 23 3 24 2 25 1 26
REMARK H PARENT
REMARK Flexibility Score: inf
ROOT
ATOM      1  C   UNL     1     165.684 174.321 150.999  1.00  0.00     0.000 C 
ENDROOT
BRANCH   1   2
ATOM      2  C   UNL     1     164.447 174.987 151.631  1.00  0.00     0.000 C 
BRANCH   2   3
ATOM      3  C   UNL     1     163.769 176.004 150.698  1.00  0.00     0.000 C 
BRANCH   3   4
ATOM      4  C   UNL     1     163.233 177.239 151.444  1.00  0.00     0.000 C 
BRANCH   4   5
ATOM      5  C   UNL     1     161.772 177.616 151.125  1.00  0.00     0.000 C 
BRANCH   5   6
ATOM      6  C   UNL     1     160.886 176.450 150.645  1.00  0.00     0.000 C 
BRANCH   6   7
ATOM      7  C   UNL     1     159.775 176.028 151.628  1.00  0.00     0.000 C 
BRANCH   7   8
ATOM      8  C   UNL     1     159.704 174.518 151.914  1.00  0.00     0.000 C 
BRANCH   8   9
ATOM      9  C   UNL     1     161.092 173.855 151.952  1.00  0.00     0.000 C 
BRANCH   9  10
ATOM     10  C   UNL     1     161.018 172.319 151.889  1.00  0.00     0.006 C 
BRANCH  10  11
ATOM     11  C   UNL     1     159.724 171.775 151.262  1.00  0.00     0.053 C 
BRANCH  11  12
ATOM     12  C   UNL     1     159.981 170.587 150.386  1.00  0.00     0.041 C 
ATOM     13  O   UNL     1     159.183 170.302 149.455  1.00  0.00    -0.550 OA
ATOM     14  O   UNL     1     161.115 169.810 150.584  1.00  0.00    -0.550 OA
ENDBRANCH  11  12
ENDBRANCH  10  11
ENDBRANCH   9  10
ENDBRANCH   8   9
ENDBRANCH   7   8
ENDBRANCH   6   7
ENDBRANCH   5   6
ENDBRANCH   4   5
ENDBRANCH   3   4
ENDBRANCH   2   3
ENDBRANCH   1   2
BRANCH   1  15
ATOM     15  C   UNL     1     166.061 174.839 149.600  1.00  0.00     0.000 C 
BRANCH  15  16
ATOM     16  C   UNL     1     167.425 175.549 149.571  1.00  0.00     0.000 C 
BRANCH  16  17
ATOM     17  C   UNL     1     167.467 176.817 150.445  1.00  0.00     0.000 C 
BRANCH  17  18
ATOM     18  C   UNL     1     168.478 176.791 151.612  1.00  0.00    -0.000 C 
BRANCH  18  19
ATOM     19  C   UNL     1     167.886 177.060 153.012  1.00  0.00    -0.000 C 
BRANCH  19  20
ATOM     20  C   UNL     1     166.463 177.651 152.997  1.00  0.00    -0.000 C 
BRANCH  20  21
ATOM     21  C   UNL     1     165.841 177.822 154.397  1.00  0.00    -0.000 C 
BRANCH  21  22
ATOM     22  C   UNL     1     165.076 176.563 154.845  1.00  0.00    -0.000 C 
BRANCH  22  23
ATOM     23  C   UNL     1     163.634 176.865 155.289  1.00  0.00    -0.000 C 
BRANCH  23  24
ATOM     24  C   UNL     1     162.562 175.945 154.679  1.00  0.00    -0.000 C 
BRANCH  24  25
ATOM     25  C   UNL     1     161.135 176.331 155.097  1.00  0.00    -0.003 C 
ATOM     26  C   UNL     1     160.814 177.767 154.695  1.00  0.00     0.004 C 
ENDBRANCH  24  25
ENDBRANCH  23  24
ENDBRANCH  22  23
ENDBRANCH  21  22
ENDBRANCH  20  21
ENDBRANCH  19  20
ENDBRANCH  18  19
ENDBRANCH  17  18
ENDBRANCH  16  17
ENDBRANCH  15  16
ENDBRANCH   1  15
TORSDOF 22
ENDMDL
MODEL 4
REMARK VINA RESULT:    -3.415      8.671     11.412
REMARK INTER + INTRA:         -12.761
REMARK INTER:                  -8.084
REMARK INTRA:                  -4.677
REMARK UNBOUND:                -4.953
REMARK SMILES CCCCCCCCCCCCCCCCCCCCCCCC(=O)[O-]
REMARK SMILES IDX 13 1 14 2 15 3 16 4 17 5 18 6 19 7 20 8 21 9 22 10 23 11
REMARK SMILES IDX 24 12 25 13 26 14 12 15 11 16 10 17 9 18 8 19 7 20 6 21 5 22
REMARK SMILES IDX 4 23 3 24 2 25 1 26
REMARK H PARENT
REMARK Flexibility Score: inf
ROOT
ATOM      1  C   UNL     1     171.927 173.898 151.540  1.00  0.00     0.000 C 
ENDROOT
BRANCH   1   2
ATOM      2  C   UNL     1     171.710 174.292 153.013  1.00  0.00     0.000 C 
BRANCH   2   3
ATOM      3  C   UNL     1     171.757 175.812 153.242  1.00  0.00     0.000 C 
BRANCH   3   4
ATOM      4  C   UNL     1     171.880 176.613 151.933  1.00  0.00     0.000 C 
BRANCH   4   5
ATOM      5  C   UNL     1     172.590 177.976 152.062  1.00  0.00     0.000 C 
BRANCH   5   6
ATOM      6  C   UNL     1     174.065 177.989 151.615  1.00  0.00     0.000 C 
BRANCH   6   7
ATOM      7  C   UNL     1     174.434 176.937 150.550  1.00  0.00     0.000 C 
BRANCH   7   8
ATOM      8  C   UNL     1     175.456 175.883 151.010  1.00  0.00     0.000 C 
BRANCH   8   9
ATOM      9  C   UNL     1     175.527 175.752 152.541  1.00  0.00     0.000 C 
BRANCH   9  10
ATOM     10  C   UNL     1     175.594 174.287 153.009  1.00  0.00     0.006 C 
BRANCH  10  11
ATOM     11  C   UNL     1     175.105 174.063 154.450  1.00  0.00     0.053 C 
BRANCH  11  12
ATOM     12  C   UNL     1     176.244 173.918 155.412  1.00  0.00     0.041 C 
ATOM     13  O   UNL     1     176.918 174.926 155.754  1.00  0.00    -0.550 OA
ATOM     14  O   UNL     1     176.545 172.673 155.950  1.00  0.00    -0.550 OA
ENDBRANCH  11  12
ENDBRANCH  10  11
ENDBRANCH   9  10
ENDBRANCH   8   9
ENDBRANCH   7   8
ENDBRANCH   6   7
ENDBRANCH   5   6
ENDBRANCH   4   5
ENDBRANCH   3   4
ENDBRANCH   2   3
ENDBRANCH   1   2
BRANCH   1  15
ATOM     15  C   UNL     1     172.825 172.668 151.317  1.00  0.00     0.000 C 
BRANCH  15  16
ATOM     16  C   UNL     1     173.638 172.747 150.014  1.00  0.00     0.000 C 
BRANCH  16  17
ATOM     17  C   UNL     1     174.006 171.364 149.445  1.00  0.00     0.000 C 
BRANCH  17  18
ATOM     18  C   UNL     1     175.493 171.170 149.071  1.00  0.00    -0.000 C 
BRANCH  18  19
ATOM     19  C   UNL     1     176.504 171.434 150.208  1.00  0.00    -0.000 C 
BRANCH  19  20
ATOM     20  C   UNL     1     176.600 170.302 151.249  1.00  0.00    -0.000 C 
BRANCH  20  21
ATOM     21  C   UNL     1     176.437 170.777 152.707  1.00  0.00    -0.000 C 
BRANCH  21  22
ATOM     22  C   UNL     1     175.076 170.367 153.297  1.00  0.00    -0.000 C 
BRANCH  22  23
ATOM     23  C   UNL     1     174.372 169.273 152.475  1.00  0.00    -0.000 C 
BRANCH  23  24
ATOM     24  C   UNL     1     172.835 169.292 152.554  1.00  0.00    -0.000 C 
BRANCH  24  25
ATOM     25  C   UNL     1     172.170 168.449 151.456  1.00  0.00    -0.003 C 
ATOM     26  C   UNL     1     171.215 169.293 150.617  1.00  0.00     0.004 C 
ENDBRANCH  24  25
ENDBRANCH  23  24
ENDBRANCH  22  23
ENDBRANCH  21  22
ENDBRANCH  20  21
ENDBRANCH  19  20
ENDBRANCH  18  19
ENDBRANCH  17  18
ENDBRANCH  16  17
ENDBRANCH  15  16
ENDBRANCH   1  15
TORSDOF 22
ENDMDL
MODEL 5
REMARK VINA RESULT:    -3.377      7.727     11.126
REMARK INTER + INTRA:         -12.674
REMARK INTER:                  -9.195
REMARK INTRA:                  -3.479
REMARK UNBOUND:                -4.953
REMARK SMILES CCCCCCCCCCCCCCCCCCCCCCCC(=O)[O-]
REMARK SMILES IDX 13 1 14 2 15 3 16 4 17 5 18 6 19 7 20 8 21 9 22 10 23 11
REMARK SMILES IDX 24 12 25 13 26 14 12 15 11 16 10 17 9 18 8 19 7 20 6 21 5 22
REMARK SMILES IDX 4 23 3 24 2 25 1 26
REMARK H PARENT
REMARK Flexibility Score: inf
ROOT
ATOM      1  C   UNL     1     173.911 174.214 151.210  1.00  0.00     0.000 C 
ENDROOT
BRANCH   1   2
ATOM      2  C   UNL     1     173.369 172.790 150.987  1.00  0.00     0.000 C 
BRANCH   2   3
ATOM      3  C   UNL     1     173.489 172.323 149.526  1.00  0.00     0.000 C 
BRANCH   3   4
ATOM      4  C   UNL     1     174.238 170.985 149.383  1.00  0.00     0.000 C 
BRANCH   4   5
ATOM      5  C   UNL     1     175.741 171.106 149.059  1.00  0.00     0.000 C 
BRANCH   5   6
ATOM      6  C   UNL     1     176.683 170.998 150.275  1.00  0.00     0.000 C 
BRANCH   6   7
ATOM      7  C   UNL     1     176.177 170.088 151.412  1.00  0.00     0.000 C 
BRANCH   7   8
ATOM      8  C   UNL     1     176.695 170.457 152.813  1.00  0.00     0.000 C 
BRANCH   8   9
ATOM      9  C   UNL     1     175.883 171.588 153.468  1.00  0.00     0.000 C 
BRANCH   9  10
ATOM     10  C   UNL     1     176.765 172.574 154.254  1.00  0.00     0.006 C 
BRANCH  10  11
ATOM     11  C   UNL     1     176.201 172.967 155.630  1.00  0.00     0.053 C 
BRANCH  11  12
ATOM     12  C   UNL     1     176.586 174.361 156.017  1.00  0.00     0.041 C 
ATOM     13  O   UNL     1     176.523 175.294 155.174  1.00  0.00    -0.550 OA
ATOM     14  O   UNL     1     176.993 174.634 157.317  1.00  0.00    -0.550 OA
ENDBRANCH  11  12
ENDBRANCH  10  11
ENDBRANCH   9  10
ENDBRANCH   8   9
ENDBRANCH   7   8
ENDBRANCH   6   7
ENDBRANCH   5   6
ENDBRANCH   4   5
ENDBRANCH   3   4
ENDBRANCH   2   3
ENDBRANCH   1   2
BRANCH   1  15
ATOM     15  C   UNL     1     175.442 174.349 151.133  1.00  0.00     0.000 C 
BRANCH  15  16
ATOM     16  C   UNL     1     175.932 175.783 151.401  1.00  0.00     0.000 C 
BRANCH  16  17
ATOM     17  C   UNL     1     175.051 176.858 150.737  1.00  0.00     0.000 C 
BRANCH  17  18
ATOM     18  C   UNL     1     174.784 178.120 151.587  1.00  0.00    -0.000 C 
BRANCH  18  19
ATOM     19  C   UNL     1     175.427 178.124 152.991  1.00  0.00    -0.000 C 
BRANCH  19  20
ATOM     20  C   UNL     1     174.422 177.990 154.150  1.00  0.00    -0.000 C 
BRANCH  20  21
ATOM     21  C   UNL     1     172.984 177.667 153.698  1.00  0.00    -0.000 C 
BRANCH  21  22
ATOM     22  C   UNL     1     172.561 176.242 154.096  1.00  0.00    -0.000 C 
BRANCH  22  23
ATOM     23  C   UNL     1     171.336 175.739 153.312  1.00  0.00    -0.000 C 
BRANCH  23  24
ATOM     24  C   UNL     1     171.209 176.297 151.883  1.00  0.00    -0.000 C 
BRANCH  24  25
ATOM     25  C   UNL     1     170.033 177.273 151.725  1.00  0.00    -0.003 C 
ATOM     26  C   UNL     1     168.703 176.584 152.016  1.00  0.00     0.004 C 
ENDBRANCH  24  25
ENDBRANCH  23  24
ENDBRANCH  22  23
ENDBRANCH  21  22
ENDBRANCH  20  21
ENDBRANCH  19  20
ENDBRANCH  18  19
ENDBRANCH  17  18
ENDBRANCH  16  17
ENDBRANCH  15  16
ENDBRANCH   1  15
TORSDOF 22
ENDMDL
MODEL 6
REMARK VINA RESULT:    -3.368      3.824      5.014
REMARK INTER + INTRA:         -12.653
REMARK INTER:                 -10.157
REMARK INTRA:                  -2.496
REMARK UNBOUND:                -4.953
REMARK SMILES CCCCCCCCCCCCCCCCCCCCCCCC(=O)[O-]
REMARK SMILES IDX 13 1 14 2 15 3 16 4 17 5 18 6 19 7 20 8 21 9 22 10 23 11
REMARK SMILES IDX 24 12 25 13 26 14 12 15 11 16 10 17 9 18 8 19 7 20 6 21 5 22
REMARK SMILES IDX 4 23 3 24 2 25 1 26
REMARK H PARENT
REMARK Flexibility Score: inf
ROOT
ATOM      1  C   UNL     1     164.773 174.964 150.585  1.00  0.00     0.000 C 
ENDROOT
BRANCH   1   2
ATOM      2  C   UNL     1     166.171 174.366 150.338  1.00  0.00     0.000 C 
BRANCH   2   3
ATOM      3  C   UNL     1     167.049 175.245 149.431  1.00  0.00     0.000 C 
BRANCH   3   4
ATOM      4  C   UNL     1     166.884 176.750 149.711  1.00  0.00     0.000 C 
BRANCH   4   5
ATOM      5  C   UNL     1     167.659 177.278 150.936  1.00  0.00     0.000 C 
BRANCH   5   6
ATOM      6  C   UNL     1     169.123 176.805 151.037  1.00  0.00     0.000 C 
BRANCH   6   7
ATOM      7  C   UNL     1     169.774 176.993 152.422  1.00  0.00     0.000 C 
BRANCH   7   8
ATOM      8  C   UNL     1     171.269 177.353 152.389  1.00  0.00     0.000 C 
BRANCH   8   9
ATOM      9  C   UNL     1     172.099 176.371 151.544  1.00  0.00     0.000 C 
BRANCH   9  10
ATOM     10  C   UNL     1     173.437 176.973 151.076  1.00  0.00     0.006 C 
BRANCH  10  11
ATOM     11  C   UNL     1     174.619 175.991 151.122  1.00  0.00     0.053 C 
BRANCH  11  12
ATOM     12  C   UNL     1     175.397 176.109 152.397  1.00  0.00     0.041 C 
ATOM     13  O   UNL     1     175.287 177.138 153.113  1.00  0.00    -0.550 OA
ATOM     14  O   UNL     1     176.224 175.070 152.805  1.00  0.00    -0.550 OA
ENDBRANCH  11  12
ENDBRANCH  10  11
ENDBRANCH   9  10
ENDBRANCH   8   9
ENDBRANCH   7   8
ENDBRANCH   6   7
ENDBRANCH   5   6
ENDBRANCH   4   5
ENDBRANCH   3   4
ENDBRANCH   2   3
ENDBRANCH   1   2
BRANCH   1  15
ATOM     15  C   UNL     1     164.465 175.322 152.050  1.00  0.00     0.000 C 
BRANCH  15  16
ATOM     16  C   UNL     1     164.155 176.815 152.250  1.00  0.00     0.000 C 
BRANCH  16  17
ATOM     17  C   UNL     1     163.364 177.431 151.081  1.00  0.00     0.000 C 
BRANCH  17  18
ATOM     18  C   UNL     1     161.907 177.834 151.400  1.00  0.00    -0.000 C 
BRANCH  18  19
ATOM     19  C   UNL     1     160.833 177.234 150.467  1.00  0.00    -0.000 C 
BRANCH  19  20
ATOM     20  C   UNL     1     160.147 175.969 151.018  1.00  0.00    -0.000 C 
BRANCH  20  21
ATOM     21  C   UNL     1     160.177 175.860 152.556  1.00  0.00    -0.000 C 
BRANCH  21  22
ATOM     22  C   UNL     1     160.807 174.537 153.027  1.00  0.00    -0.000 C 
BRANCH  22  23
ATOM     23  C   UNL     1     161.323 173.672 151.864  1.00  0.00    -0.000 C 
BRANCH  23  24
ATOM     24  C   UNL     1     160.961 172.179 151.957  1.00  0.00    -0.000 C 
BRANCH  24  25
ATOM     25  C   UNL     1     159.717 171.813 151.133  1.00  0.00    -0.003 C 
ATOM     26  C   UNL     1     159.913 170.490 150.399  1.00  0.00     0.004 C 
ENDBRANCH  24  25
ENDBRANCH  23  24
ENDBRANCH  22  23
ENDBRANCH  21  22
ENDBRANCH  20  21
ENDBRANCH  19  20
ENDBRANCH  18  19
ENDBRANCH  17  18
ENDBRANCH  16  17
ENDBRANCH  15  16
ENDBRANCH   1  15
TORSDOF 22
ENDMDL
MODEL 7
REMARK VINA RESULT:    -3.362      7.953     10.859
REMARK INTER + INTRA:         -12.640
REMARK INTER:                  -8.232
REMARK INTRA:                  -4.408
REMARK UNBOUND:                -4.953
REMARK SMILES CCCCCCCCCCCCCCCCCCCCCCCC(=O)[O-]
REMARK SMILES IDX 13 1 14 2 15 3 16 4 17 5 18 6 19 7 20 8 21 9 22 10 23 11
REMARK SMILES IDX 24 12 25 13 26 14 12 15 11 16 10 17 9 18 8 19 7 20 6 21 5 22
REMARK SMILES IDX 4 23 3 24 2 25 1 26
REMARK H PARENT
REMARK Flexibility Score: inf
ROOT
ATOM      1  C   UNL     1     174.445 173.421 150.801  1.00  0.00     0.000 C 
ENDROOT
BRANCH   1   2
ATOM      2  C   UNL     1     174.627 172.120 149.997  1.00  0.00     0.000 C 
BRANCH   2   3
ATOM      3  C   UNL     1     176.101 171.798 149.700  1.00  0.00     0.000 C 
BRANCH   3   4
ATOM      4  C   UNL     1     176.625 170.592 150.502  1.00  0.00     0.000 C 
BRANCH   4   5
ATOM      5  C   UNL     1     175.557 169.832 151.317  1.00  0.00     0.000 C 
BRANCH   5   6
ATOM      6  C   UNL     1     175.563 170.120 152.831  1.00  0.00     0.000 C 
BRANCH   6   7
ATOM      7  C   UNL     1     176.661 171.091 153.306  1.00  0.00     0.000 C 
BRANCH   7   8
ATOM      8  C   UNL     1     176.180 172.188 154.272  1.00  0.00     0.000 C 
BRANCH   8   9
ATOM      9  C   UNL     1     174.650 172.347 154.276  1.00  0.00     0.000 C 
BRANCH   9  10
ATOM     10  C   UNL     1     174.197 173.731 154.775  1.00  0.00     0.006 C 
BRANCH  10  11
ATOM     11  C   UNL     1     175.025 174.280 155.948  1.00  0.00     0.053 C 
BRANCH  11  12
ATOM     12  C   UNL     1     175.546 175.657 155.671  1.00  0.00     0.041 C 
ATOM     13  O   UNL     1     176.633 175.811 155.055  1.00  0.00    -0.550 OA
ATOM     14  O   UNL     1     174.817 176.770 156.072  1.00  0.00    -0.550 OA
ENDBRANCH  11  12
ENDBRANCH  10  11
ENDBRANCH   9  10
ENDBRANCH   8   9
ENDBRANCH   7   8
ENDBRANCH   6   7
ENDBRANCH   5   6
ENDBRANCH   4   5
ENDBRANCH   3   4
ENDBRANCH   2   3
ENDBRANCH   1   2
BRANCH   1  15
ATOM     15  C   UNL     1     175.746 174.180 151.119  1.00  0.00     0.000 C 
BRANCH  15  16
ATOM     16  C   UNL     1     175.496 175.555 151.761  1.00  0.00     0.000 C 
BRANCH  16  17
ATOM     17  C   UNL     1     175.334 176.685 150.728  1.00  0.00     0.000 C 
BRANCH  17  18
ATOM     18  C   UNL     1     174.725 177.999 151.267  1.00  0.00    -0.000 C 
BRANCH  18  19
ATOM     19  C   UNL     1     174.437 178.025 152.784  1.00  0.00    -0.000 C 
BRANCH  19  20
ATOM     20  C   UNL     1     172.946 177.897 153.150  1.00  0.00    -0.000 C 
BRANCH  20  21
ATOM     21  C   UNL     1     172.025 177.636 151.941  1.00  0.00    -0.000 C 
BRANCH  21  22
ATOM     22  C   UNL     1     171.570 176.167 151.871  1.00  0.00    -0.000 C 
BRANCH  22  23
ATOM     23  C   UNL     1     171.442 175.512 153.257  1.00  0.00    -0.000 C 
BRANCH  23  24
ATOM     24  C   UNL     1     170.813 174.108 153.255  1.00  0.00    -0.000 C 
BRANCH  24  25
ATOM     25  C   UNL     1     171.003 173.370 151.922  1.00  0.00    -0.003 C 
ATOM     26  C   UNL     1     171.348 171.901 152.150  1.00  0.00     0.004 C 
ENDBRANCH  24  25
ENDBRANCH  23  24
ENDBRANCH  22  23
ENDBRANCH  21  22
ENDBRANCH  20  21
ENDBRANCH  19  20
ENDBRANCH  18  19
ENDBRANCH  17  18
ENDBRANCH  16  17
ENDBRANCH  15  16
ENDBRANCH   1  15
TORSDOF 22
ENDMDL
MODEL 8
REMARK VINA RESULT:    -3.349      1.317      3.060
REMARK INTER + INTRA:         -12.609
REMARK INTER:                  -7.939
REMARK INTRA:                  -4.670
REMARK UNBOUND:                -4.953
REMARK SMILES CCCCCCCCCCCCCCCCCCCCCCCC(=O)[O-]
REMARK SMILES IDX 13 1 14 2 15 3 16 4 17 5 18 6 19 7 20 8 21 9 22 10 23 11
REMARK SMILES IDX 24 12 25 13 26 14 12 15 11 16 10 17 9 18 8 19 7 20 6 21 5 22
REMARK SMILES IDX 4 23 3 24 2 25 1 26
REMARK H PARENT
REMARK Flexibility Score: inf
ROOT
ATOM      1  C   UNL     1     163.343 173.484 152.556  1.00  0.00     0.000 C 
ENDROOT
BRANCH   1   2
ATOM      2  C   UNL     1     164.670 174.237 152.344  1.00  0.00     0.000 C 
BRANCH   2   3
ATOM      3  C   UNL     1     165.457 173.736 151.121  1.00  0.00     0.000 C 
BRANCH   3   4
ATOM      4  C   UNL     1     165.422 174.724 149.940  1.00  0.00     0.000 C 
BRANCH   4   5
ATOM      5  C   UNL     1     166.795 175.051 149.318  1.00  0.00     0.000 C 
BRANCH   5   6
ATOM      6  C   UNL     1     167.317 176.474 149.598  1.00  0.00     0.000 C 
BRANCH   6   7
ATOM      7  C   UNL     1     166.380 177.358 150.444  1.00  0.00     0.000 C 
BRANCH   7   8
ATOM      8  C   UNL     1     166.712 177.400 151.946  1.00  0.00     0.000 C 
BRANCH   8   9
ATOM      9  C   UNL     1     168.079 176.771 152.270  1.00  0.00     0.000 C 
BRANCH   9  10
ATOM     10  C   UNL     1     167.971 175.584 153.244  1.00  0.00     0.006 C 
BRANCH  10  11
ATOM     11  C   UNL     1     168.465 175.890 154.667  1.00  0.00     0.053 C 
BRANCH  11  12
ATOM     12  C   UNL     1     167.336 175.972 155.648  1.00  0.00     0.041 C 
ATOM     13  O   UNL     1     167.555 176.315 156.840  1.00  0.00    -0.550 OA
ATOM     14  O   UNL     1     166.038 175.693 155.239  1.00  0.00    -0.550 OA
ENDBRANCH  11  12
ENDBRANCH  10  11
ENDBRANCH   9  10
ENDBRANCH   8   9
ENDBRANCH   7   8
ENDBRANCH   6   7
ENDBRANCH   5   6
ENDBRANCH   4   5
ENDBRANCH   3   4
ENDBRANCH   2   3
ENDBRANCH   1   2
BRANCH   1  15
ATOM     15  C   UNL     1     162.565 173.875 153.825  1.00  0.00     0.000 C 
BRANCH  15  16
ATOM     16  C   UNL     1     161.048 173.661 153.688  1.00  0.00     0.000 C 
BRANCH  16  17
ATOM     17  C   UNL     1     160.503 174.056 152.302  1.00  0.00     0.000 C 
BRANCH  17  18
ATOM     18  C   UNL     1     159.712 175.381 152.250  1.00  0.00    -0.000 C 
BRANCH  18  19
ATOM     19  C   UNL     1     160.277 176.455 151.295  1.00  0.00    -0.000 C 
BRANCH  19  20
ATOM     20  C   UNL     1     161.623 176.082 150.644  1.00  0.00    -0.000 C 
BRANCH  20  21
ATOM     21  C   UNL     1     162.762 177.075 150.950  1.00  0.00    -0.000 C 
BRANCH  21  22
ATOM     22  C   UNL     1     162.481 177.903 152.217  1.00  0.00    -0.000 C 
BRANCH  22  23
ATOM     23  C   UNL     1     163.280 177.417 153.439  1.00  0.00    -0.000 C 
BRANCH  23  24
ATOM     24  C   UNL     1     162.646 177.751 154.801  1.00  0.00    -0.000 C 
BRANCH  24  25
ATOM     25  C   UNL     1     161.111 177.759 154.761  1.00  0.00    -0.003 C 
ATOM     26  C   UNL     1     160.525 176.996 155.945  1.00  0.00     0.004 C 
ENDBRANCH  24  25
ENDBRANCH  23  24
ENDBRANCH  22  23
ENDBRANCH  21  22
ENDBRANCH  20  21
ENDBRANCH  19  20
ENDBRANCH  18  19
ENDBRANCH  17  18
ENDBRANCH  16  17
ENDBRANCH  15  16
ENDBRANCH   1  15
TORSDOF 22
ENDMDL
MODEL 9
REMARK VINA RESULT:    -3.285      2.807      6.987
REMARK INTER + INTRA:         -12.464
REMARK INTER:                  -8.095
REMARK INTRA:                  -4.369
REMARK UNBOUND:                -4.953
REMARK SMILES CCCCCCCCCCCCCCCCCCCCCCCC(=O)[O-]
REMARK SMILES IDX 13 1 14 2 15 3 16 4 17 5 18 6 19 7 20 8 21 9 22 10 23 11
REMARK SMILES IDX 24 12 25 13 26 14 12 15 11 16 10 17 9 18 8 19 7 20 6 21 5 22
REMARK SMILES IDX 4 23 3 24 2 25 1 26
REMARK H PARENT
REMARK Flexibility Score: inf
ROOT
ATOM      1  C   UNL     1     163.966 175.327 153.129  1.00  0.00     0.000 C 
ENDROOT
BRANCH   1   2
ATOM      2  C   UNL     1     164.388 176.807 153.179  1.00  0.00     0.000 C 
BRANCH   2   3
ATOM      3  C   UNL     1     163.506 177.713 152.302  1.00  0.00     0.000 C 
BRANCH   3   4
ATOM      4  C   UNL     1     163.013 177.014 151.022  1.00  0.00     0.000 C 
BRANCH   4   5
ATOM      5  C   UNL     1     161.494 177.102 150.770  1.00  0.00     0.000 C 
BRANCH   5   6
ATOM      6  C   UNL     1     160.638 177.372 152.023  1.00  0.00     0.000 C 
BRANCH   6   7
ATOM      7  C   UNL     1     160.172 176.112 152.778  1.00  0.00     0.000 C 
BRANCH   7   8
ATOM      8  C   UNL     1     159.502 175.042 151.898  1.00  0.00     0.000 C 
BRANCH   8   9
ATOM      9  C   UNL     1     159.840 173.609 152.344  1.00  0.00     0.000 C 
BRANCH   9  10
ATOM     10  C   UNL     1     161.252 173.170 151.916  1.00  0.00     0.006 C 
BRANCH  10  11
ATOM     11  C   UNL     1     161.647 171.764 152.397  1.00  0.00     0.053 C 
BRANCH  11  12
ATOM     12  C   UNL     1     162.228 170.936 151.292  1.00  0.00     0.041 C 
ATOM     13  O   UNL     1     163.462 170.984 151.045  1.00  0.00    -0.550 OA
ATOM     14  O   UNL     1     161.409 170.094 150.550  1.00  0.00    -0.550 OA
ENDBRANCH  11  12
ENDBRANCH  10  11
ENDBRANCH   9  10
ENDBRANCH   8   9
ENDBRANCH   7   8
ENDBRANCH   6   7
ENDBRANCH   5   6
ENDBRANCH   4   5
ENDBRANCH   3   4
ENDBRANCH   2   3
ENDBRANCH   1   2
BRANCH   1  15
ATOM     15  C   UNL     1     165.107 174.332 152.849  1.00  0.00     0.000 C 
BRANCH  15  16
ATOM     16  C   UNL     1     165.189 173.914 151.371  1.00  0.00     0.000 C 
BRANCH  16  17
ATOM     17  C   UNL     1     166.446 173.087 151.044  1.00  0.00     0.000 C 
BRANCH  17  18
ATOM     18  C   UNL     1     167.101 173.382 149.676  1.00  0.00    -0.000 C 
BRANCH  18  19
ATOM     19  C   UNL     1     166.516 174.585 148.904  1.00  0.00    -0.000 C 
BRANCH  19  20
ATOM     20  C   UNL     1     167.291 175.902 149.099  1.00  0.00    -0.000 C 
BRANCH  20  21
ATOM     21  C   UNL     1     166.560 176.933 149.982  1.00  0.00    -0.000 C 
BRANCH  21  22
ATOM     22  C   UNL     1     167.372 177.293 151.239  1.00  0.00    -0.000 C 
BRANCH  22  23
ATOM     23  C   UNL     1     168.516 176.302 151.517  1.00  0.00    -0.000 C 
BRANCH  23  24
ATOM     24  C   UNL     1     168.562 175.752 152.954  1.00  0.00    -0.000 C 
BRANCH  24  25
ATOM     25  C   UNL     1     169.264 174.389 153.049  1.00  0.00    -0.003 C 
ATOM     26  C   UNL     1     170.093 174.108 151.800  1.00  0.00     0.004 C 
ENDBRANCH  24  25
ENDBRANCH  23  24
ENDBRANCH  22  23
ENDBRANCH  21  22
ENDBRANCH  20  21
ENDBRANCH  19  20
ENDBRANCH  18  19
ENDBRANCH  17  18
ENDBRANCH  16  17
ENDBRANCH  15  16
ENDBRANCH   1  15
TORSDOF 22
ENDMDL
