MODEL 1
REMARK VINA RESULT:    -3.510      0.000      0.000
REMARK INTER + INTRA:          -8.602
REMARK INTER:                  -6.587
REMARK INTRA:                  -2.015
REMARK UNBOUND:                -2.015
REMARK SMILES O=C([O-])CCCCCCCCCCCCCCC(=O)[O-]
REMARK SMILES IDX 10 1 9 2 8 3 7 4 6 5 5 6 4 7 2 8 1 9 3 10 11 11 12 12 13 13
REMARK SMILES IDX 14 14 15 15 16 16 17 17 18 18 19 19 20 20
REMARK H PARENT
REMARK Flexibility Score: inf
ROOT
ATOM      1  C   UNL     1      19.091   2.631  42.178  1.00  0.00     0.000 C 
ENDROOT
BRANCH   1   2
ATOM      2  C   UNL     1      17.941   1.859  42.844  1.00  0.00     0.000 C 
BRANCH   2   3
ATOM      3  C   UNL     1      16.646   1.895  42.017  1.00  0.00     0.000 C 
BRANCH   3   4
ATOM      4  C   UNL     1      16.725   2.970  40.923  1.00  0.00     0.000 C 
BRANCH   4   5
ATOM      5  C   UNL     1      15.794   2.679  39.735  1.00  0.00     0.000 C 
BRANCH   5   6
ATOM      6  C   UNL     1      16.187   1.402  38.972  1.00  0.00     0.006 C 
BRANCH   6   7
ATOM      7  C   UNL     1      15.011   0.816  38.180  1.00  0.00     0.053 C 
BRANCH   7   8
ATOM      8  C   UNL     1      15.175   1.023  36.705  1.00  0.00     0.041 C 
ATOM      9  O   UNL     1      15.625   2.113  36.264  1.00  0.00    -0.550 OA
ATOM     10  O   UNL     1      14.804   0.021  35.817  1.00  0.00    -0.550 OA
ENDBRANCH   7   8
ENDBRANCH   6   7
ENDBRANCH   5   6
ENDBRANCH   4   5
ENDBRANCH   3   4
ENDBRANCH   2   3
ENDBRANCH   1   2
BRANCH   1  11
ATOM     11  C   UNL     1      20.443   1.908  42.309  1.00  0.00     0.000 C 
BRANCH  11  12
ATOM     12  C   UNL     1      20.949   1.343  40.970  1.00  0.00     0.000 C 
BRANCH  12  13
ATOM     13  C   UNL     1      19.846   0.974  39.957  1.00  0.00     0.000 C 
BRANCH  13  14
ATOM     14  C   UNL     1      19.251  -0.440  40.119  1.00  0.00     0.000 C 
BRANCH  14  15
ATOM     15  C   UNL     1      20.013  -1.358  41.092  1.00  0.00     0.000 C 
BRANCH  15  16
ATOM     16  C   UNL     1      19.170  -1.761  42.314  1.00  0.00     0.006 C 
BRANCH  16  17
ATOM     17  C   UNL     1      19.896  -1.482  43.637  1.00  0.00     0.053 C 
BRANCH  17  18
ATOM     18  C   UNL     1      20.325  -2.746  44.316  1.00  0.00     0.041 C 
ATOM     19  O   UNL     1      19.519  -3.375  45.050  1.00  0.00    -0.550 OA
ATOM     20  O   UNL     1      21.606  -3.246  44.114  1.00  0.00    -0.550 OA
ENDBRANCH  17  18
ENDBRANCH  16  17
ENDBRANCH  15  16
ENDBRANCH  14  15
ENDBRANCH  13  14
ENDBRANCH  12  13
ENDBRANCH  11  12
ENDBRANCH   1  11
TORSDOF 15
ENDMDL
MODEL 2
REMARK VINA RESULT:    -3.416      2.717      7.086
REMARK INTER + INTRA:          -8.426
REMARK INTER:                  -6.388
REMARK INTRA:                  -2.038
REMARK UNBOUND:                -2.015
REMARK SMILES O=C([O-])CCCCCCCCCCCCCCC(=O)[O-]
REMARK SMILES IDX 10 1 9 2 8 3 7 4 6 5 5 6 4 7 2 8 1 9 3 10 11 11 12 12 13 13
REMARK SMILES IDX 14 14 15 15 16 16 17 17 18 18 19 19 20 20
REMARK H PARENT
REMARK Flexibility Score: inf
ROOT
ATOM      1  C   UNL     1      20.254   1.242  41.002  1.00  0.00     0.000 C 
ENDROOT
BRANCH   1   2
ATOM      2  C   UNL     1      19.317   0.039  41.202  1.00  0.00     0.000 C 
BRANCH   2   3
ATOM      3  C   UNL     1      19.787  -0.898  42.326  1.00  0.00     0.000 C 
BRANCH   3   4
ATOM      4  C   UNL     1      19.245  -0.434  43.687  1.00  0.00     0.000 C 
BRANCH   4   5
ATOM      5  C   UNL     1      17.751  -0.074  43.641  1.00  0.00     0.000 C 
BRANCH   5   6
ATOM      6  C   UNL     1      17.454   1.304  44.255  1.00  0.00     0.006 C 
BRANCH   6   7
ATOM      7  C   UNL     1      18.692   1.922  44.918  1.00  0.00     0.053 C 
BRANCH   7   8
ATOM      8  C   UNL     1      18.459   3.349  45.310  1.00  0.00     0.041 C 
ATOM      9  O   UNL     1      18.800   3.757  46.452  1.00  0.00    -0.550 OA
ATOM     10  O   UNL     1      17.840   4.220  44.423  1.00  0.00    -0.550 OA
ENDBRANCH   7   8
ENDBRANCH   6   7
ENDBRANCH   5   6
ENDBRANCH   4   5
ENDBRANCH   3   4
ENDBRANCH   2   3
ENDBRANCH   1   2
BRANCH   1  11
ATOM     11  C   UNL     1      19.635   2.562  41.493  1.00  0.00     0.000 C 
BRANCH  11  12
ATOM     12  C   UNL     1      18.645   3.169  40.482  1.00  0.00     0.000 C 
BRANCH  12  13
ATOM     13  C   UNL     1      17.212   3.376  41.013  1.00  0.00     0.000 C 
BRANCH  13  14
ATOM     14  C   UNL     1      16.297   2.137  40.931  1.00  0.00     0.000 C 
BRANCH  14  15
ATOM     15  C   UNL     1      16.270   1.437  39.560  1.00  0.00     0.000 C 
BRANCH  15  16
ATOM     16  C   UNL     1      15.136   1.946  38.653  1.00  0.00     0.006 C 
BRANCH  16  17
ATOM     17  C   UNL     1      14.499   0.817  37.834  1.00  0.00     0.053 C 
BRANCH  17  18
ATOM     18  C   UNL     1      15.057   0.751  36.445  1.00  0.00     0.041 C 
ATOM     19  O   UNL     1      15.468   1.797  35.878  1.00  0.00    -0.550 OA
ATOM     20  O   UNL     1      15.150  -0.470  35.789  1.00  0.00    -0.550 OA
ENDBRANCH  17  18
ENDBRANCH  16  17
ENDBRANCH  15  16
ENDBRANCH  14  15
ENDBRANCH  13  14
ENDBRANCH  12  13
ENDBRANCH  11  12
ENDBRANCH   1  11
TORSDOF 15
ENDMDL
MODEL 3
REMARK VINA RESULT:    -3.401      3.100      4.093
REMARK INTER + INTRA:          -8.398
REMARK INTER:                  -6.465
REMARK INTRA:                  -1.934
REMARK UNBOUND:                -2.015
REMARK SMILES O=C([O-])CCCCCCCCCCCCCCC(=O)[O-]
REMARK SMILES IDX 10 1 9 2 8 3 7 4 6 5 5 6 4 7 2 8 1 9 3 10 11 11 12 12 13 13
REMARK SMILES IDX 14 14 15 15 16 16 17 17 18 18 19 19 20 20
REMARK H PARENT
REMARK Flexibility Score: inf
ROOT
ATOM      1  C   UNL     1      19.690   2.269  40.188  1.00  0.00     0.000 C 
ENDROOT
BRANCH   1   2
ATOM      2  C   UNL     1      19.176   3.328  41.176  1.00  0.00     0.000 C 
BRANCH   2   3
ATOM      3  C   UNL     1      17.841   3.951  40.736  1.00  0.00     0.000 C 
BRANCH   3   4
ATOM      4  C   UNL     1      16.663   3.296  41.474  1.00  0.00     0.000 C 
BRANCH   4   5
ATOM      5  C   UNL     1      16.153   2.028  40.772  1.00  0.00     0.000 C 
BRANCH   5   6
ATOM      6  C   UNL     1      15.863   2.252  39.278  1.00  0.00     0.006 C 
BRANCH   6   7
ATOM      7  C   UNL     1      15.911   0.945  38.476  1.00  0.00     0.053 C 
BRANCH   7   8
ATOM      8  C   UNL     1      14.627   0.692  37.747  1.00  0.00     0.041 C 
ATOM      9  O   UNL     1      13.540   0.634  38.379  1.00  0.00    -0.550 OA
ATOM     10  O   UNL     1      14.637   0.491  36.372  1.00  0.00    -0.550 OA
ENDBRANCH   7   8
ENDBRANCH   6   7
ENDBRANCH   5   6
ENDBRANCH   4   5
ENDBRANCH   3   4
ENDBRANCH   2   3
ENDBRANCH   1   2
BRANCH   1  11
ATOM     11  C   UNL     1      20.315   1.054  40.896  1.00  0.00     0.000 C 
BRANCH  11  12
ATOM     12  C   UNL     1      19.262   0.045  41.391  1.00  0.00     0.000 C 
BRANCH  12  13
ATOM     13  C   UNL     1      19.593  -0.640  42.732  1.00  0.00     0.000 C 
BRANCH  13  14
ATOM     14  C   UNL     1      19.511   0.271  43.973  1.00  0.00     0.000 C 
BRANCH  14  15
ATOM     15  C   UNL     1      18.234   1.126  44.070  1.00  0.00     0.000 C 
BRANCH  15  16
ATOM     16  C   UNL     1      18.490   2.512  44.686  1.00  0.00     0.006 C 
BRANCH  16  17
ATOM     17  C   UNL     1      18.636   2.449  46.212  1.00  0.00     0.053 C 
BRANCH  17  18
ATOM     18  C   UNL     1      17.923   3.581  46.888  1.00  0.00     0.041 C 
ATOM     19  O   UNL     1      17.835   4.701  46.322  1.00  0.00    -0.550 OA
ATOM     20  O   UNL     1      17.329   3.387  48.129  1.00  0.00    -0.550 OA
ENDBRANCH  17  18
ENDBRANCH  16  17
ENDBRANCH  15  16
ENDBRANCH  14  15
ENDBRANCH  13  14
ENDBRANCH  12  13
ENDBRANCH  11  12
ENDBRANCH   1  11
TORSDOF 15
ENDMDL
MODEL 4
REMARK VINA RESULT:    -3.400      3.964      5.250
REMARK INTER + INTRA:          -8.396
REMARK INTER:                  -6.112
REMARK INTRA:                  -2.284
REMARK UNBOUND:                -2.015
REMARK SMILES O=C([O-])CCCCCCCCCCCCCCC(=O)[O-]
REMARK SMILES IDX 10 1 9 2 8 3 7 4 6 5 5 6 4 7 2 8 1 9 3 10 11 11 12 12 13 13
REMARK SMILES IDX 14 14 15 15 16 16 17 17 18 18 19 19 20 20
REMARK H PARENT
REMARK Flexibility Score: inf
ROOT
ATOM      1  C   UNL     1      18.846   2.297  44.016  1.00  0.00     0.000 C 
ENDROOT
BRANCH   1   2
ATOM      2  C   UNL     1      17.692   2.643  43.062  1.00  0.00     0.000 C 
BRANCH   2   3
ATOM      3  C   UNL     1      16.636   1.529  42.980  1.00  0.00     0.000 C 
BRANCH   3   4
ATOM      4  C   UNL     1      16.628   0.687  44.265  1.00  0.00     0.000 C 
BRANCH   4   5
ATOM      5  C   UNL     1      15.380   0.931  45.128  1.00  0.00     0.000 C 
BRANCH   5   6
ATOM      6  C   UNL     1      15.682   1.764  46.386  1.00  0.00     0.006 C 
BRANCH   6   7
ATOM      7  C   UNL     1      15.387   3.255  46.177  1.00  0.00     0.053 C 
BRANCH   7   8
ATOM      8  C   UNL     1      16.617   4.095  46.343  1.00  0.00     0.041 C 
ATOM      9  O   UNL     1      16.805   5.098  45.607  1.00  0.00    -0.550 OA
ATOM     10  O   UNL     1      17.569   3.750  47.295  1.00  0.00    -0.550 OA
ENDBRANCH   7   8
ENDBRANCH   6   7
ENDBRANCH   5   6
ENDBRANCH   4   5
ENDBRANCH   3   4
ENDBRANCH   2   3
ENDBRANCH   1   2
BRANCH   1  11
ATOM     11  C   UNL     1      20.186   2.116  43.282  1.00  0.00     0.000 C 
BRANCH  11  12
ATOM     12  C   UNL     1      20.042   2.185  41.751  1.00  0.00     0.000 C 
BRANCH  12  13
ATOM     13  C   UNL     1      20.646   0.992  40.983  1.00  0.00     0.000 C 
BRANCH  13  14
ATOM     14  C   UNL     1      19.654  -0.140  40.643  1.00  0.00     0.000 C 
BRANCH  14  15
ATOM     15  C   UNL     1      19.841  -1.434  41.456  1.00  0.00     0.000 C 
BRANCH  15  16
ATOM     16  C   UNL     1      19.050  -1.428  42.775  1.00  0.00     0.006 C 
BRANCH  16  17
ATOM     17  C   UNL     1      19.967  -1.520  44.002  1.00  0.00     0.053 C 
BRANCH  17  18
ATOM     18  C   UNL     1      20.213  -2.941  44.410  1.00  0.00     0.041 C 
ATOM     19  O   UNL     1      21.390  -3.366  44.544  1.00  0.00    -0.550 OA
ATOM     20  O   UNL     1      19.141  -3.785  44.672  1.00  0.00    -0.550 OA
ENDBRANCH  17  18
ENDBRANCH  16  17
ENDBRANCH  15  16
ENDBRANCH  14  15
ENDBRANCH  13  14
ENDBRANCH  12  13
ENDBRANCH  11  12
ENDBRANCH   1  11
TORSDOF 15
ENDMDL
MODEL 5
REMARK VINA RESULT:    -3.313      1.266      6.745
REMARK INTER + INTRA:          -8.233
REMARK INTER:                  -5.791
REMARK INTRA:                  -2.442
REMARK UNBOUND:                -2.015
REMARK SMILES O=C([O-])CCCCCCCCCCCCCCC(=O)[O-]
REMARK SMILES IDX 10 1 9 2 8 3 7 4 6 5 5 6 4 7 2 8 1 9 3 10 11 11 12 12 13 13
REMARK SMILES IDX 14 14 15 15 16 16 17 17 18 18 19 19 20 20
REMARK H PARENT
REMARK Flexibility Score: inf
ROOT
ATOM      1  C   UNL     1      20.611   2.207  42.381  1.00  0.00     0.000 C 
ENDROOT
BRANCH   1   2
ATOM      2  C   UNL     1      20.779   1.235  41.202  1.00  0.00     0.000 C 
BRANCH   2   3
ATOM      3  C   UNL     1      19.441   0.861  40.546  1.00  0.00     0.000 C 
BRANCH   3   4
ATOM      4  C   UNL     1      19.364  -0.650  40.280  1.00  0.00     0.000 C 
BRANCH   4   5
ATOM      5  C   UNL     1      20.079  -1.480  41.358  1.00  0.00     0.000 C 
BRANCH   5   6
ATOM      6  C   UNL     1      19.144  -1.889  42.508  1.00  0.00     0.006 C 
BRANCH   6   7
ATOM      7  C   UNL     1      19.913  -2.182  43.803  1.00  0.00     0.053 C 
BRANCH   7   8
ATOM      8  C   UNL     1      19.947  -3.648  44.110  1.00  0.00     0.041 C 
ATOM      9  O   UNL     1      19.802  -4.052  45.294  1.00  0.00    -0.550 OA
ATOM     10  O   UNL     1      20.168  -4.566  43.091  1.00  0.00    -0.550 OA
ENDBRANCH   7   8
ENDBRANCH   6   7
ENDBRANCH   5   6
ENDBRANCH   4   5
ENDBRANCH   3   4
ENDBRANCH   2   3
ENDBRANCH   1   2
BRANCH   1  11
ATOM     11  C   UNL     1      19.966   1.541  43.609  1.00  0.00     0.000 C 
BRANCH  11  12
ATOM     12  C   UNL     1      18.571   2.107  43.930  1.00  0.00     0.000 C 
BRANCH  12  13
ATOM     13  C   UNL     1      17.395   1.154  43.636  1.00  0.00     0.000 C 
BRANCH  13  14
ATOM     14  C   UNL     1      16.381   1.664  42.591  1.00  0.00     0.000 C 
BRANCH  14  15
ATOM     15  C   UNL     1      16.728   3.025  41.960  1.00  0.00     0.000 C 
BRANCH  15  16
ATOM     16  C   UNL     1      16.483   3.056  40.441  1.00  0.00     0.006 C 
BRANCH  16  17
ATOM     17  C   UNL     1      15.817   1.770  39.935  1.00  0.00     0.053 C 
BRANCH  17  18
ATOM     18  C   UNL     1      16.324   1.374  38.582  1.00  0.00     0.041 C 
ATOM     19  O   UNL     1      16.026   0.251  38.098  1.00  0.00    -0.550 OA
ATOM     20  O   UNL     1      17.100   2.258  37.842  1.00  0.00    -0.550 OA
ENDBRANCH  17  18
ENDBRANCH  16  17
ENDBRANCH  15  16
ENDBRANCH  14  15
ENDBRANCH  13  14
ENDBRANCH  12  13
ENDBRANCH  11  12
ENDBRANCH   1  11
TORSDOF 15
ENDMDL
MODEL 6
REMARK VINA RESULT:    -3.288      2.546      6.005
REMARK INTER + INTRA:          -8.186
REMARK INTER:                  -6.457
REMARK INTRA:                  -1.730
REMARK UNBOUND:                -2.015
REMARK SMILES O=C([O-])CCCCCCCCCCCCCCC(=O)[O-]
REMARK SMILES IDX 10 1 9 2 8 3 7 4 6 5 5 6 4 7 2 8 1 9 3 10 11 11 12 12 13 13
REMARK SMILES IDX 14 14 15 15 16 16 17 17 18 18 19 19 20 20
REMARK H PARENT
REMARK Flexibility Score: inf
ROOT
ATOM      1  C   UNL     1      19.512   1.563  44.317  1.00  0.00     0.000 C 
ENDROOT
BRANCH   1   2
ATOM      2  C   UNL     1      19.950   0.727  43.103  1.00  0.00     0.000 C 
BRANCH   2   3
ATOM      3  C   UNL     1      20.473   1.592  41.945  1.00  0.00     0.000 C 
BRANCH   3   4
ATOM      4  C   UNL     1      19.790   1.209  40.624  1.00  0.00     0.000 C 
BRANCH   4   5
ATOM      5  C   UNL     1      20.718   0.429  39.679  1.00  0.00     0.000 C 
BRANCH   5   6
ATOM      6  C   UNL     1      20.621  -1.093  39.876  1.00  0.00     0.006 C 
BRANCH   6   7
ATOM      7  C   UNL     1      19.190  -1.545  40.196  1.00  0.00     0.053 C 
BRANCH   7   8
ATOM      8  C   UNL     1      18.423  -1.887  38.955  1.00  0.00     0.041 C 
ATOM      9  O   UNL     1      18.443  -3.061  38.501  1.00  0.00    -0.550 OA
ATOM     10  O   UNL     1      17.711  -0.900  38.285  1.00  0.00    -0.550 OA
ENDBRANCH   7   8
ENDBRANCH   6   7
ENDBRANCH   5   6
ENDBRANCH   4   5
ENDBRANCH   3   4
ENDBRANCH   2   3
ENDBRANCH   1   2
BRANCH   1  11
ATOM     11  C   UNL     1      18.260   2.409  44.030  1.00  0.00     0.000 C 
BRANCH  11  12
ATOM     12  C   UNL     1      17.027   1.554  43.686  1.00  0.00     0.000 C 
BRANCH  12  13
ATOM     13  C   UNL     1      16.471   1.752  42.261  1.00  0.00     0.000 C 
BRANCH  13  14
ATOM     14  C   UNL     1      16.771   3.125  41.624  1.00  0.00     0.000 C 
BRANCH  14  15
ATOM     15  C   UNL     1      15.997   3.424  40.327  1.00  0.00     0.000 C 
BRANCH  15  16
ATOM     16  C   UNL     1      15.791   2.173  39.455  1.00  0.00     0.006 C 
BRANCH  16  17
ATOM     17  C   UNL     1      14.695   2.377  38.401  1.00  0.00     0.053 C 
BRANCH  17  18
ATOM     18  C   UNL     1      14.139   1.073  37.915  1.00  0.00     0.041 C 
ATOM     19  O   UNL     1      13.024   0.666  38.333  1.00  0.00    -0.550 OA
ATOM     20  O   UNL     1      14.837   0.324  36.976  1.00  0.00    -0.550 OA
ENDBRANCH  17  18
ENDBRANCH  16  17
ENDBRANCH  15  16
ENDBRANCH  14  15
ENDBRANCH  13  14
ENDBRANCH  12  13
ENDBRANCH  11  12
ENDBRANCH   1  11
TORSDOF 15
ENDMDL
MODEL 7
REMARK VINA RESULT:    -3.271      2.400      6.978
REMARK INTER + INTRA:          -8.155
REMARK INTER:                  -5.559
REMARK INTRA:                  -2.596
REMARK UNBOUND:                -2.015
REMARK SMILES O=C([O-])CCCCCCCCCCCCCCC(=O)[O-]
REMARK SMILES IDX 10 1 9 2 8 3 7 4 6 5 5 6 4 7 2 8 1 9 3 10 11 11 12 12 13 13
REMARK SMILES IDX 14 14 15 15 16 16 17 17 18 18 19 19 20 20
REMARK H PARENT
REMARK Flexibility Score: inf
ROOT
ATOM      1  C   UNL     1      18.783   3.886  39.337  1.00  0.00     0.000 C 
ENDROOT
BRANCH   1   2
ATOM      2  C   UNL     1      19.534   2.630  38.865  1.00  0.00     0.000 C 
BRANCH   2   3
ATOM      3  C   UNL     1      20.171   1.848  40.025  1.00  0.00     0.000 C 
BRANCH   3   4
ATOM      4  C   UNL     1      19.543   0.452  40.154  1.00  0.00     0.000 C 
BRANCH   4   5
ATOM      5  C   UNL     1      19.376   0.008  41.616  1.00  0.00     0.000 C 
BRANCH   5   6
ATOM      6  C   UNL     1      20.018   0.990  42.611  1.00  0.00     0.006 C 
BRANCH   6   7
ATOM      7  C   UNL     1      19.433   0.849  44.023  1.00  0.00     0.053 C 
BRANCH   7   8
ATOM      8  C   UNL     1      18.205   1.688  44.203  1.00  0.00     0.041 C 
ATOM      9  O   UNL     1      18.294   2.944  44.230  1.00  0.00    -0.550 OA
ATOM     10  O   UNL     1      16.967   1.080  44.369  1.00  0.00    -0.550 OA
ENDBRANCH   7   8
ENDBRANCH   6   7
ENDBRANCH   5   6
ENDBRANCH   4   5
ENDBRANCH   3   4
ENDBRANCH   2   3
ENDBRANCH   1   2
BRANCH   1  11
ATOM     11  C   UNL     1      18.327   3.785  40.803  1.00  0.00     0.000 C 
BRANCH  11  12
ATOM     12  C   UNL     1      16.805   3.599  40.943  1.00  0.00     0.000 C 
BRANCH  12  13
ATOM     13  C   UNL     1      16.327   2.133  40.982  1.00  0.00     0.000 C 
BRANCH  13  14
ATOM     14  C   UNL     1      15.979   1.519  39.610  1.00  0.00     0.000 C 
BRANCH  14  15
ATOM     15  C   UNL     1      15.301   2.483  38.620  1.00  0.00     0.000 C 
BRANCH  15  16
ATOM     16  C   UNL     1      16.022   2.547  37.262  1.00  0.00     0.006 C 
BRANCH  16  17
ATOM     17  C   UNL     1      16.543   1.174  36.818  1.00  0.00     0.053 C 
BRANCH  17  18
ATOM     18  C   UNL     1      15.750   0.619  35.675  1.00  0.00     0.041 C 
ATOM     19  O   UNL     1      15.057  -0.420  35.831  1.00  0.00    -0.550 OA
ATOM     20  O   UNL     1      15.753   1.267  34.446  1.00  0.00    -0.550 OA
ENDBRANCH  17  18
ENDBRANCH  16  17
ENDBRANCH  15  16
ENDBRANCH  14  15
ENDBRANCH  13  14
ENDBRANCH  12  13
ENDBRANCH  11  12
ENDBRANCH   1  11
TORSDOF 15
ENDMDL
MODEL 8
REMARK VINA RESULT:    -3.261      3.776      5.691
REMARK INTER + INTRA:          -8.135
REMARK INTER:                  -6.358
REMARK INTRA:                  -1.777
REMARK UNBOUND:                -2.015
REMARK SMILES O=C([O-])CCCCCCCCCCCCCCC(=O)[O-]
REMARK SMILES IDX 10 1 9 2 8 3 7 4 6 5 5 6 4 7 2 8 1 9 3 10 11 11 12 12 13 13
REMARK SMILES IDX 14 14 15 15 16 16 17 17 18 18 19 19 20 20
REMARK H PARENT
REMARK Flexibility Score: inf
ROOT
ATOM      1  C   UNL     1      20.123   2.067  42.598  1.00  0.00     0.000 C 
ENDROOT
BRANCH   1   2
ATOM      2  C   UNL     1      19.070   2.602  41.614  1.00  0.00     0.000 C 
BRANCH   2   3
ATOM      3  C   UNL     1      18.177   1.491  41.040  1.00  0.00     0.000 C 
BRANCH   3   4
ATOM      4  C   UNL     1      16.692   1.867  41.156  1.00  0.00     0.000 C 
BRANCH   4   5
ATOM      5  C   UNL     1      16.321   3.093  40.307  1.00  0.00     0.000 C 
BRANCH   5   6
ATOM      6  C   UNL     1      15.617   2.714  38.993  1.00  0.00     0.006 C 
BRANCH   6   7
ATOM      7  C   UNL     1      15.270   1.220  38.933  1.00  0.00     0.053 C 
BRANCH   7   8
ATOM      8  C   UNL     1      14.242   0.931  37.882  1.00  0.00     0.041 C 
ATOM      9  O   UNL     1      14.597   0.551  36.735  1.00  0.00    -0.550 OA
ATOM     10  O   UNL     1      12.893   1.109  38.162  1.00  0.00    -0.550 OA
ENDBRANCH   7   8
ENDBRANCH   6   7
ENDBRANCH   5   6
ENDBRANCH   4   5
ENDBRANCH   3   4
ENDBRANCH   2   3
ENDBRANCH   1   2
BRANCH   1  11
ATOM     11  C   UNL     1      19.494   1.419  43.843  1.00  0.00     0.000 C 
BRANCH  11  12
ATOM     12  C   UNL     1      19.635   2.289  45.105  1.00  0.00     0.000 C 
BRANCH  12  13
ATOM     13  C   UNL     1      18.531   3.349  45.296  1.00  0.00     0.000 C 
BRANCH  13  14
ATOM     14  C   UNL     1      17.144   2.959  44.745  1.00  0.00     0.000 C 
BRANCH  14  15
ATOM     15  C   UNL     1      16.420   4.069  43.962  1.00  0.00     0.000 C 
BRANCH  15  16
ATOM     16  C   UNL     1      17.162   5.416  44.014  1.00  0.00     0.006 C 
BRANCH  16  17
ATOM     17  C   UNL     1      16.733   6.357  42.881  1.00  0.00     0.053 C 
BRANCH  17  18
ATOM     18  C   UNL     1      17.891   6.758  42.019  1.00  0.00     0.041 C 
ATOM     19  O   UNL     1      18.443   7.877  42.181  1.00  0.00    -0.550 OA
ATOM     20  O   UNL     1      18.379   5.882  41.057  1.00  0.00    -0.550 OA
ENDBRANCH  17  18
ENDBRANCH  16  17
ENDBRANCH  15  16
ENDBRANCH  14  15
ENDBRANCH  13  14
ENDBRANCH  12  13
ENDBRANCH  11  12
ENDBRANCH   1  11
TORSDOF 15
ENDMDL
MODEL 9
REMARK VINA RESULT:    -3.236      3.595      6.500
REMARK INTER + INTRA:          -8.088
REMARK INTER:                  -6.053
REMARK INTRA:                  -2.035
REMARK UNBOUND:                -2.015
REMARK SMILES O=C([O-])CCCCCCCCCCCCCCC(=O)[O-]
REMARK SMILES IDX 10 1 9 2 8 3 7 4 6 5 5 6 4 7 2 8 1 9 3 10 11 11 12 12 13 13
REMARK SMILES IDX 14 14 15 15 16 16 17 17 18 18 19 19 20 20
REMARK H PARENT
REMARK Flexibility Score: inf
ROOT
ATOM      1  C   UNL     1      20.140   1.833  42.035  1.00  0.00     0.000 C 
ENDROOT
BRANCH   1   2
ATOM      2  C   UNL     1      19.996   1.045  43.347  1.00  0.00     0.000 C 
BRANCH   2   3
ATOM      3  C   UNL     1      18.715   1.405  44.117  1.00  0.00     0.000 C 
BRANCH   3   4
ATOM      4  C   UNL     1      17.466   0.956  43.343  1.00  0.00     0.000 C 
BRANCH   4   5
ATOM      5  C   UNL     1      16.389   2.049  43.268  1.00  0.00     0.000 C 
BRANCH   5   6
ATOM      6  C   UNL     1      16.975   3.468  43.369  1.00  0.00     0.006 C 
BRANCH   6   7
ATOM      7  C   UNL     1      16.268   4.454  42.429  1.00  0.00     0.053 C 
BRANCH   7   8
ATOM      8  C   UNL     1      15.398   5.413  43.183  1.00  0.00     0.041 C 
ATOM      9  O   UNL     1      15.009   6.479  42.637  1.00  0.00    -0.550 OA
ATOM     10  O   UNL     1      15.043   5.143  44.498  1.00  0.00    -0.550 OA
ENDBRANCH   7   8
ENDBRANCH   6   7
ENDBRANCH   5   6
ENDBRANCH   4   5
ENDBRANCH   3   4
ENDBRANCH   2   3
ENDBRANCH   1   2
BRANCH   1  11
ATOM     11  C   UNL     1      20.190   0.919  40.799  1.00  0.00     0.000 C 
BRANCH  11  12
ATOM     12  C   UNL     1      19.128   1.281  39.745  1.00  0.00     0.000 C 
BRANCH  12  13
ATOM     13  C   UNL     1      18.366   2.595  40.009  1.00  0.00     0.000 C 
BRANCH  13  14
ATOM     14  C   UNL     1      17.098   2.803  39.155  1.00  0.00     0.000 C 
BRANCH  14  15
ATOM     15  C   UNL     1      15.907   1.903  39.532  1.00  0.00     0.000 C 
BRANCH  15  16
ATOM     16  C   UNL     1      14.736   2.019  38.540  1.00  0.00     0.006 C 
BRANCH  16  17
ATOM     17  C   UNL     1      14.484   0.706  37.787  1.00  0.00     0.053 C 
BRANCH  17  18
ATOM     18  C   UNL     1      15.063   0.734  36.405  1.00  0.00     0.041 C 
ATOM     19  O   UNL     1      15.538   1.803  35.940  1.00  0.00    -0.550 OA
ATOM     20  O   UNL     1      15.106  -0.427  35.644  1.00  0.00    -0.550 OA
ENDBRANCH  17  18
ENDBRANCH  16  17
ENDBRANCH  15  16
ENDBRANCH  14  15
ENDBRANCH  13  14
ENDBRANCH  12  13
ENDBRANCH  11  12
ENDBRANCH   1  11
TORSDOF 15
ENDMDL
