MODEL 1
REMARK VINA RESULT:    -3.689      0.000      0.000
REMARK INTER + INTRA:          -8.929
REMARK INTER:                  -6.709
REMARK INTRA:                  -2.220
REMARK UNBOUND:                -2.220
REMARK SMILES CCCCCCCCCCCCCCCC(=O)[O-]
REMARK SMILES IDX 9 1 10 2 11 3 12 4 13 5 14 6 15 7 16 8 17 9 18 10 8 11 7 12
REMARK SMILES IDX 6 13 5 14 4 15 3 16 2 17 1 18
REMARK H PARENT
REMARK Flexibility Score: inf
ROOT
ATOM      1  C   UNL     1      34.876 -48.419 -17.631  1.00  0.00     0.000 C 
ENDROOT
BRANCH   1   2
ATOM      2  C   UNL     1      35.907 -47.440 -18.204  1.00  0.00     0.000 C 
BRANCH   2   3
ATOM      3  C   UNL     1      36.391 -46.458 -17.130  1.00  0.00     0.000 C 
BRANCH   3   4
ATOM      4  C   UNL     1      37.434 -45.487 -17.702  1.00  0.00     0.000 C 
BRANCH   4   5
ATOM      5  C   UNL     1      37.336 -45.342 -19.228  1.00  0.00     0.000 C 
BRANCH   5   6
ATOM      6  C   UNL     1      38.642 -45.721 -19.945  1.00  0.00     0.006 C 
BRANCH   6   7
ATOM      7  C   UNL     1      38.942 -47.215 -19.780  1.00  0.00     0.053 C 
BRANCH   7   8
ATOM      8  C   UNL     1      38.711 -47.940 -21.069  1.00  0.00     0.041 C 
ATOM      9  O   UNL     1      38.006 -47.418 -21.972  1.00  0.00    -0.550 OA
ATOM     10  O   UNL     1      39.316 -49.170 -21.292  1.00  0.00    -0.550 OA
ENDBRANCH   7   8
ENDBRANCH   6   7
ENDBRANCH   5   6
ENDBRANCH   4   5
ENDBRANCH   3   4
ENDBRANCH   2   3
ENDBRANCH   1   2
BRANCH   1  11
ATOM     11  C   UNL     1      34.944 -48.456 -16.099  1.00  0.00     0.000 C 
BRANCH  11  12
ATOM     12  C   UNL     1      34.921 -49.899 -15.581  1.00  0.00    -0.000 C 
BRANCH  12  13
ATOM     13  C   UNL     1      35.262 -50.891 -16.703  1.00  0.00    -0.000 C 
BRANCH  13  14
ATOM     14  C   UNL     1      36.409 -51.842 -16.328  1.00  0.00    -0.000 C 
BRANCH  14  15
ATOM     15  C   UNL     1      37.491 -51.922 -17.419  1.00  0.00    -0.000 C 
BRANCH  15  16
ATOM     16  C   UNL     1      37.899 -50.537 -17.947  1.00  0.00    -0.000 C 
BRANCH  16  17
ATOM     17  C   UNL     1      39.140 -49.974 -17.237  1.00  0.00    -0.003 C 
ATOM     18  C   UNL     1      38.745 -48.982 -16.148  1.00  0.00     0.004 C 
ENDBRANCH  16  17
ENDBRANCH  15  16
ENDBRANCH  14  15
ENDBRANCH  13  14
ENDBRANCH  12  13
ENDBRANCH  11  12
ENDBRANCH   1  11
TORSDOF 14
ENDMDL
MODEL 2
REMARK VINA RESULT:    -3.673     13.542     16.008
REMARK INTER + INTRA:          -8.900
REMARK INTER:                  -6.957
REMARK INTRA:                  -1.943
REMARK UNBOUND:                -2.220
REMARK SMILES CCCCCCCCCCCCCCCC(=O)[O-]
REMARK SMILES IDX 9 1 10 2 11 3 12 4 13 5 14 6 15 7 16 8 17 9 18 10 8 11 7 12
REMARK SMILES IDX 6 13 5 14 4 15 3 16 2 17 1 18
REMARK H PARENT
REMARK Flexibility Score: inf
ROOT
ATOM      1  C   UNL     1      51.888 -51.775  -8.877  1.00  0.00     0.000 C 
ENDROOT
BRANCH   1   2
ATOM      2  C   UNL     1      53.301 -51.407  -9.342  1.00  0.00     0.000 C 
BRANCH   2   3
ATOM      3  C   UNL     1      53.385 -51.370 -10.873  1.00  0.00     0.000 C 
BRANCH   3   4
ATOM      4  C   UNL     1      51.984 -51.316 -11.500  1.00  0.00     0.000 C 
BRANCH   4   5
ATOM      5  C   UNL     1      51.887 -50.300 -12.648  1.00  0.00     0.000 C 
BRANCH   5   6
ATOM      6  C   UNL     1      50.435 -49.944 -13.002  1.00  0.00     0.006 C 
BRANCH   6   7
ATOM      7  C   UNL     1      49.663 -51.187 -13.458  1.00  0.00     0.053 C 
BRANCH   7   8
ATOM      8  C   UNL     1      48.407 -50.791 -14.170  1.00  0.00     0.041 C 
ATOM      9  O   UNL     1      48.461 -50.045 -15.183  1.00  0.00    -0.550 OA
ATOM     10  O   UNL     1      47.181 -51.286 -13.744  1.00  0.00    -0.550 OA
ENDBRANCH   7   8
ENDBRANCH   6   7
ENDBRANCH   5   6
ENDBRANCH   4   5
ENDBRANCH   3   4
ENDBRANCH   2   3
ENDBRANCH   1   2
BRANCH   1  11
ATOM     11  C   UNL     1      51.333 -50.717  -7.914  1.00  0.00     0.000 C 
BRANCH  11  12
ATOM     12  C   UNL     1      52.046 -49.373  -8.101  1.00  0.00    -0.000 C 
BRANCH  12  13
ATOM     13  C   UNL     1      51.210 -48.423  -8.973  1.00  0.00    -0.000 C 
BRANCH  13  14
ATOM     14  C   UNL     1      52.056 -47.666 -10.008  1.00  0.00    -0.000 C 
BRANCH  14  15
ATOM     15  C   UNL     1      51.197 -46.859 -10.997  1.00  0.00    -0.000 C 
BRANCH  15  16
ATOM     16  C   UNL     1      49.690 -47.051 -10.761  1.00  0.00    -0.000 C 
BRANCH  16  17
ATOM     17  C   UNL     1      48.956 -45.725 -10.508  1.00  0.00    -0.003 C 
ATOM     18  C   UNL     1      49.912 -44.663  -9.975  1.00  0.00     0.004 C 
ENDBRANCH  16  17
ENDBRANCH  15  16
ENDBRANCH  14  15
ENDBRANCH  13  14
ENDBRANCH  12  13
ENDBRANCH  11  12
ENDBRANCH   1  11
TORSDOF 14
ENDMDL
MODEL 3
REMARK VINA RESULT:    -3.579     13.057     15.180
REMARK INTER + INTRA:          -8.729
REMARK INTER:                  -6.810
REMARK INTRA:                  -1.919
REMARK UNBOUND:                -2.220
REMARK SMILES CCCCCCCCCCCCCCCC(=O)[O-]
REMARK SMILES IDX 9 1 10 2 11 3 12 4 13 5 14 6 15 7 16 8 17 9 18 10 8 11 7 12
REMARK SMILES IDX 6 13 5 14 4 15 3 16 2 17 1 18
REMARK H PARENT
REMARK Flexibility Score: inf
ROOT
ATOM      1  C   UNL     1      52.114 -47.792 -10.014  1.00  0.00     0.000 C 
ENDROOT
BRANCH   1   2
ATOM      2  C   UNL     1      51.225 -47.016 -10.991  1.00  0.00     0.000 C 
BRANCH   2   3
ATOM      3  C   UNL     1      49.758 -47.445 -10.861  1.00  0.00     0.000 C 
BRANCH   3   4
ATOM      4  C   UNL     1      48.966 -47.085 -12.127  1.00  0.00     0.000 C 
BRANCH   4   5
ATOM      5  C   UNL     1      48.690 -48.305 -13.020  1.00  0.00     0.000 C 
BRANCH   5   6
ATOM      6  C   UNL     1      47.195 -48.491 -13.324  1.00  0.00     0.006 C 
BRANCH   6   7
ATOM      7  C   UNL     1      46.746 -49.920 -13.004  1.00  0.00     0.053 C 
BRANCH   7   8
ATOM      8  C   UNL     1      47.438 -50.899 -13.899  1.00  0.00     0.041 C 
ATOM      9  O   UNL     1      47.312 -50.815 -15.149  1.00  0.00    -0.550 OA
ATOM     10  O   UNL     1      48.263 -51.875 -13.354  1.00  0.00    -0.550 OA
ENDBRANCH   7   8
ENDBRANCH   6   7
ENDBRANCH   5   6
ENDBRANCH   4   5
ENDBRANCH   3   4
ENDBRANCH   2   3
ENDBRANCH   1   2
BRANCH   1  11
ATOM     11  C   UNL     1      51.280 -48.416  -8.887  1.00  0.00     0.000 C 
BRANCH  11  12
ATOM     12  C   UNL     1      52.106 -49.428  -8.085  1.00  0.00    -0.000 C 
BRANCH  12  13
ATOM     13  C   UNL     1      51.386 -50.783  -8.002  1.00  0.00    -0.000 C 
BRANCH  13  14
ATOM     14  C   UNL     1      52.045 -51.862  -8.875  1.00  0.00    -0.000 C 
BRANCH  14  15
ATOM     15  C   UNL     1      53.325 -51.361  -9.567  1.00  0.00    -0.000 C 
BRANCH  15  16
ATOM     16  C   UNL     1      53.201 -51.350 -11.100  1.00  0.00    -0.000 C 
BRANCH  16  17
ATOM     17  C   UNL     1      51.751 -51.178 -11.576  1.00  0.00    -0.003 C 
ATOM     18  C   UNL     1      51.682 -50.278 -12.806  1.00  0.00     0.004 C 
ENDBRANCH  16  17
ENDBRANCH  15  16
ENDBRANCH  14  15
ENDBRANCH  13  14
ENDBRANCH  12  13
ENDBRANCH  11  12
ENDBRANCH   1  11
TORSDOF 14
ENDMDL
MODEL 4
REMARK VINA RESULT:    -3.557      2.725      5.358
REMARK INTER + INTRA:          -8.689
REMARK INTER:                  -6.730
REMARK INTRA:                  -1.959
REMARK UNBOUND:                -2.220
REMARK SMILES CCCCCCCCCCCCCCCC(=O)[O-]
REMARK SMILES IDX 9 1 10 2 11 3 12 4 13 5 14 6 15 7 16 8 17 9 18 10 8 11 7 12
REMARK SMILES IDX 6 13 5 14 4 15 3 16 2 17 1 18
REMARK H PARENT
REMARK Flexibility Score: inf
ROOT
ATOM      1  C   UNL     1      37.269 -46.092 -18.208  1.00  0.00     0.000 C 
ENDROOT
BRANCH   1   2
ATOM      2  C   UNL     1      36.342 -46.814 -17.224  1.00  0.00     0.000 C 
BRANCH   2   3
ATOM      3  C   UNL     1      35.577 -47.948 -17.918  1.00  0.00     0.000 C 
BRANCH   3   4
ATOM      4  C   UNL     1      35.099 -48.994 -16.900  1.00  0.00     0.000 C 
BRANCH   4   5
ATOM      5  C   UNL     1      35.710 -50.382 -17.145  1.00  0.00     0.000 C 
BRANCH   5   6
ATOM      6  C   UNL     1      36.487 -50.910 -15.929  1.00  0.00     0.006 C 
BRANCH   6   7
ATOM      7  C   UNL     1      36.361 -49.952 -14.741  1.00  0.00     0.053 C 
BRANCH   7   8
ATOM      8  C   UNL     1      37.709 -49.452 -14.326  1.00  0.00     0.041 C 
ATOM      9  O   UNL     1      38.115 -49.627 -13.147  1.00  0.00    -0.550 OA
ATOM     10  O   UNL     1      38.538 -48.836 -15.255  1.00  0.00    -0.550 OA
ENDBRANCH   7   8
ENDBRANCH   6   7
ENDBRANCH   5   6
ENDBRANCH   4   5
ENDBRANCH   3   4
ENDBRANCH   2   3
ENDBRANCH   1   2
BRANCH   1  11
ATOM     11  C   UNL     1      36.931 -46.465 -19.658  1.00  0.00     0.000 C 
BRANCH  11  12
ATOM     12  C   UNL     1      38.191 -46.480 -20.531  1.00  0.00    -0.000 C 
BRANCH  12  13
ATOM     13  C   UNL     1      38.155 -47.650 -21.527  1.00  0.00    -0.000 C 
BRANCH  13  14
ATOM     14  C   UNL     1      39.109 -48.791 -21.139  1.00  0.00    -0.000 C 
BRANCH  14  15
ATOM     15  C   UNL     1      39.750 -48.580 -19.756  1.00  0.00    -0.000 C 
BRANCH  15  16
ATOM     16  C   UNL     1      39.052 -49.392 -18.652  1.00  0.00    -0.000 C 
BRANCH  16  17
ATOM     17  C   UNL     1      38.940 -50.885 -18.995  1.00  0.00    -0.003 C 
ATOM     18  C   UNL     1      40.226 -51.627 -18.644  1.00  0.00     0.004 C 
ENDBRANCH  16  17
ENDBRANCH  15  16
ENDBRANCH  14  15
ENDBRANCH  13  14
ENDBRANCH  12  13
ENDBRANCH  11  12
ENDBRANCH   1  11
TORSDOF 14
ENDMDL
MODEL 5
REMARK VINA RESULT:    -3.551      3.024      5.269
REMARK INTER + INTRA:          -8.677
REMARK INTER:                  -6.340
REMARK INTRA:                  -2.337
REMARK UNBOUND:                -2.220
REMARK SMILES CCCCCCCCCCCCCCCC(=O)[O-]
REMARK SMILES IDX 9 1 10 2 11 3 12 4 13 5 14 6 15 7 16 8 17 9 18 10 8 11 7 12
REMARK SMILES IDX 6 13 5 14 4 15 3 16 2 17 1 18
REMARK H PARENT
REMARK Flexibility Score: inf
ROOT
ATOM      1  C   UNL     1      36.222 -51.246 -17.169  1.00  0.00     0.000 C 
ENDROOT
BRANCH   1   2
ATOM      2  C   UNL     1      37.638 -51.744 -17.480  1.00  0.00     0.000 C 
BRANCH   2   3
ATOM      3  C   UNL     1      38.486 -50.634 -18.113  1.00  0.00     0.000 C 
BRANCH   3   4
ATOM      4  C   UNL     1      39.489 -50.062 -17.099  1.00  0.00     0.000 C 
BRANCH   4   5
ATOM      5  C   UNL     1      39.487 -48.526 -17.065  1.00  0.00     0.000 C 
BRANCH   5   6
ATOM      6  C   UNL     1      39.865 -47.964 -15.686  1.00  0.00     0.006 C 
BRANCH   6   7
ATOM      7  C   UNL     1      38.736 -48.188 -14.675  1.00  0.00     0.053 C 
BRANCH   7   8
ATOM      8  C   UNL     1      39.234 -48.968 -13.499  1.00  0.00     0.041 C 
ATOM      9  O   UNL     1      40.467 -49.020 -13.248  1.00  0.00    -0.550 OA
ATOM     10  O   UNL     1      38.332 -49.598 -12.651  1.00  0.00    -0.550 OA
ENDBRANCH   7   8
ENDBRANCH   6   7
ENDBRANCH   5   6
ENDBRANCH   4   5
ENDBRANCH   3   4
ENDBRANCH   2   3
ENDBRANCH   1   2
BRANCH   1  11
ATOM     11  C   UNL     1      36.131 -50.708 -15.735  1.00  0.00     0.000 C 
BRANCH  11  12
ATOM     12  C   UNL     1      35.419 -49.350 -15.700  1.00  0.00    -0.000 C 
BRANCH  12  13
ATOM     13  C   UNL     1      35.246 -48.784 -17.118  1.00  0.00    -0.000 C 
BRANCH  13  14
ATOM     14  C   UNL     1      36.017 -47.471 -17.332  1.00  0.00    -0.000 C 
BRANCH  14  15
ATOM     15  C   UNL     1      36.454 -47.275 -18.794  1.00  0.00    -0.000 C 
BRANCH  15  16
ATOM     16  C   UNL     1      37.355 -46.043 -18.980  1.00  0.00    -0.000 C 
BRANCH  16  17
ATOM     17  C   UNL     1      38.447 -46.261 -20.038  1.00  0.00    -0.003 C 
ATOM     18  C   UNL     1      37.965 -47.203 -21.137  1.00  0.00     0.004 C 
ENDBRANCH  16  17
ENDBRANCH  15  16
ENDBRANCH  14  15
ENDBRANCH  13  14
ENDBRANCH  12  13
ENDBRANCH  11  12
ENDBRANCH   1  11
TORSDOF 14
ENDMDL
MODEL 6
REMARK VINA RESULT:    -3.515     15.228     16.996
REMARK INTER + INTRA:          -8.612
REMARK INTER:                  -7.013
REMARK INTRA:                  -1.599
REMARK UNBOUND:                -2.220
REMARK SMILES CCCCCCCCCCCCCCCC(=O)[O-]
REMARK SMILES IDX 9 1 10 2 11 3 12 4 13 5 14 6 15 7 16 8 17 9 18 10 8 11 7 12
REMARK SMILES IDX 6 13 5 14 4 15 3 16 2 17 1 18
REMARK H PARENT
REMARK Flexibility Score: inf
ROOT
ATOM      1  C   UNL     1      52.146 -47.683  -9.998  1.00  0.00     0.000 C 
ENDROOT
BRANCH   1   2
ATOM      2  C   UNL     1      51.297 -46.820 -10.937  1.00  0.00     0.000 C 
BRANCH   2   3
ATOM      3  C   UNL     1      49.800 -47.064 -10.708  1.00  0.00     0.000 C 
BRANCH   3   4
ATOM      4  C   UNL     1      49.067 -45.748 -10.409  1.00  0.00     0.000 C 
BRANCH   4   5
ATOM      5  C   UNL     1      49.847 -44.840  -9.446  1.00  0.00     0.000 C 
BRANCH   5   6
ATOM      6  C   UNL     1      48.970 -43.744  -8.823  1.00  0.00     0.006 C 
BRANCH   6   7
ATOM      7  C   UNL     1      49.577 -43.236  -7.512  1.00  0.00     0.053 C 
BRANCH   7   8
ATOM      8  C   UNL     1      50.043 -41.823  -7.663  1.00  0.00     0.041 C 
ATOM      9  O   UNL     1      50.919 -41.532  -8.521  1.00  0.00    -0.550 OA
ATOM     10  O   UNL     1      49.477 -40.817  -6.890  1.00  0.00    -0.550 OA
ENDBRANCH   7   8
ENDBRANCH   6   7
ENDBRANCH   5   6
ENDBRANCH   4   5
ENDBRANCH   3   4
ENDBRANCH   2   3
ENDBRANCH   1   2
BRANCH   1  11
ATOM     11  C   UNL     1      51.277 -48.338  -8.916  1.00  0.00     0.000 C 
BRANCH  11  12
ATOM     12  C   UNL     1      52.077 -49.375  -8.119  1.00  0.00    -0.000 C 
BRANCH  12  13
ATOM     13  C   UNL     1      51.361 -50.735  -8.113  1.00  0.00    -0.000 C 
BRANCH  13  14
ATOM     14  C   UNL     1      52.062 -51.781  -8.993  1.00  0.00    -0.000 C 
BRANCH  14  15
ATOM     15  C   UNL     1      53.305 -51.217  -9.703  1.00  0.00    -0.000 C 
BRANCH  15  16
ATOM     16  C   UNL     1      53.246 -51.398 -11.229  1.00  0.00    -0.000 C 
BRANCH  16  17
ATOM     17  C   UNL     1      51.838 -51.169 -11.799  1.00  0.00    -0.003 C 
ATOM     18  C   UNL     1      51.832 -50.018 -12.800  1.00  0.00     0.004 C 
ENDBRANCH  16  17
ENDBRANCH  15  16
ENDBRANCH  14  15
ENDBRANCH  13  14
ENDBRANCH  12  13
ENDBRANCH  11  12
ENDBRANCH   1  11
TORSDOF 14
ENDMDL
MODEL 7
REMARK VINA RESULT:    -3.512     13.571     16.130
REMARK INTER + INTRA:          -8.607
REMARK INTER:                  -6.906
REMARK INTRA:                  -1.701
REMARK UNBOUND:                -2.220
REMARK SMILES CCCCCCCCCCCCCCCC(=O)[O-]
REMARK SMILES IDX 9 1 10 2 11 3 12 4 13 5 14 6 15 7 16 8 17 9 18 10 8 11 7 12
REMARK SMILES IDX 6 13 5 14 4 15 3 16 2 17 1 18
REMARK H PARENT
REMARK Flexibility Score: inf
ROOT
ATOM      1  C   UNL     1      52.148 -49.397  -8.018  1.00  0.00     0.000 C 
ENDROOT
BRANCH   1   2
ATOM      2  C   UNL     1      51.359 -50.694  -7.808  1.00  0.00     0.000 C 
BRANCH   2   3
ATOM      3  C   UNL     1      51.736 -51.745  -8.859  1.00  0.00     0.000 C 
BRANCH   3   4
ATOM      4  C   UNL     1      53.156 -51.505  -9.393  1.00  0.00     0.000 C 
BRANCH   4   5
ATOM      5  C   UNL     1      53.187 -51.279 -10.912  1.00  0.00     0.000 C 
BRANCH   5   6
ATOM      6  C   UNL     1      51.782 -51.213 -11.531  1.00  0.00     0.006 C 
BRANCH   6   7
ATOM      7  C   UNL     1      51.738 -50.201 -12.680  1.00  0.00     0.053 C 
BRANCH   7   8
ATOM      8  C   UNL     1      50.339 -50.048 -13.189  1.00  0.00     0.041 C 
ATOM      9  O   UNL     1      49.848 -48.901 -13.360  1.00  0.00    -0.550 OA
ATOM     10  O   UNL     1      49.593 -51.172 -13.522  1.00  0.00    -0.550 OA
ENDBRANCH   7   8
ENDBRANCH   6   7
ENDBRANCH   5   6
ENDBRANCH   4   5
ENDBRANCH   3   4
ENDBRANCH   2   3
ENDBRANCH   1   2
BRANCH   1  11
ATOM     11  C   UNL     1      51.336 -48.384  -8.836  1.00  0.00     0.000 C 
BRANCH  11  12
ATOM     12  C   UNL     1      52.181 -47.786  -9.968  1.00  0.00    -0.000 C 
BRANCH  12  13
ATOM     13  C   UNL     1      51.340 -46.840 -10.839  1.00  0.00    -0.000 C 
BRANCH  13  14
ATOM     14  C   UNL     1      49.849 -46.853 -10.465  1.00  0.00    -0.000 C 
BRANCH  14  15
ATOM     15  C   UNL     1      49.302 -45.445 -10.174  1.00  0.00    -0.000 C 
BRANCH  15  16
ATOM     16  C   UNL     1      47.905 -45.219 -10.777  1.00  0.00    -0.000 C 
BRANCH  16  17
ATOM     17  C   UNL     1      47.162 -46.533 -11.060  1.00  0.00    -0.003 C 
ATOM     18  C   UNL     1      45.926 -46.289 -11.921  1.00  0.00     0.004 C 
ENDBRANCH  16  17
ENDBRANCH  15  16
ENDBRANCH  14  15
ENDBRANCH  13  14
ENDBRANCH  12  13
ENDBRANCH  11  12
ENDBRANCH   1  11
TORSDOF 14
ENDMDL
MODEL 8
REMARK VINA RESULT:    -3.476     13.216     15.725
REMARK INTER + INTRA:          -8.541
REMARK INTER:                  -6.613
REMARK INTRA:                  -1.929
REMARK UNBOUND:                -2.220
REMARK SMILES CCCCCCCCCCCCCCCC(=O)[O-]
REMARK SMILES IDX 9 1 10 2 11 3 12 4 13 5 14 6 15 7 16 8 17 9 18 10 8 11 7 12
REMARK SMILES IDX 6 13 5 14 4 15 3 16 2 17 1 18
REMARK H PARENT
REMARK Flexibility Score: inf
ROOT
ATOM      1  C   UNL     1      51.846 -51.329  -9.223  1.00  0.00     0.000 C 
ENDROOT
BRANCH   1   2
ATOM      2  C   UNL     1      53.138 -51.376 -10.046  1.00  0.00     0.000 C 
BRANCH   2   3
ATOM      3  C   UNL     1      52.840 -51.260 -11.547  1.00  0.00     0.000 C 
BRANCH   3   4
ATOM      4  C   UNL     1      51.363 -50.912 -11.789  1.00  0.00     0.000 C 
BRANCH   4   5
ATOM      5  C   UNL     1      50.779 -51.629 -13.015  1.00  0.00     0.000 C 
BRANCH   5   6
ATOM      6  C   UNL     1      49.671 -50.817 -13.704  1.00  0.00     0.006 C 
BRANCH   6   7
ATOM      7  C   UNL     1      48.333 -51.560 -13.648  1.00  0.00     0.053 C 
BRANCH   7   8
ATOM      8  C   UNL     1      47.211 -50.601 -13.403  1.00  0.00     0.041 C 
ATOM      9  O   UNL     1      46.031 -51.024 -13.279  1.00  0.00    -0.550 OA
ATOM     10  O   UNL     1      47.474 -49.244 -13.262  1.00  0.00    -0.550 OA
ENDBRANCH   7   8
ENDBRANCH   6   7
ENDBRANCH   5   6
ENDBRANCH   4   5
ENDBRANCH   3   4
ENDBRANCH   2   3
ENDBRANCH   1   2
BRANCH   1  11
ATOM     11  C   UNL     1      51.825 -50.102  -8.302  1.00  0.00     0.000 C 
BRANCH  11  12
ATOM     12  C   UNL     1      52.869 -49.067  -8.738  1.00  0.00    -0.000 C 
BRANCH  12  13
ATOM     13  C   UNL     1      52.230 -47.975  -9.610  1.00  0.00    -0.000 C 
BRANCH  13  14
ATOM     14  C   UNL     1      50.745 -47.749  -9.285  1.00  0.00    -0.000 C 
BRANCH  14  15
ATOM     15  C   UNL     1      49.908 -47.436 -10.538  1.00  0.00    -0.000 C 
BRANCH  15  16
ATOM     16  C   UNL     1      50.724 -46.724 -11.630  1.00  0.00    -0.000 C 
BRANCH  16  17
ATOM     17  C   UNL     1      50.497 -47.325 -13.025  1.00  0.00    -0.003 C 
ATOM     18  C   UNL     1      51.820 -47.727 -13.671  1.00  0.00     0.004 C 
ENDBRANCH  16  17
ENDBRANCH  15  16
ENDBRANCH  14  15
ENDBRANCH  13  14
ENDBRANCH  12  13
ENDBRANCH  11  12
ENDBRANCH   1  11
TORSDOF 14
ENDMDL
MODEL 9
REMARK VINA RESULT:    -3.459      3.910      5.896
REMARK INTER + INTRA:          -8.511
REMARK INTER:                  -6.174
REMARK INTRA:                  -2.337
REMARK UNBOUND:                -2.220
REMARK SMILES CCCCCCCCCCCCCCCC(=O)[O-]
REMARK SMILES IDX 9 1 10 2 11 3 12 4 13 5 14 6 15 7 16 8 17 9 18 10 8 11 7 12
REMARK SMILES IDX 6 13 5 14 4 15 3 16 2 17 1 18
REMARK H PARENT
REMARK Flexibility Score: inf
ROOT
ATOM      1  C   UNL     1      38.354 -50.851 -18.160  1.00  0.00     0.000 C 
ENDROOT
BRANCH   1   2
ATOM      2  C   UNL     1      39.149 -49.630 -17.686  1.00  0.00     0.000 C 
BRANCH   2   3
ATOM      3  C   UNL     1      39.200 -49.565 -16.154  1.00  0.00     0.000 C 
BRANCH   3   4
ATOM      4  C   UNL     1      39.331 -48.113 -15.669  1.00  0.00     0.000 C 
BRANCH   4   5
ATOM      5  C   UNL     1      38.543 -47.846 -14.378  1.00  0.00     0.000 C 
BRANCH   5   6
ATOM      6  C   UNL     1      38.786 -48.916 -13.303  1.00  0.00     0.006 C 
BRANCH   6   7
ATOM      7  C   UNL     1      40.213 -48.825 -12.754  1.00  0.00     0.053 C 
BRANCH   7   8
ATOM      8  C   UNL     1      40.276 -47.854 -11.616  1.00  0.00     0.041 C 
ATOM      9  O   UNL     1      41.387 -47.416 -11.217  1.00  0.00    -0.550 OA
ATOM     10  O   UNL     1      39.104 -47.396 -11.028  1.00  0.00    -0.550 OA
ENDBRANCH   7   8
ENDBRANCH   6   7
ENDBRANCH   5   6
ENDBRANCH   4   5
ENDBRANCH   3   4
ENDBRANCH   2   3
ENDBRANCH   1   2
BRANCH   1  11
ATOM     11  C   UNL     1      37.554 -51.469 -17.005  1.00  0.00     0.000 C 
BRANCH  11  12
ATOM     12  C   UNL     1      36.201 -51.999 -17.494  1.00  0.00    -0.000 C 
BRANCH  12  13
ATOM     13  C   UNL     1      35.045 -51.156 -16.933  1.00  0.00    -0.000 C 
BRANCH  13  14
ATOM     14  C   UNL     1      35.482 -50.243 -15.775  1.00  0.00    -0.000 C 
BRANCH  14  15
ATOM     15  C   UNL     1      35.079 -48.775 -15.996  1.00  0.00    -0.000 C 
BRANCH  15  16
ATOM     16  C   UNL     1      35.225 -48.337 -17.463  1.00  0.00    -0.000 C 
BRANCH  16  17
ATOM     17  C   UNL     1      36.256 -47.213 -17.646  1.00  0.00    -0.003 C 
ATOM     18  C   UNL     1      36.776 -47.175 -19.080  1.00  0.00     0.004 C 
ENDBRANCH  16  17
ENDBRANCH  15  16
ENDBRANCH  14  15
ENDBRANCH  13  14
ENDBRANCH  12  13
ENDBRANCH  11  12
ENDBRANCH   1  11
TORSDOF 14
ENDMDL
