MODEL 1
REMARK VINA RESULT:    -2.476      0.000      0.000
REMARK INTER + INTRA:          -3.222
REMARK INTER:                  -2.983
REMARK INTRA:                  -0.239
REMARK UNBOUND:                -0.239
REMARK SMILES NC(=O)C[C@H]([NH3+])C(=O)[O-]
REMARK SMILES IDX 4 1 5 2 6 3 7 7 8 8 9 9 2 10 3 11 1 12
REMARK H PARENT 6 4 6 5 6 6 1 13 1 14
REMARK Flexibility Score: inf
ROOT
ATOM      1  C   UNL     1      19.523  37.333 -24.057  1.00  0.00     0.171 C 
ENDROOT
BRANCH   1   2
ATOM      2  C   UNL     1      18.628  37.095 -22.825  1.00  0.00     0.237 C 
BRANCH   2   3
ATOM      3  N   UNL     1      18.458  35.658 -22.584  1.00  0.00    -0.350 N 
ATOM      4  H   UNL     1      17.746  35.268 -23.244  1.00  0.00     0.345 HD
ATOM      5  H   UNL     1      18.117  35.501 -21.607  1.00  0.00     0.345 HD
ATOM      6  H   UNL     1      19.364  35.151 -22.714  1.00  0.00     0.345 HD
ENDBRANCH   2   3
BRANCH   2   7
ATOM      7  C   UNL     1      17.280  37.750 -23.004  1.00  0.00     0.100 C 
ATOM      8  O   UNL     1      16.379  37.169 -23.666  1.00  0.00    -0.544 OA
ATOM      9  O   UNL     1      17.019  38.987 -22.429  1.00  0.00    -0.544 OA
ENDBRANCH   2   7
ENDBRANCH   1   2
BRANCH   1  10
ATOM     10  C   UNL     1      20.974  37.410 -23.680  1.00  0.00     0.223 C 
ATOM     11  O   UNL     1      21.489  36.491 -22.987  1.00  0.00    -0.275 OA
ATOM     12  N   UNL     1      21.766  38.533 -24.066  1.00  0.00    -0.369 N 
ATOM     13  H   UNL     1      21.351  39.312 -24.622  1.00  0.00     0.159 HD
ATOM     14  H   UNL     1      22.771  38.589 -23.788  1.00  0.00     0.159 HD
ENDBRANCH   1  10
TORSDOF 4
ENDMDL
MODEL 2
REMARK VINA RESULT:    -1.372      2.165      3.524
REMARK INTER + INTRA:          -1.892
REMARK INTER:                  -1.791
REMARK INTRA:                  -0.101
REMARK UNBOUND:                -0.239
REMARK SMILES NC(=O)C[C@H]([NH3+])C(=O)[O-]
REMARK SMILES IDX 4 1 5 2 6 3 7 7 8 8 9 9 2 10 3 11 1 12
REMARK H PARENT 6 4 6 5 6 6 1 13 1 14
REMARK Flexibility Score: inf
ROOT
ATOM      1  C   UNL     1      17.057  37.065 -23.742  1.00  0.00     0.171 C 
ENDROOT
BRANCH   1   2
ATOM      2  C   UNL     1      18.218  36.065 -23.904  1.00  0.00     0.237 C 
BRANCH   2   3
ATOM      3  N   UNL     1      18.116  34.994 -22.906  1.00  0.00    -0.350 N 
ATOM      4  H   UNL     1      17.290  35.163 -22.285  1.00  0.00     0.345 HD
ATOM      5  H   UNL     1      18.975  34.984 -22.308  1.00  0.00     0.345 HD
ATOM      6  H   UNL     1      18.013  34.062 -23.371  1.00  0.00     0.345 HD
ENDBRANCH   2   3
BRANCH   2   7
ATOM      7  C   UNL     1      19.550  36.761 -23.777  1.00  0.00     0.100 C 
ATOM      8  O   UNL     1      19.669  37.966 -24.124  1.00  0.00    -0.544 OA
ATOM      9  O   UNL     1      20.650  36.084 -23.265  1.00  0.00    -0.544 OA
ENDBRANCH   2   7
ENDBRANCH   1   2
BRANCH   1  10
ATOM     10  C   UNL     1      17.173  37.845 -22.464  1.00  0.00     0.223 C 
ATOM     11  O   UNL     1      17.324  37.235 -21.371  1.00  0.00    -0.275 OA
ATOM     12  N   UNL     1      17.074  39.269 -22.472  1.00  0.00    -0.369 N 
ATOM     13  H   UNL     1      16.930  39.789 -23.365  1.00  0.00     0.159 HD
ATOM     14  H   UNL     1      17.140  39.806 -21.579  1.00  0.00     0.159 HD
ENDBRANCH   1  10
TORSDOF 4
ENDMDL
MODEL 3
REMARK VINA RESULT:    -0.071      1.676      3.955
REMARK INTER + INTRA:          -0.324
REMARK INTER:                  -0.054
REMARK INTRA:                  -0.271
REMARK UNBOUND:                -0.239
REMARK SMILES NC(=O)C[C@H]([NH3+])C(=O)[O-]
REMARK SMILES IDX 4 1 5 2 6 3 7 7 8 8 9 9 2 10 3 11 1 12
REMARK H PARENT 6 4 6 5 6 6 1 13 1 14
REMARK Flexibility Score: inf
ROOT
ATOM      1  C   UNL     1      18.821  37.854 -23.773  1.00  0.00     0.171 C 
ENDROOT
BRANCH   1   2
ATOM      2  C   UNL     1      19.889  36.742 -23.772  1.00  0.00     0.237 C 
BRANCH   2   3
ATOM      3  N   UNL     1      19.566  35.722 -22.767  1.00  0.00    -0.350 N 
ATOM      4  H   UNL     1      18.633  35.297 -22.979  1.00  0.00     0.345 HD
ATOM      5  H   UNL     1      19.515  36.162 -21.819  1.00  0.00     0.345 HD
ATOM      6  H   UNL     1      20.293  34.970 -22.756  1.00  0.00     0.345 HD
ENDBRANCH   2   3
BRANCH   2   7
ATOM      7  C   UNL     1      21.259  37.312 -23.505  1.00  0.00     0.100 C 
ATOM      8  O   UNL     1      22.051  36.716 -22.727  1.00  0.00    -0.544 OA
ATOM      9  O   UNL     1      21.664  38.488 -24.125  1.00  0.00    -0.544 OA
ENDBRANCH   2   7
ENDBRANCH   1   2
BRANCH   1  10
ATOM     10  C   UNL     1      17.523  37.375 -23.189  1.00  0.00     0.223 C 
ATOM     11  O   UNL     1      17.347  37.414 -21.941  1.00  0.00    -0.275 OA
ATOM     12  N   UNL     1      16.502  36.839 -24.031  1.00  0.00    -0.369 N 
ATOM     13  H   UNL     1      16.639  36.781 -25.064  1.00  0.00     0.159 HD
ATOM     14  H   UNL     1      15.608  36.494 -23.619  1.00  0.00     0.159 HD
ENDBRANCH   1  10
TORSDOF 4
ENDMDL
MODEL 4
REMARK VINA RESULT:    -0.041     22.079     23.081
REMARK INTER + INTRA:          -0.289
REMARK INTER:                  -0.828
REMARK INTRA:                   0.539
REMARK UNBOUND:                -0.239
REMARK SMILES NC(=O)C[C@H]([NH3+])C(=O)[O-]
REMARK SMILES IDX 4 1 5 2 6 3 7 7 8 8 9 9 2 10 3 11 1 12
REMARK H PARENT 6 4 6 5 6 6 1 13 1 14
REMARK Flexibility Score: inf
ROOT
ATOM      1  C   UNL     1      13.744  52.955  -6.573  1.00  0.00     0.171 C 
ENDROOT
BRANCH   1   2
ATOM      2  C   UNL     1      14.067  52.390  -7.970  1.00  0.00     0.237 C 
BRANCH   2   3
ATOM      3  N   UNL     1      14.847  53.360  -8.747  1.00  0.00    -0.350 N 
ATOM      4  H   UNL     1      14.409  53.496  -9.688  1.00  0.00     0.345 HD
ATOM      5  H   UNL     1      15.819  53.000  -8.890  1.00  0.00     0.345 HD
ATOM      6  H   UNL     1      14.894  54.281  -8.252  1.00  0.00     0.345 HD
ENDBRANCH   2   3
BRANCH   2   7
ATOM      7  C   UNL     1      12.804  52.032  -8.711  1.00  0.00     0.100 C 
ATOM      8  O   UNL     1      12.617  50.852  -9.110  1.00  0.00    -0.544 OA
ATOM      9  O   UNL     1      11.831  52.997  -8.948  1.00  0.00    -0.544 OA
ENDBRANCH   2   7
ENDBRANCH   1   2
BRANCH   1  10
ATOM     10  C   UNL     1      13.639  54.453  -6.592  1.00  0.00     0.223 C 
ATOM     11  O   UNL     1      14.421  55.125  -7.317  1.00  0.00    -0.275 OA
ATOM     12  N   UNL     1      12.687  55.124  -5.767  1.00  0.00    -0.369 N 
ATOM     13  H   UNL     1      12.045  54.585  -5.146  1.00  0.00     0.159 HD
ATOM     14  H   UNL     1      12.628  56.167  -5.772  1.00  0.00     0.159 HD
ENDBRANCH   1  10
TORSDOF 4
ENDMDL
MODEL 5
REMARK VINA RESULT:     0.446     12.525     13.174
REMARK INTER + INTRA:           0.299
REMARK INTER:                   0.410
REMARK INTRA:                  -0.111
REMARK UNBOUND:                -0.239
REMARK SMILES NC(=O)C[C@H]([NH3+])C(=O)[O-]
REMARK SMILES IDX 4 1 5 2 6 3 7 7 8 8 9 9 2 10 3 11 1 12
REMARK H PARENT 6 4 6 5 6 6 1 13 1 14
REMARK Flexibility Score: inf
ROOT
ATOM      1  C   UNL     1      21.314  43.924 -13.761  1.00  0.00     0.171 C 
ENDROOT
BRANCH   1   2
ATOM      2  C   UNL     1      20.707  45.174 -13.096  1.00  0.00     0.237 C 
BRANCH   2   3
ATOM      3  N   UNL     1      20.287  46.145 -14.115  1.00  0.00    -0.350 N 
ATOM      4  H   UNL     1      19.880  46.991 -13.653  1.00  0.00     0.345 HD
ATOM      5  H   UNL     1      19.551  45.721 -14.725  1.00  0.00     0.345 HD
ATOM      6  H   UNL     1      21.099  46.432 -14.709  1.00  0.00     0.345 HD
ENDBRANCH   2   3
BRANCH   2   7
ATOM      7  C   UNL     1      21.692  45.814 -12.150  1.00  0.00     0.100 C 
ATOM      8  O   UNL     1      22.312  45.108 -11.311  1.00  0.00    -0.544 OA
ATOM      9  O   UNL     1      21.934  47.181 -12.208  1.00  0.00    -0.544 OA
ENDBRANCH   2   7
ENDBRANCH   1   2
BRANCH   1  10
ATOM     10  C   UNL     1      20.703  42.660 -13.225  1.00  0.00     0.223 C 
ATOM     11  O   UNL     1      19.468  42.619 -12.979  1.00  0.00    -0.275 OA
ATOM     12  N   UNL     1      21.516  41.519 -12.957  1.00  0.00    -0.369 N 
ATOM     13  H   UNL     1      22.544  41.541 -13.137  1.00  0.00     0.159 HD
ATOM     14  H   UNL     1      21.090  40.648 -12.570  1.00  0.00     0.159 HD
ENDBRANCH   1  10
TORSDOF 4
ENDMDL
