MODEL 1
REMARK VINA RESULT:    -2.539      0.000      0.000
REMARK INTER + INTRA:          -4.089
REMARK INTER:                  -3.578
REMARK INTRA:                  -0.511
REMARK UNBOUND:                -0.511
REMARK SMILES CCCCCCCCC=O
REMARK SMILES IDX 5 1 4 2 3 3 2 4 1 5 6 6 7 7 8 8 9 9 10 10
REMARK H PARENT
REMARK Flexibility Score: inf
ROOT
ATOM      1  C   UNL     1     141.152 143.192 143.495  1.00  0.00     0.000 C 
ENDROOT
BRANCH   1   2
ATOM      2  C   UNL     1     141.666 144.493 144.124  1.00  0.00    -0.000 C 
BRANCH   2   3
ATOM      3  C   UNL     1     140.642 145.626 143.958  1.00  0.00    -0.000 C 
BRANCH   3   4
ATOM      4  C   UNL     1     139.571 145.304 142.905  1.00  0.00    -0.003 C 
ATOM      5  C   UNL     1     139.698 146.165 141.649  1.00  0.00     0.004 C 
ENDBRANCH   3   4
ENDBRANCH   2   3
ENDBRANCH   1   2
BRANCH   1   6
ATOM      6  C   UNL     1     142.235 142.537 142.626  1.00  0.00     0.000 C 
BRANCH   6   7
ATOM      7  C   UNL     1     143.431 143.467 142.369  1.00  0.00     0.008 C 
BRANCH   7   8
ATOM      8  C   UNL     1     144.776 142.727 142.411  1.00  0.00     0.072 C 
BRANCH   8   9
ATOM      9  C   UNL     1     145.012 142.126 143.763  1.00  0.00     0.224 C 
ATOM     10  O   UNL     1     145.580 141.050 143.872  1.00  0.00    -0.303 OA
ENDBRANCH   8   9
ENDBRANCH   7   8
ENDBRANCH   6   7
ENDBRANCH   1   6
TORSDOF 7
ENDMDL
MODEL 2
REMARK VINA RESULT:    -2.465      8.890     10.533
REMARK INTER + INTRA:          -3.985
REMARK INTER:                  -3.679
REMARK INTRA:                  -0.306
REMARK UNBOUND:                -0.511
REMARK SMILES CCCCCCCCC=O
REMARK SMILES IDX 5 1 4 2 3 3 2 4 1 5 6 6 7 7 8 8 9 9 10 10
REMARK H PARENT
REMARK Flexibility Score: inf
ROOT
ATOM      1  C   UNL     1     141.322 134.627 139.174  1.00  0.00     0.000 C 
ENDROOT
BRANCH   1   2
ATOM      2  C   UNL     1     139.962 134.576 138.465  1.00  0.00    -0.000 C 
BRANCH   2   3
ATOM      3  C   UNL     1     139.484 133.126 138.297  1.00  0.00    -0.000 C 
BRANCH   3   4
ATOM      4  C   UNL     1     140.425 132.112 138.966  1.00  0.00    -0.003 C 
ATOM      5  C   UNL     1     140.688 130.885 138.096  1.00  0.00     0.004 C 
ENDBRANCH   3   4
ENDBRANCH   2   3
ENDBRANCH   1   2
BRANCH   1   6
ATOM      6  C   UNL     1     141.356 135.755 140.216  1.00  0.00     0.000 C 
BRANCH   6   7
ATOM      7  C   UNL     1     141.911 135.292 141.572  1.00  0.00     0.008 C 
BRANCH   7   8
ATOM      8  C   UNL     1     142.518 136.442 142.387  1.00  0.00     0.072 C 
BRANCH   8   9
ATOM      9  C   UNL     1     141.908 136.508 143.754  1.00  0.00     0.224 C 
ATOM     10  O   UNL     1     140.973 135.780 144.051  1.00  0.00    -0.303 OA
ENDBRANCH   8   9
ENDBRANCH   7   8
ENDBRANCH   6   7
ENDBRANCH   1   6
TORSDOF 7
ENDMDL
MODEL 3
REMARK VINA RESULT:    -2.446      5.569      6.790
REMARK INTER + INTRA:          -3.958
REMARK INTER:                  -3.484
REMARK INTRA:                  -0.474
REMARK UNBOUND:                -0.511
REMARK SMILES CCCCCCCCC=O
REMARK SMILES IDX 5 1 4 2 3 3 2 4 1 5 6 6 7 7 8 8 9 9 10 10
REMARK H PARENT
REMARK Flexibility Score: inf
ROOT
ATOM      1  C   UNL     1     136.079 140.284 143.493  1.00  0.00     0.000 C 
ENDROOT
BRANCH   1   2
ATOM      2  C   UNL     1     136.135 139.374 142.260  1.00  0.00    -0.000 C 
BRANCH   2   3
ATOM      3  C   UNL     1     135.083 139.789 141.221  1.00  0.00    -0.000 C 
BRANCH   3   4
ATOM      4  C   UNL     1     135.705 140.169 139.869  1.00  0.00    -0.003 C 
ATOM      5  C   UNL     1     136.711 141.313 139.981  1.00  0.00     0.004 C 
ENDBRANCH   3   4
ENDBRANCH   2   3
ENDBRANCH   1   2
BRANCH   1   6
ATOM      6  C   UNL     1     137.434 140.966 143.736  1.00  0.00     0.000 C 
BRANCH   6   7
ATOM      7  C   UNL     1     137.298 142.472 144.010  1.00  0.00     0.008 C 
BRANCH   7   8
ATOM      8  C   UNL     1     137.955 143.333 142.922  1.00  0.00     0.072 C 
BRANCH   8   9
ATOM      9  C   UNL     1     139.220 143.957 143.426  1.00  0.00     0.224 C 
ATOM     10  O   UNL     1     139.338 145.171 143.470  1.00  0.00    -0.303 OA
ENDBRANCH   8   9
ENDBRANCH   7   8
ENDBRANCH   6   7
ENDBRANCH   1   6
TORSDOF 7
ENDMDL
MODEL 4
REMARK VINA RESULT:    -2.432      4.296      7.339
REMARK INTER + INTRA:          -3.937
REMARK INTER:                  -3.655
REMARK INTRA:                  -0.283
REMARK UNBOUND:                -0.511
REMARK SMILES CCCCCCCCC=O
REMARK SMILES IDX 5 1 4 2 3 3 2 4 1 5 6 6 7 7 8 8 9 9 10 10
REMARK H PARENT
REMARK Flexibility Score: inf
ROOT
ATOM      1  C   UNL     1     145.684 141.073 140.042  1.00  0.00     0.000 C 
ENDROOT
BRANCH   1   2
ATOM      2  C   UNL     1     146.624 140.714 138.884  1.00  0.00    -0.000 C 
BRANCH   2   3
ATOM      3  C   UNL     1     148.094 140.852 139.305  1.00  0.00    -0.000 C 
BRANCH   3   4
ATOM      4  C   UNL     1     148.997 139.793 138.655  1.00  0.00    -0.003 C 
ATOM      5  C   UNL     1     150.357 139.673 139.340  1.00  0.00     0.004 C 
ENDBRANCH   3   4
ENDBRANCH   2   3
ENDBRANCH   1   2
BRANCH   1   6
ATOM      6  C   UNL     1     146.442 141.807 141.157  1.00  0.00     0.000 C 
BRANCH   6   7
ATOM      7  C   UNL     1     145.501 142.438 142.196  1.00  0.00     0.008 C 
BRANCH   7   8
ATOM      8  C   UNL     1     145.482 141.667 143.523  1.00  0.00     0.072 C 
BRANCH   8   9
ATOM      9  C   UNL     1     144.271 140.788 143.612  1.00  0.00     0.224 C 
ATOM     10  O   UNL     1     143.150 141.272 143.565  1.00  0.00    -0.303 OA
ENDBRANCH   8   9
ENDBRANCH   7   8
ENDBRANCH   6   7
ENDBRANCH   1   6
TORSDOF 7
ENDMDL
MODEL 5
REMARK VINA RESULT:    -2.419      7.066      8.188
REMARK INTER + INTRA:          -3.920
REMARK INTER:                  -3.571
REMARK INTRA:                  -0.348
REMARK UNBOUND:                -0.511
REMARK SMILES CCCCCCCCC=O
REMARK SMILES IDX 5 1 4 2 3 3 2 4 1 5 6 6 7 7 8 8 9 9 10 10
REMARK H PARENT
REMARK Flexibility Score: inf
ROOT
ATOM      1  C   UNL     1     136.105 140.266 140.400  1.00  0.00     0.000 C 
ENDROOT
BRANCH   1   2
ATOM      2  C   UNL     1     134.655 139.875 140.712  1.00  0.00    -0.000 C 
BRANCH   2   3
ATOM      3  C   UNL     1     133.827 139.760 139.423  1.00  0.00    -0.000 C 
BRANCH   3   4
ATOM      4  C   UNL     1     132.927 140.982 139.187  1.00  0.00    -0.003 C 
ATOM      5  C   UNL     1     133.592 142.048 138.317  1.00  0.00     0.004 C 
ENDBRANCH   3   4
ENDBRANCH   2   3
ENDBRANCH   1   2
BRANCH   1   6
ATOM      6  C   UNL     1     136.966 140.244 141.671  1.00  0.00     0.000 C 
BRANCH   6   7
ATOM      7  C   UNL     1     136.133 140.035 142.946  1.00  0.00     0.008 C 
BRANCH   7   8
ATOM      8  C   UNL     1     136.633 140.882 144.125  1.00  0.00     0.072 C 
BRANCH   8   9
ATOM      9  C   UNL     1     137.559 141.961 143.652  1.00  0.00     0.224 C 
ATOM     10  O   UNL     1     137.245 143.136 143.759  1.00  0.00    -0.303 OA
ENDBRANCH   8   9
ENDBRANCH   7   8
ENDBRANCH   6   7
ENDBRANCH   1   6
TORSDOF 7
ENDMDL
MODEL 6
REMARK VINA RESULT:    -2.409      3.003      4.394
REMARK INTER + INTRA:          -3.905
REMARK INTER:                  -3.420
REMARK INTRA:                  -0.486
REMARK UNBOUND:                -0.511
REMARK SMILES CCCCCCCCC=O
REMARK SMILES IDX 5 1 4 2 3 3 2 4 1 5 6 6 7 7 8 8 9 9 10 10
REMARK H PARENT
REMARK Flexibility Score: inf
ROOT
ATOM      1  C   UNL     1     138.777 144.326 142.059  1.00  0.00     0.000 C 
ENDROOT
BRANCH   1   2
ATOM      2  C   UNL     1     137.983 143.622 143.167  1.00  0.00    -0.000 C 
BRANCH   2   3
ATOM      3  C   UNL     1     137.872 142.115 142.891  1.00  0.00    -0.000 C 
BRANCH   3   4
ATOM      4  C   UNL     1     137.417 141.321 144.125  1.00  0.00    -0.003 C 
ATOM      5  C   UNL     1     136.074 140.623 143.918  1.00  0.00     0.004 C 
ENDBRANCH   3   4
ENDBRANCH   2   3
ENDBRANCH   1   2
BRANCH   1   6
ATOM      6  C   UNL     1     139.613 145.480 142.630  1.00  0.00     0.000 C 
BRANCH   6   7
ATOM      7  C   UNL     1     140.298 145.115 143.957  1.00  0.00     0.008 C 
BRANCH   7   8
ATOM      8  C   UNL     1     141.627 144.374 143.752  1.00  0.00     0.072 C 
BRANCH   8   9
ATOM      9  C   UNL     1     141.495 142.929 144.124  1.00  0.00     0.224 C 
ATOM     10  O   UNL     1     141.440 142.069 143.259  1.00  0.00    -0.303 OA
ENDBRANCH   8   9
ENDBRANCH   7   8
ENDBRANCH   6   7
ENDBRANCH   1   6
TORSDOF 7
ENDMDL
MODEL 7
REMARK VINA RESULT:    -2.403      6.036      6.794
REMARK INTER + INTRA:          -3.897
REMARK INTER:                  -3.514
REMARK INTRA:                  -0.382
REMARK UNBOUND:                -0.511
REMARK SMILES CCCCCCCCC=O
REMARK SMILES IDX 5 1 4 2 3 3 2 4 1 5 6 6 7 7 8 8 9 9 10 10
REMARK H PARENT
REMARK Flexibility Score: inf
ROOT
ATOM      1  C   UNL     1     139.173 137.739 142.634  1.00  0.00     0.000 C 
ENDROOT
BRANCH   1   2
ATOM      2  C   UNL     1     137.783 138.387 142.653  1.00  0.00    -0.000 C 
BRANCH   2   3
ATOM      3  C   UNL     1     137.383 138.789 144.081  1.00  0.00    -0.000 C 
BRANCH   3   4
ATOM      4  C   UNL     1     136.461 140.017 144.112  1.00  0.00    -0.003 C 
ATOM      5  C   UNL     1     137.053 141.221 143.382  1.00  0.00     0.004 C 
ENDBRANCH   3   4
ENDBRANCH   2   3
ENDBRANCH   1   2
BRANCH   1   6
ATOM      6  C   UNL     1     139.527 137.157 144.010  1.00  0.00     0.000 C 
BRANCH   6   7
ATOM      7  C   UNL     1     140.743 136.219 143.961  1.00  0.00     0.008 C 
BRANCH   7   8
ATOM      8  C   UNL     1     141.977 136.884 143.332  1.00  0.00     0.072 C 
BRANCH   8   9
ATOM      9  C   UNL     1     142.494 136.071 142.184  1.00  0.00     0.224 C 
ATOM     10  O   UNL     1     141.760 135.292 141.597  1.00  0.00    -0.303 OA
ENDBRANCH   8   9
ENDBRANCH   7   8
ENDBRANCH   6   7
ENDBRANCH   1   6
TORSDOF 7
ENDMDL
MODEL 8
REMARK VINA RESULT:    -2.395      4.439      6.026
REMARK INTER + INTRA:          -3.886
REMARK INTER:                  -3.382
REMARK INTRA:                  -0.504
REMARK UNBOUND:                -0.511
REMARK SMILES CCCCCCCCC=O
REMARK SMILES IDX 5 1 4 2 3 3 2 4 1 5 6 6 7 7 8 8 9 9 10 10
REMARK H PARENT
REMARK Flexibility Score: inf
ROOT
ATOM      1  C   UNL     1     143.340 137.960 142.345  1.00  0.00     0.000 C 
ENDROOT
BRANCH   1   2
ATOM      2  C   UNL     1     142.509 136.672 142.371  1.00  0.00    -0.000 C 
BRANCH   2   3
ATOM      3  C   UNL     1     141.677 136.580 143.659  1.00  0.00    -0.000 C 
BRANCH   3   4
ATOM      4  C   UNL     1     140.275 137.188 143.502  1.00  0.00    -0.003 C 
ATOM      5  C   UNL     1     140.160 138.579 144.124  1.00  0.00     0.004 C 
ENDBRANCH   3   4
ENDBRANCH   2   3
ENDBRANCH   1   2
BRANCH   1   6
ATOM      6  C   UNL     1     143.915 138.272 143.734  1.00  0.00     0.000 C 
BRANCH   6   7
ATOM      7  C   UNL     1     144.220 139.766 143.926  1.00  0.00     0.008 C 
BRANCH   7   8
ATOM      8  C   UNL     1     144.211 140.546 142.604  1.00  0.00     0.072 C 
BRANCH   8   9
ATOM      9  C   UNL     1     145.213 141.661 142.635  1.00  0.00     0.224 C 
ATOM     10  O   UNL     1     144.849 142.823 142.543  1.00  0.00    -0.303 OA
ENDBRANCH   8   9
ENDBRANCH   7   8
ENDBRANCH   6   7
ENDBRANCH   1   6
TORSDOF 7
ENDMDL
MODEL 9
REMARK VINA RESULT:    -2.385      6.933      8.702
REMARK INTER + INTRA:          -3.872
REMARK INTER:                  -3.582
REMARK INTRA:                  -0.290
REMARK UNBOUND:                -0.511
REMARK SMILES CCCCCCCCC=O
REMARK SMILES IDX 5 1 4 2 3 3 2 4 1 5 6 6 7 7 8 8 9 9 10 10
REMARK H PARENT
REMARK Flexibility Score: inf
ROOT
ATOM      1  C   UNL     1     138.707 137.235 143.787  1.00  0.00     0.000 C 
ENDROOT
BRANCH   1   2
ATOM      2  C   UNL     1     140.175 137.611 144.022  1.00  0.00    -0.000 C 
BRANCH   2   3
ATOM      3  C   UNL     1     141.001 137.433 142.739  1.00  0.00    -0.000 C 
BRANCH   3   4
ATOM      4  C   UNL     1     141.840 136.146 142.752  1.00  0.00    -0.003 C 
ATOM      5  C   UNL     1     141.818 135.412 141.412  1.00  0.00     0.004 C 
ENDBRANCH   3   4
ENDBRANCH   2   3
ENDBRANCH   1   2
BRANCH   1   6
ATOM      6  C   UNL     1     138.001 138.288 142.921  1.00  0.00     0.000 C 
BRANCH   6   7
ATOM      7  C   UNL     1     137.425 139.447 143.749  1.00  0.00     0.008 C 
BRANCH   7   8
ATOM      8  C   UNL     1     136.206 140.101 143.084  1.00  0.00     0.072 C 
BRANCH   8   9
ATOM      9  C   UNL     1     135.730 139.284 141.921  1.00  0.00     0.224 C 
ATOM     10  O   UNL     1     135.102 139.807 141.013  1.00  0.00    -0.303 OA
ENDBRANCH   8   9
ENDBRANCH   7   8
ENDBRANCH   6   7
ENDBRANCH   1   6
TORSDOF 7
ENDMDL
