MODEL 1
REMARK VINA RESULT:   160.376      0.000      0.000
REMARK INTER + INTRA:         265.434
REMARK INTER:                 254.132
REMARK INTRA:                  11.303
REMARK UNBOUND:                11.303
REMARK SMILES C[C@H]1O[C@@H](O[C@@H]2CC[C@]3(C)[C@@H](CC[C@]4(C)[C@H]3C=C[C@]35OC[C@@]6(CCC(C)(C)C[C@@H]63)[C@H](O)C[C@@]54C)[C@@]2(C)CO)[C@@H](O)[C@H](O[C@H]2O[C@H](CO)[C@H](O)[C@H](O)[C@@H]2O)[C@@H]1O
REMARK SMILES IDX 1 1 2 2 54 3 41 4 39 5 4 6 3 7 55 8 42 10 43 11 52 12 44 13
REMARK SMILES IDX 50 14 45 15 48 16 53 17 51 19 46 21 47 22 49 24 5 26 6 27
REMARK SMILES IDX 7 28 35 29 8 30 11 31 36 32 9 33 12 34 10 35 16 36 13 37
REMARK SMILES IDX 14 38 17 39 15 40 33 41 18 42 19 43 32 44 34 45 29 46 20 47
REMARK SMILES IDX 30 48 22 49 28 50 21 51 23 52 25 53 24 54 26 55 27 56 37 57
REMARK SMILES IDX 38 58 31 60 40 62
REMARK H PARENT 55 9 53 18 51 20 47 23 49 25 38 59 31 61 40 63
REMARK Flexibility Score: inf
ROOT
ATOM      1  C   UNL     1      67.695   0.013  78.080  1.00  0.00     0.041 C 
ATOM      2  C   UNL     1      67.376   0.482  76.647  1.00  0.00     0.150 C 
ATOM      3  C   UNL     1      68.617   0.976  75.875  1.00  0.00     0.175 C 
ATOM      4  C   UNL     1      69.063   2.369  76.371  1.00  0.00     0.186 C 
ATOM      5  C   UNL     1      67.848   3.310  76.380  1.00  0.00     0.202 C 
ATOM      6  C   UNL     1      66.604   2.702  77.067  1.00  0.00     0.282 C 
ATOM      7  O   UNL     1      66.295   1.399  76.588  1.00  0.00    -0.344 OA
ENDROOT
BRANCH   3   8
ATOM      8  O   UNL     1      68.335   1.036  74.500  1.00  0.00    -0.388 OA
ATOM      9  H   UNL     1      68.399   1.989  74.233  1.00  0.00     0.211 HD
ENDBRANCH   3   8
BRANCH   4  10
ATOM     10  O   UNL     1      70.036   2.984  75.531  1.00  0.00    -0.341 OA
BRANCH  10  11
ATOM     11  C   UNL     1      70.057   2.543  74.174  1.00  0.00     0.282 C 
ATOM     12  C   UNL     1      70.259   1.009  74.021  1.00  0.00     0.202 C 
ATOM     13  O   UNL     1      71.074   3.247  73.472  1.00  0.00    -0.341 OA
ATOM     14  C   UNL     1      71.678   0.597  74.471  1.00  0.00     0.179 C 
ATOM     15  C   UNL     1      72.359   2.996  74.026  1.00  0.00     0.178 C 
ATOM     16  C   UNL     1      72.759   1.508  73.854  1.00  0.00     0.177 C 
BRANCH  12  17
ATOM     17  O   UNL     1      70.060   0.639  72.677  1.00  0.00    -0.385 OA
ATOM     18  H   UNL     1      70.049   1.479  72.144  1.00  0.00     0.211 HD
ENDBRANCH  12  17
BRANCH  14  19
ATOM     19  O   UNL     1      71.946  -0.742  74.132  1.00  0.00    -0.387 OA
ATOM     20  H   UNL     1      72.037  -0.782  73.141  1.00  0.00     0.211 HD
ENDBRANCH  14  19
BRANCH  15  21
ATOM     21  C   UNL     1      73.391   3.949  73.398  1.00  0.00     0.191 C 
BRANCH  21  22
ATOM     22  O   UNL     1      74.119   4.652  74.373  1.00  0.00    -0.394 OA
ATOM     23  H   UNL     1      74.821   5.165  73.894  1.00  0.00     0.210 HD
ENDBRANCH  21  22
ENDBRANCH  15  21
BRANCH  16  24
ATOM     24  O   UNL     1      73.011   1.171  72.510  1.00  0.00    -0.387 OA
ATOM     25  H   UNL     1      73.241   1.999  72.019  1.00  0.00     0.211 HD
ENDBRANCH  16  24
ENDBRANCH  10  11
ENDBRANCH   4  10
BRANCH   6  26
ATOM     26  O   UNL     1      66.760   2.719  78.480  1.00  0.00    -0.346 OA
BRANCH  26  27
ATOM     27  C   UNL     1      67.047   3.995  79.065  1.00  0.00     0.130 C 
ATOM     28  C   UNL     1      68.171   4.817  78.394  1.00  0.00     0.033 C 
ATOM     29  C   UNL     1      67.171   3.946  80.625  1.00  0.00     0.020 C 
ATOM     30  C   UNL     1      68.152   6.264  78.905  1.00  0.00     0.010 C 
ATOM     31  C   UNL     1      67.286   5.432  81.221  1.00  0.00     0.006 C 
ATOM     32  C   UNL     1      68.432   3.141  81.068  1.00  0.00     0.017 C 
ATOM     33  C   UNL     1      68.274   6.419  80.456  1.00  0.00    -0.022 C 
ATOM     34  C   UNL     1      65.939   6.142  81.601  1.00  0.00     0.005 C 
ATOM     35  C   UNL     1      69.774   6.104  80.801  1.00  0.00     0.012 C 
ATOM     36  C   UNL     1      67.980   7.928  80.913  1.00  0.00     0.024 C 
ATOM     37  C   UNL     1      65.507   7.288  80.666  1.00  0.00     0.008 C 
ATOM     38  C   UNL     1      66.528   8.485  80.552  1.00  0.00    -0.017 C 
ATOM     39  C   UNL     1      68.314   8.071  82.402  1.00  0.00    -0.024 C 
ATOM     40  C   UNL     1      66.508   8.982  79.045  1.00  0.00     0.013 C 
ATOM     41  C   UNL     1      66.158   9.764  81.489  1.00  0.00     0.009 C 
ATOM     42  C   UNL     1      67.585   8.717  83.320  1.00  0.00     0.005 C 
ATOM     43  C   UNL     1      66.308   9.476  83.043  1.00  0.00     0.096 C 
ATOM     44  C   UNL     1      64.710  10.345  81.170  1.00  0.00     0.043 C 
ATOM     45  C   UNL     1      67.188  10.918  81.167  1.00  0.00     0.015 C 
ATOM     46  C   UNL     1      65.064   8.807  83.683  1.00  0.00     0.037 C 
ATOM     47  O   UNL     1      66.421  10.716  83.724  1.00  0.00    -0.369 OA
ATOM     48  C   UNL     1      63.601  10.226  82.262  1.00  0.00     0.124 C 
ATOM     49  C   UNL     1      64.141  10.008  83.705  1.00  0.00     0.026 C 
ATOM     50  C   UNL     1      65.356   8.234  85.103  1.00  0.00     0.014 C 
ATOM     51  C   UNL     1      65.117  11.130  84.077  1.00  0.00     0.171 C 
ATOM     52  C   UNL     1      62.945   9.908  84.703  1.00  0.00     0.013 C 
ATOM     53  C   UNL     1      64.087   7.979  85.944  1.00  0.00    -0.035 C 
ATOM     54  C   UNL     1      63.300   9.304  86.066  1.00  0.00     0.007 C 
ATOM     55  C   UNL     1      64.511   7.523  87.357  1.00  0.00     0.011 C 
ATOM     56  C   UNL     1      63.219   6.862  85.321  1.00  0.00     0.011 C 
BRANCH  29  57
ATOM     57  C   UNL     1      65.959   3.147  81.227  1.00  0.00     0.165 C 
BRANCH  57  58
ATOM     58  O   UNL     1      65.984   3.095  82.631  1.00  0.00    -0.396 OA
ATOM     59  H   UNL     1      66.913   2.894  82.910  1.00  0.00     0.210 HD
ENDBRANCH  57  58
ENDBRANCH  29  57
BRANCH  48  60
ATOM     60  O   UNL     1      62.719   9.180  81.918  1.00  0.00    -0.392 OA
ATOM     61  H   UNL     1      62.858   8.449  82.578  1.00  0.00     0.210 HD
ENDBRANCH  48  60
ENDBRANCH  26  27
ENDBRANCH   6  26
BRANCH   5  62
ATOM     62  O   UNL     1      68.208   4.509  77.014  1.00  0.00    -0.385 OA
ATOM     63  H   UNL     1      68.027   4.397  77.982  1.00  0.00     0.211 HD
ENDBRANCH   5  62
TORSDOF 14
ENDMDL
MODEL 2
REMARK VINA RESULT:   162.330      2.654      4.851
REMARK INTER + INTRA:         268.531
REMARK INTER:                 265.389
REMARK INTRA:                   3.142
REMARK UNBOUND:                11.303
REMARK SMILES C[C@H]1O[C@@H](O[C@@H]2CC[C@]3(C)[C@@H](CC[C@]4(C)[C@H]3C=C[C@]35OC[C@@]6(CCC(C)(C)C[C@@H]63)[C@H](O)C[C@@]54C)[C@@]2(C)CO)[C@@H](O)[C@H](O[C@H]2O[C@H](CO)[C@H](O)[C@H](O)[C@@H]2O)[C@@H]1O
REMARK SMILES IDX 1 1 2 2 54 3 41 4 39 5 4 6 3 7 55 8 42 10 43 11 52 12 44 13
REMARK SMILES IDX 50 14 45 15 48 16 53 17 51 19 46 21 47 22 49 24 5 26 6 27
REMARK SMILES IDX 7 28 35 29 8 30 11 31 36 32 9 33 12 34 10 35 16 36 13 37
REMARK SMILES IDX 14 38 17 39 15 40 33 41 18 42 19 43 32 44 34 45 29 46 20 47
REMARK SMILES IDX 30 48 22 49 28 50 21 51 23 52 25 53 24 54 26 55 27 56 37 57
REMARK SMILES IDX 38 58 31 60 40 62
REMARK H PARENT 55 9 53 18 51 20 47 23 49 25 38 59 31 61 40 63
REMARK Flexibility Score: inf
ROOT
ATOM      1  C   UNL     1      68.311   3.356  80.460  1.00  0.00     0.041 C 
ATOM      2  C   UNL     1      67.217   3.308  79.375  1.00  0.00     0.150 C 
ATOM      3  C   UNL     1      67.758   2.943  77.978  1.00  0.00     0.175 C 
ATOM      4  C   UNL     1      68.516   4.131  77.346  1.00  0.00     0.186 C 
ATOM      5  C   UNL     1      67.634   5.387  77.427  1.00  0.00     0.202 C 
ATOM      6  C   UNL     1      67.031   5.626  78.831  1.00  0.00     0.282 C 
ATOM      7  O   UNL     1      66.398   4.467  79.359  1.00  0.00    -0.344 OA
ENDROOT
BRANCH   3   8
ATOM      8  O   UNL     1      66.698   2.563  77.137  1.00  0.00    -0.388 OA
ATOM      9  H   UNL     1      67.087   2.006  76.414  1.00  0.00     0.211 HD
ENDBRANCH   3   8
BRANCH   4  10
ATOM     10  O   UNL     1      68.812   3.943  75.965  1.00  0.00    -0.341 OA
BRANCH  10  11
ATOM     11  C   UNL     1      68.307   2.745  75.375  1.00  0.00     0.282 C 
ATOM     12  C   UNL     1      69.258   1.525  75.531  1.00  0.00     0.202 C 
ATOM     13  O   UNL     1      68.031   2.984  74.001  1.00  0.00    -0.341 OA
ATOM     14  C   UNL     1      70.544   1.725  74.698  1.00  0.00     0.179 C 
ATOM     15  C   UNL     1      69.206   3.351  73.289  1.00  0.00     0.178 C 
ATOM     16  C   UNL     1      70.227   2.185  73.260  1.00  0.00     0.177 C 
BRANCH  12  17
ATOM     17  O   UNL     1      68.597   0.356  75.110  1.00  0.00    -0.385 OA
ATOM     18  H   UNL     1      68.486   0.423  74.124  1.00  0.00     0.211 HD
ENDBRANCH  12  17
BRANCH  14  19
ATOM     19  O   UNL     1      71.306   0.544  74.654  1.00  0.00    -0.387 OA
ATOM     20  H   UNL     1      71.856   0.518  75.484  1.00  0.00     0.211 HD
ENDBRANCH  14  19
BRANCH  15  21
ATOM     21  C   UNL     1      68.829   3.827  71.875  1.00  0.00     0.191 C 
BRANCH  21  22
ATOM     22  O   UNL     1      68.211   5.088  71.893  1.00  0.00    -0.394 OA
ATOM     23  H   UNL     1      67.414   5.010  72.480  1.00  0.00     0.210 HD
ENDBRANCH  21  22
ENDBRANCH  15  21
BRANCH  16  24
ATOM     24  O   UNL     1      69.791   1.110  72.460  1.00  0.00    -0.387 OA
ATOM     25  H   UNL     1      68.810   1.030  72.552  1.00  0.00     0.211 HD
ENDBRANCH  16  24
ENDBRANCH  10  11
ENDBRANCH   4  10
BRANCH   6  26
ATOM     26  O   UNL     1      68.020   6.135  79.715  1.00  0.00    -0.346 OA
BRANCH  26  27
ATOM     27  C   UNL     1      67.597   7.180  80.598  1.00  0.00     0.130 C 
ATOM     28  C   UNL     1      68.062   7.066  82.067  1.00  0.00     0.033 C 
ATOM     29  C   UNL     1      66.076   7.526  80.461  1.00  0.00     0.020 C 
ATOM     30  C   UNL     1      67.820   8.387  82.808  1.00  0.00     0.010 C 
ATOM     31  C   UNL     1      65.723   8.835  81.322  1.00  0.00     0.006 C 
ATOM     32  C   UNL     1      65.181   6.352  80.964  1.00  0.00     0.017 C 
ATOM     33  C   UNL     1      66.342   8.896  82.788  1.00  0.00    -0.022 C 
ATOM     34  C   UNL     1      65.846  10.214  80.584  1.00  0.00     0.005 C 
ATOM     35  C   UNL     1      65.554   7.963  83.778  1.00  0.00     0.012 C 
ATOM     36  C   UNL     1      66.236  10.394  83.349  1.00  0.00     0.024 C 
ATOM     37  C   UNL     1      67.037  11.091  81.013  1.00  0.00     0.008 C 
ATOM     38  C   UNL     1      67.064  11.492  82.538  1.00  0.00    -0.017 C 
ATOM     39  C   UNL     1      64.756  10.766  83.502  1.00  0.00    -0.024 C 
ATOM     40  C   UNL     1      68.581  11.468  83.008  1.00  0.00     0.013 C 
ATOM     41  C   UNL     1      66.487  12.983  82.843  1.00  0.00     0.009 C 
ATOM     42  C   UNL     1      64.190  11.928  83.157  1.00  0.00     0.005 C 
ATOM     43  C   UNL     1      64.924  13.122  82.592  1.00  0.00     0.096 C 
ATOM     44  C   UNL     1      67.278  14.111  82.043  1.00  0.00     0.043 C 
ATOM     45  C   UNL     1      66.701  13.285  84.379  1.00  0.00     0.015 C 
ATOM     46  C   UNL     1      64.546  13.412  81.117  1.00  0.00     0.037 C 
ATOM     47  O   UNL     1      64.452  14.257  83.300  1.00  0.00    -0.369 OA
ATOM     48  C   UNL     1      66.525  14.905  80.930  1.00  0.00     0.124 C 
ATOM     49  C   UNL     1      64.974  14.865  81.051  1.00  0.00     0.026 C 
ATOM     50  C   UNL     1      63.027  13.209  80.836  1.00  0.00     0.014 C 
ATOM     51  C   UNL     1      64.540  15.368  82.432  1.00  0.00     0.171 C 
ATOM     52  C   UNL     1      64.336  15.692  79.891  1.00  0.00     0.013 C 
ATOM     53  C   UNL     1      62.533  13.905  79.550  1.00  0.00    -0.035 C 
ATOM     54  C   UNL     1      62.848  15.415  79.652  1.00  0.00     0.007 C 
ATOM     55  C   UNL     1      61.003  13.725  79.445  1.00  0.00     0.011 C 
ATOM     56  C   UNL     1      63.177  13.277  78.293  1.00  0.00     0.011 C 
BRANCH  29  57
ATOM     57  C   UNL     1      65.703   7.685  78.942  1.00  0.00     0.165 C 
BRANCH  57  58
ATOM     58  O   UNL     1      64.326   7.863  78.734  1.00  0.00    -0.396 OA
ATOM     59  H   UNL     1      64.196   8.742  78.295  1.00  0.00     0.210 HD
ENDBRANCH  57  58
ENDBRANCH  29  57
BRANCH  48  60
ATOM     60  O   UNL     1      66.919  14.421  79.665  1.00  0.00    -0.392 OA
ATOM     61  H   UNL     1      67.911  14.350  79.673  1.00  0.00     0.210 HD
ENDBRANCH  48  60
ENDBRANCH  26  27
ENDBRANCH   6  26
BRANCH   5  62
ATOM     62  O   UNL     1      68.394   6.501  77.036  1.00  0.00    -0.385 OA
ATOM     63  H   UNL     1      69.236   6.158  76.639  1.00  0.00     0.211 HD
ENDBRANCH   5  62
TORSDOF 14
ENDMDL
MODEL 3
REMARK VINA RESULT:   162.766      4.767     13.032
REMARK INTER + INTRA:         269.222
REMARK INTER:                 266.105
REMARK INTRA:                   3.117
REMARK UNBOUND:                11.303
REMARK SMILES C[C@H]1O[C@@H](O[C@@H]2CC[C@]3(C)[C@@H](CC[C@]4(C)[C@H]3C=C[C@]35OC[C@@]6(CCC(C)(C)C[C@@H]63)[C@H](O)C[C@@]54C)[C@@]2(C)CO)[C@@H](O)[C@H](O[C@H]2O[C@H](CO)[C@H](O)[C@H](O)[C@@H]2O)[C@@H]1O
REMARK SMILES IDX 1 1 2 2 54 3 41 4 39 5 4 6 3 7 55 8 42 10 43 11 52 12 44 13
REMARK SMILES IDX 50 14 45 15 48 16 53 17 51 19 46 21 47 22 49 24 5 26 6 27
REMARK SMILES IDX 7 28 35 29 8 30 11 31 36 32 9 33 12 34 10 35 16 36 13 37
REMARK SMILES IDX 14 38 17 39 15 40 33 41 18 42 19 43 32 44 34 45 29 46 20 47
REMARK SMILES IDX 30 48 22 49 28 50 21 51 23 52 25 53 24 54 26 55 27 56 37 57
REMARK SMILES IDX 38 58 31 60 40 62
REMARK H PARENT 55 9 53 18 51 20 47 23 49 25 38 59 31 61 40 63
REMARK Flexibility Score: inf
ROOT
ATOM      1  C   UNL     1      67.785  15.167  83.549  1.00  0.00     0.041 C 
ATOM      2  C   UNL     1      66.529  15.136  84.441  1.00  0.00     0.150 C 
ATOM      3  C   UNL     1      66.815  15.501  85.912  1.00  0.00     0.175 C 
ATOM      4  C   UNL     1      67.524  14.341  86.646  1.00  0.00     0.186 C 
ATOM      5  C   UNL     1      66.736  13.043  86.407  1.00  0.00     0.202 C 
ATOM      6  C   UNL     1      66.383  12.801  84.922  1.00  0.00     0.282 C 
ATOM      7  O   UNL     1      65.782  13.937  84.310  1.00  0.00    -0.344 OA
ENDROOT
BRANCH   3   8
ATOM      8  O   UNL     1      65.614  15.809  86.573  1.00  0.00    -0.388 OA
ATOM      9  H   UNL     1      65.681  15.432  87.488  1.00  0.00     0.211 HD
ENDBRANCH   3   8
BRANCH   4  10
ATOM     10  O   UNL     1      67.581  14.516  88.059  1.00  0.00    -0.341 OA
BRANCH  10  11
ATOM     11  C   UNL     1      67.049  15.743  88.558  1.00  0.00     0.282 C 
ATOM     12  C   UNL     1      68.049  16.932  88.483  1.00  0.00     0.202 C 
ATOM     13  O   UNL     1      66.612  15.549  89.897  1.00  0.00    -0.341 OA
ATOM     14  C   UNL     1      69.225  16.719  89.462  1.00  0.00     0.179 C 
ATOM     15  C   UNL     1      67.686  15.170  90.747  1.00  0.00     0.178 C 
ATOM     16  C   UNL     1      68.733  16.308  90.864  1.00  0.00     0.177 C 
BRANCH  12  17
ATOM     17  O   UNL     1      67.380  18.130  88.797  1.00  0.00    -0.385 OA
ATOM     18  H   UNL     1      66.785  18.341  88.027  1.00  0.00     0.211 HD
ENDBRANCH  12  17
BRANCH  14  19
ATOM     19  O   UNL     1      70.013  17.879  89.565  1.00  0.00    -0.387 OA
ATOM     20  H   UNL     1      70.073  18.276  88.653  1.00  0.00     0.211 HD
ENDBRANCH  14  19
BRANCH  15  21
ATOM     21  C   UNL     1      67.137  14.743  92.120  1.00  0.00     0.191 C 
BRANCH  21  22
ATOM     22  O   UNL     1      66.718  13.402  92.124  1.00  0.00    -0.394 OA
ATOM     23  H   UNL     1      67.081  12.985  91.300  1.00  0.00     0.210 HD
ENDBRANCH  21  22
ENDBRANCH  15  21
BRANCH  16  24
ATOM     24  O   UNL     1      68.242  17.416  91.584  1.00  0.00    -0.387 OA
ATOM     25  H   UNL     1      68.558  18.241  91.139  1.00  0.00     0.211 HD
ENDBRANCH  16  24
ENDBRANCH  10  11
ENDBRANCH   4  10
BRANCH   6  26
ATOM     26  O   UNL     1      67.528  12.362  84.204  1.00  0.00    -0.346 OA
BRANCH  26  27
ATOM     27  C   UNL     1      67.309  11.321  83.246  1.00  0.00     0.130 C 
ATOM     28  C   UNL     1      67.985  11.507  81.868  1.00  0.00     0.033 C 
ATOM     29  C   UNL     1      65.809  10.885  83.139  1.00  0.00     0.020 C 
ATOM     30  C   UNL     1      67.940  10.197  81.071  1.00  0.00     0.010 C 
ATOM     31  C   UNL     1      65.673   9.585  82.206  1.00  0.00     0.006 C 
ATOM     32  C   UNL     1      64.931  12.021  82.529  1.00  0.00     0.017 C 
ATOM     33  C   UNL     1      66.510   9.605  80.852  1.00  0.00    -0.022 C 
ATOM     34  C   UNL     1      65.765   8.194  82.925  1.00  0.00     0.005 C 
ATOM     35  C   UNL     1      65.827  10.520  79.773  1.00  0.00     0.012 C 
ATOM     36  C   UNL     1      66.583   8.120  80.250  1.00  0.00     0.024 C 
ATOM     37  C   UNL     1      67.059   7.399  82.666  1.00  0.00     0.008 C 
ATOM     38  C   UNL     1      67.343   7.047  81.155  1.00  0.00    -0.017 C 
ATOM     39  C   UNL     1      65.169   7.670  79.863  1.00  0.00    -0.024 C 
ATOM     40  C   UNL     1      68.909   7.172  80.925  1.00  0.00     0.013 C 
ATOM     41  C   UNL     1      66.911   5.535  80.733  1.00  0.00     0.009 C 
ATOM     42  C   UNL     1      64.629   6.467  80.092  1.00  0.00     0.005 C 
ATOM     43  C   UNL     1      65.340   5.300  80.738  1.00  0.00     0.096 C 
ATOM     44  C   UNL     1      67.638   4.431  81.622  1.00  0.00     0.043 C 
ATOM     45  C   UNL     1      67.375   5.293  79.243  1.00  0.00     0.015 C 
ATOM     46  C   UNL     1      64.760   4.944  82.131  1.00  0.00     0.037 C 
ATOM     47  O   UNL     1      65.051   4.162  79.942  1.00  0.00    -0.369 OA
ATOM     48  C   UNL     1      66.774   3.562  82.588  1.00  0.00     0.124 C 
ATOM     49  C   UNL     1      65.260   3.517  82.231  1.00  0.00     0.026 C 
ATOM     50  C   UNL     1      63.206   5.052  82.178  1.00  0.00     0.014 C 
ATOM     51  C   UNL     1      65.074   3.031  80.789  1.00  0.00     0.171 C 
ATOM     52  C   UNL     1      64.505   2.619  83.261  1.00  0.00     0.013 C 
ATOM     53  C   UNL     1      62.565   4.290  83.358  1.00  0.00    -0.035 C 
ATOM     54  C   UNL     1      62.984   2.804  83.274  1.00  0.00     0.007 C 
ATOM     55  C   UNL     1      61.028   4.379  83.230  1.00  0.00     0.011 C 
ATOM     56  C   UNL     1      62.970   4.915  84.713  1.00  0.00     0.011 C 
BRANCH  29  57
ATOM     57  C   UNL     1      65.220  10.659  84.578  1.00  0.00     0.165 C 
BRANCH  57  58
ATOM     58  O   UNL     1      63.904  10.168  84.558  1.00  0.00    -0.396 OA
ATOM     59  H   UNL     1      63.932   9.216  84.831  1.00  0.00     0.210 HD
ENDBRANCH  57  58
ENDBRANCH  29  57
BRANCH  48  60
ATOM     60  O   UNL     1      66.941   4.029  83.909  1.00  0.00    -0.392 OA
ATOM     61  H   UNL     1      66.570   4.951  83.944  1.00  0.00     0.210 HD
ENDBRANCH  48  60
ENDBRANCH  26  27
ENDBRANCH   6  26
BRANCH   5  62
ATOM     62  O   UNL     1      67.482  11.962  86.904  1.00  0.00    -0.385 OA
ATOM     63  H   UNL     1      67.302  11.184  86.316  1.00  0.00     0.211 HD
ENDBRANCH   5  62
TORSDOF 14
ENDMDL
MODEL 4
REMARK VINA RESULT:   162.836      3.925     11.663
REMARK INTER + INTRA:         269.333
REMARK INTER:                 267.345
REMARK INTRA:                   1.988
REMARK UNBOUND:                11.303
REMARK SMILES C[C@H]1O[C@@H](O[C@@H]2CC[C@]3(C)[C@@H](CC[C@]4(C)[C@H]3C=C[C@]35OC[C@@]6(CCC(C)(C)C[C@@H]63)[C@H](O)C[C@@]54C)[C@@]2(C)CO)[C@@H](O)[C@H](O[C@H]2O[C@H](CO)[C@H](O)[C@H](O)[C@@H]2O)[C@@H]1O
REMARK SMILES IDX 1 1 2 2 54 3 41 4 39 5 4 6 3 7 55 8 42 10 43 11 52 12 44 13
REMARK SMILES IDX 50 14 45 15 48 16 53 17 51 19 46 21 47 22 49 24 5 26 6 27
REMARK SMILES IDX 7 28 35 29 8 30 11 31 36 32 9 33 12 34 10 35 16 36 13 37
REMARK SMILES IDX 14 38 17 39 15 40 33 41 18 42 19 43 32 44 34 45 29 46 20 47
REMARK SMILES IDX 30 48 22 49 28 50 21 51 23 52 25 53 24 54 26 55 27 56 37 57
REMARK SMILES IDX 38 58 31 60 40 62
REMARK H PARENT 55 9 53 18 51 20 47 23 49 25 38 59 31 61 40 63
REMARK Flexibility Score: inf
ROOT
ATOM      1  C   UNL     1      63.947  13.717  80.426  1.00  0.00     0.041 C 
ATOM      2  C   UNL     1      64.231  14.226  81.853  1.00  0.00     0.150 C 
ATOM      3  C   UNL     1      65.486  15.117  81.946  1.00  0.00     0.175 C 
ATOM      4  C   UNL     1      66.777  14.274  81.849  1.00  0.00     0.186 C 
ATOM      5  C   UNL     1      66.691  13.112  82.852  1.00  0.00     0.202 C 
ATOM      6  C   UNL     1      65.357  12.335  82.782  1.00  0.00     0.282 C 
ATOM      7  O   UNL     1      64.221  13.192  82.825  1.00  0.00    -0.344 OA
ENDROOT
BRANCH   3   8
ATOM      8  O   UNL     1      65.481  15.829  83.158  1.00  0.00    -0.388 OA
ATOM      9  H   UNL     1      64.805  16.550  83.068  1.00  0.00     0.211 HD
ENDBRANCH   3   8
BRANCH   4  10
ATOM     10  O   UNL     1      67.955  15.002  82.184  1.00  0.00    -0.341 OA
BRANCH  10  11
ATOM     11  C   UNL     1      68.264  16.112  81.341  1.00  0.00     0.282 C 
ATOM     12  C   UNL     1      69.787  16.304  81.098  1.00  0.00     0.202 C 
ATOM     13  O   UNL     1      67.701  17.292  81.902  1.00  0.00    -0.341 OA
ATOM     14  C   UNL     1      70.499  16.735  82.399  1.00  0.00     0.179 C 
ATOM     15  C   UNL     1      68.240  17.566  83.189  1.00  0.00     0.178 C 
ATOM     16  C   UNL     1      69.754  17.888  83.102  1.00  0.00     0.177 C 
BRANCH  12  17
ATOM     17  O   UNL     1      69.986  17.279  80.102  1.00  0.00    -0.385 OA
ATOM     18  H   UNL     1      69.086  17.615  79.841  1.00  0.00     0.211 HD
ENDBRANCH  12  17
BRANCH  14  19
ATOM     19  O   UNL     1      71.826  17.123  82.144  1.00  0.00    -0.387 OA
ATOM     20  H   UNL     1      71.815  18.100  81.951  1.00  0.00     0.211 HD
ENDBRANCH  14  19
BRANCH  15  21
ATOM     21  C   UNL     1      67.443  18.702  83.855  1.00  0.00     0.191 C 
BRANCH  21  22
ATOM     22  O   UNL     1      66.938  18.324  85.109  1.00  0.00    -0.394 OA
ATOM     23  H   UNL     1      66.048  17.913  84.950  1.00  0.00     0.210 HD
ENDBRANCH  21  22
ENDBRANCH  15  21
BRANCH  16  24
ATOM     24  O   UNL     1      70.005  19.123  82.472  1.00  0.00    -0.387 OA
ATOM     25  H   UNL     1      70.777  19.550  82.920  1.00  0.00     0.211 HD
ENDBRANCH  16  24
ENDBRANCH  10  11
ENDBRANCH   4  10
BRANCH   6  26
ATOM     26  O   UNL     1      65.335  11.490  81.639  1.00  0.00    -0.346 OA
BRANCH  26  27
ATOM     27  C   UNL     1      65.832  10.161  81.831  1.00  0.00     0.130 C 
ATOM     28  C   UNL     1      66.109   9.738  83.292  1.00  0.00     0.033 C 
ATOM     29  C   UNL     1      66.999   9.790  80.855  1.00  0.00     0.020 C 
ATOM     30  C   UNL     1      66.319   8.221  83.378  1.00  0.00     0.010 C 
ATOM     31  C   UNL     1      67.362   8.232  80.987  1.00  0.00     0.006 C 
ATOM     32  C   UNL     1      68.283  10.621  81.165  1.00  0.00     0.017 C 
ATOM     33  C   UNL     1      67.461   7.660  82.470  1.00  0.00    -0.022 C 
ATOM     34  C   UNL     1      66.591   7.250  80.038  1.00  0.00     0.005 C 
ATOM     35  C   UNL     1      68.807   8.089  83.157  1.00  0.00     0.012 C 
ATOM     36  C   UNL     1      67.432   6.057  82.425  1.00  0.00     0.024 C 
ATOM     37  C   UNL     1      65.537   6.358  80.721  1.00  0.00     0.008 C 
ATOM     38  C   UNL     1      66.089   5.409  81.854  1.00  0.00    -0.017 C 
ATOM     39  C   UNL     1      68.684   5.556  81.697  1.00  0.00    -0.024 C 
ATOM     40  C   UNL     1      64.994   5.356  83.003  1.00  0.00     0.013 C 
ATOM     41  C   UNL     1      66.355   3.879  81.367  1.00  0.00     0.009 C 
ATOM     42  C   UNL     1      68.734   4.577  80.786  1.00  0.00     0.005 C 
ATOM     43  C   UNL     1      67.557   3.741  80.339  1.00  0.00     0.096 C 
ATOM     44  C   UNL     1      65.041   3.197  80.777  1.00  0.00     0.043 C 
ATOM     45  C   UNL     1      66.774   3.030  82.631  1.00  0.00     0.015 C 
ATOM     46  C   UNL     1      67.160   4.009  78.864  1.00  0.00     0.037 C 
ATOM     47  O   UNL     1      67.999   2.393  80.338  1.00  0.00    -0.369 OA
ATOM     48  C   UNL     1      65.004   2.838  79.259  1.00  0.00     0.124 C 
ATOM     49  C   UNL     1      66.405   2.723  78.591  1.00  0.00     0.026 C 
ATOM     50  C   UNL     1      68.397   4.200  77.936  1.00  0.00     0.014 C 
ATOM     51  C   UNL     1      67.266   1.704  79.346  1.00  0.00     0.171 C 
ATOM     52  C   UNL     1      66.239   2.359  77.083  1.00  0.00     0.013 C 
ATOM     53  C   UNL     1      68.084   4.014  76.436  1.00  0.00    -0.035 C 
ATOM     54  C   UNL     1      67.485   2.604  76.226  1.00  0.00     0.007 C 
ATOM     55  C   UNL     1      69.401   4.116  75.637  1.00  0.00     0.011 C 
ATOM     56  C   UNL     1      67.127   5.116  75.924  1.00  0.00     0.011 C 
BRANCH  29  57
ATOM     57  C   UNL     1      66.610  10.197  79.387  1.00  0.00     0.165 C 
BRANCH  57  58
ATOM     58  O   UNL     1      66.996   9.238  78.436  1.00  0.00    -0.396 OA
ATOM     59  H   UNL     1      67.456   9.713  77.697  1.00  0.00     0.210 HD
ENDBRANCH  57  58
ENDBRANCH  29  57
BRANCH  48  60
ATOM     60  O   UNL     1      64.224   3.792  78.574  1.00  0.00    -0.392 OA
ATOM     61  H   UNL     1      64.690   4.667  78.654  1.00  0.00     0.210 HD
ENDBRANCH  48  60
ENDBRANCH  26  27
ENDBRANCH   6  26
BRANCH   5  62
ATOM     62  O   UNL     1      67.767  12.239  82.626  1.00  0.00    -0.385 OA
ATOM     63  H   UNL     1      68.597  12.782  82.645  1.00  0.00     0.211 HD
ENDBRANCH   5  62
TORSDOF 14
ENDMDL
