MODEL 1
REMARK VINA RESULT:    -4.911      0.000      0.000
REMARK INTER + INTRA:          -5.353
REMARK INTER:                  -5.342
REMARK INTRA:                  -0.011
REMARK UNBOUND:                -0.011
REMARK SMILES OCc1ccccc1
REMARK SMILES IDX 2 1 3 2 6 3 5 4 7 5 4 6 8 7 1 8
REMARK H PARENT 1 9
REMARK Flexibility Score: inf
ROOT
ATOM      1  C   UNL     1      13.646  24.428 -26.211  1.00  0.00     0.191 C 
ENDROOT
BRANCH   1   2
ATOM      2  C   UNL     1      15.019  24.669 -25.646  1.00  0.00    -0.023 A 
ATOM      3  C   UNL     1      17.612  25.096 -24.663  1.00  0.00     0.000 A 
ATOM      4  C   UNL     1      16.994  23.854 -24.489  1.00  0.00     0.000 A 
ATOM      5  C   UNL     1      16.942  26.122 -25.335  1.00  0.00     0.000 A 
ATOM      6  C   UNL     1      15.704  23.638 -24.983  1.00  0.00     0.006 A 
ATOM      7  C   UNL     1      15.652  25.909 -25.831  1.00  0.00     0.006 A 
ENDBRANCH   1   2
BRANCH   1   8
ATOM      8  O   UNL     1      12.713  25.262 -25.581  1.00  0.00    -0.392 OA
ATOM      9  H   UNL     1      11.972  25.397 -26.227  1.00  0.00     0.211 HD
ENDBRANCH   1   8
TORSDOF 2
ENDMDL
MODEL 2
REMARK VINA RESULT:    -4.884      0.164      1.719
REMARK INTER + INTRA:          -5.323
REMARK INTER:                  -5.309
REMARK INTRA:                  -0.014
REMARK UNBOUND:                -0.011
REMARK SMILES OCc1ccccc1
REMARK SMILES IDX 2 1 3 2 6 3 5 4 7 5 4 6 8 7 1 8
REMARK H PARENT 1 9
REMARK Flexibility Score: inf
ROOT
ATOM      1  C   UNL     1      13.498  24.265 -26.074  1.00  0.00     0.191 C 
ENDROOT
BRANCH   1   2
ATOM      2  C   UNL     1      14.907  24.564 -25.640  1.00  0.00    -0.023 A 
ATOM      3  C   UNL     1      17.507  25.143 -24.758  1.00  0.00     0.000 A 
ATOM      4  C   UNL     1      16.759  26.121 -25.420  1.00  0.00     0.000 A 
ATOM      5  C   UNL     1      16.956  23.880 -24.527  1.00  0.00     0.000 A 
ATOM      6  C   UNL     1      15.461  25.836 -25.855  1.00  0.00     0.006 A 
ATOM      7  C   UNL     1      15.659  23.591 -24.960  1.00  0.00     0.006 A 
ENDBRANCH   1   2
BRANCH   1   8
ATOM      8  O   UNL     1      12.638  25.286 -25.651  1.00  0.00    -0.392 OA
ATOM      9  H   UNL     1      11.747  25.086 -26.040  1.00  0.00     0.211 HD
ENDBRANCH   1   8
TORSDOF 2
ENDMDL
MODEL 3
REMARK VINA RESULT:    -4.735      2.106      3.670
REMARK INTER + INTRA:          -5.161
REMARK INTER:                  -5.152
REMARK INTRA:                  -0.009
REMARK UNBOUND:                -0.011
REMARK SMILES OCc1ccccc1
REMARK SMILES IDX 2 1 3 2 6 3 5 4 7 5 4 6 8 7 1 8
REMARK H PARENT 1 9
REMARK Flexibility Score: inf
ROOT
ATOM      1  C   UNL     1      17.398  24.785 -24.153  1.00  0.00     0.191 C 
ENDROOT
BRANCH   1   2
ATOM      2  C   UNL     1      16.098  24.562 -24.875  1.00  0.00    -0.023 A 
ATOM      3  C   UNL     1      13.710  24.154 -26.293  1.00  0.00     0.000 A 
ATOM      4  C   UNL     1      14.075  25.443 -25.894  1.00  0.00     0.000 A 
ATOM      5  C   UNL     1      14.540  23.070 -25.995  1.00  0.00     0.000 A 
ATOM      6  C   UNL     1      15.267  25.649 -25.192  1.00  0.00     0.006 A 
ATOM      7  C   UNL     1      15.733  23.271 -25.294  1.00  0.00     0.006 A 
ENDBRANCH   1   2
BRANCH   1   8
ATOM      8  O   UNL     1      17.228  24.572 -22.779  1.00  0.00    -0.392 OA
ATOM      9  H   UNL     1      17.130  25.469 -22.364  1.00  0.00     0.211 HD
ENDBRANCH   1   8
TORSDOF 2
ENDMDL
MODEL 4
REMARK VINA RESULT:    -4.354     14.701     15.754
REMARK INTER + INTRA:          -4.747
REMARK INTER:                  -4.731
REMARK INTRA:                  -0.015
REMARK UNBOUND:                -0.011
REMARK SMILES OCc1ccccc1
REMARK SMILES IDX 2 1 3 2 6 3 5 4 7 5 4 6 8 7 1 8
REMARK H PARENT 1 9
REMARK Flexibility Score: inf
ROOT
ATOM      1  C   UNL     1      19.337   8.493 -24.619  1.00  0.00     0.191 C 
ENDROOT
BRANCH   1   2
ATOM      2  C   UNL     1      20.162   9.671 -25.060  1.00  0.00    -0.023 A 
ATOM      3  C   UNL     1      21.698  11.897 -25.807  1.00  0.00     0.000 A 
ATOM      4  C   UNL     1      20.307  11.933 -25.935  1.00  0.00     0.000 A 
ATOM      5  C   UNL     1      22.324  10.756 -25.297  1.00  0.00     0.000 A 
ATOM      6  C   UNL     1      19.539  10.826 -25.558  1.00  0.00     0.006 A 
ATOM      7  C   UNL     1      21.560   9.647 -24.918  1.00  0.00     0.006 A 
ENDBRANCH   1   2
BRANCH   1   8
ATOM      8  O   UNL     1      19.813   8.003 -23.396  1.00  0.00    -0.392 OA
ATOM      9  H   UNL     1      20.804   7.987 -23.464  1.00  0.00     0.211 HD
ENDBRANCH   1   8
TORSDOF 2
ENDMDL
MODEL 5
REMARK VINA RESULT:    -4.333     14.778     15.779
REMARK INTER + INTRA:          -4.724
REMARK INTER:                  -4.710
REMARK INTRA:                  -0.014
REMARK UNBOUND:                -0.011
REMARK SMILES OCc1ccccc1
REMARK SMILES IDX 2 1 3 2 6 3 5 4 7 5 4 6 8 7 1 8
REMARK H PARENT 1 9
REMARK Flexibility Score: inf
ROOT
ATOM      1  C   UNL     1      19.338   8.527 -24.620  1.00  0.00     0.191 C 
ENDROOT
BRANCH   1   2
ATOM      2  C   UNL     1      20.248   9.667 -24.987  1.00  0.00    -0.023 A 
ATOM      3  C   UNL     1      21.947  11.767 -25.747  1.00  0.00     0.000 A 
ATOM      4  C   UNL     1      22.486  10.571 -25.263  1.00  0.00     0.000 A 
ATOM      5  C   UNL     1      20.562  11.912 -25.862  1.00  0.00     0.000 A 
ATOM      6  C   UNL     1      21.642   9.522 -24.889  1.00  0.00     0.006 A 
ATOM      7  C   UNL     1      19.713  10.865 -25.489  1.00  0.00     0.006 A 
ENDBRANCH   1   2
BRANCH   1   8
ATOM      8  O   UNL     1      19.743   7.959 -23.405  1.00  0.00    -0.392 OA
ATOM      9  H   UNL     1      19.827   8.707 -22.757  1.00  0.00     0.211 HD
ENDBRANCH   1   8
TORSDOF 2
ENDMDL
MODEL 6
REMARK VINA RESULT:    -3.998      7.913      8.621
REMARK INTER + INTRA:          -4.359
REMARK INTER:                  -4.343
REMARK INTRA:                  -0.016
REMARK UNBOUND:                -0.011
REMARK SMILES OCc1ccccc1
REMARK SMILES IDX 2 1 3 2 6 3 5 4 7 5 4 6 8 7 1 8
REMARK H PARENT 1 9
REMARK Flexibility Score: inf
ROOT
ATOM      1  C   UNL     1       8.028  21.738 -25.364  1.00  0.00     0.191 C 
ENDROOT
BRANCH   1   2
ATOM      2  C   UNL     1       7.651  22.879 -24.459  1.00  0.00    -0.023 A 
ATOM      3  C   UNL     1       6.994  25.055 -22.814  1.00  0.00     0.000 A 
ATOM      4  C   UNL     1       8.052  24.210 -22.467  1.00  0.00     0.000 A 
ATOM      5  C   UNL     1       6.269  24.822 -23.986  1.00  0.00     0.000 A 
ATOM      6  C   UNL     1       8.384  23.128 -23.288  1.00  0.00     0.006 A 
ATOM      7  C   UNL     1       6.598  23.741 -24.811  1.00  0.00     0.006 A 
ENDBRANCH   1   2
BRANCH   1   8
ATOM      8  O   UNL     1       7.924  22.132 -26.704  1.00  0.00    -0.392 OA
ATOM      9  H   UNL     1       6.958  22.107 -26.932  1.00  0.00     0.211 HD
ENDBRANCH   1   8
TORSDOF 2
ENDMDL
MODEL 7
REMARK VINA RESULT:    -3.975     14.084     15.214
REMARK INTER + INTRA:          -4.334
REMARK INTER:                  -4.325
REMARK INTRA:                  -0.009
REMARK UNBOUND:                -0.011
REMARK SMILES OCc1ccccc1
REMARK SMILES IDX 2 1 3 2 6 3 5 4 7 5 4 6 8 7 1 8
REMARK H PARENT 1 9
REMARK Flexibility Score: inf
ROOT
ATOM      1  C   UNL     1      20.296  12.373 -26.221  1.00  0.00     0.191 C 
ENDROOT
BRANCH   1   2
ATOM      2  C   UNL     1      19.959  11.035 -25.621  1.00  0.00    -0.023 A 
ATOM      3  C   UNL     1      19.346   8.506 -24.573  1.00  0.00     0.000 A 
ATOM      4  C   UNL     1      18.337   9.292 -25.136  1.00  0.00     0.000 A 
ATOM      5  C   UNL     1      20.662   8.975 -24.541  1.00  0.00     0.000 A 
ATOM      6  C   UNL     1      18.641  10.551 -25.663  1.00  0.00     0.006 A 
ATOM      7  C   UNL     1      20.971  10.233 -25.068  1.00  0.00     0.006 A 
ENDBRANCH   1   2
BRANCH   1   8
ATOM      8  O   UNL     1      20.114  13.386 -25.271  1.00  0.00    -0.392 OA
ATOM      9  H   UNL     1      20.083  14.242 -25.772  1.00  0.00     0.211 HD
ENDBRANCH   1   8
TORSDOF 2
ENDMDL
MODEL 8
REMARK VINA RESULT:    -3.964     14.408     15.361
REMARK INTER + INTRA:          -4.323
REMARK INTER:                  -4.311
REMARK INTRA:                  -0.012
REMARK UNBOUND:                -0.011
REMARK SMILES OCc1ccccc1
REMARK SMILES IDX 2 1 3 2 6 3 5 4 7 5 4 6 8 7 1 8
REMARK H PARENT 1 9
REMARK Flexibility Score: inf
ROOT
ATOM      1  C   UNL     1      18.105   9.378 -25.407  1.00  0.00     0.191 C 
ENDROOT
BRANCH   1   2
ATOM      2  C   UNL     1      19.468  10.008 -25.317  1.00  0.00    -0.023 A 
ATOM      3  C   UNL     1      22.025  11.161 -25.227  1.00  0.00     0.000 A 
ATOM      4  C   UNL     1      21.843   9.831 -24.834  1.00  0.00     0.000 A 
ATOM      5  C   UNL     1      20.935  11.912 -25.674  1.00  0.00     0.000 A 
ATOM      6  C   UNL     1      20.570   9.254 -24.884  1.00  0.00     0.006 A 
ATOM      7  C   UNL     1      19.661  11.338 -25.726  1.00  0.00     0.006 A 
ENDBRANCH   1   2
BRANCH   1   8
ATOM      8  O   UNL     1      17.712   8.901 -24.150  1.00  0.00    -0.392 OA
ATOM      9  H   UNL     1      18.135   8.009 -24.041  1.00  0.00     0.211 HD
ENDBRANCH   1   8
TORSDOF 2
ENDMDL
MODEL 9
REMARK VINA RESULT:    -3.876      2.487      3.789
REMARK INTER + INTRA:          -4.227
REMARK INTER:                  -4.215
REMARK INTRA:                  -0.012
REMARK UNBOUND:                -0.011
REMARK SMILES OCc1ccccc1
REMARK SMILES IDX 2 1 3 2 6 3 5 4 7 5 4 6 8 7 1 8
REMARK H PARENT 1 9
REMARK Flexibility Score: inf
ROOT
ATOM      1  C   UNL     1      18.342  24.000 -23.087  1.00  0.00     0.191 C 
ENDROOT
BRANCH   1   2
ATOM      2  C   UNL     1      17.408  24.631 -24.084  1.00  0.00    -0.023 A 
ATOM      3  C   UNL     1      15.682  25.746 -25.993  1.00  0.00     0.000 A 
ATOM      4  C   UNL     1      17.027  26.125 -25.961  1.00  0.00     0.000 A 
ATOM      5  C   UNL     1      15.199  24.805 -25.081  1.00  0.00     0.000 A 
ATOM      6  C   UNL     1      17.890  25.566 -25.014  1.00  0.00     0.006 A 
ATOM      7  C   UNL     1      16.059  24.243 -24.132  1.00  0.00     0.006 A 
ENDBRANCH   1   2
BRANCH   1   8
ATOM      8  O   UNL     1      17.891  24.245 -21.784  1.00  0.00    -0.392 OA
ATOM      9  H   UNL     1      18.380  25.045 -21.460  1.00  0.00     0.211 HD
ENDBRANCH   1   8
TORSDOF 2
ENDMDL
