MODEL 1
REMARK VINA RESULT:    -7.817      0.000      0.000
REMARK INTER + INTRA:          -9.424
REMARK INTER:                  -9.417
REMARK INTRA:                  -0.007
REMARK UNBOUND:                -0.007
REMARK SMILES O=c1c(O)c(-c2ccc(O)c(O)c2)oc2cc(O)cc(O)c12
REMARK SMILES IDX 5 1 3 2 2 3 1 4 22 5 20 6 19 7 17 8 16 9 15 10 14 11 6 12
REMARK SMILES IDX 7 13 8 14 9 15 13 16 11 17 10 18 12 20 4 22 21 24 18 26
REMARK H PARENT 10 19 12 21 4 23 21 25 18 27
REMARK Flexibility Score: inf
ROOT
ATOM      1  C   UNL     1     100.206 115.715 124.333  1.00  0.00     0.180 A 
ATOM      2  C   UNL     1      99.556 116.876 124.794  1.00  0.00     0.208 A 
ATOM      3  C   UNL     1      98.928 117.717 123.862  1.00  0.00     0.238 A 
ATOM      4  O   UNL     1      98.333 118.754 124.263  1.00  0.00    -0.285 OA
ATOM      5  C   UNL     1      98.978 117.397 122.489  1.00  0.00     0.111 A 
ATOM      6  C   UNL     1      98.376 118.194 121.485  1.00  0.00     0.134 A 
ATOM      7  C   UNL     1      98.477 117.811 120.140  1.00  0.00     0.093 A 
ATOM      8  C   UNL     1      99.169 116.652 119.778  1.00  0.00     0.123 A 
ATOM      9  C   UNL     1      99.765 115.862 120.765  1.00  0.00     0.094 A 
ATOM     10  C   UNL     1      99.674 116.225 122.112  1.00  0.00     0.146 A 
ATOM     11  O   UNL     1     100.245 115.452 123.030  1.00  0.00    -0.452 OA
ENDROOT
BRANCH   1  12
ATOM     12  C   UNL     1     100.874 114.769 125.256  1.00  0.00     0.025 A 
ATOM     13  C   UNL     1     100.601 113.390 125.214  1.00  0.00     0.016 A 
ATOM     14  C   UNL     1     101.262 112.513 126.077  1.00  0.00     0.051 A 
ATOM     15  C   UNL     1     102.212 112.994 126.984  1.00  0.00     0.157 A 
ATOM     16  C   UNL     1     101.844 115.246 126.153  1.00  0.00     0.062 A 
ATOM     17  C   UNL     1     102.507 114.366 127.021  1.00  0.00     0.158 A 
BRANCH  15  18
ATOM     18  O   UNL     1     102.853 112.094 127.834  1.00  0.00    -0.504 OA
ATOM     19  H   UNL     1     103.697 111.605 127.562  1.00  0.00     0.293 HD
ENDBRANCH  15  18
BRANCH  17  20
ATOM     20  O   UNL     1     103.458 114.852 127.917  1.00  0.00    -0.504 OA
ATOM     21  H   UNL     1     103.225 115.057 128.881  1.00  0.00     0.293 HD
ENDBRANCH  17  20
ENDBRANCH   1  12
BRANCH   2  22
ATOM     22  O   UNL     1      99.562 117.197 126.153  1.00  0.00    -0.502 OA
ATOM     23  H   UNL     1     100.386 117.555 126.623  1.00  0.00     0.293 HD
ENDBRANCH   2  22
BRANCH   6  24
ATOM     24  O   UNL     1      97.679 119.357 121.814  1.00  0.00    -0.507 OA
ATOM     25  H   UNL     1      98.139 120.258 121.864  1.00  0.00     0.293 HD
ENDBRANCH   6  24
BRANCH   8  26
ATOM     26  O   UNL     1      99.256 116.296 118.434  1.00  0.00    -0.508 OA
ATOM     27  H   UNL     1      98.585 116.631 117.753  1.00  0.00     0.293 HD
ENDBRANCH   8  26
TORSDOF 6
ENDMDL
MODEL 2
REMARK VINA RESULT:    -7.269      3.889      7.510
REMARK INTER + INTRA:          -8.763
REMARK INTER:                  -8.459
REMARK INTRA:                  -0.304
REMARK UNBOUND:                -0.007
REMARK SMILES O=c1c(O)c(-c2ccc(O)c(O)c2)oc2cc(O)cc(O)c12
REMARK SMILES IDX 5 1 3 2 2 3 1 4 22 5 20 6 19 7 17 8 16 9 15 10 14 11 6 12
REMARK SMILES IDX 7 13 8 14 9 15 13 16 11 17 10 18 12 20 4 22 21 24 18 26
REMARK H PARENT 10 19 12 21 4 23 21 25 18 27
REMARK Flexibility Score: inf
ROOT
ATOM      1  C   UNL     1     101.145 111.267 123.213  1.00  0.00     0.180 A 
ATOM      2  C   UNL     1     102.157 110.739 124.036  1.00  0.00     0.208 A 
ATOM      3  C   UNL     1     102.449 111.380 125.250  1.00  0.00     0.238 A 
ATOM      4  O   UNL     1     103.346 110.910 126.001  1.00  0.00    -0.285 OA
ATOM      5  C   UNL     1     101.741 112.546 125.610  1.00  0.00     0.111 A 
ATOM      6  C   UNL     1     101.977 113.255 126.813  1.00  0.00     0.134 A 
ATOM      7  C   UNL     1     101.236 114.412 127.094  1.00  0.00     0.093 A 
ATOM      8  C   UNL     1     100.268 114.875 126.200  1.00  0.00     0.123 A 
ATOM      9  C   UNL     1     100.030 114.178 125.011  1.00  0.00     0.094 A 
ATOM     10  C   UNL     1     100.757 113.022 124.712  1.00  0.00     0.146 A 
ATOM     11  O   UNL     1     100.507 112.376 123.578  1.00  0.00    -0.452 OA
ENDROOT
BRANCH   1  12
ATOM     12  C   UNL     1     100.766 110.636 121.928  1.00  0.00     0.025 A 
ATOM     13  C   UNL     1      99.933 109.504 121.886  1.00  0.00     0.016 A 
ATOM     14  C   UNL     1      99.570 108.940 120.660  1.00  0.00     0.051 A 
ATOM     15  C   UNL     1     100.018 109.504 119.461  1.00  0.00     0.157 A 
ATOM     16  C   UNL     1     101.197 111.212 120.721  1.00  0.00     0.062 A 
ATOM     17  C   UNL     1     100.833 110.647 119.491  1.00  0.00     0.158 A 
BRANCH  15  18
ATOM     18  O   UNL     1      99.639 108.918 118.254  1.00  0.00    -0.504 OA
ATOM     19  H   UNL     1     100.279 108.358 117.703  1.00  0.00     0.293 HD
ENDBRANCH  15  18
BRANCH  17  20
ATOM     20  O   UNL     1     101.278 111.219 118.300  1.00  0.00    -0.504 OA
ATOM     21  H   UNL     1     100.691 111.841 117.756  1.00  0.00     0.293 HD
ENDBRANCH  17  20
ENDBRANCH   1  12
BRANCH   2  22
ATOM     22  O   UNL     1     102.877 109.611 123.634  1.00  0.00    -0.502 OA
ATOM     23  H   UNL     1     102.775 109.201 122.714  1.00  0.00     0.293 HD
ENDBRANCH   2  22
BRANCH   6  24
ATOM     24  O   UNL     1     102.937 112.820 127.726  1.00  0.00    -0.507 OA
ATOM     25  H   UNL     1     103.782 113.351 127.906  1.00  0.00     0.293 HD
ENDBRANCH   6  24
BRANCH   8  26
ATOM     26  O   UNL     1      99.547 116.027 126.503  1.00  0.00    -0.508 OA
ATOM     27  H   UNL     1      99.973 116.946 126.457  1.00  0.00     0.293 HD
ENDBRANCH   8  26
TORSDOF 6
ENDMDL
MODEL 3
REMARK VINA RESULT:    -7.023      1.499      3.055
REMARK INTER + INTRA:          -8.467
REMARK INTER:                  -8.213
REMARK INTRA:                  -0.253
REMARK UNBOUND:                -0.007
REMARK SMILES O=c1c(O)c(-c2ccc(O)c(O)c2)oc2cc(O)cc(O)c12
REMARK SMILES IDX 5 1 3 2 2 3 1 4 22 5 20 6 19 7 17 8 16 9 15 10 14 11 6 12
REMARK SMILES IDX 7 13 8 14 9 15 13 16 11 17 10 18 12 20 4 22 21 24 18 26
REMARK H PARENT 10 19 12 21 4 23 21 25 18 27
REMARK Flexibility Score: inf
ROOT
ATOM      1  C   UNL     1     101.262 114.862 123.192  1.00  0.00     0.180 A 
ATOM      2  C   UNL     1     101.999 114.666 122.009  1.00  0.00     0.208 A 
ATOM      3  C   UNL     1     101.643 115.388 120.859  1.00  0.00     0.238 A 
ATOM      4  O   UNL     1     102.303 115.228 119.797  1.00  0.00    -0.285 OA
ATOM      5  C   UNL     1     100.548 116.275 120.905  1.00  0.00     0.111 A 
ATOM      6  C   UNL     1     100.121 117.037 119.791  1.00  0.00     0.134 A 
ATOM      7  C   UNL     1      99.017 117.893 119.915  1.00  0.00     0.093 A 
ATOM      8  C   UNL     1      98.331 118.001 121.127  1.00  0.00     0.123 A 
ATOM      9  C   UNL     1      98.748 117.251 122.231  1.00  0.00     0.094 A 
ATOM     10  C   UNL     1      99.848 116.394 122.129  1.00  0.00     0.146 A 
ATOM     11  O   UNL     1     100.226 115.697 123.195  1.00  0.00    -0.452 OA
ENDROOT
BRANCH   1  12
ATOM     12  C   UNL     1     101.588 114.152 124.450  1.00  0.00     0.025 A 
ATOM     13  C   UNL     1     101.297 112.786 124.616  1.00  0.00     0.016 A 
ATOM     14  C   UNL     1     101.636 112.131 125.802  1.00  0.00     0.051 A 
ATOM     15  C   UNL     1     102.279 112.823 126.834  1.00  0.00     0.157 A 
ATOM     16  C   UNL     1     102.254 114.838 125.480  1.00  0.00     0.062 A 
ATOM     17  C   UNL     1     102.593 114.181 126.671  1.00  0.00     0.158 A 
BRANCH  15  18
ATOM     18  O   UNL     1     102.603 112.142 128.007  1.00  0.00    -0.504 OA
ATOM     19  H   UNL     1     102.413 112.529 128.923  1.00  0.00     0.293 HD
ENDBRANCH  15  18
BRANCH  17  20
ATOM     20  O   UNL     1     103.241 114.876 127.692  1.00  0.00    -0.504 OA
ATOM     21  H   UNL     1     104.248 114.990 127.702  1.00  0.00     0.293 HD
ENDBRANCH  17  20
ENDBRANCH   1  12
BRANCH   2  22
ATOM     22  O   UNL     1     103.049 113.744 121.976  1.00  0.00    -0.502 OA
ATOM     23  H   UNL     1     104.017 114.027 121.886  1.00  0.00     0.293 HD
ENDBRANCH   2  22
BRANCH   6  24
ATOM     24  O   UNL     1     100.784 116.952 118.566  1.00  0.00    -0.507 OA
ATOM     25  H   UNL     1     100.524 117.532 117.777  1.00  0.00     0.293 HD
ENDBRANCH   6  24
BRANCH   8  26
ATOM     26  O   UNL     1      97.236 118.856 121.223  1.00  0.00    -0.508 OA
ATOM     27  H   UNL     1      96.297 118.540 121.011  1.00  0.00     0.293 HD
ENDBRANCH   8  26
TORSDOF 6
ENDMDL
MODEL 4
REMARK VINA RESULT:    -6.886      1.923      3.756
REMARK INTER + INTRA:          -8.302
REMARK INTER:                  -8.709
REMARK INTRA:                   0.406
REMARK UNBOUND:                -0.007
REMARK SMILES O=c1c(O)c(-c2ccc(O)c(O)c2)oc2cc(O)cc(O)c12
REMARK SMILES IDX 5 1 3 2 2 3 1 4 22 5 20 6 19 7 17 8 16 9 15 10 14 11 6 12
REMARK SMILES IDX 7 13 8 14 9 15 13 16 11 17 10 18 12 20 4 22 21 24 18 26
REMARK H PARENT 10 19 12 21 4 23 21 25 18 27
REMARK Flexibility Score: inf
ROOT
ATOM      1  C   UNL     1     101.022 114.663 124.489  1.00  0.00     0.180 A 
ATOM      2  C   UNL     1     100.548 114.842 123.176  1.00  0.00     0.208 A 
ATOM      3  C   UNL     1      99.962 116.069 122.827  1.00  0.00     0.238 A 
ATOM      4  O   UNL     1      99.544 116.245 121.651  1.00  0.00    -0.285 OA
ATOM      5  C   UNL     1      99.841 117.084 123.798  1.00  0.00     0.111 A 
ATOM      6  C   UNL     1      99.259 118.347 123.530  1.00  0.00     0.134 A 
ATOM      7  C   UNL     1      99.168 119.302 124.553  1.00  0.00     0.093 A 
ATOM      8  C   UNL     1      99.644 119.021 125.836  1.00  0.00     0.123 A 
ATOM      9  C   UNL     1     100.220 117.775 126.107  1.00  0.00     0.094 A 
ATOM     10  C   UNL     1     100.322 116.810 125.100  1.00  0.00     0.146 A 
ATOM     11  O   UNL     1     100.878 115.638 125.383  1.00  0.00    -0.452 OA
ENDROOT
BRANCH   1  12
ATOM     12  C   UNL     1     101.669 113.405 124.928  1.00  0.00     0.025 A 
ATOM     13  C   UNL     1     102.096 112.439 124.000  1.00  0.00     0.016 A 
ATOM     14  C   UNL     1     102.726 111.271 124.436  1.00  0.00     0.051 A 
ATOM     15  C   UNL     1     102.951 111.054 125.799  1.00  0.00     0.157 A 
ATOM     16  C   UNL     1     101.916 113.194 126.295  1.00  0.00     0.062 A 
ATOM     17  C   UNL     1     102.547 112.022 126.734  1.00  0.00     0.158 A 
BRANCH  15  18
ATOM     18  O   UNL     1     103.581 109.878 126.204  1.00  0.00    -0.504 OA
ATOM     19  H   UNL     1     103.312 109.387 127.048  1.00  0.00     0.293 HD
ENDBRANCH  15  18
BRANCH  17  20
ATOM     20  O   UNL     1     102.775 111.817 128.094  1.00  0.00    -0.504 OA
ATOM     21  H   UNL     1     103.316 111.029 128.430  1.00  0.00     0.293 HD
ENDBRANCH  17  20
ENDBRANCH   1  12
BRANCH   2  22
ATOM     22  O   UNL     1     100.635 113.803 122.246  1.00  0.00    -0.502 OA
ATOM     23  H   UNL     1     100.742 113.971 121.253  1.00  0.00     0.293 HD
ENDBRANCH   2  22
BRANCH   6  24
ATOM     24  O   UNL     1      98.774 118.659 122.260  1.00  0.00    -0.507 OA
ATOM     25  H   UNL     1      98.231 119.496 122.087  1.00  0.00     0.293 HD
ENDBRANCH   6  24
BRANCH   8  26
ATOM     26  O   UNL     1      99.539 119.986 126.835  1.00  0.00    -0.508 OA
ATOM     27  H   UNL     1      98.901 120.769 126.750  1.00  0.00     0.293 HD
ENDBRANCH   8  26
TORSDOF 6
ENDMDL
MODEL 5
REMARK VINA RESULT:    -6.867      2.093      6.667
REMARK INTER + INTRA:          -8.279
REMARK INTER:                  -8.601
REMARK INTRA:                   0.322
REMARK UNBOUND:                -0.007
REMARK SMILES O=c1c(O)c(-c2ccc(O)c(O)c2)oc2cc(O)cc(O)c12
REMARK SMILES IDX 5 1 3 2 2 3 1 4 22 5 20 6 19 7 17 8 16 9 15 10 14 11 6 12
REMARK SMILES IDX 7 13 8 14 9 15 13 16 11 17 10 18 12 20 4 22 21 24 18 26
REMARK H PARENT 10 19 12 21 4 23 21 25 18 27
REMARK Flexibility Score: inf
ROOT
ATOM      1  C   UNL     1     100.462 115.953 124.337  1.00  0.00     0.180 A 
ATOM      2  C   UNL     1     100.590 115.276 123.109  1.00  0.00     0.208 A 
ATOM      3  C   UNL     1     101.147 113.987 123.100  1.00  0.00     0.238 A 
ATOM      4  O   UNL     1     101.257 113.367 122.008  1.00  0.00    -0.285 OA
ATOM      5  C   UNL     1     101.584 113.408 124.309  1.00  0.00     0.111 A 
ATOM      6  C   UNL     1     102.160 112.117 124.385  1.00  0.00     0.134 A 
ATOM      7  C   UNL     1     102.577 111.613 125.626  1.00  0.00     0.093 A 
ATOM      8  C   UNL     1     102.432 112.374 126.789  1.00  0.00     0.123 A 
ATOM      9  C   UNL     1     101.863 113.649 126.720  1.00  0.00     0.094 A 
ATOM     10  C   UNL     1     101.439 114.168 125.493  1.00  0.00     0.146 A 
ATOM     11  O   UNL     1     100.897 115.381 125.456  1.00  0.00    -0.452 OA
ENDROOT
BRANCH   1  12
ATOM     12  C   UNL     1      99.868 117.306 124.432  1.00  0.00     0.025 A 
ATOM     13  C   UNL     1      98.984 117.788 123.450  1.00  0.00     0.016 A 
ATOM     14  C   UNL     1      98.416 119.059 123.573  1.00  0.00     0.051 A 
ATOM     15  C   UNL     1      98.710 119.861 124.680  1.00  0.00     0.157 A 
ATOM     16  C   UNL     1     100.143 118.106 125.553  1.00  0.00     0.062 A 
ATOM     17  C   UNL     1      99.575 119.382 125.677  1.00  0.00     0.158 A 
BRANCH  15  18
ATOM     18  O   UNL     1      98.129 121.125 124.774  1.00  0.00    -0.504 OA
ATOM     19  H   UNL     1      97.228 121.335 124.362  1.00  0.00     0.293 HD
ENDBRANCH  15  18
BRANCH  17  20
ATOM     20  O   UNL     1      99.867 120.172 126.788  1.00  0.00    -0.504 OA
ATOM     21  H   UNL     1     100.732 120.065 127.305  1.00  0.00     0.293 HD
ENDBRANCH  17  20
ENDBRANCH   1  12
BRANCH   2  22
ATOM     22  O   UNL     1     100.195 115.892 121.919  1.00  0.00    -0.502 OA
ATOM     23  H   UNL     1     100.816 116.488 121.384  1.00  0.00     0.293 HD
ENDBRANCH   2  22
BRANCH   6  24
ATOM     24  O   UNL     1     102.319 111.333 123.242  1.00  0.00    -0.507 OA
ATOM     25  H   UNL     1     102.237 111.724 122.311  1.00  0.00     0.293 HD
ENDBRANCH   6  24
BRANCH   8  26
ATOM     26  O   UNL     1     102.856 111.851 128.009  1.00  0.00    -0.508 OA
ATOM     27  H   UNL     1     103.348 110.967 128.063  1.00  0.00     0.293 HD
ENDBRANCH   8  26
TORSDOF 6
ENDMDL
MODEL 6
REMARK VINA RESULT:    -6.775      2.414      6.391
REMARK INTER + INTRA:          -8.168
REMARK INTER:                  -8.034
REMARK INTRA:                  -0.134
REMARK UNBOUND:                -0.007
REMARK SMILES O=c1c(O)c(-c2ccc(O)c(O)c2)oc2cc(O)cc(O)c12
REMARK SMILES IDX 5 1 3 2 2 3 1 4 22 5 20 6 19 7 17 8 16 9 15 10 14 11 6 12
REMARK SMILES IDX 7 13 8 14 9 15 13 16 11 17 10 18 12 20 4 22 21 24 18 26
REMARK H PARENT 10 19 12 21 4 23 21 25 18 27
REMARK Flexibility Score: inf
ROOT
ATOM      1  C   UNL     1     100.747 115.870 125.196  1.00  0.00     0.180 A 
ATOM      2  C   UNL     1     100.498 114.960 126.241  1.00  0.00     0.208 A 
ATOM      3  C   UNL     1     101.177 113.731 126.246  1.00  0.00     0.238 A 
ATOM      4  O   UNL     1     100.970 112.913 127.182  1.00  0.00    -0.285 OA
ATOM      5  C   UNL     1     102.072 113.425 125.201  1.00  0.00     0.111 A 
ATOM      6  C   UNL     1     102.792 112.208 125.129  1.00  0.00     0.134 A 
ATOM      7  C   UNL     1     103.659 111.975 124.052  1.00  0.00     0.093 A 
ATOM      8  C   UNL     1     103.820 112.931 123.046  1.00  0.00     0.123 A 
ATOM      9  C   UNL     1     103.112 114.135 123.112  1.00  0.00     0.094 A 
ATOM     10  C   UNL     1     102.244 114.387 124.178  1.00  0.00     0.146 A 
ATOM     11  O   UNL     1     101.588 115.542 124.219  1.00  0.00    -0.452 OA
ENDROOT
BRANCH   1  12
ATOM     12  C   UNL     1     100.085 117.193 125.130  1.00  0.00     0.025 A 
ATOM     13  C   UNL     1     100.233 118.138 126.162  1.00  0.00     0.016 A 
ATOM     14  C   UNL     1      99.619 119.389 126.067  1.00  0.00     0.051 A 
ATOM     15  C   UNL     1      98.861 119.722 124.939  1.00  0.00     0.157 A 
ATOM     16  C   UNL     1      99.341 117.539 123.990  1.00  0.00     0.062 A 
ATOM     17  C   UNL     1      98.724 118.795 123.894  1.00  0.00     0.158 A 
BRANCH  15  18
ATOM     18  O   UNL     1      98.260 120.978 124.874  1.00  0.00    -0.504 OA
ATOM     19  H   UNL     1      98.604 121.709 124.263  1.00  0.00     0.293 HD
ENDBRANCH  15  18
BRANCH  17  20
ATOM     20  O   UNL     1      97.977 119.122 122.763  1.00  0.00    -0.504 OA
ATOM     21  H   UNL     1      97.096 118.666 122.558  1.00  0.00     0.293 HD
ENDBRANCH  17  20
ENDBRANCH   1  12
BRANCH   2  22
ATOM     22  O   UNL     1      99.569 115.267 127.238  1.00  0.00    -0.502 OA
ATOM     23  H   UNL     1      98.779 115.880 127.074  1.00  0.00     0.293 HD
ENDBRANCH   2  22
BRANCH   6  24
ATOM     24  O   UNL     1     102.654 111.233 126.117  1.00  0.00    -0.507 OA
ATOM     25  H   UNL     1     102.365 111.466 127.060  1.00  0.00     0.293 HD
ENDBRANCH   6  24
BRANCH   8  26
ATOM     26  O   UNL     1     104.686 112.674 121.986  1.00  0.00    -0.508 OA
ATOM     27  H   UNL     1     105.429 113.318 121.741  1.00  0.00     0.293 HD
ENDBRANCH   8  26
TORSDOF 6
ENDMDL
MODEL 7
REMARK VINA RESULT:    -6.771      2.182      7.143
REMARK INTER + INTRA:          -8.163
REMARK INTER:                  -7.845
REMARK INTRA:                  -0.318
REMARK UNBOUND:                -0.007
REMARK SMILES O=c1c(O)c(-c2ccc(O)c(O)c2)oc2cc(O)cc(O)c12
REMARK SMILES IDX 5 1 3 2 2 3 1 4 22 5 20 6 19 7 17 8 16 9 15 10 14 11 6 12
REMARK SMILES IDX 7 13 8 14 9 15 13 16 11 17 10 18 12 20 4 22 21 24 18 26
REMARK H PARENT 10 19 12 21 4 23 21 25 18 27
REMARK Flexibility Score: inf
ROOT
ATOM      1  C   UNL     1     101.645 114.544 123.469  1.00  0.00     0.180 A 
ATOM      2  C   UNL     1     101.488 114.997 124.792  1.00  0.00     0.208 A 
ATOM      3  C   UNL     1     101.858 114.150 125.848  1.00  0.00     0.238 A 
ATOM      4  O   UNL     1     101.732 114.550 127.037  1.00  0.00    -0.285 OA
ATOM      5  C   UNL     1     102.355 112.861 125.566  1.00  0.00     0.111 A 
ATOM      6  C   UNL     1     102.746 111.944 126.572  1.00  0.00     0.134 A 
ATOM      7  C   UNL     1     103.224 110.676 126.210  1.00  0.00     0.093 A 
ATOM      8  C   UNL     1     103.318 110.307 124.866  1.00  0.00     0.123 A 
ATOM      9  C   UNL     1     102.935 111.208 123.868  1.00  0.00     0.094 A 
ATOM     10  C   UNL     1     102.457 112.478 124.208  1.00  0.00     0.146 A 
ATOM     11  O   UNL     1     102.105 113.316 123.240  1.00  0.00    -0.452 OA
ENDROOT
BRANCH   1  12
ATOM     12  C   UNL     1     101.296 115.385 122.301  1.00  0.00     0.025 A 
ATOM     13  C   UNL     1     102.272 116.138 121.624  1.00  0.00     0.016 A 
ATOM     14  C   UNL     1     101.923 116.906 120.510  1.00  0.00     0.051 A 
ATOM     15  C   UNL     1     100.604 116.925 120.047  1.00  0.00     0.157 A 
ATOM     16  C   UNL     1      99.976 115.390 121.821  1.00  0.00     0.062 A 
ATOM     17  C   UNL     1      99.625 116.161 120.703  1.00  0.00     0.158 A 
BRANCH  15  18
ATOM     18  O   UNL     1     100.287 117.702 118.934  1.00  0.00    -0.504 OA
ATOM     19  H   UNL     1     100.805 118.540 118.698  1.00  0.00     0.293 HD
ENDBRANCH  15  18
BRANCH  17  20
ATOM     20  O   UNL     1      98.309 116.168 120.244  1.00  0.00    -0.504 OA
ATOM     21  H   UNL     1      98.016 115.597 119.460  1.00  0.00     0.293 HD
ENDBRANCH  17  20
ENDBRANCH   1  12
BRANCH   2  22
ATOM     22  O   UNL     1     100.947 116.260 125.046  1.00  0.00    -0.502 OA
ATOM     23  H   UNL     1     101.230 116.823 125.839  1.00  0.00     0.293 HD
ENDBRANCH   2  22
BRANCH   6  24
ATOM     24  O   UNL     1     102.664 112.282 127.923  1.00  0.00    -0.507 OA
ATOM     25  H   UNL     1     102.496 113.235 128.225  1.00  0.00     0.293 HD
ENDBRANCH   6  24
BRANCH   8  26
ATOM     26  O   UNL     1     103.795 109.041 124.533  1.00  0.00    -0.508 OA
ATOM     27  H   UNL     1     104.753 108.897 124.236  1.00  0.00     0.293 HD
ENDBRANCH   8  26
TORSDOF 6
ENDMDL
MODEL 8
REMARK VINA RESULT:    -6.757      4.546      7.124
REMARK INTER + INTRA:          -8.147
REMARK INTER:                  -8.160
REMARK INTRA:                   0.014
REMARK UNBOUND:                -0.007
REMARK SMILES O=c1c(O)c(-c2ccc(O)c(O)c2)oc2cc(O)cc(O)c12
REMARK SMILES IDX 5 1 3 2 2 3 1 4 22 5 20 6 19 7 17 8 16 9 15 10 14 11 6 12
REMARK SMILES IDX 7 13 8 14 9 15 13 16 11 17 10 18 12 20 4 22 21 24 18 26
REMARK H PARENT 10 19 12 21 4 23 21 25 18 27
REMARK Flexibility Score: inf
ROOT
ATOM      1  C   UNL     1     101.411 111.546 123.628  1.00  0.00     0.180 A 
ATOM      2  C   UNL     1     102.322 110.605 124.143  1.00  0.00     0.208 A 
ATOM      3  C   UNL     1     102.454 109.364 123.498  1.00  0.00     0.238 A 
ATOM      4  O   UNL     1     103.275 108.518 123.944  1.00  0.00    -0.285 OA
ATOM      5  C   UNL     1     101.660 109.079 122.368  1.00  0.00     0.111 A 
ATOM      6  C   UNL     1     101.728 107.852 121.664  1.00  0.00     0.134 A 
ATOM      7  C   UNL     1     100.899 107.641 120.553  1.00  0.00     0.093 A 
ATOM      8  C   UNL     1     100.004 108.628 120.133  1.00  0.00     0.123 A 
ATOM      9  C   UNL     1      99.934 109.842 120.824  1.00  0.00     0.094 A 
ATOM     10  C   UNL     1     100.753 110.073 121.933  1.00  0.00     0.146 A 
ATOM     11  O   UNL     1     100.669 111.237 122.568  1.00  0.00    -0.452 OA
ENDROOT
BRANCH   1  12
ATOM     12  C   UNL     1     101.229 112.882 124.239  1.00  0.00     0.025 A 
ATOM     13  C   UNL     1     101.261 114.054 123.462  1.00  0.00     0.016 A 
ATOM     14  C   UNL     1     101.063 115.302 124.057  1.00  0.00     0.051 A 
ATOM     15  C   UNL     1     100.817 115.400 125.431  1.00  0.00     0.157 A 
ATOM     16  C   UNL     1     100.961 112.983 125.615  1.00  0.00     0.062 A 
ATOM     17  C   UNL     1     100.762 114.236 126.213  1.00  0.00     0.158 A 
BRANCH  15  18
ATOM     18  O   UNL     1     100.624 116.660 125.996  1.00  0.00    -0.504 OA
ATOM     19  H   UNL     1     100.567 117.500 125.433  1.00  0.00     0.293 HD
ENDBRANCH  15  18
BRANCH  17  20
ATOM     20  O   UNL     1     100.510 114.324 127.582  1.00  0.00    -0.504 OA
ATOM     21  H   UNL     1     100.225 115.195 128.014  1.00  0.00     0.293 HD
ENDBRANCH  17  20
ENDBRANCH   1  12
BRANCH   2  22
ATOM     22  O   UNL     1     103.061 110.893 125.293  1.00  0.00    -0.502 OA
ATOM     23  H   UNL     1     103.391 111.827 125.506  1.00  0.00     0.293 HD
ENDBRANCH   2  22
BRANCH   6  24
ATOM     24  O   UNL     1     102.611 106.846 122.058  1.00  0.00    -0.507 OA
ATOM     25  H   UNL     1     103.017 106.826 122.986  1.00  0.00     0.293 HD
ENDBRANCH   6  24
BRANCH   8  26
ATOM     26  O   UNL     1      99.191 108.392 119.027  1.00  0.00    -0.508 OA
ATOM     27  H   UNL     1      99.382 107.635 118.382  1.00  0.00     0.293 HD
ENDBRANCH   8  26
TORSDOF 6
ENDMDL
MODEL 9
REMARK VINA RESULT:    -6.681      4.676      6.921
REMARK INTER + INTRA:          -8.055
REMARK INTER:                  -8.186
REMARK INTRA:                   0.131
REMARK UNBOUND:                -0.007
REMARK SMILES O=c1c(O)c(-c2ccc(O)c(O)c2)oc2cc(O)cc(O)c12
REMARK SMILES IDX 5 1 3 2 2 3 1 4 22 5 20 6 19 7 17 8 16 9 15 10 14 11 6 12
REMARK SMILES IDX 7 13 8 14 9 15 13 16 11 17 10 18 12 20 4 22 21 24 18 26
REMARK H PARENT 10 19 12 21 4 23 21 25 18 27
REMARK Flexibility Score: inf
ROOT
ATOM      1  C   UNL     1     100.968 111.396 122.357  1.00  0.00     0.180 A 
ATOM      2  C   UNL     1     101.042 112.529 121.524  1.00  0.00     0.208 A 
ATOM      3  C   UNL     1     101.055 113.804 122.111  1.00  0.00     0.238 A 
ATOM      4  O   UNL     1     101.133 114.825 121.376  1.00  0.00    -0.285 OA
ATOM      5  C   UNL     1     100.970 113.926 123.513  1.00  0.00     0.111 A 
ATOM      6  C   UNL     1     100.972 115.173 124.184  1.00  0.00     0.134 A 
ATOM      7  C   UNL     1     100.877 115.211 125.583  1.00  0.00     0.093 A 
ATOM      8  C   UNL     1     100.779 114.030 126.323  1.00  0.00     0.123 A 
ATOM      9  C   UNL     1     100.777 112.796 125.666  1.00  0.00     0.094 A 
ATOM     10  C   UNL     1     100.873 112.736 124.273  1.00  0.00     0.146 A 
ATOM     11  O   UNL     1     100.875 111.550 123.675  1.00  0.00    -0.452 OA
ENDROOT
BRANCH   1  12
ATOM     12  C   UNL     1     100.969 110.019 121.814  1.00  0.00     0.025 A 
ATOM     13  C   UNL     1     101.709 108.992 122.427  1.00  0.00     0.016 A 
ATOM     14  C   UNL     1     101.676 107.693 121.911  1.00  0.00     0.051 A 
ATOM     15  C   UNL     1     100.897 107.397 120.789  1.00  0.00     0.157 A 
ATOM     16  C   UNL     1     100.171 109.713 120.699  1.00  0.00     0.062 A 
ATOM     17  C   UNL     1     100.138 108.410 120.181  1.00  0.00     0.158 A 
BRANCH  15  18
ATOM     18  O   UNL     1     100.886 106.092 120.297  1.00  0.00    -0.504 OA
ATOM     19  H   UNL     1     101.325 105.327 120.793  1.00  0.00     0.293 HD
ENDBRANCH  15  18
BRANCH  17  20
ATOM     20  O   UNL     1      99.352 108.121 119.066  1.00  0.00    -0.504 OA
ATOM     21  H   UNL     1      98.346 108.024 119.135  1.00  0.00     0.293 HD
ENDBRANCH  17  20
ENDBRANCH   1  12
BRANCH   2  22
ATOM     22  O   UNL     1     101.075 112.383 120.135  1.00  0.00    -0.502 OA
ATOM     23  H   UNL     1     100.736 111.550 119.668  1.00  0.00     0.293 HD
ENDBRANCH   2  22
BRANCH   6  24
ATOM     24  O   UNL     1     101.068 116.370 123.474  1.00  0.00    -0.507 OA
ATOM     25  H   UNL     1     100.479 117.166 123.688  1.00  0.00     0.293 HD
ENDBRANCH   6  24
BRANCH   8  26
ATOM     26  O   UNL     1     100.683 114.096 127.711  1.00  0.00    -0.508 OA
ATOM     27  H   UNL     1     101.449 114.442 128.278  1.00  0.00     0.293 HD
ENDBRANCH   8  26
TORSDOF 6
ENDMDL
