MODEL 1
REMARK VINA RESULT:    -3.869      0.000      0.000
REMARK INTER + INTRA:          -4.271
REMARK INTER:                  -4.095
REMARK INTRA:                  -0.177
REMARK UNBOUND:                -0.177
REMARK SMILES CC(C)[C@H]1CC[C@H](C)CC1=O
REMARK SMILES IDX 8 1 7 2 6 3 5 4 4 5 10 6 11 7 9 8 2 9 1 10 3 11
REMARK H PARENT
REMARK Flexibility Score: inf
ROOT
ATOM      1  C   UNL     1     164.561 167.630 168.552  1.00  0.00     0.008 C 
ATOM      2  C   UNL     1     165.979 168.049 168.953  1.00  0.00    -0.007 C 
ATOM      3  C   UNL     1     166.917 166.826 168.979  1.00  0.00     0.004 C 
ATOM      4  C   UNL     1     168.329 167.232 169.425  1.00  0.00     0.012 C 
ATOM      5  C   UNL     1     168.938 168.296 168.480  1.00  0.00     0.058 C 
ATOM      6  C   UNL     1     167.956 169.441 168.297  1.00  0.00     0.136 C 
ATOM      7  O   UNL     1     168.332 170.604 168.279  1.00  0.00    -0.299 OA
ATOM      8  C   UNL     1     166.515 169.126 167.993  1.00  0.00     0.079 C 
ENDROOT
BRANCH   5   9
ATOM      9  C   UNL     1     170.361 168.769 168.916  1.00  0.00    -0.007 C 
ATOM     10  C   UNL     1     170.603 168.678 170.432  1.00  0.00     0.008 C 
ATOM     11  C   UNL     1     171.469 168.021 168.159  1.00  0.00     0.008 C 
ENDBRANCH   5   9
TORSDOF 1
ENDMDL
MODEL 2
REMARK VINA RESULT:    -3.784      2.210      4.820
REMARK INTER + INTRA:          -4.182
REMARK INTER:                  -4.005
REMARK INTRA:                  -0.176
REMARK UNBOUND:                -0.177
REMARK SMILES CC(C)[C@H]1CC[C@H](C)CC1=O
REMARK SMILES IDX 8 1 7 2 6 3 5 4 4 5 10 6 11 7 9 8 2 9 1 10 3 11
REMARK H PARENT
REMARK Flexibility Score: inf
ROOT
ATOM      1  C   UNL     1     170.992 167.752 168.283  1.00  0.00     0.008 C 
ATOM      2  C   UNL     1     169.602 167.322 168.761  1.00  0.00    -0.007 C 
ATOM      3  C   UNL     1     168.635 168.522 168.761  1.00  0.00     0.004 C 
ATOM      4  C   UNL     1     167.251 168.107 169.284  1.00  0.00     0.012 C 
ATOM      5  C   UNL     1     166.634 166.982 168.419  1.00  0.00     0.058 C 
ATOM      6  C   UNL     1     167.638 165.852 168.257  1.00  0.00     0.136 C 
ATOM      7  O   UNL     1     167.291 164.681 168.313  1.00  0.00    -0.299 OA
ATOM      8  C   UNL     1     169.057 166.184 167.880  1.00  0.00     0.079 C 
ENDROOT
BRANCH   5   9
ATOM      9  C   UNL     1     165.242 166.498 168.935  1.00  0.00    -0.007 C 
ATOM     10  C   UNL     1     165.091 166.573 170.464  1.00  0.00     0.008 C 
ATOM     11  C   UNL     1     164.088 167.250 168.254  1.00  0.00     0.008 C 
ENDBRANCH   5   9
TORSDOF 1
ENDMDL
MODEL 3
REMARK VINA RESULT:    -3.772      4.072      5.718
REMARK INTER + INTRA:          -4.169
REMARK INTER:                  -4.004
REMARK INTRA:                  -0.166
REMARK UNBOUND:                -0.177
REMARK SMILES CC(C)[C@H]1CC[C@H](C)CC1=O
REMARK SMILES IDX 8 1 7 2 6 3 5 4 4 5 10 6 11 7 9 8 2 9 1 10 3 11
REMARK H PARENT
REMARK Flexibility Score: inf
ROOT
ATOM      1  C   UNL     1     170.029 162.552 172.728  1.00  0.00     0.008 C 
ATOM      2  C   UNL     1     169.134 163.203 171.669  1.00  0.00    -0.007 C 
ATOM      3  C   UNL     1     169.153 164.738 171.814  1.00  0.00     0.004 C 
ATOM      4  C   UNL     1     168.221 165.394 170.784  1.00  0.00     0.012 C 
ATOM      5  C   UNL     1     168.635 165.034 169.337  1.00  0.00     0.058 C 
ATOM      6  C   UNL     1     168.793 163.528 169.209  1.00  0.00     0.136 C 
ATOM      7  O   UNL     1     168.396 162.929 168.220  1.00  0.00    -0.299 OA
ATOM      8  C   UNL     1     169.578 162.784 170.256  1.00  0.00     0.079 C 
ENDROOT
BRANCH   5   9
ATOM      9  C   UNL     1     167.692 165.648 168.253  1.00  0.00    -0.007 C 
ATOM     10  C   UNL     1     166.204 165.620 168.644  1.00  0.00     0.008 C 
ATOM     11  C   UNL     1     168.111 167.077 167.875  1.00  0.00     0.008 C 
ENDBRANCH   5   9
TORSDOF 1
ENDMDL
MODEL 4
REMARK VINA RESULT:    -3.771      2.202      3.636
REMARK INTER + INTRA:          -4.168
REMARK INTER:                  -3.992
REMARK INTRA:                  -0.176
REMARK UNBOUND:                -0.177
REMARK SMILES CC(C)[C@H]1CC[C@H](C)CC1=O
REMARK SMILES IDX 8 1 7 2 6 3 5 4 4 5 10 6 11 7 9 8 2 9 1 10 3 11
REMARK H PARENT
REMARK Flexibility Score: inf
ROOT
ATOM      1  C   UNL     1     168.372 163.713 168.547  1.00  0.00     0.008 C 
ATOM      2  C   UNL     1     167.922 165.120 168.953  1.00  0.00    -0.007 C 
ATOM      3  C   UNL     1     169.021 166.153 168.634  1.00  0.00     0.004 C 
ATOM      4  C   UNL     1     168.594 167.559 169.081  1.00  0.00     0.012 C 
ATOM      5  C   UNL     1     167.288 168.003 168.380  1.00  0.00     0.058 C 
ATOM      6  C   UNL     1     166.232 166.921 168.532  1.00  0.00     0.136 C 
ATOM      7  O   UNL     1     165.065 167.200 168.768  1.00  0.00    -0.299 OA
ATOM      8  C   UNL     1     166.606 165.491 168.246  1.00  0.00     0.079 C 
ENDROOT
BRANCH   5   9
ATOM      9  C   UNL     1     166.792 169.414 168.833  1.00  0.00    -0.007 C 
ATOM     10  C   UNL     1     167.108 169.735 170.304  1.00  0.00     0.008 C 
ATOM     11  C   UNL     1     167.331 170.528 167.922  1.00  0.00     0.008 C 
ENDBRANCH   5   9
TORSDOF 1
ENDMDL
MODEL 5
REMARK VINA RESULT:    -3.756      1.941      3.242
REMARK INTER + INTRA:          -4.153
REMARK INTER:                  -3.976
REMARK INTRA:                  -0.177
REMARK UNBOUND:                -0.177
REMARK SMILES CC(C)[C@H]1CC[C@H](C)CC1=O
REMARK SMILES IDX 8 1 7 2 6 3 5 4 4 5 10 6 11 7 9 8 2 9 1 10 3 11
REMARK H PARENT
REMARK Flexibility Score: inf
ROOT
ATOM      1  C   UNL     1     167.271 170.954 168.400  1.00  0.00     0.008 C 
ATOM      2  C   UNL     1     167.739 169.582 168.893  1.00  0.00    -0.007 C 
ATOM      3  C   UNL     1     166.607 168.544 168.762  1.00  0.00     0.004 C 
ATOM      4  C   UNL     1     167.055 167.176 169.298  1.00  0.00     0.012 C 
ATOM      5  C   UNL     1     168.293 166.648 168.534  1.00  0.00     0.058 C 
ATOM      6  C   UNL     1     169.369 167.721 168.498  1.00  0.00     0.136 C 
ATOM      7  O   UNL     1     170.549 167.443 168.661  1.00  0.00    -0.299 OA
ATOM      8  C   UNL     1     168.987 169.126 168.116  1.00  0.00     0.079 C 
ENDROOT
BRANCH   5   9
ATOM      9  C   UNL     1     168.811 165.275 169.070  1.00  0.00    -0.007 C 
ATOM     10  C   UNL     1     168.590 165.080 170.580  1.00  0.00     0.008 C 
ATOM     11  C   UNL     1     168.209 164.095 168.292  1.00  0.00     0.008 C 
ENDBRANCH   5   9
TORSDOF 1
ENDMDL
MODEL 6
REMARK VINA RESULT:    -3.687      2.093      4.723
REMARK INTER + INTRA:          -4.079
REMARK INTER:                  -3.910
REMARK INTRA:                  -0.169
REMARK UNBOUND:                -0.177
REMARK SMILES CC(C)[C@H]1CC[C@H](C)CC1=O
REMARK SMILES IDX 8 1 7 2 6 3 5 4 4 5 10 6 11 7 9 8 2 9 1 10 3 11
REMARK H PARENT
REMARK Flexibility Score: inf
ROOT
ATOM      1  C   UNL     1     172.421 169.697 172.428  1.00  0.00     0.008 C 
ATOM      2  C   UNL     1     171.718 168.784 171.420  1.00  0.00    -0.007 C 
ATOM      3  C   UNL     1     170.197 168.773 171.669  1.00  0.00     0.004 C 
ATOM      4  C   UNL     1     169.490 167.823 170.691  1.00  0.00     0.012 C 
ATOM      5  C   UNL     1     169.743 168.235 169.220  1.00  0.00     0.058 C 
ATOM      6  C   UNL     1     171.233 168.421 168.989  1.00  0.00     0.136 C 
ATOM      7  O   UNL     1     171.771 168.030 167.963  1.00  0.00    -0.299 OA
ATOM      8  C   UNL     1     172.030 169.227 169.980  1.00  0.00     0.079 C 
ENDROOT
BRANCH   5   9
ATOM      9  C   UNL     1     169.075 167.273 168.186  1.00  0.00    -0.007 C 
ATOM     10  C   UNL     1     169.126 165.792 168.598  1.00  0.00     0.008 C 
ATOM     11  C   UNL     1     167.628 167.685 167.875  1.00  0.00     0.008 C 
ENDBRANCH   5   9
TORSDOF 1
ENDMDL
MODEL 7
REMARK VINA RESULT:    -3.669      2.823      4.151
REMARK INTER + INTRA:          -4.060
REMARK INTER:                  -3.889
REMARK INTRA:                  -0.171
REMARK UNBOUND:                -0.177
REMARK SMILES CC(C)[C@H]1CC[C@H](C)CC1=O
REMARK SMILES IDX 8 1 7 2 6 3 5 4 4 5 10 6 11 7 9 8 2 9 1 10 3 11
REMARK H PARENT
REMARK Flexibility Score: inf
ROOT
ATOM      1  C   UNL     1     163.119 165.578 172.440  1.00  0.00     0.008 C 
ATOM      2  C   UNL     1     163.812 166.507 171.439  1.00  0.00    -0.007 C 
ATOM      3  C   UNL     1     165.332 166.537 171.692  1.00  0.00     0.004 C 
ATOM      4  C   UNL     1     166.027 167.503 170.721  1.00  0.00     0.012 C 
ATOM      5  C   UNL     1     165.784 167.098 169.248  1.00  0.00     0.058 C 
ATOM      6  C   UNL     1     164.297 166.892 169.012  1.00  0.00     0.136 C 
ATOM      7  O   UNL     1     163.757 167.282 167.987  1.00  0.00    -0.299 OA
ATOM      8  C   UNL     1     163.509 166.069 169.996  1.00  0.00     0.079 C 
ENDROOT
BRANCH   5   9
ATOM      9  C   UNL     1     166.441 168.075 168.221  1.00  0.00    -0.007 C 
ATOM     10  C   UNL     1     166.379 169.551 168.649  1.00  0.00     0.008 C 
ATOM     11  C   UNL     1     167.891 167.678 167.902  1.00  0.00     0.008 C 
ENDBRANCH   5   9
TORSDOF 1
ENDMDL
MODEL 8
REMARK VINA RESULT:    -3.617      1.940      3.627
REMARK INTER + INTRA:          -4.006
REMARK INTER:                  -3.831
REMARK INTRA:                  -0.175
REMARK UNBOUND:                -0.177
REMARK SMILES CC(C)[C@H]1CC[C@H](C)CC1=O
REMARK SMILES IDX 8 1 7 2 6 3 5 4 4 5 10 6 11 7 9 8 2 9 1 10 3 11
REMARK H PARENT
REMARK Flexibility Score: inf
ROOT
ATOM      1  C   UNL     1     168.375 163.608 168.256  1.00  0.00     0.008 C 
ATOM      2  C   UNL     1     168.164 165.122 168.156  1.00  0.00    -0.007 C 
ATOM      3  C   UNL     1     166.889 165.541 168.914  1.00  0.00     0.004 C 
ATOM      4  C   UNL     1     166.647 167.052 168.778  1.00  0.00     0.012 C 
ATOM      5  C   UNL     1     167.838 167.869 169.334  1.00  0.00     0.058 C 
ATOM      6  C   UNL     1     169.135 167.358 168.730  1.00  0.00     0.136 C 
ATOM      7  O   UNL     1     170.018 168.128 168.377  1.00  0.00    -0.299 OA
ATOM      8  C   UNL     1     169.392 165.875 168.697  1.00  0.00     0.079 C 
ENDROOT
BRANCH   5   9
ATOM      9  C   UNL     1     167.654 169.412 169.182  1.00  0.00    -0.007 C 
ATOM     10  C   UNL     1     166.923 169.822 167.892  1.00  0.00     0.008 C 
ATOM     11  C   UNL     1     166.952 170.027 170.403  1.00  0.00     0.008 C 
ENDBRANCH   5   9
TORSDOF 1
ENDMDL
