MODEL 1
REMARK VINA RESULT:    -4.189      0.000      0.000
REMARK INTER + INTRA:          -9.467
REMARK INTER:                  -7.373
REMARK INTRA:                  -2.094
REMARK UNBOUND:                -2.094
REMARK SMILES CCCCCCCCCCCCCCC(=O)[O-]
REMARK SMILES IDX 9 1 10 2 11 3 12 4 13 5 14 6 15 7 16 8 17 9 8 10 7 11 6 12
REMARK SMILES IDX 5 13 4 14 3 15 2 16 1 17
REMARK H PARENT
REMARK Flexibility Score: inf
ROOT
ATOM      1  C   UNL     1       1.654   4.925  31.827  1.00  0.00     0.000 C 
ENDROOT
BRANCH   1   2
ATOM      2  C   UNL     1       1.881   4.187  30.498  1.00  0.00     0.000 C 
BRANCH   2   3
ATOM      3  C   UNL     1       1.122   4.831  29.326  1.00  0.00     0.000 C 
BRANCH   3   4
ATOM      4  C   UNL     1       1.940   4.874  28.015  1.00  0.00     0.000 C 
BRANCH   4   5
ATOM      5  C   UNL     1       2.839   3.638  27.819  1.00  0.00     0.006 C 
BRANCH   5   6
ATOM      6  C   UNL     1       3.756   3.740  26.589  1.00  0.00     0.053 C 
BRANCH   6   7
ATOM      7  C   UNL     1       3.461   4.958  25.770  1.00  0.00     0.041 C 
ATOM      8  O   UNL     1       4.178   5.986  25.882  1.00  0.00    -0.550 OA
ATOM      9  O   UNL     1       2.408   4.949  24.862  1.00  0.00    -0.550 OA
ENDBRANCH   6   7
ENDBRANCH   5   6
ENDBRANCH   4   5
ENDBRANCH   3   4
ENDBRANCH   2   3
ENDBRANCH   1   2
BRANCH   1  10
ATOM     10  C   UNL     1       0.910   6.265  31.641  1.00  0.00     0.000 C 
BRANCH  10  11
ATOM     11  C   UNL     1       1.520   7.428  32.447  1.00  0.00    -0.000 C 
BRANCH  11  12
ATOM     12  C   UNL     1       2.003   8.619  31.600  1.00  0.00    -0.000 C 
BRANCH  12  13
ATOM     13  C   UNL     1       3.415   8.466  30.998  1.00  0.00    -0.000 C 
BRANCH  13  14
ATOM     14  C   UNL     1       3.458   7.969  29.541  1.00  0.00    -0.000 C 
BRANCH  14  15
ATOM     15  C   UNL     1       4.631   7.013  29.269  1.00  0.00    -0.000 C 
BRANCH  15  16
ATOM     16  C   UNL     1       5.043   6.218  30.517  1.00  0.00    -0.003 C 
ATOM     17  C   UNL     1       5.440   4.777  30.199  1.00  0.00     0.004 C 
ENDBRANCH  15  16
ENDBRANCH  14  15
ENDBRANCH  13  14
ENDBRANCH  12  13
ENDBRANCH  11  12
ENDBRANCH  10  11
ENDBRANCH   1  10
TORSDOF 13
ENDMDL
MODEL 2
REMARK VINA RESULT:    -4.170      1.713      4.017
REMARK INTER + INTRA:          -9.433
REMARK INTER:                  -7.792
REMARK INTRA:                  -1.641
REMARK UNBOUND:                -2.094
REMARK SMILES CCCCCCCCCCCCCCC(=O)[O-]
REMARK SMILES IDX 9 1 10 2 11 3 12 4 13 5 14 6 15 7 16 8 17 9 8 10 7 11 6 12
REMARK SMILES IDX 5 13 4 14 3 15 2 16 1 17
REMARK H PARENT
REMARK Flexibility Score: inf
ROOT
ATOM      1  C   UNL     1       4.642   5.486  29.564  1.00  0.00     0.000 C 
ENDROOT
BRANCH   1   2
ATOM      2  C   UNL     1       4.839   7.009  29.639  1.00  0.00     0.000 C 
BRANCH   2   3
ATOM      3  C   UNL     1       4.583   7.706  28.293  1.00  0.00     0.000 C 
BRANCH   3   4
ATOM      4  C   UNL     1       3.094   7.712  27.879  1.00  0.00     0.000 C 
BRANCH   4   5
ATOM      5  C   UNL     1       2.784   6.757  26.709  1.00  0.00     0.006 C 
BRANCH   5   6
ATOM      6  C   UNL     1       4.038   6.303  25.944  1.00  0.00     0.053 C 
BRANCH   6   7
ATOM      7  C   UNL     1       3.976   4.852  25.579  1.00  0.00     0.041 C 
ATOM      8  O   UNL     1       4.455   4.454  24.485  1.00  0.00    -0.550 OA
ATOM      9  O   UNL     1       3.412   3.936  26.459  1.00  0.00    -0.550 OA
ENDBRANCH   6   7
ENDBRANCH   5   6
ENDBRANCH   4   5
ENDBRANCH   3   4
ENDBRANCH   2   3
ENDBRANCH   1   2
BRANCH   1  10
ATOM     10  C   UNL     1       4.071   4.897  30.872  1.00  0.00     0.000 C 
BRANCH  10  11
ATOM     11  C   UNL     1       2.598   4.458  30.762  1.00  0.00    -0.000 C 
BRANCH  11  12
ATOM     12  C   UNL     1       1.619   5.252  31.644  1.00  0.00    -0.000 C 
BRANCH  12  13
ATOM     13  C   UNL     1       1.164   6.608  31.064  1.00  0.00    -0.000 C 
BRANCH  13  14
ATOM     14  C   UNL     1      -0.205   6.595  30.360  1.00  0.00    -0.000 C 
BRANCH  14  15
ATOM     15  C   UNL     1      -0.115   6.170  28.884  1.00  0.00    -0.000 C 
BRANCH  15  16
ATOM     16  C   UNL     1      -0.678   4.761  28.643  1.00  0.00    -0.003 C 
ATOM     17  C   UNL     1      -2.169   4.769  28.305  1.00  0.00     0.004 C 
ENDBRANCH  15  16
ENDBRANCH  14  15
ENDBRANCH  13  14
ENDBRANCH  12  13
ENDBRANCH  11  12
ENDBRANCH  10  11
ENDBRANCH   1  10
TORSDOF 13
ENDMDL
MODEL 3
REMARK VINA RESULT:    -4.151      1.915      3.993
REMARK INTER + INTRA:          -9.400
REMARK INTER:                  -7.026
REMARK INTRA:                  -2.374
REMARK UNBOUND:                -2.094
REMARK SMILES CCCCCCCCCCCCCCC(=O)[O-]
REMARK SMILES IDX 9 1 10 2 11 3 12 4 13 5 14 6 15 7 16 8 17 9 8 10 7 11 6 12
REMARK SMILES IDX 5 13 4 14 3 15 2 16 1 17
REMARK H PARENT
REMARK Flexibility Score: inf
ROOT
ATOM      1  C   UNL     1       3.255   7.252  28.270  1.00  0.00     0.000 C 
ENDROOT
BRANCH   1   2
ATOM      2  C   UNL     1       2.745   6.105  27.381  1.00  0.00     0.000 C 
BRANCH   2   3
ATOM      3  C   UNL     1       3.858   5.118  26.994  1.00  0.00     0.000 C 
BRANCH   3   4
ATOM      4  C   UNL     1       3.488   3.641  27.262  1.00  0.00     0.000 C 
BRANCH   4   5
ATOM      5  C   UNL     1       2.048   3.460  27.781  1.00  0.00     0.006 C 
BRANCH   5   6
ATOM      6  C   UNL     1       1.088   2.885  26.727  1.00  0.00     0.053 C 
BRANCH   6   7
ATOM      7  C   UNL     1      -0.108   3.763  26.521  1.00  0.00     0.041 C 
ATOM      8  O   UNL     1      -0.592   4.410  27.486  1.00  0.00    -0.550 OA
ATOM      9  O   UNL     1      -0.671   3.887  25.257  1.00  0.00    -0.550 OA
ENDBRANCH   6   7
ENDBRANCH   5   6
ENDBRANCH   4   5
ENDBRANCH   3   4
ENDBRANCH   2   3
ENDBRANCH   1   2
BRANCH   1  10
ATOM     10  C   UNL     1       4.555   6.888  29.018  1.00  0.00     0.000 C 
BRANCH  10  11
ATOM     11  C   UNL     1       4.343   6.576  30.512  1.00  0.00    -0.000 C 
BRANCH  11  12
ATOM     12  C   UNL     1       4.314   5.077  30.863  1.00  0.00    -0.000 C 
BRANCH  12  13
ATOM     13  C   UNL     1       2.905   4.468  31.023  1.00  0.00    -0.000 C 
BRANCH  13  14
ATOM     14  C   UNL     1       1.824   5.439  31.530  1.00  0.00    -0.000 C 
BRANCH  14  15
ATOM     15  C   UNL     1       0.697   5.666  30.508  1.00  0.00    -0.000 C 
BRANCH  15  16
ATOM     16  C   UNL     1       0.036   7.045  30.658  1.00  0.00    -0.003 C 
ATOM     17  C   UNL     1       1.011   8.120  31.136  1.00  0.00     0.004 C 
ENDBRANCH  15  16
ENDBRANCH  14  15
ENDBRANCH  13  14
ENDBRANCH  12  13
ENDBRANCH  11  12
ENDBRANCH  10  11
ENDBRANCH   1  10
TORSDOF 13
ENDMDL
MODEL 4
REMARK VINA RESULT:    -4.148      2.876      4.321
REMARK INTER + INTRA:          -9.395
REMARK INTER:                  -7.315
REMARK INTRA:                  -2.080
REMARK UNBOUND:                -2.094
REMARK SMILES CCCCCCCCCCCCCCC(=O)[O-]
REMARK SMILES IDX 9 1 10 2 11 3 12 4 13 5 14 6 15 7 16 8 17 9 8 10 7 11 6 12
REMARK SMILES IDX 5 13 4 14 3 15 2 16 1 17
REMARK H PARENT
REMARK Flexibility Score: inf
ROOT
ATOM      1  C   UNL     1       0.021   7.399  30.803  1.00  0.00     0.000 C 
ENDROOT
BRANCH   1   2
ATOM      2  C   UNL     1       0.014   7.834  29.328  1.00  0.00     0.000 C 
BRANCH   2   3
ATOM      3  C   UNL     1      -0.706   6.826  28.418  1.00  0.00     0.000 C 
BRANCH   3   4
ATOM      4  C   UNL     1      -1.458   5.723  29.197  1.00  0.00     0.000 C 
BRANCH   4   5
ATOM      5  C   UNL     1      -1.825   4.507  28.326  1.00  0.00     0.006 C 
BRANCH   5   6
ATOM      6  C   UNL     1      -2.914   4.810  27.283  1.00  0.00     0.053 C 
BRANCH   6   7
ATOM      7  C   UNL     1      -2.508   4.375  25.908  1.00  0.00     0.041 C 
ATOM      8  O   UNL     1      -1.459   3.701  25.741  1.00  0.00    -0.550 OA
ATOM      9  O   UNL     1      -3.306   4.691  24.815  1.00  0.00    -0.550 OA
ENDBRANCH   6   7
ENDBRANCH   5   6
ENDBRANCH   4   5
ENDBRANCH   3   4
ENDBRANCH   2   3
ENDBRANCH   1   2
BRANCH   1  10
ATOM     10  C   UNL     1       1.416   6.940  31.279  1.00  0.00     0.000 C 
BRANCH  10  11
ATOM     11  C   UNL     1       1.408   5.574  31.991  1.00  0.00    -0.000 C 
BRANCH  11  12
ATOM     12  C   UNL     1       2.182   4.460  31.264  1.00  0.00    -0.000 C 
BRANCH  12  13
ATOM     13  C   UNL     1       1.629   4.075  29.875  1.00  0.00    -0.000 C 
BRANCH  13  14
ATOM     14  C   UNL     1       2.656   4.107  28.728  1.00  0.00    -0.000 C 
BRANCH  14  15
ATOM     15  C   UNL     1       2.676   5.451  27.981  1.00  0.00    -0.000 C 
BRANCH  15  16
ATOM     16  C   UNL     1       3.787   6.386  28.483  1.00  0.00    -0.003 C 
ATOM     17  C   UNL     1       3.663   7.805  27.931  1.00  0.00     0.004 C 
ENDBRANCH  15  16
ENDBRANCH  14  15
ENDBRANCH  13  14
ENDBRANCH  12  13
ENDBRANCH  11  12
ENDBRANCH  10  11
ENDBRANCH   1  10
TORSDOF 13
ENDMDL
MODEL 5
REMARK VINA RESULT:    -4.142      8.492     11.284
REMARK INTER + INTRA:          -9.384
REMARK INTER:                  -7.135
REMARK INTRA:                  -2.249
REMARK UNBOUND:                -2.094
REMARK SMILES CCCCCCCCCCCCCCC(=O)[O-]
REMARK SMILES IDX 9 1 10 2 11 3 12 4 13 5 14 6 15 7 16 8 17 9 8 10 7 11 6 12
REMARK SMILES IDX 5 13 4 14 3 15 2 16 1 17
REMARK H PARENT
REMARK Flexibility Score: inf
ROOT
ATOM      1  C   UNL     1      -4.031   7.003  19.976  1.00  0.00     0.000 C 
ENDROOT
BRANCH   1   2
ATOM      2  C   UNL     1      -2.516   7.056  20.231  1.00  0.00     0.000 C 
BRANCH   2   3
ATOM      3  C   UNL     1      -2.156   6.821  21.707  1.00  0.00     0.000 C 
BRANCH   3   4
ATOM      4  C   UNL     1      -1.232   5.601  21.928  1.00  0.00     0.000 C 
BRANCH   4   5
ATOM      5  C   UNL     1      -1.949   4.407  22.586  1.00  0.00     0.006 C 
BRANCH   5   6
ATOM      6  C   UNL     1      -1.511   4.157  24.038  1.00  0.00     0.053 C 
BRANCH   6   7
ATOM      7  C   UNL     1      -2.620   3.587  24.868  1.00  0.00     0.041 C 
ATOM      8  O   UNL     1      -3.241   2.564  24.478  1.00  0.00    -0.550 OA
ATOM      9  O   UNL     1      -2.949   4.171  26.085  1.00  0.00    -0.550 OA
ENDBRANCH   6   7
ENDBRANCH   5   6
ENDBRANCH   4   5
ENDBRANCH   3   4
ENDBRANCH   2   3
ENDBRANCH   1   2
BRANCH   1  10
ATOM     10  C   UNL     1      -4.419   5.927  18.939  1.00  0.00     0.000 C 
BRANCH  10  11
ATOM     11  C   UNL     1      -3.880   4.523  19.273  1.00  0.00    -0.000 C 
BRANCH  11  12
ATOM     12  C   UNL     1      -4.698   3.748  20.322  1.00  0.00    -0.000 C 
BRANCH  12  13
ATOM     13  C   UNL     1      -6.198   4.104  20.379  1.00  0.00    -0.000 C 
BRANCH  13  14
ATOM     14  C   UNL     1      -6.714   4.553  21.759  1.00  0.00    -0.000 C 
BRANCH  14  15
ATOM     15  C   UNL     1      -5.604   4.618  22.821  1.00  0.00    -0.000 C 
BRANCH  15  16
ATOM     16  C   UNL     1      -5.438   6.026  23.412  1.00  0.00    -0.003 C 
ATOM     17  C   UNL     1      -6.488   7.011  22.900  1.00  0.00     0.004 C 
ENDBRANCH  15  16
ENDBRANCH  14  15
ENDBRANCH  13  14
ENDBRANCH  12  13
ENDBRANCH  11  12
ENDBRANCH  10  11
ENDBRANCH   1  10
TORSDOF 13
ENDMDL
MODEL 6
REMARK VINA RESULT:    -4.137      2.341      4.123
REMARK INTER + INTRA:          -9.375
REMARK INTER:                  -7.093
REMARK INTRA:                  -2.282
REMARK UNBOUND:                -2.094
REMARK SMILES CCCCCCCCCCCCCCC(=O)[O-]
REMARK SMILES IDX 9 1 10 2 11 3 12 4 13 5 14 6 15 7 16 8 17 9 8 10 7 11 6 12
REMARK SMILES IDX 5 13 4 14 3 15 2 16 1 17
REMARK H PARENT
REMARK Flexibility Score: inf
ROOT
ATOM      1  C   UNL     1       2.314   6.372  31.426  1.00  0.00     0.000 C 
ENDROOT
BRANCH   1   2
ATOM      2  C   UNL     1       0.779   6.276  31.443  1.00  0.00     0.000 C 
BRANCH   2   3
ATOM      3  C   UNL     1       0.112   7.303  30.516  1.00  0.00     0.000 C 
BRANCH   3   4
ATOM      4  C   UNL     1      -0.130   6.772  29.084  1.00  0.00     0.000 C 
BRANCH   4   5
ATOM      5  C   UNL     1      -1.473   6.031  28.930  1.00  0.00     0.006 C 
BRANCH   5   6
ATOM      6  C   UNL     1      -1.325   4.614  28.352  1.00  0.00     0.053 C 
BRANCH   6   7
ATOM      7  C   UNL     1      -1.508   4.595  26.865  1.00  0.00     0.041 C 
ATOM      8  O   UNL     1      -0.526   4.798  26.103  1.00  0.00    -0.550 OA
ATOM      9  O   UNL     1      -2.758   4.325  26.321  1.00  0.00    -0.550 OA
ENDBRANCH   6   7
ENDBRANCH   5   6
ENDBRANCH   4   5
ENDBRANCH   3   4
ENDBRANCH   2   3
ENDBRANCH   1   2
BRANCH   1  10
ATOM     10  C   UNL     1       2.981   5.093  30.877  1.00  0.00     0.000 C 
BRANCH  10  11
ATOM     11  C   UNL     1       1.983   4.079  30.285  1.00  0.00    -0.000 C 
BRANCH  11  12
ATOM     12  C   UNL     1       2.237   3.704  28.814  1.00  0.00    -0.000 C 
BRANCH  12  13
ATOM     13  C   UNL     1       3.315   4.546  28.099  1.00  0.00    -0.000 C 
BRANCH  13  14
ATOM     14  C   UNL     1       2.777   5.620  27.136  1.00  0.00    -0.000 C 
BRANCH  14  15
ATOM     15  C   UNL     1       3.785   6.753  26.880  1.00  0.00    -0.000 C 
BRANCH  15  16
ATOM     16  C   UNL     1       4.103   7.556  28.151  1.00  0.00    -0.003 C 
ATOM     17  C   UNL     1       3.061   8.634  28.447  1.00  0.00     0.004 C 
ENDBRANCH  15  16
ENDBRANCH  14  15
ENDBRANCH  13  14
ENDBRANCH  12  13
ENDBRANCH  11  12
ENDBRANCH  10  11
ENDBRANCH   1  10
TORSDOF 13
ENDMDL
MODEL 7
REMARK VINA RESULT:    -4.109      1.340      2.339
REMARK INTER + INTRA:          -9.326
REMARK INTER:                  -6.847
REMARK INTRA:                  -2.479
REMARK UNBOUND:                -2.094
REMARK SMILES CCCCCCCCCCCCCCC(=O)[O-]
REMARK SMILES IDX 9 1 10 2 11 3 12 4 13 5 14 6 15 7 16 8 17 9 8 10 7 11 6 12
REMARK SMILES IDX 5 13 4 14 3 15 2 16 1 17
REMARK H PARENT
REMARK Flexibility Score: inf
ROOT
ATOM      1  C   UNL     1       2.503   4.431  30.952  1.00  0.00     0.000 C 
ENDROOT
BRANCH   1   2
ATOM      2  C   UNL     1       3.985   4.778  30.736  1.00  0.00     0.000 C 
BRANCH   2   3
ATOM      3  C   UNL     1       4.463   4.470  29.308  1.00  0.00     0.000 C 
BRANCH   3   4
ATOM      4  C   UNL     1       3.383   3.793  28.432  1.00  0.00     0.000 C 
BRANCH   4   5
ATOM      5  C   UNL     1       3.796   3.661  26.953  1.00  0.00     0.006 C 
BRANCH   5   6
ATOM      6  C   UNL     1       3.783   4.998  26.194  1.00  0.00     0.053 C 
BRANCH   6   7
ATOM      7  C   UNL     1       2.437   5.295  25.607  1.00  0.00     0.041 C 
ATOM      8  O   UNL     1       2.154   6.462  25.231  1.00  0.00    -0.550 OA
ATOM      9  O   UNL     1       1.506   4.275  25.450  1.00  0.00    -0.550 OA
ENDBRANCH   6   7
ENDBRANCH   5   6
ENDBRANCH   4   5
ENDBRANCH   3   4
ENDBRANCH   2   3
ENDBRANCH   1   2
BRANCH   1  10
ATOM     10  C   UNL     1       1.757   5.504  31.773  1.00  0.00     0.000 C 
BRANCH  10  11
ATOM     11  C   UNL     1       0.787   6.361  30.936  1.00  0.00    -0.000 C 
BRANCH  11  12
ATOM     12  C   UNL     1       0.714   5.986  29.445  1.00  0.00    -0.000 C 
BRANCH  12  13
ATOM     13  C   UNL     1       0.889   7.164  28.463  1.00  0.00    -0.000 C 
BRANCH  13  14
ATOM     14  C   UNL     1       1.951   8.204  28.867  1.00  0.00    -0.000 C 
BRANCH  14  15
ATOM     15  C   UNL     1       3.374   7.801  28.446  1.00  0.00    -0.000 C 
BRANCH  15  16
ATOM     16  C   UNL     1       4.445   8.325  29.415  1.00  0.00    -0.003 C 
ATOM     17  C   UNL     1       3.938   8.440  30.852  1.00  0.00     0.004 C 
ENDBRANCH  15  16
ENDBRANCH  14  15
ENDBRANCH  13  14
ENDBRANCH  12  13
ENDBRANCH  11  12
ENDBRANCH  10  11
ENDBRANCH   1  10
TORSDOF 13
ENDMDL
MODEL 8
REMARK VINA RESULT:    -4.082      2.295      3.368
REMARK INTER + INTRA:          -9.278
REMARK INTER:                  -7.182
REMARK INTRA:                  -2.096
REMARK UNBOUND:                -2.094
REMARK SMILES CCCCCCCCCCCCCCC(=O)[O-]
REMARK SMILES IDX 9 1 10 2 11 3 12 4 13 5 14 6 15 7 16 8 17 9 8 10 7 11 6 12
REMARK SMILES IDX 5 13 4 14 3 15 2 16 1 17
REMARK H PARENT
REMARK Flexibility Score: inf
ROOT
ATOM      1  C   UNL     1      -0.095   6.511  29.275  1.00  0.00     0.000 C 
ENDROOT
BRANCH   1   2
ATOM      2  C   UNL     1      -1.341   5.622  29.135  1.00  0.00     0.000 C 
BRANCH   2   3
ATOM      3  C   UNL     1      -1.178   4.541  28.053  1.00  0.00     0.000 C 
BRANCH   3   4
ATOM      4  C   UNL     1       0.297   4.183  27.761  1.00  0.00     0.000 C 
BRANCH   4   5
ATOM      5  C   UNL     1       0.505   3.549  26.372  1.00  0.00     0.006 C 
BRANCH   5   6
ATOM      6  C   UNL     1       0.894   4.568  25.288  1.00  0.00     0.053 C 
BRANCH   6   7
ATOM      7  C   UNL     1      -0.136   4.652  24.204  1.00  0.00     0.041 C 
ATOM      8  O   UNL     1       0.198   4.494  23.000  1.00  0.00    -0.550 OA
ATOM      9  O   UNL     1      -1.469   4.878  24.525  1.00  0.00    -0.550 OA
ENDBRANCH   6   7
ENDBRANCH   5   6
ENDBRANCH   4   5
ENDBRANCH   3   4
ENDBRANCH   2   3
ENDBRANCH   1   2
BRANCH   1  10
ATOM     10  C   UNL     1       0.142   6.974  30.728  1.00  0.00     0.000 C 
BRANCH  10  11
ATOM     11  C   UNL     1       1.463   6.463  31.333  1.00  0.00    -0.000 C 
BRANCH  11  12
ATOM     12  C   UNL     1       1.500   4.952  31.624  1.00  0.00    -0.000 C 
BRANCH  12  13
ATOM     13  C   UNL     1       2.405   4.125  30.685  1.00  0.00    -0.000 C 
BRANCH  13  14
ATOM     14  C   UNL     1       3.516   4.921  29.976  1.00  0.00    -0.000 C 
BRANCH  14  15
ATOM     15  C   UNL     1       4.063   4.204  28.729  1.00  0.00    -0.000 C 
BRANCH  15  16
ATOM     16  C   UNL     1       3.878   5.030  27.447  1.00  0.00    -0.003 C 
ATOM     17  C   UNL     1       3.374   6.446  27.723  1.00  0.00     0.004 C 
ENDBRANCH  15  16
ENDBRANCH  14  15
ENDBRANCH  13  14
ENDBRANCH  12  13
ENDBRANCH  11  12
ENDBRANCH  10  11
ENDBRANCH   1  10
TORSDOF 13
ENDMDL
MODEL 9
REMARK VINA RESULT:    -4.060      2.686      4.774
REMARK INTER + INTRA:          -9.239
REMARK INTER:                  -6.795
REMARK INTRA:                  -2.445
REMARK UNBOUND:                -2.094
REMARK SMILES CCCCCCCCCCCCCCC(=O)[O-]
REMARK SMILES IDX 9 1 10 2 11 3 12 4 13 5 14 6 15 7 16 8 17 9 8 10 7 11 6 12
REMARK SMILES IDX 5 13 4 14 3 15 2 16 1 17
REMARK H PARENT
REMARK Flexibility Score: inf
ROOT
ATOM      1  C   UNL     1       0.938   6.868  28.237  1.00  0.00     0.000 C 
ENDROOT
BRANCH   1   2
ATOM      2  C   UNL     1       1.372   6.587  29.685  1.00  0.00     0.000 C 
BRANCH   2   3
ATOM      3  C   UNL     1       1.217   5.108  30.073  1.00  0.00     0.000 C 
BRANCH   3   4
ATOM      4  C   UNL     1       2.466   4.522  30.770  1.00  0.00     0.000 C 
BRANCH   4   5
ATOM      5  C   UNL     1       3.631   5.526  30.874  1.00  0.00     0.006 C 
BRANCH   5   6
ATOM      6  C   UNL     1       4.988   4.931  30.464  1.00  0.00     0.053 C 
BRANCH   6   7
ATOM      7  C   UNL     1       6.126   5.836  30.821  1.00  0.00     0.041 C 
ATOM      8  O   UNL     1       7.165   5.367  31.356  1.00  0.00    -0.550 OA
ATOM      9  O   UNL     1       6.050   7.195  30.539  1.00  0.00    -0.550 OA
ENDBRANCH   6   7
ENDBRANCH   5   6
ENDBRANCH   4   5
ENDBRANCH   3   4
ENDBRANCH   2   3
ENDBRANCH   1   2
BRANCH   1  10
ATOM     10  C   UNL     1       1.864   7.878  27.526  1.00  0.00     0.000 C 
BRANCH  10  11
ATOM     11  C   UNL     1       3.317   7.850  28.036  1.00  0.00    -0.000 C 
BRANCH  11  12
ATOM     12  C   UNL     1       4.300   7.063  27.150  1.00  0.00    -0.000 C 
BRANCH  12  13
ATOM     13  C   UNL     1       3.672   6.394  25.908  1.00  0.00    -0.000 C 
BRANCH  13  14
ATOM     14  C   UNL     1       3.795   4.860  25.857  1.00  0.00    -0.000 C 
BRANCH  14  15
ATOM     15  C   UNL     1       3.495   4.190  27.208  1.00  0.00    -0.000 C 
BRANCH  15  16
ATOM     16  C   UNL     1       2.344   3.177  27.119  1.00  0.00    -0.003 C 
ATOM     17  C   UNL     1       1.120   3.733  26.391  1.00  0.00     0.004 C 
ENDBRANCH  15  16
ENDBRANCH  14  15
ENDBRANCH  13  14
ENDBRANCH  12  13
ENDBRANCH  11  12
ENDBRANCH  10  11
ENDBRANCH   1  10
TORSDOF 13
ENDMDL
