MODEL 1
REMARK VINA RESULT:    -3.535      0.000      0.000
REMARK INTER + INTRA:          -4.444
REMARK INTER:                  -4.258
REMARK INTRA:                  -0.185
REMARK UNBOUND:                -0.185
REMARK SMILES OCC(O)CO
REMARK SMILES IDX 3 1 5 2 6 3 2 5 1 6 4 8
REMARK H PARENT 6 4 1 7 4 9
REMARK Flexibility Score: inf
ROOT
ATOM      1  C   UNL     1      17.442  -4.105   3.504  1.00  0.00     0.165 C 
ENDROOT
BRANCH   1   2
ATOM      2  C   UNL     1      17.849  -2.852   4.299  1.00  0.00     0.190 C 
BRANCH   2   3
ATOM      3  O   UNL     1      18.479  -3.203   5.503  1.00  0.00    -0.394 OA
ATOM      4  H   UNL     1      18.567  -2.369   6.036  1.00  0.00     0.210 HD
ENDBRANCH   2   3
ENDBRANCH   1   2
BRANCH   1   5
ATOM      5  C   UNL     1      16.232  -4.817   4.126  1.00  0.00     0.190 C 
BRANCH   5   6
ATOM      6  O   UNL     1      16.076  -4.461   5.474  1.00  0.00    -0.394 OA
ATOM      7  H   UNL     1      16.912  -4.730   5.939  1.00  0.00     0.210 HD
ENDBRANCH   5   6
ENDBRANCH   1   5
BRANCH   1   8
ATOM      8  O   UNL     1      17.133  -3.753   2.180  1.00  0.00    -0.388 OA
ATOM      9  H   UNL     1      17.993  -3.709   1.686  1.00  0.00     0.211 HD
ENDBRANCH   1   8
TORSDOF 5
ENDMDL
MODEL 2
REMARK VINA RESULT:    -3.411      1.721      3.577
REMARK INTER + INTRA:          -4.294
REMARK INTER:                  -4.275
REMARK INTRA:                  -0.019
REMARK UNBOUND:                -0.185
REMARK SMILES OCC(O)CO
REMARK SMILES IDX 3 1 5 2 6 3 2 5 1 6 4 8
REMARK H PARENT 6 4 1 7 4 9
REMARK Flexibility Score: inf
ROOT
ATOM      1  C   UNL     1      16.602  -5.082   3.711  1.00  0.00     0.165 C 
ENDROOT
BRANCH   1   2
ATOM      2  C   UNL     1      15.574  -5.563   2.672  1.00  0.00     0.190 C 
BRANCH   2   3
ATOM      3  O   UNL     1      15.438  -6.959   2.707  1.00  0.00    -0.394 OA
ATOM      4  H   UNL     1      16.346  -7.340   2.583  1.00  0.00     0.210 HD
ENDBRANCH   2   3
ENDBRANCH   1   2
BRANCH   1   5
ATOM      5  C   UNL     1      17.406  -3.872   3.211  1.00  0.00     0.190 C 
BRANCH   5   6
ATOM      6  O   UNL     1      17.535  -3.895   1.815  1.00  0.00    -0.394 OA
ATOM      7  H   UNL     1      16.630  -3.725   1.442  1.00  0.00     0.210 HD
ENDBRANCH   5   6
ENDBRANCH   1   5
BRANCH   1   8
ATOM      8  O   UNL     1      15.952  -4.735   4.906  1.00  0.00    -0.388 OA
ATOM      9  H   UNL     1      16.652  -4.676   5.607  1.00  0.00     0.211 HD
ENDBRANCH   1   8
TORSDOF 5
ENDMDL
MODEL 3
REMARK VINA RESULT:    -3.407      1.321      2.108
REMARK INTER + INTRA:          -4.289
REMARK INTER:                  -4.282
REMARK INTRA:                  -0.007
REMARK UNBOUND:                -0.185
REMARK SMILES OCC(O)CO
REMARK SMILES IDX 3 1 5 2 6 3 2 5 1 6 4 8
REMARK H PARENT 6 4 1 7 4 9
REMARK Flexibility Score: inf
ROOT
ATOM      1  C   UNL     1      17.067  -4.424   3.274  1.00  0.00     0.165 C 
ENDROOT
BRANCH   1   2
ATOM      2  C   UNL     1      16.950  -3.691   4.622  1.00  0.00     0.190 C 
BRANCH   2   3
ATOM      3  O   UNL     1      16.145  -4.409   5.519  1.00  0.00    -0.394 OA
ATOM      4  H   UNL     1      15.735  -3.746   6.133  1.00  0.00     0.210 HD
ENDBRANCH   2   3
ENDBRANCH   1   2
BRANCH   1   5
ATOM      5  C   UNL     1      15.882  -5.369   3.026  1.00  0.00     0.190 C 
BRANCH   5   6
ATOM      6  O   UNL     1      15.860  -5.812   1.695  1.00  0.00    -0.394 OA
ATOM      7  H   UNL     1      16.626  -6.436   1.590  1.00  0.00     0.210 HD
ENDBRANCH   5   6
ENDBRANCH   1   5
BRANCH   1   8
ATOM      8  O   UNL     1      17.136  -3.494   2.225  1.00  0.00    -0.388 OA
ATOM      9  H   UNL     1      18.052  -3.557   1.845  1.00  0.00     0.211 HD
ENDBRANCH   1   8
TORSDOF 5
ENDMDL
MODEL 4
REMARK VINA RESULT:    -3.302      1.072      2.347
REMARK INTER + INTRA:          -4.163
REMARK INTER:                  -3.966
REMARK INTRA:                  -0.196
REMARK UNBOUND:                -0.185
REMARK SMILES OCC(O)CO
REMARK SMILES IDX 3 1 5 2 6 3 2 5 1 6 4 8
REMARK H PARENT 6 4 1 7 4 9
REMARK Flexibility Score: inf
ROOT
ATOM      1  C   UNL     1      17.213  -3.890   2.713  1.00  0.00     0.165 C 
ENDROOT
BRANCH   1   2
ATOM      2  C   UNL     1      16.312  -5.103   3.004  1.00  0.00     0.190 C 
BRANCH   2   3
ATOM      3  O   UNL     1      15.957  -5.152   4.361  1.00  0.00    -0.394 OA
ATOM      4  H   UNL     1      16.122  -4.248   4.735  1.00  0.00     0.210 HD
ENDBRANCH   2   3
ENDBRANCH   1   2
BRANCH   1   5
ATOM      5  C   UNL     1      18.363  -3.768   3.724  1.00  0.00     0.190 C 
BRANCH   5   6
ATOM      6  O   UNL     1      17.898  -3.304   4.963  1.00  0.00    -0.394 OA
ATOM      7  H   UNL     1      18.695  -2.991   5.468  1.00  0.00     0.210 HD
ENDBRANCH   5   6
ENDBRANCH   1   5
BRANCH   1   8
ATOM      8  O   UNL     1      17.751  -3.991   1.420  1.00  0.00    -0.388 OA
ATOM      9  H   UNL     1      18.708  -4.231   1.526  1.00  0.00     0.211 HD
ENDBRANCH   1   8
TORSDOF 5
ENDMDL
MODEL 5
REMARK VINA RESULT:    -3.219      1.302      2.670
REMARK INTER + INTRA:          -4.064
REMARK INTER:                  -3.847
REMARK INTRA:                  -0.216
REMARK UNBOUND:                -0.185
REMARK SMILES OCC(O)CO
REMARK SMILES IDX 3 1 5 2 6 3 2 5 1 6 4 8
REMARK H PARENT 6 4 1 7 4 9
REMARK Flexibility Score: inf
ROOT
ATOM      1  C   UNL     1      17.061  -3.804   3.496  1.00  0.00     0.165 C 
ENDROOT
BRANCH   1   2
ATOM      2  C   UNL     1      18.349  -3.777   2.656  1.00  0.00     0.190 C 
BRANCH   2   3
ATOM      3  O   UNL     1      18.055  -3.702   1.285  1.00  0.00    -0.394 OA
ATOM      4  H   UNL     1      18.776  -4.190   0.809  1.00  0.00     0.210 HD
ENDBRANCH   2   3
ENDBRANCH   1   2
BRANCH   1   5
ATOM      5  C   UNL     1      16.302  -5.131   3.347  1.00  0.00     0.190 C 
BRANCH   5   6
ATOM      6  O   UNL     1      15.831  -5.298   2.036  1.00  0.00    -0.394 OA
ATOM      7  H   UNL     1      16.555  -4.986   1.431  1.00  0.00     0.210 HD
ENDBRANCH   5   6
ENDBRANCH   1   5
BRANCH   1   8
ATOM      8  O   UNL     1      17.367  -3.604   4.852  1.00  0.00    -0.388 OA
ATOM      9  H   UNL     1      16.713  -4.137   5.375  1.00  0.00     0.211 HD
ENDBRANCH   1   8
TORSDOF 5
ENDMDL
MODEL 6
REMARK VINA RESULT:    -3.146     12.061     12.360
REMARK INTER + INTRA:          -3.975
REMARK INTER:                  -3.810
REMARK INTRA:                  -0.165
REMARK UNBOUND:                -0.185
REMARK SMILES OCC(O)CO
REMARK SMILES IDX 3 1 5 2 6 3 2 5 1 6 4 8
REMARK H PARENT 6 4 1 7 4 9
REMARK Flexibility Score: inf
ROOT
ATOM      1  C   UNL     1      12.679 -15.602   3.262  1.00  0.00     0.165 C 
ENDROOT
BRANCH   1   2
ATOM      2  C   UNL     1      13.184 -16.276   4.550  1.00  0.00     0.190 C 
BRANCH   2   3
ATOM      3  O   UNL     1      13.303 -15.344   5.592  1.00  0.00    -0.394 OA
ATOM      4  H   UNL     1      12.390 -15.004   5.780  1.00  0.00     0.210 HD
ENDBRANCH   2   3
ENDBRANCH   1   2
BRANCH   1   5
ATOM      5  C   UNL     1      11.173 -15.305   3.318  1.00  0.00     0.190 C 
BRANCH   5   6
ATOM      6  O   UNL     1      10.928 -14.045   3.883  1.00  0.00    -0.394 OA
ATOM      7  H   UNL     1      11.576 -13.936   4.628  1.00  0.00     0.210 HD
ENDBRANCH   5   6
ENDBRANCH   1   5
BRANCH   1   8
ATOM      8  O   UNL     1      13.372 -14.401   3.044  1.00  0.00    -0.388 OA
ATOM      9  H   UNL     1      13.084 -13.770   3.754  1.00  0.00     0.211 HD
ENDBRANCH   1   8
TORSDOF 5
ENDMDL
MODEL 7
REMARK VINA RESULT:    -3.006      1.347      3.148
REMARK INTER + INTRA:          -3.806
REMARK INTER:                  -3.804
REMARK INTRA:                  -0.002
REMARK UNBOUND:                -0.185
REMARK SMILES OCC(O)CO
REMARK SMILES IDX 3 1 5 2 6 3 2 5 1 6 4 8
REMARK H PARENT 6 4 1 7 4 9
REMARK Flexibility Score: inf
ROOT
ATOM      1  C   UNL     1      18.451  -3.128   4.339  1.00  0.00     0.165 C 
ENDROOT
BRANCH   1   2
ATOM      2  C   UNL     1      17.419  -3.852   3.458  1.00  0.00     0.190 C 
BRANCH   2   3
ATOM      3  O   UNL     1      16.677  -4.778   4.207  1.00  0.00    -0.394 OA
ATOM      4  H   UNL     1      15.727  -4.667   3.942  1.00  0.00     0.210 HD
ENDBRANCH   2   3
ENDBRANCH   1   2
BRANCH   1   5
ATOM      5  C   UNL     1      18.390  -1.603   4.167  1.00  0.00     0.190 C 
BRANCH   5   6
ATOM      6  O   UNL     1      18.630  -0.948   5.383  1.00  0.00    -0.394 OA
ATOM      7  H   UNL     1      17.989  -0.190   5.430  1.00  0.00     0.210 HD
ENDBRANCH   5   6
ENDBRANCH   1   5
BRANCH   1   8
ATOM      8  O   UNL     1      18.234  -3.443   5.690  1.00  0.00    -0.388 OA
ATOM      9  H   UNL     1      17.732  -4.300   5.708  1.00  0.00     0.211 HD
ENDBRANCH   1   8
TORSDOF 5
ENDMDL
MODEL 8
REMARK VINA RESULT:    -3.002      1.637      3.001
REMARK INTER + INTRA:          -3.802
REMARK INTER:                  -3.799
REMARK INTRA:                  -0.003
REMARK UNBOUND:                -0.185
REMARK SMILES OCC(O)CO
REMARK SMILES IDX 3 1 5 2 6 3 2 5 1 6 4 8
REMARK H PARENT 6 4 1 7 4 9
REMARK Flexibility Score: inf
ROOT
ATOM      1  C   UNL     1      17.587  -3.197   2.657  1.00  0.00     0.165 C 
ENDROOT
BRANCH   1   2
ATOM      2  C   UNL     1      18.105  -3.242   4.105  1.00  0.00     0.190 C 
BRANCH   2   3
ATOM      3  O   UNL     1      17.110  -3.702   4.982  1.00  0.00    -0.394 OA
ATOM      4  H   UNL     1      16.295  -3.165   4.799  1.00  0.00     0.210 HD
ENDBRANCH   2   3
ENDBRANCH   1   2
BRANCH   1   5
ATOM      5  C   UNL     1      18.730  -3.066   1.638  1.00  0.00     0.190 C 
BRANCH   5   6
ATOM      6  O   UNL     1      18.247  -2.644   0.391  1.00  0.00    -0.394 OA
ATOM      7  H   UNL     1      17.282  -2.880   0.364  1.00  0.00     0.210 HD
ENDBRANCH   5   6
ENDBRANCH   1   5
BRANCH   1   8
ATOM      8  O   UNL     1      16.854  -4.360   2.372  1.00  0.00    -0.388 OA
ATOM      9  H   UNL     1      15.963  -4.065   2.047  1.00  0.00     0.211 HD
ENDBRANCH   1   8
TORSDOF 5
ENDMDL
MODEL 9
REMARK VINA RESULT:    -2.977      9.173      9.601
REMARK INTER + INTRA:          -3.771
REMARK INTER:                  -3.547
REMARK INTRA:                  -0.224
REMARK UNBOUND:                -0.185
REMARK SMILES OCC(O)CO
REMARK SMILES IDX 3 1 5 2 6 3 2 5 1 6 4 8
REMARK H PARENT 6 4 1 7 4 9
REMARK Flexibility Score: inf
ROOT
ATOM      1  C   UNL     1      19.859 -11.997   5.226  1.00  0.00     0.165 C 
ENDROOT
BRANCH   1   2
ATOM      2  C   UNL     1      20.782 -11.916   6.454  1.00  0.00     0.190 C 
BRANCH   2   3
ATOM      3  O   UNL     1      21.027 -13.192   6.985  1.00  0.00    -0.394 OA
ATOM      4  H   UNL     1      20.793 -13.848   6.277  1.00  0.00     0.210 HD
ENDBRANCH   2   3
ENDBRANCH   1   2
BRANCH   1   5
ATOM      5  C   UNL     1      20.001 -13.334   4.483  1.00  0.00     0.190 C 
BRANCH   5   6
ATOM      6  O   UNL     1      21.330 -13.556   4.095  1.00  0.00    -0.394 OA
ATOM      7  H   UNL     1      21.624 -12.744   3.604  1.00  0.00     0.210 HD
ENDBRANCH   5   6
ENDBRANCH   1   5
BRANCH   1   8
ATOM      8  O   UNL     1      18.521 -11.833   5.619  1.00  0.00    -0.388 OA
ATOM      9  H   UNL     1      18.193 -11.004   5.183  1.00  0.00     0.211 HD
ENDBRANCH   1   8
TORSDOF 5
ENDMDL
