MODEL 1
REMARK VINA RESULT:    -4.710      0.000      0.000
REMARK INTER + INTRA:          -6.330
REMARK INTER:                  -6.637
REMARK INTRA:                   0.307
REMARK UNBOUND:                 0.307
REMARK SMILES CC1=CCC(=C(C)C)C(=O)CC(C)=CCC1
REMARK SMILES IDX 12 1 14 2 13 3 15 4 16 5 2 6 1 7 3 8 11 10 9 11 10 12 5 13
REMARK SMILES IDX 6 14 7 15 8 16 4 17
REMARK H PARENT
REMARK Flexibility Score: 60.00
ROOT
ATOM      1  C   UNL     1     110.502 120.537 121.124  1.00  0.00    -0.070 C 
ATOM      2  C   UNL     1     109.975 120.174 122.314  1.00  0.00    -0.027 C 
ATOM      3  C   UNL     1     111.765 119.848 120.673  1.00  0.00     0.039 C 
ENDROOT
BRANCH   2   4
ATOM      4  C   UNL     1     108.669 120.675 122.891  1.00  0.00     0.032 C 
BRANCH   4   5
ATOM      5  C   UNL     1     107.429 119.838 122.511  1.00  0.00     0.034 C 
BRANCH   5   6
ATOM      6  C   UNL     1     106.189 120.681 122.273  1.00  0.00    -0.077 C 
ATOM      7  C   UNL     1     105.470 121.226 123.481  1.00  0.00     0.039 C 
ATOM      8  C   UNL     1     105.727 121.031 121.048  1.00  0.00    -0.023 CG0
ATOM      9  G   UNL     1     106.271 120.590 119.704  1.00  0.00     0.000 G0
ENDBRANCH   5   6
ENDBRANCH   4   5
ENDBRANCH   2   4
BRANCH   1  10
ATOM     10  C   UNL     1     109.839 121.526 120.188  1.00  0.00     0.111 C 
BRANCH  10  11
ATOM     11  C   UNL     1     108.778 120.869 119.345  1.00  0.00     0.163 C 
ATOM     12  O   UNL     1     109.055 119.770 118.792  1.00  0.00    -0.294 OA
BRANCH  11  13
ATOM     13  C   UNL     1     107.405 121.439 119.197  1.00  0.00    -0.002 C 
ATOM     14  C   UNL     1     107.210 122.636 118.567  1.00  0.00    -0.069 C 
ATOM     15  C   UNL     1     105.826 123.164 118.261  1.00  0.00     0.039 C 
ATOM     16  C   UNL     1     108.378 123.498 118.141  1.00  0.00     0.039 C 
BRANCH  13  17
ATOM     17  C   UNL     1     106.243 120.589 119.687  1.00  0.00     0.066 CG0
ATOM     18  G   UNL     1     105.738 121.032 121.046  1.00  0.00     0.000 G0
ENDBRANCH  13  17
ENDBRANCH  11  13
ENDBRANCH  10  11
ENDBRANCH   1  10
TORSDOF 0
ENDMDL
MODEL 2
REMARK VINA RESULT:    -4.512      1.708      2.862
REMARK INTER + INTRA:          -6.051
REMARK INTER:                  -6.291
REMARK INTRA:                   0.239
REMARK UNBOUND:                 0.307
REMARK SMILES CC1=CCC(=C(C)C)C(=O)CC(C)=CCC1
REMARK SMILES IDX 12 1 14 2 13 3 15 4 16 5 2 6 1 7 3 8 11 10 9 11 10 12 5 13
REMARK SMILES IDX 6 14 7 15 8 16 4 17
REMARK H PARENT
REMARK Flexibility Score: 60.00
ROOT
ATOM      1  C   UNL     1     109.803 119.644 119.383  1.00  0.00    -0.070 C 
ATOM      2  C   UNL     1     110.773 119.524 120.317  1.00  0.00    -0.027 C 
ATOM      3  C   UNL     1     109.645 118.525 118.384  1.00  0.00     0.039 C 
ENDROOT
BRANCH   2   4
ATOM      4  C   UNL     1     111.024 120.486 121.457  1.00  0.00     0.032 C 
BRANCH   4   5
ATOM      5  C   UNL     1     109.989 120.420 122.601  1.00  0.00     0.034 C 
BRANCH   5   6
ATOM      6  C   UNL     1     109.400 121.774 122.953  1.00  0.00    -0.077 C 
ATOM      7  C   UNL     1     110.346 122.844 123.437  1.00  0.00     0.039 C 
ATOM      8  C   UNL     1     108.095 122.103 122.797  1.00  0.00    -0.023 CG0
ATOM      9  G   UNL     1     106.970 121.193 122.347  1.00  0.00     0.000 G0
ENDBRANCH   5   6
ENDBRANCH   4   5
ENDBRANCH   2   4
BRANCH   1  10
ATOM     10  C   UNL     1     108.816 120.792 119.351  1.00  0.00     0.111 C 
BRANCH  10  11
ATOM     11  C   UNL     1     107.486 120.399 119.938  1.00  0.00     0.163 C 
ATOM     12  O   UNL     1     107.048 119.242 119.693  1.00  0.00    -0.294 OA
BRANCH  11  13
ATOM     13  C   UNL     1     106.709 121.301 120.839  1.00  0.00    -0.002 C 
ATOM     14  C   UNL     1     105.741 122.125 120.338  1.00  0.00    -0.069 C 
ATOM     15  C   UNL     1     104.831 122.932 121.237  1.00  0.00     0.039 C 
ATOM     16  C   UNL     1     105.529 122.270 118.847  1.00  0.00     0.039 C 
BRANCH  13  17
ATOM     17  C   UNL     1     106.976 121.190 122.332  1.00  0.00     0.066 CG0
ATOM     18  G   UNL     1     108.096 122.104 122.787  1.00  0.00     0.000 G0
ENDBRANCH  13  17
ENDBRANCH  11  13
ENDBRANCH  10  11
ENDBRANCH   1  10
TORSDOF 0
ENDMDL
MODEL 3
REMARK VINA RESULT:    -4.424      1.623      3.543
REMARK INTER + INTRA:          -5.927
REMARK INTER:                  -6.305
REMARK INTRA:                   0.378
REMARK UNBOUND:                 0.307
REMARK SMILES CC1=CCC(=C(C)C)C(=O)CC(C)=CCC1
REMARK SMILES IDX 12 1 14 2 13 3 15 4 16 5 2 6 1 7 3 8 11 10 9 11 10 12 5 13
REMARK SMILES IDX 6 14 7 15 8 16 4 17
REMARK H PARENT
REMARK Flexibility Score: 60.00
ROOT
ATOM      1  C   UNL     1     108.221 119.913 122.828  1.00  0.00    -0.070 C 
ATOM      2  C   UNL     1     109.515 120.218 122.585  1.00  0.00    -0.027 C 
ATOM      3  C   UNL     1     107.927 118.638 123.579  1.00  0.00     0.039 C 
ENDROOT
BRANCH   2   4
ATOM      4  C   UNL     1     110.015 121.491 121.936  1.00  0.00     0.032 C 
BRANCH   4   5
ATOM      5  C   UNL     1     110.772 121.286 120.606  1.00  0.00     0.034 C 
BRANCH   5   6
ATOM      6  C   UNL     1     110.021 120.411 119.620  1.00  0.00    -0.077 C 
ATOM      7  C   UNL     1     110.655 119.101 119.222  1.00  0.00     0.039 C 
ATOM      8  C   UNL     1     108.790 120.695 119.128  1.00  0.00    -0.023 CG0
ATOM      9  G   UNL     1     107.976 121.950 119.372  1.00  0.00     0.000 G0
ENDBRANCH   5   6
ENDBRANCH   4   5
ENDBRANCH   2   4
BRANCH   1  10
ATOM     10  C   UNL     1     107.069 120.828 122.468  1.00  0.00     0.111 C 
BRANCH  10  11
ATOM     11  C   UNL     1     106.592 120.594 121.058  1.00  0.00     0.163 C 
ATOM     12  O   UNL     1     106.107 119.465 120.775  1.00  0.00    -0.294 OA
BRANCH  11  13
ATOM     13  C   UNL     1     106.619 121.663 120.016  1.00  0.00    -0.002 C 
ATOM     14  C   UNL     1     105.500 122.397 119.739  1.00  0.00    -0.069 C 
ATOM     15  C   UNL     1     105.533 123.587 118.807  1.00  0.00     0.039 C 
ATOM     16  C   UNL     1     104.163 122.053 120.358  1.00  0.00     0.039 C 
BRANCH  13  17
ATOM     17  C   UNL     1     107.957 121.956 119.355  1.00  0.00     0.066 CG0
ATOM     18  G   UNL     1     108.775 120.702 119.128  1.00  0.00     0.000 G0
ENDBRANCH  13  17
ENDBRANCH  11  13
ENDBRANCH  10  11
ENDBRANCH   1  10
TORSDOF 0
ENDMDL
MODEL 4
REMARK VINA RESULT:    -4.418      1.942      4.197
REMARK INTER + INTRA:          -5.919
REMARK INTER:                  -6.335
REMARK INTRA:                   0.416
REMARK UNBOUND:                 0.307
REMARK SMILES CC1=CCC(=C(C)C)C(=O)CC(C)=CCC1
REMARK SMILES IDX 12 1 14 2 13 3 15 4 16 5 2 6 1 7 3 8 11 10 9 11 10 12 5 13
REMARK SMILES IDX 6 14 7 15 8 16 4 17
REMARK H PARENT
REMARK Flexibility Score: 60.00
ROOT
ATOM      1  C   UNL     1     108.051 121.777 119.128  1.00  0.00    -0.070 C 
ATOM      2  C   UNL     1     109.317 121.448 119.470  1.00  0.00    -0.027 C 
ATOM      3  C   UNL     1     107.831 123.088 118.416  1.00  0.00     0.039 C 
ENDROOT
BRANCH   2   4
ATOM      4  C   UNL     1     109.750 120.142 120.098  1.00  0.00     0.032 C 
BRANCH   4   5
ATOM      5  C   UNL     1     110.378 120.276 121.503  1.00  0.00     0.034 C 
BRANCH   5   6
ATOM      6  C   UNL     1     109.559 121.140 122.443  1.00  0.00    -0.077 C 
ATOM      7  C   UNL     1     110.187 122.415 122.948  1.00  0.00     0.039 C 
ATOM      8  C   UNL     1     108.279 120.877 122.804  1.00  0.00    -0.023 CG0
ATOM      9  G   UNL     1     107.458 119.658 122.438  1.00  0.00     0.000 G0
ENDBRANCH   5   6
ENDBRANCH   4   5
ENDBRANCH   2   4
BRANCH   1  10
ATOM     10  C   UNL     1     106.866 120.857 119.340  1.00  0.00     0.111 C 
BRANCH  10  11
ATOM     11  C   UNL     1     106.228 121.073 120.687  1.00  0.00     0.163 C 
ATOM     12  O   UNL     1     105.687 122.189 120.915  1.00  0.00    -0.294 OA
BRANCH  11  13
ATOM     13  C   UNL     1     106.162 120.000 121.724  1.00  0.00    -0.002 C 
ATOM     14  C   UNL     1     105.003 119.309 121.942  1.00  0.00    -0.069 C 
ATOM     15  C   UNL     1     104.944 118.115 122.868  1.00  0.00     0.039 C 
ATOM     16  C   UNL     1     103.712 119.708 121.260  1.00  0.00     0.039 C 
BRANCH  13  17
ATOM     17  C   UNL     1     107.453 119.652 122.447  1.00  0.00     0.066 CG0
ATOM     18  G   UNL     1     108.265 120.881 122.802  1.00  0.00     0.000 G0
ENDBRANCH  13  17
ENDBRANCH  11  13
ENDBRANCH  10  11
ENDBRANCH   1  10
TORSDOF 0
ENDMDL
MODEL 5
REMARK VINA RESULT:    -4.213      1.462      4.047
REMARK INTER + INTRA:          -5.630
REMARK INTER:                  -6.044
REMARK INTRA:                   0.414
REMARK UNBOUND:                 0.307
REMARK SMILES CC1=CCC(=C(C)C)C(=O)CC(C)=CCC1
REMARK SMILES IDX 12 1 14 2 13 3 15 4 16 5 2 6 1 7 3 8 11 10 9 11 10 12 5 13
REMARK SMILES IDX 6 14 7 15 8 16 4 17
REMARK H PARENT
REMARK Flexibility Score: 60.00
ROOT
ATOM      1  C   UNL     1     106.249 122.506 118.945  1.00  0.00    -0.070 C 
ATOM      2  C   UNL     1     105.069 122.707 119.574  1.00  0.00    -0.027 C 
ATOM      3  C   UNL     1     106.827 123.649 118.148  1.00  0.00     0.039 C 
ENDROOT
BRANCH   2   4
ATOM      4  C   UNL     1     104.381 121.723 120.494  1.00  0.00     0.032 C 
BRANCH   4   5
ATOM      5  C   UNL     1     104.724 121.887 121.991  1.00  0.00     0.034 C 
BRANCH   5   6
ATOM      6  C   UNL     1     105.404 120.666 122.585  1.00  0.00    -0.077 C 
ATOM      7  C   UNL     1     104.524 119.542 123.070  1.00  0.00     0.039 C 
ATOM      8  C   UNL     1     106.747 120.493 122.645  1.00  0.00    -0.023 CG0
ATOM      9  G   UNL     1     107.816 121.486 122.238  1.00  0.00     0.000 G0
ENDBRANCH   5   6
ENDBRANCH   4   5
ENDBRANCH   2   4
BRANCH   1  10
ATOM     10  C   UNL     1     107.057 121.231 119.079  1.00  0.00     0.111 C 
BRANCH  10  11
ATOM     11  C   UNL     1     108.390 121.484 119.732  1.00  0.00     0.163 C 
ATOM     12  O   UNL     1     109.237 122.176 119.104  1.00  0.00    -0.294 OA
BRANCH  11  13
ATOM     13  C   UNL     1     108.714 121.001 121.108  1.00  0.00    -0.002 C 
ATOM     14  C   UNL     1     109.809 120.214 121.332  1.00  0.00    -0.069 C 
ATOM     15  C   UNL     1     110.253 119.840 122.729  1.00  0.00     0.039 C 
ATOM     16  C   UNL     1     110.638 119.678 120.186  1.00  0.00     0.039 C 
BRANCH  13  17
ATOM     17  C   UNL     1     107.834 121.497 122.244  1.00  0.00     0.066 CG0
ATOM     18  G   UNL     1     106.773 120.488 122.635  1.00  0.00     0.000 G0
ENDBRANCH  13  17
ENDBRANCH  11  13
ENDBRANCH  10  11
ENDBRANCH   1  10
TORSDOF 0
ENDMDL
MODEL 6
REMARK VINA RESULT:    -4.205      1.680      3.607
REMARK INTER + INTRA:          -5.619
REMARK INTER:                  -5.840
REMARK INTRA:                   0.221
REMARK UNBOUND:                 0.307
REMARK SMILES CC1=CCC(=C(C)C)C(=O)CC(C)=CCC1
REMARK SMILES IDX 12 1 14 2 13 3 15 4 16 5 2 6 1 7 3 8 11 10 9 11 10 12 5 13
REMARK SMILES IDX 6 14 7 15 8 16 4 17
REMARK H PARENT
REMARK Flexibility Score: 60.00
ROOT
ATOM      1  C   UNL     1     106.465 119.903 122.930  1.00  0.00    -0.070 C 
ATOM      2  C   UNL     1     107.666 119.346 123.202  1.00  0.00    -0.027 C 
ATOM      3  C   UNL     1     105.236 119.247 123.509  1.00  0.00     0.039 C 
ENDROOT
BRANCH   2   4
ATOM      4  C   UNL     1     109.011 119.907 122.797  1.00  0.00     0.032 C 
BRANCH   4   5
ATOM      5  C   UNL     1     109.347 119.766 121.297  1.00  0.00     0.034 C 
BRANCH   5   6
ATOM      6  C   UNL     1     109.711 121.084 120.639  1.00  0.00    -0.077 C 
ATOM      7  C   UNL     1     110.954 121.788 121.121  1.00  0.00     0.039 C 
ATOM      8  C   UNL     1     109.032 121.634 119.602  1.00  0.00    -0.023 CG0
ATOM      9  G   UNL     1     107.756 121.118 118.969  1.00  0.00     0.000 G0
ENDBRANCH   5   6
ENDBRANCH   4   5
ENDBRANCH   2   4
BRANCH   1  10
ATOM     10  C   UNL     1     106.304 121.197 122.159  1.00  0.00     0.111 C 
BRANCH  10  11
ATOM     11  C   UNL     1     105.907 120.945 120.728  1.00  0.00     0.163 C 
ATOM     12  O   UNL     1     105.002 120.096 120.503  1.00  0.00    -0.294 OA
BRANCH  11  13
ATOM     13  C   UNL     1     106.499 121.705 119.587  1.00  0.00    -0.002 C 
ATOM     14  C   UNL     1     105.971 122.903 119.196  1.00  0.00    -0.069 C 
ATOM     15  C   UNL     1     106.639 123.771 118.152  1.00  0.00     0.039 C 
ATOM     16  C   UNL     1     104.683 123.426 119.794  1.00  0.00     0.039 C 
BRANCH  13  17
ATOM     17  C   UNL     1     107.759 121.136 118.952  1.00  0.00     0.066 CG0
ATOM     18  G   UNL     1     109.020 121.638 119.625  1.00  0.00     0.000 G0
ENDBRANCH  13  17
ENDBRANCH  11  13
ENDBRANCH  10  11
ENDBRANCH   1  10
TORSDOF 0
ENDMDL
MODEL 7
REMARK VINA RESULT:    -4.117      1.835      4.011
REMARK INTER + INTRA:          -5.495
REMARK INTER:                  -6.090
REMARK INTRA:                   0.595
REMARK UNBOUND:                 0.307
REMARK SMILES CC1=CCC(=C(C)C)C(=O)CC(C)=CCC1
REMARK SMILES IDX 12 1 14 2 13 3 15 4 16 5 2 6 1 7 3 8 11 10 9 11 10 12 5 13
REMARK SMILES IDX 6 14 7 15 8 16 4 17
REMARK H PARENT
REMARK Flexibility Score: 60.00
ROOT
ATOM      1  C   UNL     1     110.137 121.146 122.460  1.00  0.00    -0.070 C 
ATOM      2  C   UNL     1     110.882 120.950 121.349  1.00  0.00    -0.027 C 
ATOM      3  C   UNL     1     110.358 122.416 123.242  1.00  0.00     0.039 C 
ENDROOT
BRANCH   2   4
ATOM      4  C   UNL     1     110.741 119.794 120.384  1.00  0.00     0.032 C 
BRANCH   4   5
ATOM      5  C   UNL     1     110.077 120.151 119.037  1.00  0.00     0.034 C 
BRANCH   5   6
ATOM      6  C   UNL     1     109.054 121.267 119.152  1.00  0.00    -0.077 C 
ATOM      7  C   UNL     1     109.465 122.644 118.696  1.00  0.00     0.039 C 
ATOM      8  C   UNL     1     107.778 121.092 119.573  1.00  0.00    -0.023 CG0
ATOM      9  G   UNL     1     107.153 119.813 120.093  1.00  0.00     0.000 G0
ENDBRANCH   5   6
ENDBRANCH   4   5
ENDBRANCH   2   4
BRANCH   1  10
ATOM     10  C   UNL     1     109.036 120.203 122.900  1.00  0.00     0.111 C 
BRANCH  10  11
ATOM     11  C   UNL     1     107.679 120.694 122.468  1.00  0.00     0.163 C 
ATOM     12  O   UNL     1     107.320 121.845 122.834  1.00  0.00    -0.294 OA
BRANCH  11  13
ATOM     13  C   UNL     1     106.783 119.894 121.580  1.00  0.00    -0.002 C 
ATOM     14  C   UNL     1     105.633 119.337 122.066  1.00  0.00    -0.069 C 
ATOM     15  C   UNL     1     104.628 118.659 121.163  1.00  0.00     0.039 C 
ATOM     16  C   UNL     1     105.307 119.374 123.543  1.00  0.00     0.039 C 
BRANCH  13  17
ATOM     17  C   UNL     1     107.156 119.812 120.108  1.00  0.00     0.066 CG0
ATOM     18  G   UNL     1     107.777 121.096 119.599  1.00  0.00     0.000 G0
ENDBRANCH  13  17
ENDBRANCH  11  13
ENDBRANCH  10  11
ENDBRANCH   1  10
TORSDOF 0
ENDMDL
MODEL 8
REMARK VINA RESULT:    -4.028      1.664      3.903
REMARK INTER + INTRA:          -5.369
REMARK INTER:                  -5.860
REMARK INTRA:                   0.491
REMARK UNBOUND:                 0.307
REMARK SMILES CC1=CCC(=C(C)C)C(=O)CC(C)=CCC1
REMARK SMILES IDX 12 1 14 2 13 3 15 4 16 5 2 6 1 7 3 8 11 10 9 11 10 12 5 13
REMARK SMILES IDX 6 14 7 15 8 16 4 17
REMARK H PARENT
REMARK Flexibility Score: 60.00
ROOT
ATOM      1  C   UNL     1     109.057 120.514 121.923  1.00  0.00    -0.070 C 
ATOM      2  C   UNL     1     109.573 120.688 120.686  1.00  0.00    -0.027 C 
ATOM      3  C   UNL     1     109.880 119.751 122.929  1.00  0.00     0.039 C 
ENDROOT
BRANCH   2   4
ATOM      4  C   UNL     1     108.948 121.502 119.574  1.00  0.00     0.032 C 
BRANCH   4   5
ATOM      5  C   UNL     1     107.652 120.906 118.985  1.00  0.00     0.034 C 
BRANCH   5   6
ATOM      6  C   UNL     1     106.448 121.817 119.146  1.00  0.00    -0.077 C 
ATOM      7  C   UNL     1     106.504 123.174 118.490  1.00  0.00     0.039 C 
ATOM      8  C   UNL     1     105.303 121.464 119.779  1.00  0.00    -0.023 CG0
ATOM      9  G   UNL     1     105.028 120.172 120.520  1.00  0.00     0.000 G0
ENDBRANCH   5   6
ENDBRANCH   4   5
ENDBRANCH   2   4
BRANCH   1  10
ATOM     10  C   UNL     1     107.745 121.125 122.369  1.00  0.00     0.111 C 
BRANCH  10  11
ATOM     11  C   UNL     1     106.667 120.083 122.514  1.00  0.00     0.163 C 
ATOM     12  O   UNL     1     106.954 119.010 123.110  1.00  0.00    -0.294 OA
BRANCH  11  13
ATOM     13  C   UNL     1     105.270 120.304 122.034  1.00  0.00    -0.002 C 
ATOM     14  C   UNL     1     104.285 120.688 122.901  1.00  0.00    -0.069 C 
ATOM     15  C   UNL     1     102.902 121.072 122.424  1.00  0.00     0.039 C 
ATOM     16  C   UNL     1     104.534 120.750 124.392  1.00  0.00     0.039 C 
BRANCH  13  17
ATOM     17  C   UNL     1     105.019 120.176 120.539  1.00  0.00     0.066 CG0
ATOM     18  G   UNL     1     105.311 121.463 119.795  1.00  0.00     0.000 G0
ENDBRANCH  13  17
ENDBRANCH  11  13
ENDBRANCH  10  11
ENDBRANCH   1  10
TORSDOF 0
ENDMDL
MODEL 9
REMARK VINA RESULT:    -3.959      1.420      1.817
REMARK INTER + INTRA:          -5.272
REMARK INTER:                  -5.862
REMARK INTRA:                   0.589
REMARK UNBOUND:                 0.307
REMARK SMILES CC1=CCC(=C(C)C)C(=O)CC(C)=CCC1
REMARK SMILES IDX 12 1 14 2 13 3 15 4 16 5 2 6 1 7 3 8 11 10 9 11 10 12 5 13
REMARK SMILES IDX 6 14 7 15 8 16 4 17
REMARK H PARENT
REMARK Flexibility Score: 60.00
ROOT
ATOM      1  C   UNL     1     109.158 120.495 120.536  1.00  0.00    -0.070 C 
ATOM      2  C   UNL     1     108.756 120.056 121.750  1.00  0.00    -0.027 C 
ATOM      3  C   UNL     1     110.128 119.638 119.763  1.00  0.00     0.039 C 
ENDROOT
BRANCH   2   4
ATOM      4  C   UNL     1     107.720 120.720 122.630  1.00  0.00     0.032 C 
BRANCH   4   5
ATOM      5  C   UNL     1     106.554 119.805 123.062  1.00  0.00     0.034 C 
BRANCH   5   6
ATOM      6  C   UNL     1     105.597 119.480 121.930  1.00  0.00    -0.077 C 
ATOM      7  C   UNL     1     105.164 118.045 121.769  1.00  0.00     0.039 C 
ATOM      8  C   UNL     1     105.055 120.404 121.099  1.00  0.00    -0.023 CG0
ATOM      9  G   UNL     1     105.354 121.889 121.062  1.00  0.00     0.000 G0
ENDBRANCH   5   6
ENDBRANCH   4   5
ENDBRANCH   2   4
BRANCH   1  10
ATOM     10  C   UNL     1     108.613 121.749 119.882  1.00  0.00     0.111 C 
BRANCH  10  11
ATOM     11  C   UNL     1     107.233 121.528 119.321  1.00  0.00     0.163 C 
ATOM     12  O   UNL     1     107.073 120.596 118.486  1.00  0.00    -0.294 OA
BRANCH  11  13
ATOM     13  C   UNL     1     106.051 122.326 119.764  1.00  0.00    -0.002 C 
ATOM     14  C   UNL     1     105.567 123.345 118.992  1.00  0.00    -0.069 C 
ATOM     15  C   UNL     1     104.282 124.067 119.332  1.00  0.00     0.039 C 
ATOM     16  C   UNL     1     106.298 123.803 117.749  1.00  0.00     0.039 C 
BRANCH  13  17
ATOM     17  C   UNL     1     105.361 121.894 121.049  1.00  0.00     0.066 CG0
ATOM     18  G   UNL     1     105.076 120.406 121.077  1.00  0.00     0.000 G0
ENDBRANCH  13  17
ENDBRANCH  11  13
ENDBRANCH  10  11
ENDBRANCH   1  10
TORSDOF 0
ENDMDL
