MODEL 1
REMARK VINA RESULT:    -4.988      0.000      0.000
REMARK INTER + INTRA:          -7.136
REMARK INTER:                  -6.738
REMARK INTRA:                  -0.398
REMARK UNBOUND:                -0.398
REMARK SMILES CCCCCCC=CC(=O)[O-]
REMARK SMILES IDX 5 1 6 2 7 3 8 4 9 5 10 6 11 7 4 8 3 9 2 10 1 11
REMARK H PARENT
REMARK Flexibility Score: inf
ROOT
ATOM      1  C   UNL     1      26.608  13.224  35.130  1.00  0.00     0.004 C 
ENDROOT
BRANCH   1   2
ATOM      2  C   UNL     1      27.547  12.009  35.145  1.00  0.00     0.027 C 
BRANCH   2   3
ATOM      3  C   UNL     1      27.970  11.636  33.753  1.00  0.00    -0.025 C 
ATOM      4  C   UNL     1      27.884  12.504  32.740  1.00  0.00     0.020 C 
BRANCH   4   5
ATOM      5  C   UNL     1      28.279  12.157  31.366  1.00  0.00     0.064 C 
ATOM      6  O   UNL     1      29.013  12.923  30.686  1.00  0.00    -0.545 OA
ATOM      7  O   UNL     1      27.835  10.966  30.808  1.00  0.00    -0.545 OA
ENDBRANCH   4   5
ENDBRANCH   2   3
ENDBRANCH   1   2
BRANCH   1   8
ATOM      8  C   UNL     1      25.292  12.964  35.882  1.00  0.00     0.000 C 
BRANCH   8   9
ATOM      9  C   UNL     1      24.879  11.485  35.855  1.00  0.00    -0.000 C 
BRANCH   9  10
ATOM     10  C   UNL     1      23.675  11.269  34.930  1.00  0.00    -0.003 C 
ATOM     11  C   UNL     1      22.425  10.905  35.726  1.00  0.00     0.004 C 
ENDBRANCH   9  10
ENDBRANCH   8   9
ENDBRANCH   1   8
TORSDOF 6
ENDMDL
MODEL 2
REMARK VINA RESULT:    -4.984      3.865      5.916
REMARK INTER + INTRA:          -7.129
REMARK INTER:                  -6.744
REMARK INTRA:                  -0.385
REMARK UNBOUND:                -0.398
REMARK SMILES CCCCCCC=CC(=O)[O-]
REMARK SMILES IDX 5 1 6 2 7 3 8 4 9 5 10 6 11 7 4 8 3 9 2 10 1 11
REMARK H PARENT
REMARK Flexibility Score: inf
ROOT
ATOM      1  C   UNL     1      25.721  11.333  34.545  1.00  0.00     0.004 C 
ENDROOT
BRANCH   1   2
ATOM      2  C   UNL     1      24.933  11.415  35.862  1.00  0.00     0.027 C 
BRANCH   2   3
ATOM      3  C   UNL     1      23.717  12.284  35.710  1.00  0.00    -0.025 C 
ATOM      4  C   UNL     1      22.502  11.758  35.521  1.00  0.00     0.020 C 
BRANCH   4   5
ATOM      5  C   UNL     1      21.299  12.588  35.357  1.00  0.00     0.064 C 
ATOM      6  O   UNL     1      20.241  12.334  35.992  1.00  0.00    -0.545 OA
ATOM      7  O   UNL     1      21.330  13.670  34.487  1.00  0.00    -0.545 OA
ENDBRANCH   4   5
ENDBRANCH   2   3
ENDBRANCH   1   2
BRANCH   1   8
ATOM      8  C   UNL     1      27.239  11.229  34.769  1.00  0.00     0.000 C 
BRANCH   8   9
ATOM      9  C   UNL     1      28.028  12.256  33.944  1.00  0.00    -0.000 C 
BRANCH   9  10
ATOM     10  C   UNL     1      27.257  13.576  33.829  1.00  0.00    -0.003 C 
ATOM     11  C   UNL     1      27.438  14.431  35.081  1.00  0.00     0.004 C 
ENDBRANCH   9  10
ENDBRANCH   8   9
ENDBRANCH   1   8
TORSDOF 6
ENDMDL
MODEL 3
REMARK VINA RESULT:    -4.805      4.226      6.212
REMARK INTER + INTRA:          -6.888
REMARK INTER:                  -6.500
REMARK INTRA:                  -0.388
REMARK UNBOUND:                -0.398
REMARK SMILES CCCCCCC=CC(=O)[O-]
REMARK SMILES IDX 5 1 6 2 7 3 8 4 9 5 10 6 11 7 4 8 3 9 2 10 1 11
REMARK H PARENT
REMARK Flexibility Score: inf
ROOT
ATOM      1  C   UNL     1      25.139  11.231  35.756  1.00  0.00     0.004 C 
ENDROOT
BRANCH   1   2
ATOM      2  C   UNL     1      24.225  12.464  35.706  1.00  0.00     0.027 C 
BRANCH   2   3
ATOM      3  C   UNL     1      22.783  12.064  35.575  1.00  0.00    -0.025 C 
ATOM      4  C   UNL     1      22.402  10.785  35.666  1.00  0.00     0.020 C 
BRANCH   4   5
ATOM      5  C   UNL     1      20.998  10.368  35.528  1.00  0.00     0.064 C 
ATOM      6  O   UNL     1      20.699   9.205  35.143  1.00  0.00    -0.545 OA
ATOM      7  O   UNL     1      19.985  11.270  35.825  1.00  0.00    -0.545 OA
ENDBRANCH   4   5
ENDBRANCH   2   3
ENDBRANCH   1   2
BRANCH   1   8
ATOM      8  C   UNL     1      26.218  11.249  34.661  1.00  0.00     0.000 C 
BRANCH   8   9
ATOM      9  C   UNL     1      27.492  11.987  35.100  1.00  0.00    -0.000 C 
BRANCH   9  10
ATOM     10  C   UNL     1      27.675  13.284  34.303  1.00  0.00    -0.003 C 
ATOM     11  C   UNL     1      27.381  14.508  35.165  1.00  0.00     0.004 C 
ENDBRANCH   9  10
ENDBRANCH   8   9
ENDBRANCH   1   8
TORSDOF 6
ENDMDL
MODEL 4
REMARK VINA RESULT:    -4.688      3.634      5.380
REMARK INTER + INTRA:          -6.730
REMARK INTER:                  -6.132
REMARK INTRA:                  -0.598
REMARK UNBOUND:                -0.398
REMARK SMILES CCCCCCC=CC(=O)[O-]
REMARK SMILES IDX 5 1 6 2 7 3 8 4 9 5 10 6 11 7 4 8 3 9 2 10 1 11
REMARK H PARENT
REMARK Flexibility Score: inf
ROOT
ATOM      1  C   UNL     1      27.347  11.121  34.732  1.00  0.00     0.004 C 
ENDROOT
BRANCH   1   2
ATOM      2  C   UNL     1      26.397  12.077  35.468  1.00  0.00     0.027 C 
BRANCH   2   3
ATOM      3  C   UNL     1      24.996  11.535  35.492  1.00  0.00    -0.025 C 
ATOM      4  C   UNL     1      23.938  12.339  35.646  1.00  0.00     0.020 C 
BRANCH   4   5
ATOM      5  C   UNL     1      22.559  11.829  35.685  1.00  0.00     0.064 C 
ATOM      6  O   UNL     1      22.317  10.626  35.972  1.00  0.00    -0.545 OA
ATOM      7  O   UNL     1      21.505  12.688  35.401  1.00  0.00    -0.545 OA
ENDBRANCH   4   5
ENDBRANCH   2   3
ENDBRANCH   1   2
BRANCH   1   8
ATOM      8  C   UNL     1      28.321  11.858  33.797  1.00  0.00     0.000 C 
BRANCH   8   9
ATOM      9  C   UNL     1      27.644  12.996  33.018  1.00  0.00    -0.000 C 
BRANCH   9  10
ATOM     10  C   UNL     1      26.953  12.461  31.758  1.00  0.00    -0.003 C 
ATOM     11  C   UNL     1      25.441  12.649  31.836  1.00  0.00     0.004 C 
ENDBRANCH   9  10
ENDBRANCH   8   9
ENDBRANCH   1   8
TORSDOF 6
ENDMDL
MODEL 5
REMARK VINA RESULT:    -4.628      4.275      6.311
REMARK INTER + INTRA:          -6.650
REMARK INTER:                  -6.335
REMARK INTRA:                  -0.315
REMARK UNBOUND:                -0.398
REMARK SMILES CCCCCCC=CC(=O)[O-]
REMARK SMILES IDX 5 1 6 2 7 3 8 4 9 5 10 6 11 7 4 8 3 9 2 10 1 11
REMARK H PARENT
REMARK Flexibility Score: inf
ROOT
ATOM      1  C   UNL     1      25.157  11.513  35.821  1.00  0.00     0.004 C 
ENDROOT
BRANCH   1   2
ATOM      2  C   UNL     1      23.719  11.092  35.483  1.00  0.00     0.027 C 
BRANCH   2   3
ATOM      3  C   UNL     1      22.775  12.256  35.587  1.00  0.00    -0.025 C 
ATOM      4  C   UNL     1      21.490  12.147  35.234  1.00  0.00     0.020 C 
BRANCH   4   5
ATOM      5  C   UNL     1      20.551  13.277  35.314  1.00  0.00     0.064 C 
ATOM      6  O   UNL     1      19.598  13.274  36.138  1.00  0.00    -0.545 OA
ATOM      7  O   UNL     1      20.718  14.365  34.466  1.00  0.00    -0.545 OA
ENDBRANCH   4   5
ENDBRANCH   2   3
ENDBRANCH   1   2
BRANCH   1   8
ATOM      8  C   UNL     1      26.115  11.359  34.628  1.00  0.00     0.000 C 
BRANCH   8   9
ATOM      9  C   UNL     1      26.122  12.594  33.714  1.00  0.00    -0.000 C 
BRANCH   9  10
ATOM     10  C   UNL     1      27.419  13.394  33.885  1.00  0.00    -0.003 C 
ATOM     11  C   UNL     1      27.281  14.439  34.989  1.00  0.00     0.004 C 
ENDBRANCH   9  10
ENDBRANCH   8   9
ENDBRANCH   1   8
TORSDOF 6
ENDMDL
MODEL 6
REMARK VINA RESULT:    -4.610      1.995      2.943
REMARK INTER + INTRA:          -6.625
REMARK INTER:                  -6.256
REMARK INTRA:                  -0.370
REMARK UNBOUND:                -0.398
REMARK SMILES CCCCCCC=CC(=O)[O-]
REMARK SMILES IDX 5 1 6 2 7 3 8 4 9 5 10 6 11 7 4 8 3 9 2 10 1 11
REMARK H PARENT
REMARK Flexibility Score: inf
ROOT
ATOM      1  C   UNL     1      24.128  10.912  35.877  1.00  0.00     0.004 C 
ENDROOT
BRANCH   1   2
ATOM      2  C   UNL     1      24.941  12.214  35.947  1.00  0.00     0.027 C 
BRANCH   2   3
ATOM      3  C   UNL     1      26.198  12.111  35.132  1.00  0.00    -0.025 C 
ATOM      4  C   UNL     1      26.178  11.671  33.869  1.00  0.00     0.020 C 
BRANCH   4   5
ATOM      5  C   UNL     1      27.398  11.549  33.056  1.00  0.00     0.064 C 
ATOM      6  O   UNL     1      27.347  11.159  31.859  1.00  0.00    -0.545 OA
ATOM      7  O   UNL     1      28.628  11.867  33.618  1.00  0.00    -0.545 OA
ENDBRANCH   4   5
ENDBRANCH   2   3
ENDBRANCH   1   2
BRANCH   1   8
ATOM      8  C   UNL     1      22.656  11.153  35.502  1.00  0.00     0.000 C 
BRANCH   8   9
ATOM      9  C   UNL     1      22.393  12.593  35.036  1.00  0.00    -0.000 C 
BRANCH   9  10
ATOM     10  C   UNL     1      20.941  12.999  35.308  1.00  0.00    -0.003 C 
ATOM     11  C   UNL     1      20.499  14.126  34.378  1.00  0.00     0.004 C 
ENDBRANCH   9  10
ENDBRANCH   8   9
ENDBRANCH   1   8
TORSDOF 6
ENDMDL
MODEL 7
REMARK VINA RESULT:    -4.589      1.628      2.584
REMARK INTER + INTRA:          -6.597
REMARK INTER:                  -6.233
REMARK INTRA:                  -0.364
REMARK UNBOUND:                -0.398
REMARK SMILES CCCCCCC=CC(=O)[O-]
REMARK SMILES IDX 5 1 6 2 7 3 8 4 9 5 10 6 11 7 4 8 3 9 2 10 1 11
REMARK H PARENT
REMARK Flexibility Score: inf
ROOT
ATOM      1  C   UNL     1      23.987  12.340  35.435  1.00  0.00     0.004 C 
ENDROOT
BRANCH   1   2
ATOM      2  C   UNL     1      24.904  11.196  35.890  1.00  0.00     0.027 C 
BRANCH   2   3
ATOM      3  C   UNL     1      26.176  11.171  35.091  1.00  0.00    -0.025 C 
ATOM      4  C   UNL     1      26.230  11.663  33.849  1.00  0.00     0.020 C 
BRANCH   4   5
ATOM      5  C   UNL     1      27.460  11.638  33.043  1.00  0.00     0.064 C 
ATOM      6  O   UNL     1      28.563  12.008  33.526  1.00  0.00    -0.545 OA
ATOM      7  O   UNL     1      27.405  11.199  31.726  1.00  0.00    -0.545 OA
ENDBRANCH   4   5
ENDBRANCH   2   3
ENDBRANCH   1   2
BRANCH   1   8
ATOM      8  C   UNL     1      22.495  11.981  35.538  1.00  0.00     0.000 C 
BRANCH   8   9
ATOM      9  C   UNL     1      22.259  10.467  35.646  1.00  0.00    -0.000 C 
BRANCH   9  10
ATOM     10  C   UNL     1      20.761  10.144  35.633  1.00  0.00    -0.003 C 
ATOM     11  C   UNL     1      19.921  11.419  35.640  1.00  0.00     0.004 C 
ENDBRANCH   9  10
ENDBRANCH   8   9
ENDBRANCH   1   8
TORSDOF 6
ENDMDL
MODEL 8
REMARK VINA RESULT:    -4.412      1.976      2.436
REMARK INTER + INTRA:          -6.357
REMARK INTER:                  -5.775
REMARK INTRA:                  -0.582
REMARK UNBOUND:                -0.398
REMARK SMILES CCCCCCC=CC(=O)[O-]
REMARK SMILES IDX 5 1 6 2 7 3 8 4 9 5 10 6 11 7 4 8 3 9 2 10 1 11
REMARK H PARENT
REMARK Flexibility Score: inf
ROOT
ATOM      1  C   UNL     1      27.426  12.166  35.130  1.00  0.00     0.004 C 
ENDROOT
BRANCH   1   2
ATOM      2  C   UNL     1      28.071  12.508  33.778  1.00  0.00     0.027 C 
BRANCH   2   3
ATOM      3  C   UNL     1      27.067  13.108  32.836  1.00  0.00    -0.025 C 
ATOM      4  C   UNL     1      26.559  12.407  31.817  1.00  0.00     0.020 C 
BRANCH   4   5
ATOM      5  C   UNL     1      25.585  12.978  30.874  1.00  0.00     0.064 C 
ATOM      6  O   UNL     1      24.397  12.557  30.830  1.00  0.00    -0.545 OA
ATOM      7  O   UNL     1      25.980  13.997  30.018  1.00  0.00    -0.545 OA
ENDBRANCH   4   5
ENDBRANCH   2   3
ENDBRANCH   1   2
BRANCH   1   8
ATOM      8  C   UNL     1      26.374  11.050  35.018  1.00  0.00     0.000 C 
BRANCH   8   9
ATOM      9  C   UNL     1      25.121  11.334  35.861  1.00  0.00    -0.000 C 
BRANCH   9  10
ATOM     10  C   UNL     1      24.262  12.426  35.214  1.00  0.00    -0.003 C 
ATOM     11  C   UNL     1      23.359  11.849  34.128  1.00  0.00     0.004 C 
ENDBRANCH   9  10
ENDBRANCH   8   9
ENDBRANCH   1   8
TORSDOF 6
ENDMDL
MODEL 9
REMARK VINA RESULT:    -4.385      2.665      3.680
REMARK INTER + INTRA:          -6.321
REMARK INTER:                  -6.097
REMARK INTRA:                  -0.224
REMARK UNBOUND:                -0.398
REMARK SMILES CCCCCCC=CC(=O)[O-]
REMARK SMILES IDX 5 1 6 2 7 3 8 4 9 5 10 6 11 7 4 8 3 9 2 10 1 11
REMARK H PARENT
REMARK Flexibility Score: inf
ROOT
ATOM      1  C   UNL     1      23.079  11.032  35.191  1.00  0.00     0.004 C 
ENDROOT
BRANCH   1   2
ATOM      2  C   UNL     1      24.372  10.777  35.979  1.00  0.00     0.027 C 
BRANCH   2   3
ATOM      3  C   UNL     1      25.457  11.728  35.560  1.00  0.00    -0.025 C 
ATOM      4  C   UNL     1      26.590  11.291  34.999  1.00  0.00     0.020 C 
BRANCH   4   5
ATOM      5  C   UNL     1      27.672  12.202  34.593  1.00  0.00     0.064 C 
ATOM      6  O   UNL     1      27.924  13.248  35.250  1.00  0.00    -0.545 OA
ATOM      7  O   UNL     1      28.428  11.905  33.467  1.00  0.00    -0.545 OA
ENDBRANCH   4   5
ENDBRANCH   2   3
ENDBRANCH   1   2
BRANCH   1   8
ATOM      8  C   UNL     1      22.490  12.428  35.456  1.00  0.00     0.000 C 
BRANCH   8   9
ATOM      9  C   UNL     1      21.787  13.016  34.223  1.00  0.00    -0.000 C 
BRANCH   9  10
ATOM     10  C   UNL     1      20.644  13.949  34.637  1.00  0.00    -0.003 C 
ATOM     11  C   UNL     1      19.419  13.750  33.749  1.00  0.00     0.004 C 
ENDBRANCH   9  10
ENDBRANCH   8   9
ENDBRANCH   1   8
TORSDOF 6
ENDMDL
