MODEL 1
REMARK VINA RESULT:    -3.692      0.000      0.000
REMARK INTER + INTRA:          -5.569
REMARK INTER:                  -5.202
REMARK INTRA:                  -0.366
REMARK UNBOUND:                -0.366
REMARK SMILES C=CCCCCCCC(=O)[O-]
REMARK SMILES IDX 6 1 7 2 8 3 9 4 10 5 11 6 5 7 4 8 3 9 2 10 1 11
REMARK H PARENT
REMARK Flexibility Score: inf
ROOT
ATOM      1  C   UNL     1      -1.254   8.935   4.537  1.00  0.00     0.000 C 
ENDROOT
BRANCH   1   2
ATOM      2  C   UNL     1       0.226   9.323   4.679  1.00  0.00     0.006 C 
BRANCH   2   3
ATOM      3  C   UNL     1       0.519  10.019   6.015  1.00  0.00     0.053 C 
BRANCH   3   4
ATOM      4  C   UNL     1       1.624   9.341   6.766  1.00  0.00     0.041 C 
ATOM      5  O   UNL     1       1.670   8.083   6.825  1.00  0.00    -0.550 OA
ATOM      6  O   UNL     1       2.582  10.096   7.430  1.00  0.00    -0.550 OA
ENDBRANCH   3   4
ENDBRANCH   2   3
ENDBRANCH   1   2
BRANCH   1   7
ATOM      7  C   UNL     1      -2.167  10.085   4.973  1.00  0.00     0.000 C 
BRANCH   7   8
ATOM      8  C   UNL     1      -3.640   9.748   4.714  1.00  0.00     0.004 C 
BRANCH   8   9
ATOM      9  C   UNL     1      -3.797   8.298   4.241  1.00  0.00     0.027 C 
BRANCH   9  10
ATOM     10  C   UNL     1      -5.012   8.137   3.370  1.00  0.00    -0.035 C 
ATOM     11  C   UNL     1      -5.720   9.189   2.947  1.00  0.00     0.004 C 
ENDBRANCH   9  10
ENDBRANCH   8   9
ENDBRANCH   7   8
ENDBRANCH   1   7
TORSDOF 7
ENDMDL
MODEL 2
REMARK VINA RESULT:    -3.652      0.814      1.680
REMARK INTER + INTRA:          -5.512
REMARK INTER:                  -5.159
REMARK INTRA:                  -0.353
REMARK UNBOUND:                -0.366
REMARK SMILES C=CCCCCCCC(=O)[O-]
REMARK SMILES IDX 6 1 7 2 8 3 9 4 10 5 11 6 5 7 4 8 3 9 2 10 1 11
REMARK H PARENT
REMARK Flexibility Score: inf
ROOT
ATOM      1  C   UNL     1      -0.018   8.514   4.694  1.00  0.00     0.000 C 
ENDROOT
BRANCH   1   2
ATOM      2  C   UNL     1       1.135   9.473   5.027  1.00  0.00     0.006 C 
BRANCH   2   3
ATOM      3  C   UNL     1       1.371   9.595   6.539  1.00  0.00     0.053 C 
BRANCH   3   4
ATOM      4  C   UNL     1       2.607   8.866   6.970  1.00  0.00     0.041 C 
ATOM      5  O   UNL     1       3.507   9.470   7.611  1.00  0.00    -0.550 OA
ATOM      6  O   UNL     1       2.779   7.528   6.636  1.00  0.00    -0.550 OA
ENDBRANCH   3   4
ENDBRANCH   2   3
ENDBRANCH   1   2
BRANCH   1   7
ATOM      7  C   UNL     1      -1.172   9.259   4.014  1.00  0.00     0.000 C 
BRANCH   7   8
ATOM      8  C   UNL     1      -1.977  10.075   5.032  1.00  0.00     0.004 C 
BRANCH   8   9
ATOM      9  C   UNL     1      -3.483   9.924   4.791  1.00  0.00     0.027 C 
BRANCH   9  10
ATOM     10  C   UNL     1      -3.816   8.558   4.258  1.00  0.00    -0.035 C 
ATOM     11  C   UNL     1      -4.923   8.331   3.545  1.00  0.00     0.004 C 
ENDBRANCH   9  10
ENDBRANCH   8   9
ENDBRANCH   7   8
ENDBRANCH   1   7
TORSDOF 7
ENDMDL
MODEL 3
REMARK VINA RESULT:    -3.478      3.243      6.166
REMARK INTER + INTRA:          -5.268
REMARK INTER:                  -4.891
REMARK INTRA:                  -0.376
REMARK UNBOUND:                -0.366
REMARK SMILES C=CCCCCCCC(=O)[O-]
REMARK SMILES IDX 6 1 7 2 8 3 9 4 10 5 11 6 5 7 4 8 3 9 2 10 1 11
REMARK H PARENT
REMARK Flexibility Score: inf
ROOT
ATOM      1  C   UNL     1      -1.856   9.988   5.450  1.00  0.00     0.000 C 
ENDROOT
BRANCH   1   2
ATOM      2  C   UNL     1      -3.296  10.120   4.931  1.00  0.00     0.006 C 
BRANCH   2   3
ATOM      3  C   UNL     1      -3.511   9.365   3.612  1.00  0.00     0.053 C 
BRANCH   3   4
ATOM      4  C   UNL     1      -4.531   8.277   3.753  1.00  0.00     0.041 C 
ATOM      5  O   UNL     1      -4.305   7.290   4.502  1.00  0.00    -0.550 OA
ATOM      6  O   UNL     1      -5.717   8.335   3.032  1.00  0.00    -0.550 OA
ENDBRANCH   3   4
ENDBRANCH   2   3
ENDBRANCH   1   2
BRANCH   1   7
ATOM      7  C   UNL     1      -0.974   9.249   4.437  1.00  0.00     0.000 C 
BRANCH   7   8
ATOM      8  C   UNL     1       0.512   9.428   4.767  1.00  0.00     0.004 C 
BRANCH   8   9
ATOM      9  C   UNL     1       0.698  10.008   6.174  1.00  0.00     0.027 C 
BRANCH   9  10
ATOM     10  C   UNL     1       1.771   9.275   6.929  1.00  0.00    -0.035 C 
ATOM     11  C   UNL     1       3.050   9.663   6.889  1.00  0.00     0.004 C 
ENDBRANCH   9  10
ENDBRANCH   8   9
ENDBRANCH   7   8
ENDBRANCH   1   7
TORSDOF 7
ENDMDL
MODEL 4
REMARK VINA RESULT:    -3.412     15.397     16.054
REMARK INTER + INTRA:          -5.175
REMARK INTER:                  -4.996
REMARK INTRA:                  -0.179
REMARK UNBOUND:                -0.366
REMARK SMILES C=CCCCCCCC(=O)[O-]
REMARK SMILES IDX 6 1 7 2 8 3 9 4 10 5 11 6 5 7 4 8 3 9 2 10 1 11
REMARK H PARENT
REMARK Flexibility Score: inf
ROOT
ATOM      1  C   UNL     1       3.091  -1.933  -5.984  1.00  0.00     0.000 C 
ENDROOT
BRANCH   1   2
ATOM      2  C   UNL     1       3.917  -1.688  -7.256  1.00  0.00     0.006 C 
BRANCH   2   3
ATOM      3  C   UNL     1       5.134  -0.791  -6.995  1.00  0.00     0.053 C 
BRANCH   3   4
ATOM      4  C   UNL     1       4.824   0.654  -7.240  1.00  0.00     0.041 C 
ATOM      5  O   UNL     1       5.728   1.524  -7.126  1.00  0.00    -0.550 OA
ATOM      6  O   UNL     1       3.529   1.044  -7.559  1.00  0.00    -0.550 OA
ENDBRANCH   3   4
ENDBRANCH   2   3
ENDBRANCH   1   2
BRANCH   1   7
ATOM      7  C   UNL     1       1.598  -1.708  -6.247  1.00  0.00     0.000 C 
BRANCH   7   8
ATOM      8  C   UNL     1       0.741  -2.366  -5.160  1.00  0.00     0.004 C 
BRANCH   8   9
ATOM      9  C   UNL     1      -0.685  -1.804  -5.167  1.00  0.00     0.027 C 
BRANCH   9  10
ATOM     10  C   UNL     1      -1.705  -2.901  -5.037  1.00  0.00    -0.035 C 
ATOM     11  C   UNL     1      -3.016  -2.657  -5.121  1.00  0.00     0.004 C 
ENDBRANCH   9  10
ENDBRANCH   8   9
ENDBRANCH   7   8
ENDBRANCH   1   7
TORSDOF 7
ENDMDL
MODEL 5
REMARK VINA RESULT:    -3.368      1.324      1.671
REMARK INTER + INTRA:          -5.113
REMARK INTER:                  -4.823
REMARK INTRA:                  -0.291
REMARK UNBOUND:                -0.366
REMARK SMILES C=CCCCCCCC(=O)[O-]
REMARK SMILES IDX 6 1 7 2 8 3 9 4 10 5 11 6 5 7 4 8 3 9 2 10 1 11
REMARK H PARENT
REMARK Flexibility Score: inf
ROOT
ATOM      1  C   UNL     1      -1.053  10.125   5.772  1.00  0.00     0.000 C 
ENDROOT
BRANCH   1   2
ATOM      2  C   UNL     1       0.415   9.732   5.542  1.00  0.00     0.006 C 
BRANCH   2   3
ATOM      3  C   UNL     1       1.300  10.058   6.752  1.00  0.00     0.053 C 
BRANCH   3   4
ATOM      4  C   UNL     1       2.326   8.993   6.994  1.00  0.00     0.041 C 
ATOM      5  O   UNL     1       2.110   7.809   6.622  1.00  0.00    -0.550 OA
ATOM      6  O   UNL     1       3.505   9.300   7.662  1.00  0.00    -0.550 OA
ENDBRANCH   3   4
ENDBRANCH   2   3
ENDBRANCH   1   2
BRANCH   1   7
ATOM      7  C   UNL     1      -1.937   9.644   4.616  1.00  0.00     0.000 C 
BRANCH   7   8
ATOM      8  C   UNL     1      -1.419   8.321   4.040  1.00  0.00     0.004 C 
BRANCH   8   9
ATOM      9  C   UNL     1      -2.389   7.759   2.993  1.00  0.00     0.027 C 
BRANCH   9  10
ATOM     10  C   UNL     1      -3.695   7.357   3.620  1.00  0.00    -0.035 C 
ATOM     11  C   UNL     1      -4.492   6.442   3.060  1.00  0.00     0.004 C 
ENDBRANCH   9  10
ENDBRANCH   8   9
ENDBRANCH   7   8
ENDBRANCH   1   7
TORSDOF 7
ENDMDL
MODEL 6
REMARK VINA RESULT:    -3.287      4.937      6.324
REMARK INTER + INTRA:          -4.998
REMARK INTER:                  -4.671
REMARK INTRA:                  -0.327
REMARK UNBOUND:                -0.366
REMARK SMILES C=CCCCCCCC(=O)[O-]
REMARK SMILES IDX 6 1 7 2 8 3 9 4 10 5 11 6 5 7 4 8 3 9 2 10 1 11
REMARK H PARENT
REMARK Flexibility Score: inf
ROOT
ATOM      1  C   UNL     1       2.421   5.496   5.077  1.00  0.00     0.000 C 
ENDROOT
BRANCH   1   2
ATOM      2  C   UNL     1       1.938   6.834   5.658  1.00  0.00     0.006 C 
BRANCH   2   3
ATOM      3  C   UNL     1       3.064   7.599   6.369  1.00  0.00     0.053 C 
BRANCH   3   4
ATOM      4  C   UNL     1       2.562   8.853   7.017  1.00  0.00     0.041 C 
ATOM      5  O   UNL     1       1.335   9.137   6.980  1.00  0.00    -0.550 OA
ATOM      6  O   UNL     1       3.452   9.724   7.631  1.00  0.00    -0.550 OA
ENDBRANCH   3   4
ENDBRANCH   2   3
ENDBRANCH   1   2
BRANCH   1   7
ATOM      7  C   UNL     1       1.692   4.318   5.732  1.00  0.00     0.000 C 
BRANCH   7   8
ATOM      8  C   UNL     1       2.656   3.473   6.574  1.00  0.00     0.004 C 
BRANCH   8   9
ATOM      9  C   UNL     1       1.892   2.606   7.582  1.00  0.00     0.027 C 
BRANCH   9  10
ATOM     10  C   UNL     1       0.406   2.715   7.378  1.00  0.00    -0.035 C 
ATOM     11  C   UNL     1      -0.424   1.719   7.702  1.00  0.00     0.004 C 
ENDBRANCH   9  10
ENDBRANCH   8   9
ENDBRANCH   7   8
ENDBRANCH   1   7
TORSDOF 7
ENDMDL
MODEL 7
REMARK VINA RESULT:    -3.282     16.107     16.932
REMARK INTER + INTRA:          -4.992
REMARK INTER:                  -4.285
REMARK INTRA:                  -0.707
REMARK UNBOUND:                -0.366
REMARK SMILES C=CCCCCCCC(=O)[O-]
REMARK SMILES IDX 6 1 7 2 8 3 9 4 10 5 11 6 5 7 4 8 3 9 2 10 1 11
REMARK H PARENT
REMARK Flexibility Score: inf
ROOT
ATOM      1  C   UNL     1       6.816  -1.260  -6.594  1.00  0.00     0.000 C 
ENDROOT
BRANCH   1   2
ATOM      2  C   UNL     1       7.193   0.053  -7.295  1.00  0.00     0.006 C 
BRANCH   2   3
ATOM      3  C   UNL     1       6.770   1.287  -6.485  1.00  0.00     0.053 C 
BRANCH   3   4
ATOM      4  C   UNL     1       5.308   1.264  -6.158  1.00  0.00     0.041 C 
ATOM      5  O   UNL     1       4.928   1.244  -4.957  1.00  0.00    -0.550 OA
ATOM      6  O   UNL     1       4.366   1.231  -7.179  1.00  0.00    -0.550 OA
ENDBRANCH   3   4
ENDBRANCH   2   3
ENDBRANCH   1   2
BRANCH   1   7
ATOM      7  C   UNL     1       6.338  -2.306  -7.608  1.00  0.00     0.000 C 
BRANCH   7   8
ATOM      8  C   UNL     1       4.806  -2.350  -7.672  1.00  0.00     0.004 C 
BRANCH   8   9
ATOM      9  C   UNL     1       4.206  -2.650  -6.293  1.00  0.00     0.027 C 
BRANCH   9  10
ATOM     10  C   UNL     1       3.022  -1.766  -6.010  1.00  0.00    -0.035 C 
ATOM     11  C   UNL     1       2.116  -1.482  -6.950  1.00  0.00     0.004 C 
ENDBRANCH   9  10
ENDBRANCH   8   9
ENDBRANCH   7   8
ENDBRANCH   1   7
TORSDOF 7
ENDMDL
MODEL 8
REMARK VINA RESULT:    -3.274      1.722      2.700
REMARK INTER + INTRA:          -4.980
REMARK INTER:                  -4.699
REMARK INTRA:                  -0.282
REMARK UNBOUND:                -0.366
REMARK SMILES C=CCCCCCCC(=O)[O-]
REMARK SMILES IDX 6 1 7 2 8 3 9 4 10 5 11 6 5 7 4 8 3 9 2 10 1 11
REMARK H PARENT
REMARK Flexibility Score: inf
ROOT
ATOM      1  C   UNL     1       1.118   6.576   4.416  1.00  0.00     0.000 C 
ENDROOT
BRANCH   1   2
ATOM      2  C   UNL     1       2.147   7.658   4.777  1.00  0.00     0.006 C 
BRANCH   2   3
ATOM      3  C   UNL     1       2.595   7.568   6.243  1.00  0.00     0.053 C 
BRANCH   3   4
ATOM      4  C   UNL     1       2.430   8.874   6.957  1.00  0.00     0.041 C 
ATOM      5  O   UNL     1       3.379   9.350   7.635  1.00  0.00    -0.550 OA
ATOM      6  O   UNL     1       1.217   9.550   6.902  1.00  0.00    -0.550 OA
ENDBRANCH   3   4
ENDBRANCH   2   3
ENDBRANCH   1   2
BRANCH   1   7
ATOM      7  C   UNL     1      -0.020   7.162   3.572  1.00  0.00     0.000 C 
BRANCH   7   8
ATOM      8  C   UNL     1      -0.615   8.408   4.239  1.00  0.00     0.004 C 
BRANCH   8   9
ATOM      9  C   UNL     1      -1.960   8.782   3.605  1.00  0.00     0.027 C 
BRANCH   9  10
ATOM     10  C   UNL     1      -2.911   9.337   4.630  1.00  0.00    -0.035 C 
ATOM     11  C   UNL     1      -3.934  10.125   4.287  1.00  0.00     0.004 C 
ENDBRANCH   9  10
ENDBRANCH   8   9
ENDBRANCH   7   8
ENDBRANCH   1   7
TORSDOF 7
ENDMDL
MODEL 9
REMARK VINA RESULT:    -3.235     11.627     13.322
REMARK INTER + INTRA:          -4.925
REMARK INTER:                  -4.132
REMARK INTRA:                  -0.793
REMARK UNBOUND:                -0.366
REMARK SMILES C=CCCCCCCC(=O)[O-]
REMARK SMILES IDX 6 1 7 2 8 3 9 4 10 5 11 6 5 7 4 8 3 9 2 10 1 11
REMARK H PARENT
REMARK Flexibility Score: inf
ROOT
ATOM      1  C   UNL     1      -8.256  -2.397   9.377  1.00  0.00     0.000 C 
ENDROOT
BRANCH   1   2
ATOM      2  C   UNL     1      -8.170  -1.823   7.954  1.00  0.00     0.006 C 
BRANCH   2   3
ATOM      3  C   UNL     1      -8.990  -0.535   7.796  1.00  0.00     0.053 C 
BRANCH   3   4
ATOM      4  C   UNL     1      -8.156   0.596   7.279  1.00  0.00     0.041 C 
ATOM      5  O   UNL     1      -7.049   0.865   7.818  1.00  0.00    -0.550 OA
ATOM      6  O   UNL     1      -8.615   1.376   6.224  1.00  0.00    -0.550 OA
ENDBRANCH   3   4
ENDBRANCH   2   3
ENDBRANCH   1   2
BRANCH   1   7
ATOM      7  C   UNL     1      -9.473  -1.836  10.121  1.00  0.00     0.000 C 
BRANCH   7   8
ATOM      8  C   UNL     1      -9.070  -1.265  11.486  1.00  0.00     0.004 C 
BRANCH   8   9
ATOM      9  C   UNL     1      -9.524   0.193  11.628  1.00  0.00     0.027 C 
BRANCH   9  10
ATOM     10  C   UNL     1      -8.441   1.145  11.201  1.00  0.00    -0.035 C 
ATOM     11  C   UNL     1      -7.150   0.898  11.443  1.00  0.00     0.004 C 
ENDBRANCH   9  10
ENDBRANCH   8   9
ENDBRANCH   7   8
ENDBRANCH   1   7
TORSDOF 7
ENDMDL
