MODEL 1
REMARK VINA RESULT:    -7.681      0.000      0.000
REMARK INTER + INTRA:          -9.466
REMARK INTER:                  -9.477
REMARK INTRA:                   0.012
REMARK UNBOUND:                 0.012
REMARK SMILES Oc1cc(O)c2cc(O)c(-c3cc(O)c(O)c(O)c3)[o+]c2c1
REMARK SMILES IDX 10 1 20 2 21 3 22 4 2 5 3 6 4 7 6 8 7 9 8 10 11 11 12 12
REMARK SMILES IDX 13 13 19 14 15 15 17 16 14 17 16 19 18 21 9 23 1 25 5 27
REMARK H PARENT 14 18 16 20 18 22 9 24 1 26 5 28
REMARK Flexibility Score: inf
ROOT
ATOM      1  C   UNL     1      39.064 -12.899   8.672  1.00  0.00     0.402 A 
ATOM      2  O   UNL     1      39.861 -13.834   9.182  1.00  0.00    -0.202 OA
ATOM      3  C   UNL     1      40.877 -13.563   9.994  1.00  0.00     0.368 A 
ATOM      4  C   UNL     1      41.657 -14.616  10.483  1.00  0.00     0.162 A 
ATOM      5  C   UNL     1      42.731 -14.359  11.341  1.00  0.00     0.128 A 
ATOM      6  C   UNL     1      43.025 -13.045  11.711  1.00  0.00     0.093 A 
ATOM      7  C   UNL     1      42.259 -11.973  11.236  1.00  0.00     0.136 A 
ATOM      8  C   UNL     1      41.170 -12.228  10.363  1.00  0.00     0.125 A 
ATOM      9  C   UNL     1      40.356 -11.217   9.827  1.00  0.00     0.078 A 
ATOM     10  C   UNL     1      39.303 -11.545   8.969  1.00  0.00     0.223 A 
ENDROOT
BRANCH   1  11
ATOM     11  C   UNL     1      37.957 -13.329   7.786  1.00  0.00     0.091 A 
ATOM     12  C   UNL     1      38.169 -14.371   6.873  1.00  0.00     0.068 A 
ATOM     13  C   UNL     1      37.140 -14.817   6.035  1.00  0.00     0.162 A 
ATOM     14  C   UNL     1      36.682 -12.752   7.880  1.00  0.00     0.068 A 
ATOM     15  C   UNL     1      35.862 -14.215   6.119  1.00  0.00     0.200 A 
ATOM     16  C   UNL     1      35.642 -13.189   7.049  1.00  0.00     0.162 A 
BRANCH  13  17
ATOM     17  O   UNL     1      37.431 -15.851   5.143  1.00  0.00    -0.504 OA
ATOM     18  H   UNL     1      38.309 -16.350   5.122  1.00  0.00     0.293 HD
ENDBRANCH  13  17
BRANCH  15  19
ATOM     19  O   UNL     1      34.794 -14.608   5.309  1.00  0.00    -0.502 OA
ATOM     20  H   UNL     1      33.860 -14.785   5.650  1.00  0.00     0.293 HD
ENDBRANCH  15  19
BRANCH  16  21
ATOM     21  O   UNL     1      34.378 -12.606   7.143  1.00  0.00    -0.504 OA
ATOM     22  H   UNL     1      33.637 -12.839   6.491  1.00  0.00     0.293 HD
ENDBRANCH  16  21
ENDBRANCH   1  11
BRANCH  10  23
ATOM     23  O   UNL     1      38.526 -10.537   8.397  1.00  0.00    -0.500 OA
ATOM     24  H   UNL     1      38.437  -9.624   8.828  1.00  0.00     0.294 HD
ENDBRANCH  10  23
BRANCH   5  25
ATOM     25  O   UNL     1      43.512 -15.403  11.830  1.00  0.00    -0.507 OA
ATOM     26  H   UNL     1      43.687 -16.236  11.282  1.00  0.00     0.293 HD
ENDBRANCH   5  25
BRANCH   7  27
ATOM     27  O   UNL     1      42.617 -10.690  11.658  1.00  0.00    -0.507 OA
ATOM     28  H   UNL     1      42.077  -9.857  11.473  1.00  0.00     0.293 HD
ENDBRANCH   7  27
TORSDOF 7
ENDMDL
MODEL 2
REMARK VINA RESULT:    -7.429      1.632      1.820
REMARK INTER + INTRA:          -9.154
REMARK INTER:                  -8.822
REMARK INTRA:                  -0.333
REMARK UNBOUND:                 0.012
REMARK SMILES Oc1cc(O)c2cc(O)c(-c3cc(O)c(O)c(O)c3)[o+]c2c1
REMARK SMILES IDX 10 1 20 2 21 3 22 4 2 5 3 6 4 7 6 8 7 9 8 10 11 11 12 12
REMARK SMILES IDX 13 13 19 14 15 15 17 16 14 17 16 19 18 21 9 23 1 25 5 27
REMARK H PARENT 14 18 16 20 18 22 9 24 1 26 5 28
REMARK Flexibility Score: inf
ROOT
ATOM      1  C   UNL     1      39.832 -11.838   8.841  1.00  0.00     0.402 A 
ATOM      2  O   UNL     1      40.365 -12.985   9.255  1.00  0.00    -0.202 OA
ATOM      3  C   UNL     1      41.331 -13.054  10.165  1.00  0.00     0.368 A 
ATOM      4  C   UNL     1      41.826 -14.307  10.538  1.00  0.00     0.162 A 
ATOM      5  C   UNL     1      42.841 -14.409  11.495  1.00  0.00     0.128 A 
ATOM      6  C   UNL     1      43.362 -13.253  12.080  1.00  0.00     0.093 A 
ATOM      7  C   UNL     1      42.884 -11.986  11.723  1.00  0.00     0.136 A 
ATOM      8  C   UNL     1      41.856 -11.877  10.752  1.00  0.00     0.125 A 
ATOM      9  C   UNL     1      41.324 -10.650  10.323  1.00  0.00     0.078 A 
ATOM     10  C   UNL     1      40.315 -10.621   9.356  1.00  0.00     0.223 A 
ENDROOT
BRANCH   1  11
ATOM     11  C   UNL     1      38.752 -11.893   7.829  1.00  0.00     0.091 A 
ATOM     12  C   UNL     1      39.050 -11.622   6.487  1.00  0.00     0.068 A 
ATOM     13  C   UNL     1      38.059 -11.684   5.500  1.00  0.00     0.162 A 
ATOM     14  C   UNL     1      37.444 -12.265   8.177  1.00  0.00     0.068 A 
ATOM     15  C   UNL     1      36.737 -12.038   5.862  1.00  0.00     0.200 A 
ATOM     16  C   UNL     1      36.442 -12.332   7.200  1.00  0.00     0.162 A 
BRANCH  13  17
ATOM     17  O   UNL     1      38.429 -11.389   4.187  1.00  0.00    -0.504 OA
ATOM     18  H   UNL     1      39.386 -11.311   3.873  1.00  0.00     0.293 HD
ENDBRANCH  13  17
BRANCH  15  19
ATOM     19  O   UNL     1      35.699 -12.113   4.929  1.00  0.00    -0.502 OA
ATOM     20  H   UNL     1      34.739 -12.317   5.166  1.00  0.00     0.293 HD
ENDBRANCH  15  19
BRANCH  16  21
ATOM     21  O   UNL     1      35.143 -12.697   7.554  1.00  0.00    -0.504 OA
ATOM     22  H   UNL     1      34.921 -13.037   8.483  1.00  0.00     0.293 HD
ENDBRANCH  16  21
ENDBRANCH   1  11
BRANCH  10  23
ATOM     23  O   UNL     1      39.822  -9.401   8.895  1.00  0.00    -0.500 OA
ATOM     24  H   UNL     1      39.124  -9.351   8.161  1.00  0.00     0.294 HD
ENDBRANCH  10  23
BRANCH   5  25
ATOM     25  O   UNL     1      43.338 -15.654  11.871  1.00  0.00    -0.507 OA
ATOM     26  H   UNL     1      42.993 -16.137  12.692  1.00  0.00     0.293 HD
ENDBRANCH   5  25
BRANCH   7  27
ATOM     27  O   UNL     1      43.456 -10.880  12.359  1.00  0.00    -0.507 OA
ATOM     28  H   UNL     1      44.159 -10.939  13.081  1.00  0.00     0.293 HD
ENDBRANCH   7  27
TORSDOF 7
ENDMDL
MODEL 3
REMARK VINA RESULT:    -7.387      1.494      2.061
REMARK INTER + INTRA:          -9.102
REMARK INTER:                  -8.729
REMARK INTRA:                  -0.374
REMARK UNBOUND:                 0.012
REMARK SMILES Oc1cc(O)c2cc(O)c(-c3cc(O)c(O)c(O)c3)[o+]c2c1
REMARK SMILES IDX 10 1 20 2 21 3 22 4 2 5 3 6 4 7 6 8 7 9 8 10 11 11 12 12
REMARK SMILES IDX 13 13 19 14 15 15 17 16 14 17 16 19 18 21 9 23 1 25 5 27
REMARK H PARENT 14 18 16 20 18 22 9 24 1 26 5 28
REMARK Flexibility Score: inf
ROOT
ATOM      1  C   UNL     1      39.589 -12.065   8.626  1.00  0.00     0.402 A 
ATOM      2  O   UNL     1      40.230 -13.168   9.004  1.00  0.00    -0.202 OA
ATOM      3  C   UNL     1      41.176 -13.179   9.938  1.00  0.00     0.368 A 
ATOM      4  C   UNL     1      41.790 -14.390  10.269  1.00  0.00     0.162 A 
ATOM      5  C   UNL     1      42.786 -14.430  11.250  1.00  0.00     0.128 A 
ATOM      6  C   UNL     1      43.168 -13.255  11.901  1.00  0.00     0.093 A 
ATOM      7  C   UNL     1      42.568 -12.029  11.587  1.00  0.00     0.136 A 
ATOM      8  C   UNL     1      41.558 -11.983  10.591  1.00  0.00     0.125 A 
ATOM      9  C   UNL     1      40.911 -10.799  10.202  1.00  0.00     0.078 A 
ATOM     10  C   UNL     1      39.928 -10.830   9.208  1.00  0.00     0.223 A 
ENDROOT
BRANCH   1  11
ATOM     11  C   UNL     1      38.546 -12.185   7.581  1.00  0.00     0.091 A 
ATOM     12  C   UNL     1      37.224 -12.463   7.955  1.00  0.00     0.068 A 
ATOM     13  C   UNL     1      36.209 -12.564   6.996  1.00  0.00     0.162 A 
ATOM     14  C   UNL     1      38.841 -11.970   6.226  1.00  0.00     0.068 A 
ATOM     15  C   UNL     1      36.519 -12.368   5.629  1.00  0.00     0.200 A 
ATOM     16  C   UNL     1      37.836 -12.066   5.256  1.00  0.00     0.162 A 
BRANCH  13  17
ATOM     17  O   UNL     1      34.919 -12.856   7.444  1.00  0.00    -0.504 OA
ATOM     18  H   UNL     1      34.414 -12.298   8.117  1.00  0.00     0.293 HD
ENDBRANCH  13  17
BRANCH  15  19
ATOM     19  O   UNL     1      35.555 -12.459   4.621  1.00  0.00    -0.502 OA
ATOM     20  H   UNL     1      34.695 -12.981   4.706  1.00  0.00     0.293 HD
ENDBRANCH  15  19
BRANCH  16  21
ATOM     21  O   UNL     1      38.138 -11.857   3.911  1.00  0.00    -0.504 OA
ATOM     22  H   UNL     1      39.016 -12.169   3.509  1.00  0.00     0.293 HD
ENDBRANCH  16  21
ENDBRANCH   1  11
BRANCH  10  23
ATOM     23  O   UNL     1      39.321  -9.647   8.786  1.00  0.00    -0.500 OA
ATOM     24  H   UNL     1      39.282  -9.388   7.807  1.00  0.00     0.294 HD
ENDBRANCH  10  23
BRANCH   5  25
ATOM     25  O   UNL     1      43.403 -15.633  11.585  1.00  0.00    -0.507 OA
ATOM     26  H   UNL     1      42.898 -16.511  11.561  1.00  0.00     0.293 HD
ENDBRANCH   5  25
BRANCH   7  27
ATOM     27  O   UNL     1      43.004 -10.901  12.287  1.00  0.00    -0.507 OA
ATOM     28  H   UNL     1      42.428 -10.096  12.488  1.00  0.00     0.293 HD
ENDBRANCH   7  27
TORSDOF 7
ENDMDL
MODEL 4
REMARK VINA RESULT:    -7.317      1.631      7.101
REMARK INTER + INTRA:          -9.017
REMARK INTER:                  -8.637
REMARK INTRA:                  -0.379
REMARK UNBOUND:                 0.012
REMARK SMILES Oc1cc(O)c2cc(O)c(-c3cc(O)c(O)c(O)c3)[o+]c2c1
REMARK SMILES IDX 10 1 20 2 21 3 22 4 2 5 3 6 4 7 6 8 7 9 8 10 11 11 12 12
REMARK SMILES IDX 13 13 19 14 15 15 17 16 14 17 16 19 18 21 9 23 1 25 5 27
REMARK H PARENT 14 18 16 20 18 22 9 24 1 26 5 28
REMARK Flexibility Score: inf
ROOT
ATOM      1  C   UNL     1      38.887 -13.386   8.256  1.00  0.00     0.402 A 
ATOM      2  O   UNL     1      38.655 -14.091   7.151  1.00  0.00    -0.202 OA
ATOM      3  C   UNL     1      37.471 -14.135   6.549  1.00  0.00     0.368 A 
ATOM      4  C   UNL     1      37.327 -14.902   5.389  1.00  0.00     0.162 A 
ATOM      5  C   UNL     1      36.092 -14.964   4.734  1.00  0.00     0.128 A 
ATOM      6  C   UNL     1      35.000 -14.258   5.242  1.00  0.00     0.093 A 
ATOM      7  C   UNL     1      35.119 -13.482   6.402  1.00  0.00     0.136 A 
ATOM      8  C   UNL     1      36.369 -13.417   7.071  1.00  0.00     0.125 A 
ATOM      9  C   UNL     1      36.578 -12.677   8.246  1.00  0.00     0.078 A 
ATOM     10  C   UNL     1      37.838 -12.665   8.853  1.00  0.00     0.223 A 
ENDROOT
BRANCH   1  11
ATOM     11  C   UNL     1      40.254 -13.408   8.826  1.00  0.00     0.091 A 
ATOM     12  C   UNL     1      41.161 -12.397   8.481  1.00  0.00     0.068 A 
ATOM     13  C   UNL     1      42.455 -12.375   9.017  1.00  0.00     0.162 A 
ATOM     14  C   UNL     1      40.644 -14.390   9.749  1.00  0.00     0.068 A 
ATOM     15  C   UNL     1      42.849 -13.382   9.930  1.00  0.00     0.200 A 
ATOM     16  C   UNL     1      41.935 -14.380  10.294  1.00  0.00     0.162 A 
BRANCH  13  17
ATOM     17  O   UNL     1      43.306 -11.343   8.617  1.00  0.00    -0.504 OA
ATOM     18  H   UNL     1      43.752 -10.698   9.254  1.00  0.00     0.293 HD
ENDBRANCH  13  17
BRANCH  15  19
ATOM     19  O   UNL     1      44.125 -13.422  10.497  1.00  0.00    -0.502 OA
ATOM     20  H   UNL     1      44.982 -13.418   9.963  1.00  0.00     0.293 HD
ENDBRANCH  15  19
BRANCH  16  21
ATOM     21  O   UNL     1      42.317 -15.363  11.206  1.00  0.00    -0.504 OA
ATOM     22  H   UNL     1      43.095 -15.224  11.842  1.00  0.00     0.293 HD
ENDBRANCH  16  21
ENDBRANCH   1  11
BRANCH  10  23
ATOM     23  O   UNL     1      38.032 -11.971  10.047  1.00  0.00    -0.500 OA
ATOM     24  H   UNL     1      37.288 -11.859  10.726  1.00  0.00     0.294 HD
ENDBRANCH  10  23
BRANCH   5  25
ATOM     25  O   UNL     1      35.941 -15.727   3.578  1.00  0.00    -0.507 OA
ATOM     26  H   UNL     1      35.042 -15.826   3.123  1.00  0.00     0.293 HD
ENDBRANCH   5  25
BRANCH   7  27
ATOM     27  O   UNL     1      33.980 -12.803   6.841  1.00  0.00    -0.507 OA
ATOM     28  H   UNL     1      33.118 -12.738   6.319  1.00  0.00     0.293 HD
ENDBRANCH   7  27
TORSDOF 7
ENDMDL
MODEL 5
REMARK VINA RESULT:    -7.309      2.202      7.574
REMARK INTER + INTRA:          -9.006
REMARK INTER:                  -8.642
REMARK INTRA:                  -0.364
REMARK UNBOUND:                 0.012
REMARK SMILES Oc1cc(O)c2cc(O)c(-c3cc(O)c(O)c(O)c3)[o+]c2c1
REMARK SMILES IDX 10 1 20 2 21 3 22 4 2 5 3 6 4 7 6 8 7 9 8 10 11 11 12 12
REMARK SMILES IDX 13 13 19 14 15 15 17 16 14 17 16 19 18 21 9 23 1 25 5 27
REMARK H PARENT 14 18 16 20 18 22 9 24 1 26 5 28
REMARK Flexibility Score: inf
ROOT
ATOM      1  C   UNL     1      38.965 -11.767   8.445  1.00  0.00     0.402 A 
ATOM      2  O   UNL     1      38.998 -11.312   7.195  1.00  0.00    -0.202 OA
ATOM      3  C   UNL     1      38.030 -11.532   6.312  1.00  0.00     0.368 A 
ATOM      4  C   UNL     1      38.154 -11.008   5.022  1.00  0.00     0.162 A 
ATOM      5  C   UNL     1      37.149 -11.222   4.073  1.00  0.00     0.128 A 
ATOM      6  C   UNL     1      36.016 -11.962   4.418  1.00  0.00     0.093 A 
ATOM      7  C   UNL     1      35.867 -12.497   5.704  1.00  0.00     0.136 A 
ATOM      8  C   UNL     1      36.885 -12.284   6.668  1.00  0.00     0.125 A 
ATOM      9  C   UNL     1      36.828 -12.793   7.976  1.00  0.00     0.078 A 
ATOM     10  C   UNL     1      37.874 -12.546   8.871  1.00  0.00     0.223 A 
ENDROOT
BRANCH   1  11
ATOM     11  C   UNL     1      40.102 -11.446   9.338  1.00  0.00     0.091 A 
ATOM     12  C   UNL     1      39.981 -10.394  10.256  1.00  0.00     0.068 A 
ATOM     13  C   UNL     1      41.028 -10.075  11.130  1.00  0.00     0.162 A 
ATOM     14  C   UNL     1      41.279 -12.209   9.324  1.00  0.00     0.068 A 
ATOM     15  C   UNL     1      42.222 -10.835  11.094  1.00  0.00     0.200 A 
ATOM     16  C   UNL     1      42.335 -11.902  10.192  1.00  0.00     0.162 A 
BRANCH  13  17
ATOM     17  O   UNL     1      40.839  -9.006  12.008  1.00  0.00    -0.504 OA
ATOM     18  H   UNL     1      41.542  -8.671  12.650  1.00  0.00     0.293 HD
ENDBRANCH  13  17
BRANCH  15  19
ATOM     19  O   UNL     1      43.306 -10.567  11.933  1.00  0.00    -0.502 OA
ATOM     20  H   UNL     1      43.557 -11.132  12.731  1.00  0.00     0.293 HD
ENDBRANCH  15  19
BRANCH  16  21
ATOM     21  O   UNL     1      43.505 -12.661  10.168  1.00  0.00    -0.504 OA
ATOM     22  H   UNL     1      43.641 -13.405   9.494  1.00  0.00     0.293 HD
ENDBRANCH  16  21
ENDBRANCH   1  11
BRANCH  10  23
ATOM     23  O   UNL     1      37.840 -13.093  10.154  1.00  0.00    -0.500 OA
ATOM     24  H   UNL     1      38.688 -13.361  10.641  1.00  0.00     0.294 HD
ENDBRANCH  10  23
BRANCH   5  25
ATOM     25  O   UNL     1      37.267 -10.704   2.786  1.00  0.00    -0.507 OA
ATOM     26  H   UNL     1      37.049  -9.736   2.583  1.00  0.00     0.293 HD
ENDBRANCH   5  25
BRANCH   7  27
ATOM     27  O   UNL     1      34.701 -13.221   5.968  1.00  0.00    -0.507 OA
ATOM     28  H   UNL     1      34.684 -14.187   6.259  1.00  0.00     0.293 HD
ENDBRANCH   7  27
TORSDOF 7
ENDMDL
MODEL 6
REMARK VINA RESULT:    -7.271      2.221      7.338
REMARK INTER + INTRA:          -8.959
REMARK INTER:                  -8.582
REMARK INTRA:                  -0.378
REMARK UNBOUND:                 0.012
REMARK SMILES Oc1cc(O)c2cc(O)c(-c3cc(O)c(O)c(O)c3)[o+]c2c1
REMARK SMILES IDX 10 1 20 2 21 3 22 4 2 5 3 6 4 7 6 8 7 9 8 10 11 11 12 12
REMARK SMILES IDX 13 13 19 14 15 15 17 16 14 17 16 19 18 21 9 23 1 25 5 27
REMARK H PARENT 14 18 16 20 18 22 9 24 1 26 5 28
REMARK Flexibility Score: inf
ROOT
ATOM      1  C   UNL     1      38.968 -11.796   8.450  1.00  0.00     0.402 A 
ATOM      2  O   UNL     1      39.051 -11.363   7.194  1.00  0.00    -0.202 OA
ATOM      3  C   UNL     1      38.114 -11.589   6.280  1.00  0.00     0.368 A 
ATOM      4  C   UNL     1      38.290 -11.089   4.987  1.00  0.00     0.162 A 
ATOM      5  C   UNL     1      37.318 -11.311   4.006  1.00  0.00     0.128 A 
ATOM      6  C   UNL     1      36.166 -12.034   4.321  1.00  0.00     0.093 A 
ATOM      7  C   UNL     1      35.965 -12.545   5.610  1.00  0.00     0.136 A 
ATOM      8  C   UNL     1      36.949 -12.325   6.607  1.00  0.00     0.125 A 
ATOM      9  C   UNL     1      36.840 -12.810   7.921  1.00  0.00     0.078 A 
ATOM     10  C   UNL     1      37.854 -12.558   8.849  1.00  0.00     0.223 A 
ENDROOT
BRANCH   1  11
ATOM     11  C   UNL     1      40.074 -11.470   9.379  1.00  0.00     0.091 A 
ATOM     12  C   UNL     1      41.257 -12.220   9.332  1.00  0.00     0.068 A 
ATOM     13  C   UNL     1      42.331 -11.927  10.181  1.00  0.00     0.162 A 
ATOM     14  C   UNL     1      39.986 -10.389  10.268  1.00  0.00     0.068 A 
ATOM     15  C   UNL     1      42.226 -10.849  11.092  1.00  0.00     0.200 A 
ATOM     16  C   UNL     1      41.053 -10.083  11.123  1.00  0.00     0.162 A 
BRANCH  13  17
ATOM     17  O   UNL     1      43.472 -12.727  10.086  1.00  0.00    -0.504 OA
ATOM     18  H   UNL     1      44.016 -13.033  10.880  1.00  0.00     0.293 HD
ENDBRANCH  13  17
BRANCH  15  19
ATOM     19  O   UNL     1      43.257 -10.506  11.970  1.00  0.00    -0.502 OA
ATOM     20  H   UNL     1      44.070  -9.967  11.707  1.00  0.00     0.293 HD
ENDBRANCH  15  19
BRANCH  16  21
ATOM     21  O   UNL     1      40.956  -9.010  12.008  1.00  0.00    -0.504 OA
ATOM     22  H   UNL     1      40.071  -8.549  12.189  1.00  0.00     0.293 HD
ENDBRANCH  16  21
ENDBRANCH   1  11
BRANCH  10  23
ATOM     23  O   UNL     1      37.769 -13.082  10.139  1.00  0.00    -0.500 OA
ATOM     24  H   UNL     1      38.130 -12.581  10.943  1.00  0.00     0.294 HD
ENDBRANCH  10  23
BRANCH   5  25
ATOM     25  O   UNL     1      37.488 -10.816   2.716  1.00  0.00    -0.507 OA
ATOM     26  H   UNL     1      38.237 -10.172   2.489  1.00  0.00     0.293 HD
ENDBRANCH   5  25
BRANCH   7  27
ATOM     27  O   UNL     1      34.783 -13.254   5.843  1.00  0.00    -0.507 OA
ATOM     28  H   UNL     1      34.516 -14.095   5.352  1.00  0.00     0.293 HD
ENDBRANCH   7  27
TORSDOF 7
ENDMDL
MODEL 7
REMARK VINA RESULT:    -7.241      1.757      3.083
REMARK INTER + INTRA:          -8.922
REMARK INTER:                  -8.815
REMARK INTRA:                  -0.107
REMARK UNBOUND:                 0.012
REMARK SMILES Oc1cc(O)c2cc(O)c(-c3cc(O)c(O)c(O)c3)[o+]c2c1
REMARK SMILES IDX 10 1 20 2 21 3 22 4 2 5 3 6 4 7 6 8 7 9 8 10 11 11 12 12
REMARK SMILES IDX 13 13 19 14 15 15 17 16 14 17 16 19 18 21 9 23 1 25 5 27
REMARK H PARENT 14 18 16 20 18 22 9 24 1 26 5 28
REMARK Flexibility Score: inf
ROOT
ATOM      1  C   UNL     1      40.010 -12.743   8.875  1.00  0.00     0.402 A 
ATOM      2  O   UNL     1      40.740 -11.791   9.450  1.00  0.00    -0.202 OA
ATOM      3  C   UNL     1      41.688 -12.039  10.348  1.00  0.00     0.368 A 
ATOM      4  C   UNL     1      42.404 -10.970  10.894  1.00  0.00     0.162 A 
ATOM      5  C   UNL     1      43.408 -11.204  11.839  1.00  0.00     0.128 A 
ATOM      6  C   UNL     1      43.698 -12.510  12.236  1.00  0.00     0.093 A 
ATOM      7  C   UNL     1      42.995 -13.599  11.703  1.00  0.00     0.136 A 
ATOM      8  C   UNL     1      41.973 -13.367  10.747  1.00  0.00     0.125 A 
ATOM      9  C   UNL     1      41.209 -14.394  10.169  1.00  0.00     0.078 A 
ATOM     10  C   UNL     1      40.214 -14.088   9.236  1.00  0.00     0.223 A 
ENDROOT
BRANCH   1  11
ATOM     11  C   UNL     1      38.990 -12.340   7.880  1.00  0.00     0.091 A 
ATOM     12  C   UNL     1      39.380 -11.611   6.748  1.00  0.00     0.068 A 
ATOM     13  C   UNL     1      38.446 -11.230   5.778  1.00  0.00     0.162 A 
ATOM     14  C   UNL     1      37.646 -12.719   8.018  1.00  0.00     0.068 A 
ATOM     15  C   UNL     1      37.088 -11.596   5.935  1.00  0.00     0.200 A 
ATOM     16  C   UNL     1      36.700 -12.346   7.054  1.00  0.00     0.162 A 
BRANCH  13  17
ATOM     17  O   UNL     1      38.908 -10.495   4.684  1.00  0.00    -0.504 OA
ATOM     18  H   UNL     1      39.177  -9.522   4.729  1.00  0.00     0.293 HD
ENDBRANCH  13  17
BRANCH  15  19
ATOM     19  O   UNL     1      36.104 -11.244   5.008  1.00  0.00    -0.502 OA
ATOM     20  H   UNL     1      36.010 -10.323   4.605  1.00  0.00     0.293 HD
ENDBRANCH  15  19
BRANCH  16  21
ATOM     21  O   UNL     1      35.365 -12.721   7.201  1.00  0.00    -0.504 OA
ATOM     22  H   UNL     1      34.624 -12.261   6.684  1.00  0.00     0.293 HD
ENDBRANCH  16  21
ENDBRANCH   1  11
BRANCH  10  23
ATOM     23  O   UNL     1      39.421 -15.103   8.700  1.00  0.00    -0.500 OA
ATOM     24  H   UNL     1      39.395 -15.289   7.703  1.00  0.00     0.294 HD
ENDBRANCH  10  23
BRANCH   5  25
ATOM     25  O   UNL     1      44.125 -10.143  12.387  1.00  0.00    -0.507 OA
ATOM     26  H   UNL     1      44.344 -10.107  13.376  1.00  0.00     0.293 HD
ENDBRANCH   5  25
BRANCH   7  27
ATOM     27  O   UNL     1      43.349 -14.874  12.152  1.00  0.00    -0.507 OA
ATOM     28  H   UNL     1      43.651 -15.626  11.550  1.00  0.00     0.293 HD
ENDBRANCH   7  27
TORSDOF 7
ENDMDL
MODEL 8
REMARK VINA RESULT:    -7.179      2.011      7.080
REMARK INTER + INTRA:          -8.846
REMARK INTER:                  -8.706
REMARK INTRA:                  -0.140
REMARK UNBOUND:                 0.012
REMARK SMILES Oc1cc(O)c2cc(O)c(-c3cc(O)c(O)c(O)c3)[o+]c2c1
REMARK SMILES IDX 10 1 20 2 21 3 22 4 2 5 3 6 4 7 6 8 7 9 8 10 11 11 12 12
REMARK SMILES IDX 13 13 19 14 15 15 17 16 14 17 16 19 18 21 9 23 1 25 5 27
REMARK H PARENT 14 18 16 20 18 22 9 24 1 26 5 28
REMARK Flexibility Score: inf
ROOT
ATOM      1  C   UNL     1      40.245 -11.912   8.287  1.00  0.00     0.402 A 
ATOM      2  O   UNL     1      39.006 -12.396   8.316  1.00  0.00    -0.202 OA
ATOM      3  C   UNL     1      38.125 -12.204   7.340  1.00  0.00     0.368 A 
ATOM      4  C   UNL     1      36.846 -12.756   7.461  1.00  0.00     0.162 A 
ATOM      5  C   UNL     1      35.900 -12.571   6.448  1.00  0.00     0.128 A 
ATOM      6  C   UNL     1      36.234 -11.832   5.311  1.00  0.00     0.093 A 
ATOM      7  C   UNL     1      37.508 -11.269   5.167  1.00  0.00     0.136 A 
ATOM      8  C   UNL     1      38.471 -11.451   6.193  1.00  0.00     0.125 A 
ATOM      9  C   UNL     1      39.767 -10.913   6.140  1.00  0.00     0.078 A 
ATOM     10  C   UNL     1      40.661 -11.131   7.193  1.00  0.00     0.223 A 
ENDROOT
BRANCH   1  11
ATOM     11  C   UNL     1      41.139 -12.205   9.432  1.00  0.00     0.091 A 
ATOM     12  C   UNL     1      41.450 -13.536   9.741  1.00  0.00     0.068 A 
ATOM     13  C   UNL     1      42.306 -13.849  10.804  1.00  0.00     0.162 A 
ATOM     14  C   UNL     1      41.726 -11.174  10.181  1.00  0.00     0.068 A 
ATOM     15  C   UNL     1      42.877 -12.804  11.570  1.00  0.00     0.200 A 
ATOM     16  C   UNL     1      42.586 -11.472  11.246  1.00  0.00     0.162 A 
BRANCH  13  17
ATOM     17  O   UNL     1      42.559 -15.198  11.059  1.00  0.00    -0.504 OA
ATOM     18  H   UNL     1      41.841 -15.881  11.252  1.00  0.00     0.293 HD
ENDBRANCH  13  17
BRANCH  15  19
ATOM     19  O   UNL     1      43.735 -13.046  12.646  1.00  0.00    -0.502 OA
ATOM     20  H   UNL     1      44.527 -12.466  12.880  1.00  0.00     0.293 HD
ENDBRANCH  15  19
BRANCH  16  21
ATOM     21  O   UNL     1      43.162 -10.442  11.991  1.00  0.00    -0.504 OA
ATOM     22  H   UNL     1      42.907 -10.281  12.959  1.00  0.00     0.293 HD
ENDBRANCH  16  21
ENDBRANCH   1  11
BRANCH  10  23
ATOM     23  O   UNL     1      41.931 -10.555   7.164  1.00  0.00    -0.500 OA
ATOM     24  H   UNL     1      42.543 -10.574   7.972  1.00  0.00     0.294 HD
ENDBRANCH  10  23
BRANCH   5  25
ATOM     25  O   UNL     1      34.624 -13.119   6.562  1.00  0.00    -0.507 OA
ATOM     26  H   UNL     1      34.215 -13.326   7.465  1.00  0.00     0.293 HD
ENDBRANCH   5  25
BRANCH   7  27
ATOM     27  O   UNL     1      37.763 -10.547   3.997  1.00  0.00    -0.507 OA
ATOM     28  H   UNL     1      38.107  -9.597   3.977  1.00  0.00     0.293 HD
ENDBRANCH   7  27
TORSDOF 7
ENDMDL
MODEL 9
REMARK VINA RESULT:    -7.175      1.972      7.214
REMARK INTER + INTRA:          -8.841
REMARK INTER:                  -8.701
REMARK INTRA:                  -0.141
REMARK UNBOUND:                 0.012
REMARK SMILES Oc1cc(O)c2cc(O)c(-c3cc(O)c(O)c(O)c3)[o+]c2c1
REMARK SMILES IDX 10 1 20 2 21 3 22 4 2 5 3 6 4 7 6 8 7 9 8 10 11 11 12 12
REMARK SMILES IDX 13 13 19 14 15 15 17 16 14 17 16 19 18 21 9 23 1 25 5 27
REMARK H PARENT 14 18 16 20 18 22 9 24 1 26 5 28
REMARK Flexibility Score: inf
ROOT
ATOM      1  C   UNL     1      40.291 -12.001   8.290  1.00  0.00     0.402 A 
ATOM      2  O   UNL     1      39.051 -12.480   8.330  1.00  0.00    -0.202 OA
ATOM      3  C   UNL     1      38.155 -12.267   7.372  1.00  0.00     0.368 A 
ATOM      4  C   UNL     1      36.876 -12.816   7.503  1.00  0.00     0.162 A 
ATOM      5  C   UNL     1      35.914 -12.610   6.509  1.00  0.00     0.128 A 
ATOM      6  C   UNL     1      36.233 -11.852   5.381  1.00  0.00     0.093 A 
ATOM      7  C   UNL     1      37.508 -11.291   5.226  1.00  0.00     0.136 A 
ATOM      8  C   UNL     1      38.486 -11.496   6.232  1.00  0.00     0.125 A 
ATOM      9  C   UNL     1      39.783 -10.962   6.169  1.00  0.00     0.078 A 
ATOM     10  C   UNL     1      40.692 -11.203   7.203  1.00  0.00     0.223 A 
ENDROOT
BRANCH   1  11
ATOM     11  C   UNL     1      41.201 -12.317   9.415  1.00  0.00     0.091 A 
ATOM     12  C   UNL     1      41.741 -11.274  10.179  1.00  0.00     0.068 A 
ATOM     13  C   UNL     1      42.589 -11.536  11.262  1.00  0.00     0.162 A 
ATOM     14  C   UNL     1      41.492 -13.644   9.768  1.00  0.00     0.068 A 
ATOM     15  C   UNL     1      42.896 -12.876  11.599  1.00  0.00     0.200 A 
ATOM     16  C   UNL     1      42.337 -13.922  10.850  1.00  0.00     0.162 A 
BRANCH  13  17
ATOM     17  O   UNL     1      43.098 -10.445  11.968  1.00  0.00    -0.504 OA
ATOM     18  H   UNL     1      42.530  -9.698  12.342  1.00  0.00     0.293 HD
ENDBRANCH  13  17
BRANCH  15  19
ATOM     19  O   UNL     1      43.738 -13.208  12.662  1.00  0.00    -0.502 OA
ATOM     20  H   UNL     1      43.424 -13.344  13.612  1.00  0.00     0.293 HD
ENDBRANCH  15  19
BRANCH  16  21
ATOM     21  O   UNL     1      42.626 -15.242  11.191  1.00  0.00    -0.504 OA
ATOM     22  H   UNL     1      41.923 -15.971  11.137  1.00  0.00     0.293 HD
ENDBRANCH  16  21
ENDBRANCH   1  11
BRANCH  10  23
ATOM     23  O   UNL     1      41.965 -10.631   7.164  1.00  0.00    -0.500 OA
ATOM     24  H   UNL     1      42.364 -10.164   7.970  1.00  0.00     0.294 HD
ENDBRANCH  10  23
BRANCH   5  25
ATOM     25  O   UNL     1      34.638 -13.154   6.634  1.00  0.00    -0.507 OA
ATOM     26  H   UNL     1      34.455 -14.129   6.429  1.00  0.00     0.293 HD
ENDBRANCH   5  25
BRANCH   7  27
ATOM     27  O   UNL     1      37.747 -10.550   4.065  1.00  0.00    -0.507 OA
ATOM     28  H   UNL     1      38.641 -10.491   3.601  1.00  0.00     0.293 HD
ENDBRANCH   7  27
TORSDOF 7
ENDMDL
