MODEL 1
REMARK VINA RESULT:    -2.593      0.000      0.000
REMARK INTER + INTRA:          -3.368
REMARK INTER:                  -3.200
REMARK INTRA:                  -0.168
REMARK UNBOUND:                -0.168
REMARK SMILES CCCCCC(=O)[O-]
REMARK SMILES IDX 4 1 5 2 6 3 7 4 8 5 3 6 2 7 1 8
REMARK H PARENT
REMARK Flexibility Score: inf
ROOT
ATOM      1  C   UNL     1     -25.118  29.325 -21.035  1.00  0.00     0.006 C 
ENDROOT
BRANCH   1   2
ATOM      2  C   UNL     1     -23.748  29.606 -21.671  1.00  0.00     0.053 C 
BRANCH   2   3
ATOM      3  C   UNL     1     -23.128  28.365 -22.237  1.00  0.00     0.041 C 
ATOM      4  O   UNL     1     -23.607  27.832 -23.273  1.00  0.00    -0.550 OA
ATOM      5  O   UNL     1     -22.041  27.779 -21.601  1.00  0.00    -0.550 OA
ENDBRANCH   2   3
ENDBRANCH   1   2
BRANCH   1   6
ATOM      6  C   UNL     1     -25.065  28.960 -19.537  1.00  0.00     0.000 C 
BRANCH   6   7
ATOM      7  C   UNL     1     -23.908  29.606 -18.754  1.00  0.00    -0.003 C 
ATOM      8  C   UNL     1     -24.379  30.396 -17.534  1.00  0.00     0.004 C 
ENDBRANCH   6   7
ENDBRANCH   1   6
TORSDOF 4
ENDMDL
MODEL 2
REMARK VINA RESULT:    -2.580      2.339      4.153
REMARK INTER + INTRA:          -3.352
REMARK INTER:                  -3.191
REMARK INTRA:                  -0.161
REMARK UNBOUND:                -0.168
REMARK SMILES CCCCCC(=O)[O-]
REMARK SMILES IDX 4 1 5 2 6 3 7 4 8 5 3 6 2 7 1 8
REMARK H PARENT
REMARK Flexibility Score: inf
ROOT
ATOM      1  C   UNL     1     -24.754  29.979 -20.992  1.00  0.00     0.006 C 
ENDROOT
BRANCH   1   2
ATOM      2  C   UNL     1     -24.926  29.176 -19.693  1.00  0.00     0.053 C 
BRANCH   2   3
ATOM      3  C   UNL     1     -24.048  29.694 -18.595  1.00  0.00     0.041 C 
ATOM      4  O   UNL     1     -24.426  30.662 -17.884  1.00  0.00    -0.550 OA
ATOM      5  O   UNL     1     -22.799  29.126 -18.378  1.00  0.00    -0.550 OA
ENDBRANCH   2   3
ENDBRANCH   1   2
BRANCH   1   6
ATOM      6  C   UNL     1     -23.461  29.664 -21.772  1.00  0.00     0.000 C 
BRANCH   6   7
ATOM      7  C   UNL     1     -23.268  28.181 -22.133  1.00  0.00    -0.003 C 
ATOM      8  C   UNL     1     -23.617  27.868 -23.588  1.00  0.00     0.004 C 
ENDBRANCH   6   7
ENDBRANCH   1   6
TORSDOF 4
ENDMDL
MODEL 3
REMARK VINA RESULT:    -2.560      1.223      1.774
REMARK INTER + INTRA:          -3.327
REMARK INTER:                  -3.107
REMARK INTRA:                  -0.221
REMARK UNBOUND:                -0.168
REMARK SMILES CCCCCC(=O)[O-]
REMARK SMILES IDX 4 1 5 2 6 3 7 4 8 5 3 6 2 7 1 8
REMARK H PARENT
REMARK Flexibility Score: inf
ROOT
ATOM      1  C   UNL     1     -23.613  29.703 -21.890  1.00  0.00     0.006 C 
ENDROOT
BRANCH   1   2
ATOM      2  C   UNL     1     -23.294  28.205 -22.020  1.00  0.00     0.053 C 
BRANCH   2   3
ATOM      3  C   UNL     1     -21.946  27.869 -21.461  1.00  0.00     0.041 C 
ATOM      4  O   UNL     1     -21.301  26.885 -21.911  1.00  0.00    -0.550 OA
ATOM      5  O   UNL     1     -21.417  28.623 -20.421  1.00  0.00    -0.550 OA
ENDBRANCH   2   3
ENDBRANCH   1   2
BRANCH   1   6
ATOM      6  C   UNL     1     -24.877  30.019 -21.064  1.00  0.00     0.000 C 
BRANCH   6   7
ATOM      7  C   UNL     1     -24.985  29.257 -19.731  1.00  0.00    -0.003 C 
ATOM      8  C   UNL     1     -24.350  30.008 -18.561  1.00  0.00     0.004 C 
ENDBRANCH   6   7
ENDBRANCH   1   6
TORSDOF 4
ENDMDL
MODEL 4
REMARK VINA RESULT:    -2.555     14.809     16.235
REMARK INTER + INTRA:          -3.321
REMARK INTER:                  -3.211
REMARK INTRA:                  -0.110
REMARK UNBOUND:                -0.168
REMARK SMILES CCCCCC(=O)[O-]
REMARK SMILES IDX 4 1 5 2 6 3 7 4 8 5 3 6 2 7 1 8
REMARK H PARENT
REMARK Flexibility Score: inf
ROOT
ATOM      1  C   UNL     1     -21.068  13.077 -24.778  1.00  0.00     0.006 C 
ENDROOT
BRANCH   1   2
ATOM      2  C   UNL     1     -21.741  13.205 -23.403  1.00  0.00     0.053 C 
BRANCH   2   3
ATOM      3  C   UNL     1     -22.075  14.627 -23.072  1.00  0.00     0.041 C 
ATOM      4  O   UNL     1     -23.083  15.178 -23.589  1.00  0.00    -0.550 OA
ATOM      5  O   UNL     1     -21.254  15.353 -22.218  1.00  0.00    -0.550 OA
ENDBRANCH   2   3
ENDBRANCH   1   2
BRANCH   1   6
ATOM      6  C   UNL     1     -19.679  13.740 -24.876  1.00  0.00     0.000 C 
BRANCH   6   7
ATOM      7  C   UNL     1     -18.514  12.880 -24.355  1.00  0.00    -0.003 C 
ATOM      8  C   UNL     1     -17.175  13.231 -25.004  1.00  0.00     0.004 C 
ENDBRANCH   6   7
ENDBRANCH   1   6
TORSDOF 4
ENDMDL
MODEL 5
REMARK VINA RESULT:    -2.477     15.167     16.475
REMARK INTER + INTRA:          -3.224
REMARK INTER:                  -3.048
REMARK INTRA:                  -0.176
REMARK UNBOUND:                -0.168
REMARK SMILES CCCCCC(=O)[O-]
REMARK SMILES IDX 4 1 5 2 6 3 7 4 8 5 3 6 2 7 1 8
REMARK H PARENT
REMARK Flexibility Score: inf
ROOT
ATOM      1  C   UNL     1     -19.819  13.646 -24.867  1.00  0.00     0.006 C 
ENDROOT
BRANCH   1   2
ATOM      2  C   UNL     1     -18.626  12.872 -24.285  1.00  0.00     0.053 C 
BRANCH   2   3
ATOM      3  C   UNL     1     -18.044  13.558 -23.088  1.00  0.00     0.041 C 
ATOM      4  O   UNL     1     -16.813  13.819 -23.043  1.00  0.00    -0.550 OA
ATOM      5  O   UNL     1     -18.857  13.879 -22.008  1.00  0.00    -0.550 OA
ENDBRANCH   2   3
ENDBRANCH   1   2
BRANCH   1   6
ATOM      6  C   UNL     1     -21.173  12.914 -24.756  1.00  0.00     0.000 C 
BRANCH   6   7
ATOM      7  C   UNL     1     -22.002  13.273 -23.509  1.00  0.00    -0.003 C 
ATOM      8  C   UNL     1     -22.486  14.722 -23.510  1.00  0.00     0.004 C 
ENDBRANCH   6   7
ENDBRANCH   1   6
TORSDOF 4
ENDMDL
MODEL 6
REMARK VINA RESULT:    -2.476      2.203      3.981
REMARK INTER + INTRA:          -3.223
REMARK INTER:                  -3.029
REMARK INTRA:                  -0.194
REMARK UNBOUND:                -0.168
REMARK SMILES CCCCCC(=O)[O-]
REMARK SMILES IDX 4 1 5 2 6 3 7 4 8 5 3 6 2 7 1 8
REMARK H PARENT
REMARK Flexibility Score: inf
ROOT
ATOM      1  C   UNL     1     -24.943  29.271 -19.711  1.00  0.00     0.006 C 
ENDROOT
BRANCH   1   2
ATOM      2  C   UNL     1     -24.344  30.015 -18.507  1.00  0.00     0.053 C 
BRANCH   2   3
ATOM      3  C   UNL     1     -23.162  29.295 -17.935  1.00  0.00     0.041 C 
ATOM      4  O   UNL     1     -23.149  28.963 -16.721  1.00  0.00    -0.550 OA
ATOM      5  O   UNL     1     -22.062  29.019 -18.737  1.00  0.00    -0.550 OA
ENDBRANCH   2   3
ENDBRANCH   1   2
BRANCH   1   6
ATOM      6  C   UNL     1     -24.818  30.021 -21.053  1.00  0.00     0.000 C 
BRANCH   6   7
ATOM      7  C   UNL     1     -23.533  29.722 -21.845  1.00  0.00    -0.003 C 
ATOM      8  C   UNL     1     -23.407  28.254 -22.248  1.00  0.00     0.004 C 
ENDBRANCH   6   7
ENDBRANCH   1   6
TORSDOF 4
ENDMDL
MODEL 7
REMARK VINA RESULT:    -2.475     15.236     16.640
REMARK INTER + INTRA:          -3.223
REMARK INTER:                  -3.130
REMARK INTRA:                  -0.093
REMARK UNBOUND:                -0.168
REMARK SMILES CCCCCC(=O)[O-]
REMARK SMILES IDX 4 1 5 2 6 3 7 4 8 5 3 6 2 7 1 8
REMARK H PARENT
REMARK Flexibility Score: inf
ROOT
ATOM      1  C   UNL     1     -20.160  12.986 -24.744  1.00  0.00     0.006 C 
ENDROOT
BRANCH   1   2
ATOM      2  C   UNL     1     -21.397  13.880 -24.920  1.00  0.00     0.053 C 
BRANCH   2   3
ATOM      3  C   UNL     1     -22.070  14.170 -23.614  1.00  0.00     0.041 C 
ATOM      4  O   UNL     1     -23.009  15.007 -23.556  1.00  0.00    -0.550 OA
ATOM      5  O   UNL     1     -21.638  13.538 -22.455  1.00  0.00    -0.550 OA
ENDBRANCH   2   3
ENDBRANCH   1   2
BRANCH   1   6
ATOM      6  C   UNL     1     -18.817  13.744 -24.751  1.00  0.00     0.000 C 
BRANCH   6   7
ATOM      7  C   UNL     1     -17.738  13.157 -23.822  1.00  0.00    -0.003 C 
ATOM      8  C   UNL     1     -16.970  11.998 -24.456  1.00  0.00     0.004 C 
ENDBRANCH   6   7
ENDBRANCH   1   6
TORSDOF 4
ENDMDL
MODEL 8
REMARK VINA RESULT:    -2.431      1.137      1.922
REMARK INTER + INTRA:          -3.168
REMARK INTER:                  -2.982
REMARK INTRA:                  -0.185
REMARK UNBOUND:                -0.168
REMARK SMILES CCCCCC(=O)[O-]
REMARK SMILES IDX 4 1 5 2 6 3 7 4 8 5 3 6 2 7 1 8
REMARK H PARENT
REMARK Flexibility Score: inf
ROOT
ATOM      1  C   UNL     1     -24.888  29.034 -19.630  1.00  0.00     0.006 C 
ENDROOT
BRANCH   1   2
ATOM      2  C   UNL     1     -24.932  29.607 -21.055  1.00  0.00     0.053 C 
BRANCH   2   3
ATOM      3  C   UNL     1     -23.750  29.178 -21.868  1.00  0.00     0.041 C 
ATOM      4  O   UNL     1     -22.595  29.583 -21.570  1.00  0.00    -0.550 OA
ATOM      5  O   UNL     1     -23.928  28.357 -22.974  1.00  0.00    -0.550 OA
ENDBRANCH   2   3
ENDBRANCH   1   2
BRANCH   1   6
ATOM      6  C   UNL     1     -24.460  30.046 -18.547  1.00  0.00     0.000 C 
BRANCH   6   7
ATOM      7  C   UNL     1     -23.431  29.512 -17.534  1.00  0.00    -0.003 C 
ATOM      8  C   UNL     1     -22.211  28.876 -18.199  1.00  0.00     0.004 C 
ENDBRANCH   6   7
ENDBRANCH   1   6
TORSDOF 4
ENDMDL
MODEL 9
REMARK VINA RESULT:    -2.254      2.028      3.100
REMARK INTER + INTRA:          -2.949
REMARK INTER:                  -2.745
REMARK INTRA:                  -0.204
REMARK UNBOUND:                -0.168
REMARK SMILES CCCCCC(=O)[O-]
REMARK SMILES IDX 4 1 5 2 6 3 7 4 8 5 3 6 2 7 1 8
REMARK H PARENT
REMARK Flexibility Score: inf
ROOT
ATOM      1  C   UNL     1     -22.741  28.355 -21.728  1.00  0.00     0.006 C 
ENDROOT
BRANCH   1   2
ATOM      2  C   UNL     1     -21.366  28.463 -21.051  1.00  0.00     0.053 C 
BRANCH   2   3
ATOM      3  C   UNL     1     -21.442  28.190 -19.581  1.00  0.00     0.041 C 
ATOM      4  O   UNL     1     -20.788  28.898 -18.770  1.00  0.00    -0.550 OA
ATOM      5  O   UNL     1     -22.209  27.132 -19.109  1.00  0.00    -0.550 OA
ENDBRANCH   2   3
ENDBRANCH   1   2
BRANCH   1   6
ATOM      6  C   UNL     1     -23.556  29.665 -21.732  1.00  0.00     0.000 C 
BRANCH   6   7
ATOM      7  C   UNL     1     -24.821  29.643 -20.854  1.00  0.00    -0.003 C 
ATOM      8  C   UNL     1     -24.532  29.936 -19.382  1.00  0.00     0.004 C 
ENDBRANCH   6   7
ENDBRANCH   1   6
TORSDOF 4
ENDMDL
