MODEL 1
REMARK VINA RESULT:    -5.182      0.000      0.000
REMARK INTER + INTRA:          -6.507
REMARK INTER:                  -6.242
REMARK INTRA:                  -0.264
REMARK UNBOUND:                -0.264
REMARK SMILES Oc1cc(O)c2cc(O)c(-c3ccc(O)c(O)c3)[o+]c2c1
REMARK SMILES IDX 10 1 19 2 20 3 21 4 2 5 3 6 4 7 6 8 7 9 8 10 11 11 12 12
REMARK SMILES IDX 13 13 14 14 18 15 16 16 15 17 17 19 9 21 1 23 5 25
REMARK H PARENT 15 18 17 20 9 22 1 24 5 26
REMARK Flexibility Score: inf
ROOT
ATOM      1  C   UNL     1      32.553  -5.495   0.328  1.00  0.00     0.402 A 
ATOM      2  O   UNL     1      33.460  -5.848  -0.581  1.00  0.00    -0.202 OA
ATOM      3  C   UNL     1      33.148  -6.415  -1.741  1.00  0.00     0.368 A 
ATOM      4  C   UNL     1      34.173  -6.754  -2.630  1.00  0.00     0.162 A 
ATOM      5  C   UNL     1      33.875  -7.354  -3.853  1.00  0.00     0.128 A 
ATOM      6  C   UNL     1      32.544  -7.620  -4.194  1.00  0.00     0.093 A 
ATOM      7  C   UNL     1      31.500  -7.290  -3.321  1.00  0.00     0.136 A 
ATOM      8  C   UNL     1      31.798  -6.677  -2.076  1.00  0.00     0.125 A 
ATOM      9  C   UNL     1      30.816  -6.301  -1.146  1.00  0.00     0.078 A 
ATOM     10  C   UNL     1      31.187  -5.697   0.059  1.00  0.00     0.223 A 
ENDROOT
BRANCH   1  11
ATOM     11  C   UNL     1      33.028  -4.879   1.587  1.00  0.00     0.087 A 
ATOM     12  C   UNL     1      33.519  -3.562   1.619  1.00  0.00     0.022 A 
ATOM     13  C   UNL     1      33.941  -2.995   2.824  1.00  0.00     0.051 A 
ATOM     14  C   UNL     1      33.865  -3.728   4.015  1.00  0.00     0.157 A 
ATOM     15  C   UNL     1      32.934  -5.602   2.789  1.00  0.00     0.068 A 
ATOM     16  C   UNL     1      33.357  -5.033   3.998  1.00  0.00     0.158 A 
BRANCH  14  17
ATOM     17  O   UNL     1      34.286  -3.165   5.220  1.00  0.00    -0.504 OA
ATOM     18  H   UNL     1      34.787  -3.711   5.912  1.00  0.00     0.293 HD
ENDBRANCH  14  17
BRANCH  16  19
ATOM     19  O   UNL     1      33.277  -5.758   5.185  1.00  0.00    -0.504 OA
ATOM     20  H   UNL     1      33.778  -6.631   5.308  1.00  0.00     0.293 HD
ENDBRANCH  16  19
ENDBRANCH   1  11
BRANCH  10  21
ATOM     21  O   UNL     1      30.209  -5.277   0.962  1.00  0.00    -0.500 OA
ATOM     22  H   UNL     1      30.451  -4.873   1.860  1.00  0.00     0.294 HD
ENDBRANCH  10  21
BRANCH   5  23
ATOM     23  O   UNL     1      34.910  -7.684  -4.725  1.00  0.00    -0.507 OA
ATOM     24  H   UNL     1      35.024  -7.211  -5.615  1.00  0.00     0.293 HD
ENDBRANCH   5  23
BRANCH   7  25
ATOM     25  O   UNL     1      30.198  -7.590  -3.733  1.00  0.00    -0.507 OA
ATOM     26  H   UNL     1      29.435  -6.929  -3.741  1.00  0.00     0.293 HD
ENDBRANCH   7  25
TORSDOF 6
ENDMDL
MODEL 2
REMARK VINA RESULT:    -5.177      1.426      1.713
REMARK INTER + INTRA:          -6.500
REMARK INTER:                  -6.154
REMARK INTRA:                  -0.346
REMARK UNBOUND:                -0.264
REMARK SMILES Oc1cc(O)c2cc(O)c(-c3ccc(O)c(O)c3)[o+]c2c1
REMARK SMILES IDX 10 1 19 2 20 3 21 4 2 5 3 6 4 7 6 8 7 9 8 10 11 11 12 12
REMARK SMILES IDX 13 13 14 14 18 15 16 16 15 17 17 19 9 21 1 23 5 25
REMARK H PARENT 15 18 17 20 9 22 1 24 5 26
REMARK Flexibility Score: inf
ROOT
ATOM      1  C   UNL     1      33.125  -4.610   1.001  1.00  0.00     0.402 A 
ATOM      2  O   UNL     1      33.711  -5.002  -0.129  1.00  0.00    -0.202 OA
ATOM      3  C   UNL     1      33.104  -5.748  -1.045  1.00  0.00     0.368 A 
ATOM      4  C   UNL     1      33.803  -6.111  -2.200  1.00  0.00     0.162 A 
ATOM      5  C   UNL     1      33.192  -6.897  -3.176  1.00  0.00     0.128 A 
ATOM      6  C   UNL     1      31.871  -7.327  -3.000  1.00  0.00     0.093 A 
ATOM      7  C   UNL     1      31.149  -6.976  -1.853  1.00  0.00     0.136 A 
ATOM      8  C   UNL     1      31.767  -6.174  -0.858  1.00  0.00     0.125 A 
ATOM      9  C   UNL     1      31.116  -5.764   0.317  1.00  0.00     0.078 A 
ATOM     10  C   UNL     1      31.789  -4.970   1.250  1.00  0.00     0.223 A 
ENDROOT
BRANCH   1  11
ATOM     11  C   UNL     1      33.912  -3.788   1.948  1.00  0.00     0.087 A 
ATOM     12  C   UNL     1      33.958  -2.387   1.837  1.00  0.00     0.022 A 
ATOM     13  C   UNL     1      34.689  -1.630   2.756  1.00  0.00     0.051 A 
ATOM     14  C   UNL     1      35.371  -2.258   3.805  1.00  0.00     0.157 A 
ATOM     15  C   UNL     1      34.582  -4.411   3.014  1.00  0.00     0.068 A 
ATOM     16  C   UNL     1      35.315  -3.652   3.937  1.00  0.00     0.158 A 
BRANCH  14  17
ATOM     17  O   UNL     1      36.103  -1.506   4.724  1.00  0.00    -0.504 OA
ATOM     18  H   UNL     1      37.061  -1.742   4.957  1.00  0.00     0.293 HD
ENDBRANCH  14  17
BRANCH  16  19
ATOM     19  O   UNL     1      35.990  -4.273   4.985  1.00  0.00    -0.504 OA
ATOM     20  H   UNL     1      37.003  -4.299   5.022  1.00  0.00     0.293 HD
ENDBRANCH  16  19
ENDBRANCH   1  11
BRANCH  10  21
ATOM     21  O   UNL     1      31.126  -4.521   2.393  1.00  0.00    -0.500 OA
ATOM     22  H   UNL     1      31.574  -4.521   3.303  1.00  0.00     0.294 HD
ENDBRANCH  10  21
BRANCH   5  23
ATOM     23  O   UNL     1      33.906  -7.248  -4.320  1.00  0.00    -0.507 OA
ATOM     24  H   UNL     1      34.850  -7.614  -4.263  1.00  0.00     0.293 HD
ENDBRANCH   5  23
BRANCH   7  25
ATOM     25  O   UNL     1      29.837  -7.446  -1.750  1.00  0.00    -0.507 OA
ATOM     26  H   UNL     1      29.538  -8.172  -1.116  1.00  0.00     0.293 HD
ENDBRANCH   7  25
TORSDOF 6
ENDMDL
MODEL 3
REMARK VINA RESULT:    -5.057      1.852      7.362
REMARK INTER + INTRA:          -6.356
REMARK INTER:                  -6.010
REMARK INTRA:                  -0.346
REMARK UNBOUND:                -0.264
REMARK SMILES Oc1cc(O)c2cc(O)c(-c3ccc(O)c(O)c3)[o+]c2c1
REMARK SMILES IDX 10 1 19 2 20 3 21 4 2 5 3 6 4 7 6 8 7 9 8 10 11 11 12 12
REMARK SMILES IDX 13 13 14 14 18 15 16 16 15 17 17 19 9 21 1 23 5 25
REMARK H PARENT 15 18 17 20 9 22 1 24 5 26
REMARK Flexibility Score: inf
ROOT
ATOM      1  C   UNL     1      33.054  -6.158   1.644  1.00  0.00     0.402 A 
ATOM      2  O   UNL     1      32.677  -5.046   2.271  1.00  0.00    -0.202 OA
ATOM      3  C   UNL     1      32.917  -4.816   3.557  1.00  0.00     0.368 A 
ATOM      4  C   UNL     1      32.478  -3.617   4.128  1.00  0.00     0.162 A 
ATOM      5  C   UNL     1      32.714  -3.351   5.477  1.00  0.00     0.128 A 
ATOM      6  C   UNL     1      33.393  -4.288   6.265  1.00  0.00     0.093 A 
ATOM      7  C   UNL     1      33.843  -5.495   5.717  1.00  0.00     0.136 A 
ATOM      8  C   UNL     1      33.607  -5.769   4.344  1.00  0.00     0.125 A 
ATOM      9  C   UNL     1      34.033  -6.946   3.708  1.00  0.00     0.078 A 
ATOM     10  C   UNL     1      33.768  -7.144   2.349  1.00  0.00     0.223 A 
ENDROOT
BRANCH   1  11
ATOM     11  C   UNL     1      32.718  -6.301   0.210  1.00  0.00     0.087 A 
ATOM     12  C   UNL     1      33.620  -5.911  -0.796  1.00  0.00     0.022 A 
ATOM     13  C   UNL     1      33.289  -6.076  -2.144  1.00  0.00     0.051 A 
ATOM     14  C   UNL     1      32.061  -6.645  -2.505  1.00  0.00     0.157 A 
ATOM     15  C   UNL     1      31.496  -6.889  -0.159  1.00  0.00     0.068 A 
ATOM     16  C   UNL     1      31.164  -7.054  -1.511  1.00  0.00     0.158 A 
BRANCH  14  17
ATOM     17  O   UNL     1      31.727  -6.810  -3.849  1.00  0.00    -0.504 OA
ATOM     18  H   UNL     1      32.151  -7.536  -4.415  1.00  0.00     0.293 HD
ENDBRANCH  14  17
BRANCH  16  19
ATOM     19  O   UNL     1      29.946  -7.625  -1.874  1.00  0.00    -0.504 OA
ATOM     20  H   UNL     1      29.152  -7.624  -1.244  1.00  0.00     0.293 HD
ENDBRANCH  16  19
ENDBRANCH   1  11
BRANCH  10  21
ATOM     21  O   UNL     1      34.235  -8.290   1.705  1.00  0.00    -0.500 OA
ATOM     22  H   UNL     1      33.784  -9.190   1.826  1.00  0.00     0.294 HD
ENDBRANCH  10  21
BRANCH   5  23
ATOM     23  O   UNL     1      32.268  -2.151   6.026  1.00  0.00    -0.507 OA
ATOM     24  H   UNL     1      31.583  -2.133   6.774  1.00  0.00     0.293 HD
ENDBRANCH   5  23
BRANCH   7  25
ATOM     25  O   UNL     1      34.510  -6.379   6.569  1.00  0.00    -0.507 OA
ATOM     26  H   UNL     1      34.292  -6.504   7.547  1.00  0.00     0.293 HD
ENDBRANCH   7  25
TORSDOF 6
ENDMDL
MODEL 4
REMARK VINA RESULT:    -5.008      1.787      3.101
REMARK INTER + INTRA:          -6.297
REMARK INTER:                  -5.948
REMARK INTRA:                  -0.348
REMARK UNBOUND:                -0.264
REMARK SMILES Oc1cc(O)c2cc(O)c(-c3ccc(O)c(O)c3)[o+]c2c1
REMARK SMILES IDX 10 1 19 2 20 3 21 4 2 5 3 6 4 7 6 8 7 9 8 10 11 11 12 12
REMARK SMILES IDX 13 13 14 14 18 15 16 16 15 17 17 19 9 21 1 23 5 25
REMARK H PARENT 15 18 17 20 9 22 1 24 5 26
REMARK Flexibility Score: inf
ROOT
ATOM      1  C   UNL     1      33.111  -6.238  -0.895  1.00  0.00     0.402 A 
ATOM      2  O   UNL     1      32.171  -6.989  -1.465  1.00  0.00    -0.202 OA
ATOM      3  C   UNL     1      32.030  -7.108  -2.781  1.00  0.00     0.368 A 
ATOM      4  C   UNL     1      31.009  -7.920  -3.284  1.00  0.00     0.162 A 
ATOM      5  C   UNL     1      30.835  -8.060  -4.661  1.00  0.00     0.128 A 
ATOM      6  C   UNL     1      31.685  -7.385  -5.544  1.00  0.00     0.093 A 
ATOM      7  C   UNL     1      32.715  -6.566  -5.065  1.00  0.00     0.136 A 
ATOM      8  C   UNL     1      32.897  -6.423  -3.664  1.00  0.00     0.125 A 
ATOM      9  C   UNL     1      33.910  -5.634  -3.094  1.00  0.00     0.078 A 
ATOM     10  C   UNL     1      34.030  -5.545  -1.704  1.00  0.00     0.223 A 
ENDROOT
BRANCH   1  11
ATOM     11  C   UNL     1      33.160  -6.180   0.583  1.00  0.00     0.087 A 
ATOM     12  C   UNL     1      33.956  -7.071   1.325  1.00  0.00     0.022 A 
ATOM     13  C   UNL     1      34.003  -6.982   2.719  1.00  0.00     0.051 A 
ATOM     14  C   UNL     1      33.269  -5.996   3.389  1.00  0.00     0.157 A 
ATOM     15  C   UNL     1      32.442  -5.180   1.260  1.00  0.00     0.068 A 
ATOM     16  C   UNL     1      32.489  -5.091   2.658  1.00  0.00     0.158 A 
BRANCH  14  17
ATOM     17  O   UNL     1      33.312  -5.905   4.780  1.00  0.00    -0.504 OA
ATOM     18  H   UNL     1      33.476  -5.021   5.248  1.00  0.00     0.293 HD
ENDBRANCH  14  17
BRANCH  16  19
ATOM     19  O   UNL     1      31.765  -4.107   3.328  1.00  0.00    -0.504 OA
ATOM     20  H   UNL     1      30.765  -4.004   3.197  1.00  0.00     0.293 HD
ENDBRANCH  16  19
ENDBRANCH   1  11
BRANCH  10  21
ATOM     21  O   UNL     1      35.067  -4.803  -1.138  1.00  0.00    -0.500 OA
ATOM     22  H   UNL     1      35.742  -5.224  -0.509  1.00  0.00     0.294 HD
ENDBRANCH  10  21
BRANCH   5  23
ATOM     23  O   UNL     1      29.812  -8.873  -5.143  1.00  0.00    -0.507 OA
ATOM     24  H   UNL     1      29.317  -8.650  -6.000  1.00  0.00     0.293 HD
ENDBRANCH   5  23
BRANCH   7  25
ATOM     25  O   UNL     1      33.519  -5.923  -6.010  1.00  0.00    -0.507 OA
ATOM     26  H   UNL     1      34.419  -5.512  -5.809  1.00  0.00     0.293 HD
ENDBRANCH   7  25
TORSDOF 6
ENDMDL
MODEL 5
REMARK VINA RESULT:    -4.994      7.260     10.077
REMARK INTER + INTRA:          -6.280
REMARK INTER:                  -5.959
REMARK INTRA:                  -0.321
REMARK UNBOUND:                -0.264
REMARK SMILES Oc1cc(O)c2cc(O)c(-c3ccc(O)c(O)c3)[o+]c2c1
REMARK SMILES IDX 10 1 19 2 20 3 21 4 2 5 3 6 4 7 6 8 7 9 8 10 11 11 12 12
REMARK SMILES IDX 13 13 14 14 18 15 16 16 15 17 17 19 9 21 1 23 5 25
REMARK H PARENT 15 18 17 20 9 22 1 24 5 26
REMARK Flexibility Score: inf
ROOT
ATOM      1  C   UNL     1      35.845   0.201  -3.573  1.00  0.00     0.402 A 
ATOM      2  O   UNL     1      35.923   0.970  -2.489  1.00  0.00    -0.202 OA
ATOM      3  C   UNL     1      36.012   0.486  -1.255  1.00  0.00     0.368 A 
ATOM      4  C   UNL     1      36.085   1.375  -0.179  1.00  0.00     0.162 A 
ATOM      5  C   UNL     1      36.176   0.895   1.127  1.00  0.00     0.128 A 
ATOM      6  C   UNL     1      36.193  -0.485   1.364  1.00  0.00     0.093 A 
ATOM      7  C   UNL     1      36.120  -1.395   0.303  1.00  0.00     0.136 A 
ATOM      8  C   UNL     1      36.030  -0.911  -1.028  1.00  0.00     0.125 A 
ATOM      9  C   UNL     1      35.967  -1.750  -2.153  1.00  0.00     0.078 A 
ATOM     10  C   UNL     1      35.884  -1.198  -3.435  1.00  0.00     0.223 A 
ENDROOT
BRANCH   1  11
ATOM     11  C   UNL     1      35.740   0.862  -4.893  1.00  0.00     0.087 A 
ATOM     12  C   UNL     1      36.876   1.364  -5.554  1.00  0.00     0.022 A 
ATOM     13  C   UNL     1      36.754   1.964  -6.810  1.00  0.00     0.051 A 
ATOM     14  C   UNL     1      35.502   2.057  -7.430  1.00  0.00     0.157 A 
ATOM     15  C   UNL     1      34.489   0.940  -5.530  1.00  0.00     0.068 A 
ATOM     16  C   UNL     1      34.367   1.542  -6.790  1.00  0.00     0.158 A 
BRANCH  14  17
ATOM     17  O   UNL     1      35.376   2.656  -8.683  1.00  0.00    -0.504 OA
ATOM     18  H   UNL     1      35.875   2.302  -9.492  1.00  0.00     0.293 HD
ENDBRANCH  14  17
BRANCH  16  19
ATOM     19  O   UNL     1      33.124   1.631  -7.412  1.00  0.00    -0.504 OA
ATOM     20  H   UNL     1      32.492   2.401  -7.224  1.00  0.00     0.293 HD
ENDBRANCH  16  19
ENDBRANCH   1  11
BRANCH  10  21
ATOM     21  O   UNL     1      35.872  -2.030  -4.555  1.00  0.00    -0.500 OA
ATOM     22  H   UNL     1      36.422  -1.820  -5.380  1.00  0.00     0.294 HD
ENDBRANCH  10  21
BRANCH   5  23
ATOM     23  O   UNL     1      36.248   1.797   2.186  1.00  0.00    -0.507 OA
ATOM     24  H   UNL     1      37.132   2.199   2.480  1.00  0.00     0.293 HD
ENDBRANCH   5  23
BRANCH   7  25
ATOM     25  O   UNL     1      36.139  -2.756   0.621  1.00  0.00    -0.507 OA
ATOM     26  H   UNL     1      36.424  -3.488  -0.014  1.00  0.00     0.293 HD
ENDBRANCH   7  25
TORSDOF 6
ENDMDL
MODEL 6
REMARK VINA RESULT:    -4.964      1.758      7.112
REMARK INTER + INTRA:          -6.245
REMARK INTER:                  -5.966
REMARK INTRA:                  -0.279
REMARK UNBOUND:                -0.264
REMARK SMILES Oc1cc(O)c2cc(O)c(-c3ccc(O)c(O)c3)[o+]c2c1
REMARK SMILES IDX 10 1 19 2 20 3 21 4 2 5 3 6 4 7 6 8 7 9 8 10 11 11 12 12
REMARK SMILES IDX 13 13 14 14 18 15 16 16 15 17 17 19 9 21 1 23 5 25
REMARK H PARENT 15 18 17 20 9 22 1 24 5 26
REMARK Flexibility Score: inf
ROOT
ATOM      1  C   UNL     1      32.496  -6.698  -1.881  1.00  0.00     0.402 A 
ATOM      2  O   UNL     1      33.552  -6.133  -1.299  1.00  0.00    -0.202 OA
ATOM      3  C   UNL     1      33.482  -5.462  -0.154  1.00  0.00     0.368 A 
ATOM      4  C   UNL     1      34.647  -4.900   0.378  1.00  0.00     0.162 A 
ATOM      5  C   UNL     1      34.602  -4.188   1.576  1.00  0.00     0.128 A 
ATOM      6  C   UNL     1      33.386  -4.033   2.251  1.00  0.00     0.093 A 
ATOM      7  C   UNL     1      32.206  -4.586   1.739  1.00  0.00     0.136 A 
ATOM      8  C   UNL     1      32.247  -5.314   0.521  1.00  0.00     0.125 A 
ATOM      9  C   UNL     1      31.117  -5.912  -0.059  1.00  0.00     0.078 A 
ATOM     10  C   UNL     1      31.237  -6.618  -1.260  1.00  0.00     0.223 A 
ENDROOT
BRANCH   1  11
ATOM     11  C   UNL     1      32.702  -7.410  -3.162  1.00  0.00     0.087 A 
ATOM     12  C   UNL     1      32.689  -8.815  -3.229  1.00  0.00     0.022 A 
ATOM     13  C   UNL     1      32.863  -9.465  -4.453  1.00  0.00     0.051 A 
ATOM     14  C   UNL     1      33.038  -8.723  -5.628  1.00  0.00     0.157 A 
ATOM     15  C   UNL     1      32.858  -6.672  -4.347  1.00  0.00     0.068 A 
ATOM     16  C   UNL     1      33.032  -7.324  -5.576  1.00  0.00     0.158 A 
BRANCH  14  17
ATOM     17  O   UNL     1      33.213  -9.369  -6.852  1.00  0.00    -0.504 OA
ATOM     18  H   UNL     1      33.577  -8.879  -7.661  1.00  0.00     0.293 HD
ENDBRANCH  14  17
BRANCH  16  19
ATOM     19  O   UNL     1      33.201  -6.589  -6.747  1.00  0.00    -0.504 OA
ATOM     20  H   UNL     1      32.669  -5.743  -6.923  1.00  0.00     0.293 HD
ENDBRANCH  16  19
ENDBRANCH   1  11
BRANCH  10  21
ATOM     21  O   UNL     1      30.124  -7.256  -1.811  1.00  0.00    -0.500 OA
ATOM     22  H   UNL     1      30.045  -8.267  -1.830  1.00  0.00     0.294 HD
ENDBRANCH  10  21
BRANCH   5  23
ATOM     23  O   UNL     1      35.774  -3.636   2.089  1.00  0.00    -0.507 OA
ATOM     24  H   UNL     1      35.753  -2.850   2.730  1.00  0.00     0.293 HD
ENDBRANCH   5  23
BRANCH   7  25
ATOM     25  O   UNL     1      31.031  -4.384   2.470  1.00  0.00    -0.507 OA
ATOM     26  H   UNL     1      30.546  -3.502   2.540  1.00  0.00     0.293 HD
ENDBRANCH   7  25
TORSDOF 6
ENDMDL
MODEL 7
REMARK VINA RESULT:    -4.925      2.411      4.182
REMARK INTER + INTRA:          -6.196
REMARK INTER:                  -5.880
REMARK INTRA:                  -0.317
REMARK UNBOUND:                -0.264
REMARK SMILES Oc1cc(O)c2cc(O)c(-c3ccc(O)c(O)c3)[o+]c2c1
REMARK SMILES IDX 10 1 19 2 20 3 21 4 2 5 3 6 4 7 6 8 7 9 8 10 11 11 12 12
REMARK SMILES IDX 13 13 14 14 18 15 16 16 15 17 17 19 9 21 1 23 5 25
REMARK H PARENT 15 18 17 20 9 22 1 24 5 26
REMARK Flexibility Score: inf
ROOT
ATOM      1  C   UNL     1      33.175  -5.152   3.590  1.00  0.00     0.402 A 
ATOM      2  O   UNL     1      32.512  -4.918   2.460  1.00  0.00    -0.202 OA
ATOM      3  C   UNL     1      32.388  -5.815   1.488  1.00  0.00     0.368 A 
ATOM      4  C   UNL     1      31.674  -5.474   0.335  1.00  0.00     0.162 A 
ATOM      5  C   UNL     1      31.530  -6.395  -0.703  1.00  0.00     0.128 A 
ATOM      6  C   UNL     1      32.105  -7.666  -0.592  1.00  0.00     0.093 A 
ATOM      7  C   UNL     1      32.825  -8.031   0.551  1.00  0.00     0.136 A 
ATOM      8  C   UNL     1      32.971  -7.099   1.612  1.00  0.00     0.125 A 
ATOM      9  C   UNL     1      33.664  -7.383   2.799  1.00  0.00     0.078 A 
ATOM     10  C   UNL     1      33.762  -6.413   3.802  1.00  0.00     0.223 A 
ENDROOT
BRANCH   1  11
ATOM     11  C   UNL     1      33.251  -4.068   4.594  1.00  0.00     0.087 A 
ATOM     12  C   UNL     1      32.410  -4.053   5.721  1.00  0.00     0.022 A 
ATOM     13  C   UNL     1      32.515  -3.030   6.668  1.00  0.00     0.051 A 
ATOM     14  C   UNL     1      33.469  -2.017   6.510  1.00  0.00     0.157 A 
ATOM     15  C   UNL     1      34.220  -3.060   4.453  1.00  0.00     0.068 A 
ATOM     16  C   UNL     1      34.326  -2.034   5.402  1.00  0.00     0.158 A 
BRANCH  14  17
ATOM     17  O   UNL     1      33.576  -0.994   7.452  1.00  0.00    -0.504 OA
ATOM     18  H   UNL     1      34.354  -0.950   8.100  1.00  0.00     0.293 HD
ENDBRANCH  14  17
BRANCH  16  19
ATOM     19  O   UNL     1      35.278  -1.028   5.251  1.00  0.00    -0.504 OA
ATOM     20  H   UNL     1      36.150  -1.042   5.769  1.00  0.00     0.293 HD
ENDBRANCH  16  19
ENDBRANCH   1  11
BRANCH  10  21
ATOM     21  O   UNL     1      34.407  -6.711   5.003  1.00  0.00    -0.500 OA
ATOM     22  H   UNL     1      35.405  -6.885   5.043  1.00  0.00     0.294 HD
ENDBRANCH  10  21
BRANCH   5  23
ATOM     23  O   UNL     1      30.815  -6.036  -1.843  1.00  0.00    -0.507 OA
ATOM     24  H   UNL     1      30.631  -6.702  -2.585  1.00  0.00     0.293 HD
ENDBRANCH   5  23
BRANCH   7  25
ATOM     25  O   UNL     1      33.370  -9.318   0.585  1.00  0.00    -0.507 OA
ATOM     26  H   UNL     1      34.219  -9.591   0.111  1.00  0.00     0.293 HD
ENDBRANCH   7  25
TORSDOF 6
ENDMDL
MODEL 8
REMARK VINA RESULT:    -4.909      2.105      6.992
REMARK INTER + INTRA:          -6.178
REMARK INTER:                  -5.825
REMARK INTRA:                  -0.353
REMARK UNBOUND:                -0.264
REMARK SMILES Oc1cc(O)c2cc(O)c(-c3ccc(O)c(O)c3)[o+]c2c1
REMARK SMILES IDX 10 1 19 2 20 3 21 4 2 5 3 6 4 7 6 8 7 9 8 10 11 11 12 12
REMARK SMILES IDX 13 13 14 14 18 15 16 16 15 17 17 19 9 21 1 23 5 25
REMARK H PARENT 15 18 17 20 9 22 1 24 5 26
REMARK Flexibility Score: inf
ROOT
ATOM      1  C   UNL     1      32.957  -6.158   1.498  1.00  0.00     0.402 A 
ATOM      2  O   UNL     1      33.579  -7.162   2.112  1.00  0.00    -0.202 OA
ATOM      3  C   UNL     1      33.955  -7.119   3.386  1.00  0.00     0.368 A 
ATOM      4  C   UNL     1      34.606  -8.224   3.941  1.00  0.00     0.162 A 
ATOM      5  C   UNL     1      35.014  -8.205   5.275  1.00  0.00     0.128 A 
ATOM      6  C   UNL     1      34.773  -7.073   6.062  1.00  0.00     0.093 A 
ATOM      7  C   UNL     1      34.123  -5.953   5.529  1.00  0.00     0.136 A 
ATOM      8  C   UNL     1      33.703  -5.970   4.173  1.00  0.00     0.125 A 
ATOM      9  C   UNL     1      33.034  -4.899   3.559  1.00  0.00     0.078 A 
ATOM     10  C   UNL     1      32.647  -4.990   2.218  1.00  0.00     0.223 A 
ENDROOT
BRANCH   1  11
ATOM     11  C   UNL     1      32.598  -6.325   0.072  1.00  0.00     0.087 A 
ATOM     12  C   UNL     1      33.469  -5.917  -0.955  1.00  0.00     0.022 A 
ATOM     13  C   UNL     1      33.118  -6.105  -2.294  1.00  0.00     0.051 A 
ATOM     14  C   UNL     1      31.901  -6.715  -2.627  1.00  0.00     0.157 A 
ATOM     15  C   UNL     1      31.388  -6.954  -0.268  1.00  0.00     0.068 A 
ATOM     16  C   UNL     1      31.036  -7.142  -1.612  1.00  0.00     0.158 A 
BRANCH  14  17
ATOM     17  O   UNL     1      31.547  -6.902  -3.963  1.00  0.00    -0.504 OA
ATOM     18  H   UNL     1      31.621  -6.152  -4.640  1.00  0.00     0.293 HD
ENDBRANCH  14  17
BRANCH  16  19
ATOM     19  O   UNL     1      29.830  -7.754  -1.947  1.00  0.00    -0.504 OA
ATOM     20  H   UNL     1      29.025  -7.212  -2.240  1.00  0.00     0.293 HD
ENDBRANCH  16  19
ENDBRANCH   1  11
BRANCH  10  21
ATOM     21  O   UNL     1      31.937  -3.947   1.622  1.00  0.00    -0.500 OA
ATOM     22  H   UNL     1      31.938  -3.011   2.012  1.00  0.00     0.294 HD
ENDBRANCH  10  21
BRANCH   5  23
ATOM     23  O   UNL     1      35.662  -9.316   5.809  1.00  0.00    -0.507 OA
ATOM     24  H   UNL     1      36.652  -9.476   5.660  1.00  0.00     0.293 HD
ENDBRANCH   5  23
BRANCH   7  25
ATOM     25  O   UNL     1      33.922  -4.861   6.378  1.00  0.00    -0.507 OA
ATOM     26  H   UNL     1      34.156  -4.850   7.360  1.00  0.00     0.293 HD
ENDBRANCH   7  25
TORSDOF 6
ENDMDL
MODEL 9
REMARK VINA RESULT:    -4.887      3.086      8.422
REMARK INTER + INTRA:          -6.151
REMARK INTER:                  -5.836
REMARK INTRA:                  -0.315
REMARK UNBOUND:                -0.264
REMARK SMILES Oc1cc(O)c2cc(O)c(-c3ccc(O)c(O)c3)[o+]c2c1
REMARK SMILES IDX 10 1 19 2 20 3 21 4 2 5 3 6 4 7 6 8 7 9 8 10 11 11 12 12
REMARK SMILES IDX 13 13 14 14 18 15 16 16 15 17 17 19 9 21 1 23 5 25
REMARK H PARENT 15 18 17 20 9 22 1 24 5 26
REMARK Flexibility Score: inf
ROOT
ATOM      1  C   UNL     1      33.298  -3.761   4.398  1.00  0.00     0.402 A 
ATOM      2  O   UNL     1      33.972  -2.643   4.140  1.00  0.00    -0.202 OA
ATOM      3  C   UNL     1      34.215  -1.709   5.053  1.00  0.00     0.368 A 
ATOM      4  C   UNL     1      34.930  -0.566   4.684  1.00  0.00     0.162 A 
ATOM      5  C   UNL     1      35.196   0.432   5.621  1.00  0.00     0.128 A 
ATOM      6  C   UNL     1      34.744   0.291   6.938  1.00  0.00     0.093 A 
ATOM      7  C   UNL     1      34.026  -0.844   7.332  1.00  0.00     0.136 A 
ATOM      8  C   UNL     1      33.755  -1.864   6.382  1.00  0.00     0.125 A 
ATOM      9  C   UNL     1      33.054  -3.041   6.692  1.00  0.00     0.078 A 
ATOM     10  C   UNL     1      32.830  -4.003   5.702  1.00  0.00     0.223 A 
ENDROOT
BRANCH   1  11
ATOM     11  C   UNL     1      33.085  -4.721   3.292  1.00  0.00     0.087 A 
ATOM     12  C   UNL     1      33.879  -5.874   3.160  1.00  0.00     0.022 A 
ATOM     13  C   UNL     1      33.644  -6.778   2.120  1.00  0.00     0.051 A 
ATOM     14  C   UNL     1      32.606  -6.551   1.207  1.00  0.00     0.157 A 
ATOM     15  C   UNL     1      32.032  -4.509   2.385  1.00  0.00     0.068 A 
ATOM     16  C   UNL     1      31.797  -5.415   1.342  1.00  0.00     0.158 A 
BRANCH  14  17
ATOM     17  O   UNL     1      32.370  -7.449   0.168  1.00  0.00    -0.504 OA
ATOM     18  H   UNL     1      32.091  -8.407   0.348  1.00  0.00     0.293 HD
ENDBRANCH  14  17
BRANCH  16  19
ATOM     19  O   UNL     1      30.761  -5.196   0.436  1.00  0.00    -0.504 OA
ATOM     20  H   UNL     1      30.304  -4.294   0.363  1.00  0.00     0.293 HD
ENDBRANCH  16  19
ENDBRANCH   1  11
BRANCH  10  21
ATOM     21  O   UNL     1      32.178  -5.195   6.021  1.00  0.00    -0.500 OA
ATOM     22  H   UNL     1      32.461  -6.081   5.618  1.00  0.00     0.294 HD
ENDBRANCH  10  21
BRANCH   5  23
ATOM     23  O   UNL     1      35.911   1.564   5.233  1.00  0.00    -0.507 OA
ATOM     24  H   UNL     1      36.036   2.352   5.859  1.00  0.00     0.293 HD
ENDBRANCH   5  23
BRANCH   7  25
ATOM     25  O   UNL     1      33.607  -0.910   8.664  1.00  0.00    -0.507 OA
ATOM     26  H   UNL     1      32.847  -0.369   9.051  1.00  0.00     0.293 HD
ENDBRANCH   7  25
TORSDOF 6
ENDMDL
