MODEL 1
REMARK VINA RESULT:    -5.083      0.000      0.000
REMARK INTER + INTRA:         -11.115
REMARK INTER:                  -9.243
REMARK INTRA:                  -1.872
REMARK UNBOUND:                -1.872
REMARK SMILES CCCCCCCCCCCCCCCC(=O)[O-]
REMARK SMILES IDX 9 1 10 2 11 3 12 4 13 5 14 6 15 7 16 8 17 9 18 10 8 11 7 12
REMARK SMILES IDX 6 13 5 14 4 15 3 16 2 17 1 18
REMARK H PARENT
REMARK Flexibility Score: inf
ROOT
ATOM      1  C   UNL     1      24.127  36.295 147.391  1.00  0.00     0.000 C 
ENDROOT
BRANCH   1   2
ATOM      2  C   UNL     1      23.780  36.899 148.761  1.00  0.00     0.000 C 
BRANCH   2   3
ATOM      3  C   UNL     1      23.300  38.357 148.661  1.00  0.00     0.000 C 
BRANCH   3   4
ATOM      4  C   UNL     1      23.909  39.098 147.459  1.00  0.00     0.000 C 
BRANCH   4   5
ATOM      5  C   UNL     1      25.372  39.510 147.700  1.00  0.00     0.000 C 
BRANCH   5   6
ATOM      6  C   UNL     1      25.577  41.036 147.640  1.00  0.00     0.006 C 
BRANCH   6   7
ATOM      7  C   UNL     1      24.278  41.846 147.504  1.00  0.00     0.053 C 
BRANCH   7   8
ATOM      8  C   UNL     1      24.024  42.705 148.704  1.00  0.00     0.041 C 
ATOM      9  O   UNL     1      24.074  42.210 149.861  1.00  0.00    -0.550 OA
ATOM     10  O   UNL     1      23.698  44.046 148.543  1.00  0.00    -0.550 OA
ENDBRANCH   7   8
ENDBRANCH   6   7
ENDBRANCH   5   6
ENDBRANCH   4   5
ENDBRANCH   3   4
ENDBRANCH   2   3
ENDBRANCH   1   2
BRANCH   1  11
ATOM     11  C   UNL     1      24.317  34.771 147.445  1.00  0.00     0.000 C 
BRANCH  11  12
ATOM     12  C   UNL     1      24.043  34.234 148.855  1.00  0.00    -0.000 C 
BRANCH  12  13
ATOM     13  C   UNL     1      25.249  33.447 149.388  1.00  0.00    -0.000 C 
BRANCH  13  14
ATOM     14  C   UNL     1      26.460  33.492 148.439  1.00  0.00    -0.000 C 
BRANCH  14  15
ATOM     15  C   UNL     1      27.714  34.186 149.011  1.00  0.00    -0.000 C 
BRANCH  15  16
ATOM     16  C   UNL     1      27.455  35.124 150.203  1.00  0.00    -0.000 C 
BRANCH  16  17
ATOM     17  C   UNL     1      27.321  36.595 149.784  1.00  0.00    -0.003 C 
ATOM     18  C   UNL     1      27.823  36.808 148.358  1.00  0.00     0.004 C 
ENDBRANCH  16  17
ENDBRANCH  15  16
ENDBRANCH  14  15
ENDBRANCH  13  14
ENDBRANCH  12  13
ENDBRANCH  11  12
ENDBRANCH   1  11
TORSDOF 14
ENDMDL
MODEL 2
REMARK VINA RESULT:    -5.047      2.807      5.233
REMARK INTER + INTRA:         -11.049
REMARK INTER:                  -8.863
REMARK INTRA:                  -2.186
REMARK UNBOUND:                -1.872
REMARK SMILES CCCCCCCCCCCCCCCC(=O)[O-]
REMARK SMILES IDX 9 1 10 2 11 3 12 4 13 5 14 6 15 7 16 8 17 9 18 10 8 11 7 12
REMARK SMILES IDX 6 13 5 14 4 15 3 16 2 17 1 18
REMARK H PARENT
REMARK Flexibility Score: inf
ROOT
ATOM      1  C   UNL     1      24.125  40.512 147.823  1.00  0.00     0.000 C 
ENDROOT
BRANCH   1   2
ATOM      2  C   UNL     1      25.535  40.367 147.228  1.00  0.00     0.000 C 
BRANCH   2   3
ATOM      3  C   UNL     1      26.642  40.513 148.287  1.00  0.00     0.000 C 
BRANCH   3   4
ATOM      4  C   UNL     1      26.095  40.457 149.723  1.00  0.00     0.000 C 
BRANCH   4   5
ATOM      5  C   UNL     1      26.417  39.126 150.425  1.00  0.00     0.000 C 
BRANCH   5   6
ATOM      6  C   UNL     1      27.478  38.299 149.674  1.00  0.00     0.006 C 
BRANCH   6   7
ATOM      7  C   UNL     1      27.236  36.782 149.702  1.00  0.00     0.053 C 
BRANCH   7   8
ATOM      8  C   UNL     1      27.414  36.160 148.352  1.00  0.00     0.041 C 
ATOM      9  O   UNL     1      27.167  36.822 147.310  1.00  0.00    -0.550 OA
ATOM     10  O   UNL     1      27.824  34.836 148.244  1.00  0.00    -0.550 OA
ENDBRANCH   7   8
ENDBRANCH   6   7
ENDBRANCH   5   6
ENDBRANCH   4   5
ENDBRANCH   3   4
ENDBRANCH   2   3
ENDBRANCH   1   2
BRANCH   1  11
ATOM     11  C   UNL     1      23.264  39.256 147.623  1.00  0.00     0.000 C 
BRANCH  11  12
ATOM     12  C   UNL     1      23.071  38.506 148.947  1.00  0.00    -0.000 C 
BRANCH  12  13
ATOM     13  C   UNL     1      23.579  37.060 148.840  1.00  0.00    -0.000 C 
BRANCH  13  14
ATOM     14  C   UNL     1      23.770  36.600 147.384  1.00  0.00    -0.000 C 
BRANCH  14  15
ATOM     15  C   UNL     1      23.373  35.136 147.103  1.00  0.00    -0.000 C 
BRANCH  15  16
ATOM     16  C   UNL     1      24.511  34.111 147.246  1.00  0.00    -0.000 C 
BRANCH  16  17
ATOM     17  C   UNL     1      24.207  33.025 148.288  1.00  0.00    -0.003 C 
ATOM     18  C   UNL     1      24.432  33.546 149.705  1.00  0.00     0.004 C 
ENDBRANCH  16  17
ENDBRANCH  15  16
ENDBRANCH  14  15
ENDBRANCH  13  14
ENDBRANCH  12  13
ENDBRANCH  11  12
ENDBRANCH   1  11
TORSDOF 14
ENDMDL
MODEL 3
REMARK VINA RESULT:    -5.027      3.610      6.115
REMARK INTER + INTRA:         -11.013
REMARK INTER:                  -8.955
REMARK INTRA:                  -2.058
REMARK UNBOUND:                -1.872
REMARK SMILES CCCCCCCCCCCCCCCC(=O)[O-]
REMARK SMILES IDX 9 1 10 2 11 3 12 4 13 5 14 6 15 7 16 8 17 9 18 10 8 11 7 12
REMARK SMILES IDX 6 13 5 14 4 15 3 16 2 17 1 18
REMARK H PARENT
REMARK Flexibility Score: inf
ROOT
ATOM      1  C   UNL     1      24.248  39.565 150.321  1.00  0.00     0.000 C 
ENDROOT
BRANCH   1   2
ATOM      2  C   UNL     1      23.507  38.500 149.497  1.00  0.00     0.000 C 
BRANCH   2   3
ATOM      3  C   UNL     1      23.772  38.630 147.986  1.00  0.00     0.000 C 
BRANCH   3   4
ATOM      4  C   UNL     1      24.354  37.343 147.377  1.00  0.00     0.000 C 
BRANCH   4   5
ATOM      5  C   UNL     1      23.504  36.102 147.701  1.00  0.00     0.000 C 
BRANCH   5   6
ATOM      6  C   UNL     1      24.028  34.827 147.014  1.00  0.00     0.006 C 
BRANCH   6   7
ATOM      7  C   UNL     1      23.702  33.524 147.760  1.00  0.00     0.053 C 
BRANCH   7   8
ATOM      8  C   UNL     1      24.724  33.206 148.808  1.00  0.00     0.041 C 
ATOM      9  O   UNL     1      24.400  33.184 150.024  1.00  0.00    -0.550 OA
ATOM     10  O   UNL     1      26.043  32.965 148.443  1.00  0.00    -0.550 OA
ENDBRANCH   7   8
ENDBRANCH   6   7
ENDBRANCH   5   6
ENDBRANCH   4   5
ENDBRANCH   3   4
ENDBRANCH   2   3
ENDBRANCH   1   2
BRANCH   1  11
ATOM     11  C   UNL     1      24.334  40.919 149.602  1.00  0.00     0.000 C 
BRANCH  11  12
ATOM     12  C   UNL     1      25.782  41.423 149.551  1.00  0.00    -0.000 C 
BRANCH  12  13
ATOM     13  C   UNL     1      26.770  40.293 149.882  1.00  0.00    -0.000 C 
BRANCH  13  14
ATOM     14  C   UNL     1      27.559  39.809 148.652  1.00  0.00    -0.000 C 
BRANCH  14  15
ATOM     15  C   UNL     1      27.968  38.322 148.681  1.00  0.00    -0.000 C 
BRANCH  15  16
ATOM     16  C   UNL     1      27.440  37.523 149.886  1.00  0.00    -0.000 C 
BRANCH  16  17
ATOM     17  C   UNL     1      27.039  36.087 149.519  1.00  0.00    -0.003 C 
ATOM     18  C   UNL     1      27.482  35.100 150.596  1.00  0.00     0.004 C 
ENDBRANCH  16  17
ENDBRANCH  15  16
ENDBRANCH  14  15
ENDBRANCH  13  14
ENDBRANCH  12  13
ENDBRANCH  11  12
ENDBRANCH   1  11
TORSDOF 14
ENDMDL
MODEL 4
REMARK VINA RESULT:    -4.973      1.423      2.434
REMARK INTER + INTRA:         -10.915
REMARK INTER:                  -8.727
REMARK INTRA:                  -2.187
REMARK UNBOUND:                -1.872
REMARK SMILES CCCCCCCCCCCCCCCC(=O)[O-]
REMARK SMILES IDX 9 1 10 2 11 3 12 4 13 5 14 6 15 7 16 8 17 9 18 10 8 11 7 12
REMARK SMILES IDX 6 13 5 14 4 15 3 16 2 17 1 18
REMARK H PARENT
REMARK Flexibility Score: inf
ROOT
ATOM      1  C   UNL     1      24.644  35.031 147.520  1.00  0.00     0.000 C 
ENDROOT
BRANCH   1   2
ATOM      2  C   UNL     1      24.107  36.470 147.464  1.00  0.00     0.000 C 
BRANCH   2   3
ATOM      3  C   UNL     1      23.734  37.017 148.853  1.00  0.00     0.000 C 
BRANCH   3   4
ATOM      4  C   UNL     1      22.917  38.317 148.775  1.00  0.00     0.000 C 
BRANCH   4   5
ATOM      5  C   UNL     1      23.207  39.120 147.495  1.00  0.00     0.000 C 
BRANCH   5   6
ATOM      6  C   UNL     1      24.045  40.384 147.762  1.00  0.00     0.006 C 
BRANCH   6   7
ATOM      7  C   UNL     1      25.560  40.139 147.827  1.00  0.00     0.053 C 
BRANCH   7   8
ATOM      8  C   UNL     1      26.113  40.393 149.195  1.00  0.00     0.041 C 
ATOM      9  O   UNL     1      27.356  40.497 149.367  1.00  0.00    -0.550 OA
ATOM     10  O   UNL     1      25.257  40.483 150.286  1.00  0.00    -0.550 OA
ENDBRANCH   7   8
ENDBRANCH   6   7
ENDBRANCH   5   6
ENDBRANCH   4   5
ENDBRANCH   3   4
ENDBRANCH   2   3
ENDBRANCH   1   2
BRANCH   1  11
ATOM     11  C   UNL     1      24.124  34.250 148.736  1.00  0.00     0.000 C 
BRANCH  11  12
ATOM     12  C   UNL     1      25.280  33.833 149.655  1.00  0.00    -0.000 C 
BRANCH  12  13
ATOM     13  C   UNL     1      26.631  34.284 149.079  1.00  0.00    -0.000 C 
BRANCH  13  14
ATOM     14  C   UNL     1      27.367  35.281 149.991  1.00  0.00    -0.000 C 
BRANCH  14  15
ATOM     15  C   UNL     1      27.250  36.761 149.571  1.00  0.00    -0.000 C 
BRANCH  15  16
ATOM     16  C   UNL     1      28.252  37.216 148.496  1.00  0.00    -0.000 C 
BRANCH  16  17
ATOM     17  C   UNL     1      27.680  37.126 147.074  1.00  0.00    -0.003 C 
ATOM     18  C   UNL     1      28.720  37.546 146.037  1.00  0.00     0.004 C 
ENDBRANCH  16  17
ENDBRANCH  15  16
ENDBRANCH  14  15
ENDBRANCH  13  14
ENDBRANCH  12  13
ENDBRANCH  11  12
ENDBRANCH   1  11
TORSDOF 14
ENDMDL
MODEL 5
REMARK VINA RESULT:    -4.954      3.512      6.349
REMARK INTER + INTRA:         -10.880
REMARK INTER:                  -8.490
REMARK INTRA:                  -2.391
REMARK UNBOUND:                -1.872
REMARK SMILES CCCCCCCCCCCCCCCC(=O)[O-]
REMARK SMILES IDX 9 1 10 2 11 3 12 4 13 5 14 6 15 7 16 8 17 9 18 10 8 11 7 12
REMARK SMILES IDX 6 13 5 14 4 15 3 16 2 17 1 18
REMARK H PARENT
REMARK Flexibility Score: inf
ROOT
ATOM      1  C   UNL     1      23.460  38.500 148.902  1.00  0.00     0.000 C 
ENDROOT
BRANCH   1   2
ATOM      2  C   UNL     1      23.785  37.026 148.609  1.00  0.00     0.000 C 
BRANCH   2   3
ATOM      3  C   UNL     1      24.678  36.851 147.368  1.00  0.00     0.000 C 
BRANCH   3   4
ATOM      4  C   UNL     1      26.143  36.561 147.733  1.00  0.00     0.000 C 
BRANCH   4   5
ATOM      5  C   UNL     1      26.305  36.075 149.183  1.00  0.00     0.000 C 
BRANCH   5   6
ATOM      6  C   UNL     1      26.749  34.603 149.272  1.00  0.00     0.006 C 
BRANCH   6   7
ATOM      7  C   UNL     1      26.036  33.664 148.286  1.00  0.00     0.053 C 
BRANCH   7   8
ATOM      8  C   UNL     1      24.646  33.332 148.733  1.00  0.00     0.041 C 
ATOM      9  O   UNL     1      23.728  33.173 147.886  1.00  0.00    -0.550 OA
ATOM     10  O   UNL     1      24.356  33.229 150.089  1.00  0.00    -0.550 OA
ENDBRANCH   7   8
ENDBRANCH   6   7
ENDBRANCH   5   6
ENDBRANCH   4   5
ENDBRANCH   3   4
ENDBRANCH   2   3
ENDBRANCH   1   2
BRANCH   1  11
ATOM     11  C   UNL     1      23.412  39.361 147.630  1.00  0.00     0.000 C 
BRANCH  11  12
ATOM     12  C   UNL     1      23.811  40.810 147.934  1.00  0.00    -0.000 C 
BRANCH  12  13
ATOM     13  C   UNL     1      25.045  41.225 147.118  1.00  0.00    -0.000 C 
BRANCH  13  14
ATOM     14  C   UNL     1      26.287  40.373 147.438  1.00  0.00    -0.000 C 
BRANCH  14  15
ATOM     15  C   UNL     1      26.965  40.688 148.787  1.00  0.00    -0.000 C 
BRANCH  15  16
ATOM     16  C   UNL     1      27.467  39.460 149.568  1.00  0.00    -0.000 C 
BRANCH  16  17
ATOM     17  C   UNL     1      26.886  39.379 150.987  1.00  0.00    -0.003 C 
ATOM     18  C   UNL     1      25.649  40.263 151.125  1.00  0.00     0.004 C 
ENDBRANCH  16  17
ENDBRANCH  15  16
ENDBRANCH  14  15
ENDBRANCH  13  14
ENDBRANCH  12  13
ENDBRANCH  11  12
ENDBRANCH   1  11
TORSDOF 14
ENDMDL
MODEL 6
REMARK VINA RESULT:    -4.944      3.684      6.081
REMARK INTER + INTRA:         -10.862
REMARK INTER:                  -8.409
REMARK INTRA:                  -2.452
REMARK UNBOUND:                -1.872
REMARK SMILES CCCCCCCCCCCCCCCC(=O)[O-]
REMARK SMILES IDX 9 1 10 2 11 3 12 4 13 5 14 6 15 7 16 8 17 9 18 10 8 11 7 12
REMARK SMILES IDX 6 13 5 14 4 15 3 16 2 17 1 18
REMARK H PARENT
REMARK Flexibility Score: inf
ROOT
ATOM      1  C   UNL     1      24.227  41.143 148.052  1.00  0.00     0.000 C 
ENDROOT
BRANCH   1   2
ATOM      2  C   UNL     1      23.711  39.726 147.753  1.00  0.00     0.000 C 
BRANCH   2   3
ATOM      3  C   UNL     1      23.313  38.959 149.026  1.00  0.00     0.000 C 
BRANCH   3   4
ATOM      4  C   UNL     1      23.222  37.441 148.796  1.00  0.00     0.000 C 
BRANCH   4   5
ATOM      5  C   UNL     1      23.735  37.024 147.407  1.00  0.00     0.000 C 
BRANCH   5   6
ATOM      6  C   UNL     1      24.067  35.522 147.323  1.00  0.00     0.006 C 
BRANCH   6   7
ATOM      7  C   UNL     1      24.753  34.952 148.574  1.00  0.00     0.053 C 
BRANCH   7   8
ATOM      8  C   UNL     1      24.293  33.562 148.884  1.00  0.00     0.041 C 
ATOM      9  O   UNL     1      23.859  32.817 147.966  1.00  0.00    -0.550 OA
ATOM     10  O   UNL     1      24.311  33.098 150.194  1.00  0.00    -0.550 OA
ENDBRANCH   7   8
ENDBRANCH   6   7
ENDBRANCH   5   6
ENDBRANCH   4   5
ENDBRANCH   3   4
ENDBRANCH   2   3
ENDBRANCH   1   2
BRANCH   1  11
ATOM     11  C   UNL     1      24.396  41.407 149.556  1.00  0.00     0.000 C 
BRANCH  11  12
ATOM     12  C   UNL     1      25.878  41.407 149.950  1.00  0.00    -0.000 C 
BRANCH  12  13
ATOM     13  C   UNL     1      26.144  40.411 151.090  1.00  0.00    -0.000 C 
BRANCH  13  14
ATOM     14  C   UNL     1      27.223  39.372 150.737  1.00  0.00    -0.000 C 
BRANCH  14  15
ATOM     15  C   UNL     1      26.725  38.164 149.917  1.00  0.00    -0.000 C 
BRANCH  15  16
ATOM     16  C   UNL     1      27.728  37.613 148.889  1.00  0.00    -0.000 C 
BRANCH  16  17
ATOM     17  C   UNL     1      27.266  37.816 147.439  1.00  0.00    -0.003 C 
ATOM     18  C   UNL     1      27.304  39.292 147.051  1.00  0.00     0.004 C 
ENDBRANCH  16  17
ENDBRANCH  15  16
ENDBRANCH  14  15
ENDBRANCH  13  14
ENDBRANCH  12  13
ENDBRANCH  11  12
ENDBRANCH   1  11
TORSDOF 14
ENDMDL
MODEL 7
REMARK VINA RESULT:    -4.933      3.736      6.583
REMARK INTER + INTRA:         -10.842
REMARK INTER:                  -8.348
REMARK INTRA:                  -2.493
REMARK UNBOUND:                -1.872
REMARK SMILES CCCCCCCCCCCCCCCC(=O)[O-]
REMARK SMILES IDX 9 1 10 2 11 3 12 4 13 5 14 6 15 7 16 8 17 9 18 10 8 11 7 12
REMARK SMILES IDX 6 13 5 14 4 15 3 16 2 17 1 18
REMARK H PARENT
REMARK Flexibility Score: inf
ROOT
ATOM      1  C   UNL     1      24.049  39.460 150.235  1.00  0.00     0.000 C 
ENDROOT
BRANCH   1   2
ATOM      2  C   UNL     1      23.216  38.331 149.606  1.00  0.00     0.000 C 
BRANCH   2   3
ATOM      3  C   UNL     1      23.386  38.251 148.078  1.00  0.00     0.000 C 
BRANCH   3   4
ATOM      4  C   UNL     1      23.659  36.819 147.589  1.00  0.00     0.000 C 
BRANCH   4   5
ATOM      5  C   UNL     1      25.160  36.532 147.415  1.00  0.00     0.000 C 
BRANCH   5   6
ATOM      6  C   UNL     1      25.795  35.902 148.669  1.00  0.00     0.006 C 
BRANCH   6   7
ATOM      7  C   UNL     1      25.033  34.689 149.225  1.00  0.00     0.053 C 
BRANCH   7   8
ATOM      8  C   UNL     1      25.452  33.412 148.565  1.00  0.00     0.041 C 
ATOM      9  O   UNL     1      26.666  33.196 148.313  1.00  0.00    -0.550 OA
ATOM     10  O   UNL     1      24.496  32.472 148.197  1.00  0.00    -0.550 OA
ENDBRANCH   7   8
ENDBRANCH   6   7
ENDBRANCH   5   6
ENDBRANCH   4   5
ENDBRANCH   3   4
ENDBRANCH   2   3
ENDBRANCH   1   2
BRANCH   1  11
ATOM     11  C   UNL     1      25.525  39.078 150.417  1.00  0.00     0.000 C 
BRANCH  11  12
ATOM     12  C   UNL     1      26.395  40.326 150.613  1.00  0.00    -0.000 C 
BRANCH  12  13
ATOM     13  C   UNL     1      27.359  40.516 149.432  1.00  0.00    -0.000 C 
BRANCH  13  14
ATOM     14  C   UNL     1      27.117  39.508 148.294  1.00  0.00    -0.000 C 
BRANCH  14  15
ATOM     15  C   UNL     1      26.487  40.102 147.017  1.00  0.00    -0.000 C 
BRANCH  15  16
ATOM     16  C   UNL     1      26.012  41.561 147.141  1.00  0.00    -0.000 C 
BRANCH  16  17
ATOM     17  C   UNL     1      24.497  41.677 147.361  1.00  0.00    -0.003 C 
ATOM     18  C   UNL     1      24.165  42.842 148.291  1.00  0.00     0.004 C 
ENDBRANCH  16  17
ENDBRANCH  15  16
ENDBRANCH  14  15
ENDBRANCH  13  14
ENDBRANCH  12  13
ENDBRANCH  11  12
ENDBRANCH   1  11
TORSDOF 14
ENDMDL
MODEL 8
REMARK VINA RESULT:    -4.917      1.789      2.722
REMARK INTER + INTRA:         -10.813
REMARK INTER:                  -8.610
REMARK INTRA:                  -2.202
REMARK UNBOUND:                -1.872
REMARK SMILES CCCCCCCCCCCCCCCC(=O)[O-]
REMARK SMILES IDX 9 1 10 2 11 3 12 4 13 5 14 6 15 7 16 8 17 9 18 10 8 11 7 12
REMARK SMILES IDX 6 13 5 14 4 15 3 16 2 17 1 18
REMARK H PARENT
REMARK Flexibility Score: inf
ROOT
ATOM      1  C   UNL     1      23.190  38.101 149.006  1.00  0.00     0.000 C 
ENDROOT
BRANCH   1   2
ATOM      2  C   UNL     1      23.462  38.918 147.733  1.00  0.00     0.000 C 
BRANCH   2   3
ATOM      3  C   UNL     1      24.611  39.927 147.911  1.00  0.00     0.000 C 
BRANCH   3   4
ATOM      4  C   UNL     1      25.970  39.357 147.474  1.00  0.00     0.000 C 
BRANCH   4   5
ATOM      5  C   UNL     1      27.044  39.491 148.568  1.00  0.00     0.000 C 
BRANCH   5   6
ATOM      6  C   UNL     1      26.560  38.989 149.942  1.00  0.00     0.006 C 
BRANCH   6   7
ATOM      7  C   UNL     1      26.985  39.873 151.125  1.00  0.00     0.053 C 
BRANCH   7   8
ATOM      8  C   UNL     1      26.478  41.275 150.990  1.00  0.00     0.041 C 
ATOM      9  O   UNL     1      27.286  42.234 150.882  1.00  0.00    -0.550 OA
ATOM     10  O   UNL     1      25.112  41.527 151.017  1.00  0.00    -0.550 OA
ENDBRANCH   7   8
ENDBRANCH   6   7
ENDBRANCH   5   6
ENDBRANCH   4   5
ENDBRANCH   3   4
ENDBRANCH   2   3
ENDBRANCH   1   2
BRANCH   1  11
ATOM     11  C   UNL     1      23.626  36.634 148.875  1.00  0.00     0.000 C 
BRANCH  11  12
ATOM     12  C   UNL     1      23.644  36.196 147.405  1.00  0.00    -0.000 C 
BRANCH  12  13
ATOM     13  C   UNL     1      23.749  34.668 147.287  1.00  0.00    -0.000 C 
BRANCH  13  14
ATOM     14  C   UNL     1      24.306  34.006 148.560  1.00  0.00    -0.000 C 
BRANCH  14  15
ATOM     15  C   UNL     1      25.817  33.698 148.529  1.00  0.00    -0.000 C 
BRANCH  15  16
ATOM     16  C   UNL     1      26.668  34.501 149.528  1.00  0.00    -0.000 C 
BRANCH  16  17
ATOM     17  C   UNL     1      27.332  35.731 148.890  1.00  0.00    -0.003 C 
ATOM     18  C   UNL     1      27.362  35.611 147.368  1.00  0.00     0.004 C 
ENDBRANCH  16  17
ENDBRANCH  15  16
ENDBRANCH  14  15
ENDBRANCH  13  14
ENDBRANCH  12  13
ENDBRANCH  11  12
ENDBRANCH   1  11
TORSDOF 14
ENDMDL
MODEL 9
REMARK VINA RESULT:    -4.892      3.359      6.359
REMARK INTER + INTRA:         -10.768
REMARK INTER:                  -8.554
REMARK INTRA:                  -2.214
REMARK UNBOUND:                -1.872
REMARK SMILES CCCCCCCCCCCCCCCC(=O)[O-]
REMARK SMILES IDX 9 1 10 2 11 3 12 4 13 5 14 6 15 7 16 8 17 9 18 10 8 11 7 12
REMARK SMILES IDX 6 13 5 14 4 15 3 16 2 17 1 18
REMARK H PARENT
REMARK Flexibility Score: inf
ROOT
ATOM      1  C   UNL     1      25.638  41.639 149.890  1.00  0.00     0.000 C 
ENDROOT
BRANCH   1   2
ATOM      2  C   UNL     1      25.437  40.667 151.064  1.00  0.00     0.000 C 
BRANCH   2   3
ATOM      3  C   UNL     1      26.523  39.579 151.125  1.00  0.00     0.000 C 
BRANCH   3   4
ATOM      4  C   UNL     1      27.667  39.832 150.128  1.00  0.00     0.000 C 
BRANCH   4   5
ATOM      5  C   UNL     1      27.995  38.590 149.280  1.00  0.00     0.000 C 
BRANCH   5   6
ATOM      6  C   UNL     1      27.166  37.357 149.686  1.00  0.00     0.006 C 
BRANCH   6   7
ATOM      7  C   UNL     1      27.382  36.126 148.792  1.00  0.00     0.053 C 
BRANCH   7   8
ATOM      8  C   UNL     1      27.728  34.906 149.589  1.00  0.00     0.041 C 
ATOM      9  O   UNL     1      27.648  34.925 150.846  1.00  0.00    -0.550 OA
ATOM     10  O   UNL     1      28.172  33.757 148.946  1.00  0.00    -0.550 OA
ENDBRANCH   7   8
ENDBRANCH   6   7
ENDBRANCH   5   6
ENDBRANCH   4   5
ENDBRANCH   3   4
ENDBRANCH   2   3
ENDBRANCH   1   2
BRANCH   1  11
ATOM     11  C   UNL     1      24.332  41.938 149.137  1.00  0.00     0.000 C 
BRANCH  11  12
ATOM     12  C   UNL     1      24.426  41.484 147.675  1.00  0.00    -0.000 C 
BRANCH  12  13
ATOM     13  C   UNL     1      24.881  40.020 147.580  1.00  0.00    -0.000 C 
BRANCH  13  14
ATOM     14  C   UNL     1      23.707  39.025 147.629  1.00  0.00    -0.000 C 
BRANCH  14  15
ATOM     15  C   UNL     1      23.543  38.274 148.966  1.00  0.00    -0.000 C 
BRANCH  15  16
ATOM     16  C   UNL     1      23.652  36.742 148.873  1.00  0.00    -0.000 C 
BRANCH  16  17
ATOM     17  C   UNL     1      23.889  36.248 147.438  1.00  0.00    -0.003 C 
ATOM     18  C   UNL     1      23.736  34.732 147.347  1.00  0.00     0.004 C 
ENDBRANCH  16  17
ENDBRANCH  15  16
ENDBRANCH  14  15
ENDBRANCH  13  14
ENDBRANCH  12  13
ENDBRANCH  11  12
ENDBRANCH   1  11
TORSDOF 14
ENDMDL
