MODEL 1
REMARK VINA RESULT:    -5.373      0.000      0.000
REMARK INTER + INTRA:         -11.216
REMARK INTER:                 -10.398
REMARK INTRA:                  -0.818
REMARK UNBOUND:                -0.818
REMARK SMILES CCCCCCCCCCCCCCCCCC(=O)[O-]
REMARK SMILES IDX 10 1 11 2 12 3 13 4 14 5 15 6 16 7 17 8 18 9 19 10 20 11
REMARK SMILES IDX 9 12 8 13 7 14 6 15 5 16 4 17 3 18 2 19 1 20
REMARK H PARENT
REMARK Flexibility Score: inf
ROOT
ATOM      1  C   UNL     1       2.503  21.137 -13.228  1.00  0.00     0.000 C 
ENDROOT
BRANCH   1   2
ATOM      2  C   UNL     1       2.125  19.800 -12.562  1.00  0.00     0.000 C 
BRANCH   2   3
ATOM      3  C   UNL     1       1.554  19.954 -11.136  1.00  0.00     0.000 C 
BRANCH   3   4
ATOM      4  C   UNL     1       1.719  21.381 -10.592  1.00  0.00     0.000 C 
BRANCH   4   5
ATOM      5  C   UNL     1       2.806  21.437  -9.513  1.00  0.00     0.000 C 
BRANCH   5   6
ATOM      6  C   UNL     1       2.197  21.737  -8.135  1.00  0.00     0.000 C 
BRANCH   6   7
ATOM      7  C   UNL     1       2.448  20.613  -7.113  1.00  0.00     0.006 C 
BRANCH   7   8
ATOM      8  C   UNL     1       1.791  20.846  -5.743  1.00  0.00     0.053 C 
BRANCH   8   9
ATOM      9  C   UNL     1       0.326  20.535  -5.763  1.00  0.00     0.041 C 
ATOM     10  O   UNL     1      -0.510  21.440  -6.018  1.00  0.00    -0.550 OA
ATOM     11  O   UNL     1      -0.113  19.238  -5.528  1.00  0.00    -0.550 OA
ENDBRANCH   8   9
ENDBRANCH   7   8
ENDBRANCH   6   7
ENDBRANCH   5   6
ENDBRANCH   4   5
ENDBRANCH   3   4
ENDBRANCH   2   3
ENDBRANCH   1   2
BRANCH   1  12
ATOM     12  C   UNL     1       2.542  21.107 -14.765  1.00  0.00     0.000 C 
BRANCH  12  13
ATOM     13  C   UNL     1       3.511  22.141 -15.357  1.00  0.00    -0.000 C 
BRANCH  13  14
ATOM     14  C   UNL     1       3.197  22.400 -16.838  1.00  0.00    -0.000 C 
BRANCH  14  15
ATOM     15  C   UNL     1       1.753  22.032 -17.212  1.00  0.00    -0.000 C 
BRANCH  15  16
ATOM     16  C   UNL     1       1.392  22.437 -18.650  1.00  0.00    -0.000 C 
BRANCH  16  17
ATOM     17  C   UNL     1       2.141  21.565 -19.668  1.00  0.00    -0.000 C 
BRANCH  17  18
ATOM     18  C   UNL     1       1.472  20.200 -19.888  1.00  0.00    -0.000 C 
BRANCH  18  19
ATOM     19  C   UNL     1       2.403  19.187 -20.571  1.00  0.00    -0.003 C 
ATOM     20  C   UNL     1       3.697  19.853 -21.028  1.00  0.00     0.004 C 
ENDBRANCH  18  19
ENDBRANCH  17  18
ENDBRANCH  16  17
ENDBRANCH  15  16
ENDBRANCH  14  15
ENDBRANCH  13  14
ENDBRANCH  12  13
ENDBRANCH   1  12
TORSDOF 16
ENDMDL
MODEL 2
REMARK VINA RESULT:    -5.354      4.934     10.814
REMARK INTER + INTRA:         -11.181
REMARK INTER:                 -10.089
REMARK INTRA:                  -1.093
REMARK UNBOUND:                -0.818
REMARK SMILES CCCCCCCCCCCCCCCCCC(=O)[O-]
REMARK SMILES IDX 10 1 11 2 12 3 13 4 14 5 15 6 16 7 17 8 18 9 19 10 20 11
REMARK SMILES IDX 9 12 8 13 7 14 6 15 5 16 4 17 3 18 2 19 1 20
REMARK H PARENT
REMARK Flexibility Score: inf
ROOT
ATOM      1  C   UNL     1       2.518  21.831 -12.639  1.00  0.00     0.000 C 
ENDROOT
BRANCH   1   2
ATOM      2  C   UNL     1       2.889  22.531 -13.962  1.00  0.00     0.000 C 
BRANCH   2   3
ATOM      3  C   UNL     1       2.928  21.581 -15.178  1.00  0.00     0.000 C 
BRANCH   3   4
ATOM      4  C   UNL     1       3.631  22.212 -16.390  1.00  0.00     0.000 C 
BRANCH   4   5
ATOM      5  C   UNL     1       2.614  22.814 -17.366  1.00  0.00     0.000 C 
BRANCH   5   6
ATOM      6  C   UNL     1       1.434  21.856 -17.589  1.00  0.00     0.000 C 
BRANCH   6   7
ATOM      7  C   UNL     1       1.236  21.488 -19.071  1.00  0.00     0.006 C 
BRANCH   7   8
ATOM      8  C   UNL     1       2.509  21.597 -19.925  1.00  0.00     0.053 C 
BRANCH   8   9
ATOM      9  C   UNL     1       2.866  20.293 -20.570  1.00  0.00     0.041 C 
ATOM     10  O   UNL     1       3.872  20.213 -21.321  1.00  0.00    -0.550 OA
ATOM     11  O   UNL     1       2.104  19.159 -20.316  1.00  0.00    -0.550 OA
ENDBRANCH   8   9
ENDBRANCH   7   8
ENDBRANCH   6   7
ENDBRANCH   5   6
ENDBRANCH   4   5
ENDBRANCH   3   4
ENDBRANCH   2   3
ENDBRANCH   1   2
BRANCH   1  12
ATOM     12  C   UNL     1       2.254  20.321 -12.758  1.00  0.00     0.000 C 
BRANCH  12  13
ATOM     13  C   UNL     1       1.232  19.813 -11.730  1.00  0.00    -0.000 C 
BRANCH  13  14
ATOM     14  C   UNL     1       1.937  19.261 -10.483  1.00  0.00    -0.000 C 
BRANCH  14  15
ATOM     15  C   UNL     1       1.450  19.923  -9.184  1.00  0.00    -0.000 C 
BRANCH  15  16
ATOM     16  C   UNL     1       1.937  21.373  -9.039  1.00  0.00    -0.000 C 
BRANCH  16  17
ATOM     17  C   UNL     1       2.017  21.778  -7.560  1.00  0.00    -0.000 C 
BRANCH  17  18
ATOM     18  C   UNL     1       2.349  20.596  -6.637  1.00  0.00    -0.000 C 
BRANCH  18  19
ATOM     19  C   UNL     1       1.699  20.725  -5.251  1.00  0.00    -0.003 C 
ATOM     20  C   UNL     1       0.243  20.270  -5.284  1.00  0.00     0.004 C 
ENDBRANCH  18  19
ENDBRANCH  17  18
ENDBRANCH  16  17
ENDBRANCH  15  16
ENDBRANCH  14  15
ENDBRANCH  13  14
ENDBRANCH  12  13
ENDBRANCH   1  12
TORSDOF 16
ENDMDL
MODEL 3
REMARK VINA RESULT:    -5.251      4.520     10.137
REMARK INTER + INTRA:         -10.981
REMARK INTER:                  -9.185
REMARK INTRA:                  -1.797
REMARK UNBOUND:                -0.818
REMARK SMILES CCCCCCCCCCCCCCCCCC(=O)[O-]
REMARK SMILES IDX 10 1 11 2 12 3 13 4 14 5 15 6 16 7 17 8 18 9 19 10 20 11
REMARK SMILES IDX 9 12 8 13 7 14 6 15 5 16 4 17 3 18 2 19 1 20
REMARK H PARENT
REMARK Flexibility Score: inf
ROOT
ATOM      1  C   UNL     1       1.352  18.634 -10.149  1.00  0.00     0.000 C 
ENDROOT
BRANCH   1   2
ATOM      2  C   UNL     1       0.895  19.713 -11.150  1.00  0.00     0.000 C 
BRANCH   2   3
ATOM      3  C   UNL     1       2.035  20.271 -12.028  1.00  0.00     0.000 C 
BRANCH   3   4
ATOM      4  C   UNL     1       2.243  21.781 -11.828  1.00  0.00     0.000 C 
BRANCH   4   5
ATOM      5  C   UNL     1       2.657  22.458 -13.138  1.00  0.00     0.000 C 
BRANCH   5   6
ATOM      6  C   UNL     1       2.738  21.437 -14.283  1.00  0.00     0.000 C 
BRANCH   6   7
ATOM      7  C   UNL     1       2.871  22.100 -15.666  1.00  0.00     0.006 C 
BRANCH   7   8
ATOM      8  C   UNL     1       1.901  21.552 -16.725  1.00  0.00     0.053 C 
BRANCH   8   9
ATOM      9  C   UNL     1       1.756  22.483 -17.889  1.00  0.00     0.041 C 
ATOM     10  O   UNL     1       0.795  22.349 -18.690  1.00  0.00    -0.550 OA
ATOM     11  O   UNL     1       2.665  23.518 -18.070  1.00  0.00    -0.550 OA
ENDBRANCH   8   9
ENDBRANCH   7   8
ENDBRANCH   6   7
ENDBRANCH   5   6
ENDBRANCH   4   5
ENDBRANCH   3   4
ENDBRANCH   2   3
ENDBRANCH   1   2
BRANCH   1  12
ATOM     12  C   UNL     1       0.221  17.986  -9.333  1.00  0.00     0.000 C 
BRANCH  12  13
ATOM     13  C   UNL     1       0.719  17.340  -8.032  1.00  0.00    -0.000 C 
BRANCH  13  14
ATOM     14  C   UNL     1      -0.052  17.885  -6.821  1.00  0.00    -0.000 C 
BRANCH  14  15
ATOM     15  C   UNL     1       0.860  18.592  -5.805  1.00  0.00    -0.000 C 
BRANCH  15  16
ATOM     16  C   UNL     1       0.251  19.897  -5.270  1.00  0.00    -0.000 C 
BRANCH  16  17
ATOM     17  C   UNL     1       1.001  21.118  -5.822  1.00  0.00    -0.000 C 
BRANCH  17  18
ATOM     18  C   UNL     1       0.675  21.398  -7.298  1.00  0.00    -0.000 C 
BRANCH  18  19
ATOM     19  C   UNL     1       1.919  21.772  -8.118  1.00  0.00    -0.003 C 
ATOM     20  C   UNL     1       3.100  20.874  -7.764  1.00  0.00     0.004 C 
ENDBRANCH  18  19
ENDBRANCH  17  18
ENDBRANCH  16  17
ENDBRANCH  15  16
ENDBRANCH  14  15
ENDBRANCH  13  14
ENDBRANCH  12  13
ENDBRANCH   1  12
TORSDOF 16
ENDMDL
MODEL 4
REMARK VINA RESULT:    -5.251      4.950     10.920
REMARK INTER + INTRA:         -10.981
REMARK INTER:                 -10.034
REMARK INTRA:                  -0.947
REMARK UNBOUND:                -0.818
REMARK SMILES CCCCCCCCCCCCCCCCCC(=O)[O-]
REMARK SMILES IDX 10 1 11 2 12 3 13 4 14 5 15 6 16 7 17 8 18 9 19 10 20 11
REMARK SMILES IDX 9 12 8 13 7 14 6 15 5 16 4 17 3 18 2 19 1 20
REMARK H PARENT
REMARK Flexibility Score: inf
ROOT
ATOM      1  C   UNL     1       2.500  19.476 -11.833  1.00  0.00     0.000 C 
ENDROOT
BRANCH   1   2
ATOM      2  C   UNL     1       2.281  20.842 -12.513  1.00  0.00     0.000 C 
BRANCH   2   3
ATOM      3  C   UNL     1       2.536  20.827 -14.036  1.00  0.00     0.000 C 
BRANCH   3   4
ATOM      4  C   UNL     1       2.989  22.196 -14.566  1.00  0.00     0.000 C 
BRANCH   4   5
ATOM      5  C   UNL     1       3.370  22.114 -16.048  1.00  0.00     0.000 C 
BRANCH   5   6
ATOM      6  C   UNL     1       2.191  22.526 -16.943  1.00  0.00     0.000 C 
BRANCH   6   7
ATOM      7  C   UNL     1       2.499  22.375 -18.444  1.00  0.00     0.006 C 
BRANCH   7   8
ATOM      8  C   UNL     1       1.682  21.280 -19.149  1.00  0.00     0.053 C 
BRANCH   8   9
ATOM      9  C   UNL     1       2.454  20.627 -20.253  1.00  0.00     0.041 C 
ATOM     10  O   UNL     1       2.309  19.399 -20.486  1.00  0.00    -0.550 OA
ATOM     11  O   UNL     1       3.310  21.382 -21.045  1.00  0.00    -0.550 OA
ENDBRANCH   8   9
ENDBRANCH   7   8
ENDBRANCH   6   7
ENDBRANCH   5   6
ENDBRANCH   4   5
ENDBRANCH   3   4
ENDBRANCH   2   3
ENDBRANCH   1   2
BRANCH   1  12
ATOM     12  C   UNL     1       3.004  19.548 -10.382  1.00  0.00     0.000 C 
BRANCH  12  13
ATOM     13  C   UNL     1       1.868  19.738  -9.366  1.00  0.00    -0.000 C 
BRANCH  13  14
ATOM     14  C   UNL     1       1.653  21.227  -9.057  1.00  0.00    -0.000 C 
BRANCH  14  15
ATOM     15  C   UNL     1       2.461  21.703  -7.839  1.00  0.00    -0.000 C 
BRANCH  15  16
ATOM     16  C   UNL     1       2.186  20.864  -6.581  1.00  0.00    -0.000 C 
BRANCH  16  17
ATOM     17  C   UNL     1       0.801  21.186  -6.001  1.00  0.00    -0.000 C 
BRANCH  17  18
ATOM     18  C   UNL     1       0.175  19.992  -5.264  1.00  0.00    -0.000 C 
BRANCH  18  19
ATOM     19  C   UNL     1       0.780  18.647  -5.694  1.00  0.00    -0.003 C 
ATOM     20  C   UNL     1      -0.198  17.855  -6.556  1.00  0.00     0.004 C 
ENDBRANCH  18  19
ENDBRANCH  17  18
ENDBRANCH  16  17
ENDBRANCH  15  16
ENDBRANCH  14  15
ENDBRANCH  13  14
ENDBRANCH  12  13
ENDBRANCH   1  12
TORSDOF 16
ENDMDL
MODEL 5
REMARK VINA RESULT:    -5.165      9.358     11.609
REMARK INTER + INTRA:         -10.814
REMARK INTER:                  -8.553
REMARK INTRA:                  -2.261
REMARK UNBOUND:                -0.818
REMARK SMILES CCCCCCCCCCCCCCCCCC(=O)[O-]
REMARK SMILES IDX 10 1 11 2 12 3 13 4 14 5 15 6 16 7 17 8 18 9 19 10 20 11
REMARK SMILES IDX 9 12 8 13 7 14 6 15 5 16 4 17 3 18 2 19 1 20
REMARK H PARENT
REMARK Flexibility Score: inf
ROOT
ATOM      1  C   UNL     1       7.846  28.856 -12.505  1.00  0.00     0.000 C 
ENDROOT
BRANCH   1   2
ATOM      2  C   UNL     1       9.019  29.824 -12.757  1.00  0.00     0.000 C 
BRANCH   2   3
ATOM      3  C   UNL     1      10.406  29.207 -12.479  1.00  0.00     0.000 C 
BRANCH   3   4
ATOM      4  C   UNL     1      10.934  28.394 -13.673  1.00  0.00     0.000 C 
BRANCH   4   5
ATOM      5  C   UNL     1      10.783  26.890 -13.425  1.00  0.00     0.000 C 
BRANCH   5   6
ATOM      6  C   UNL     1      10.705  26.586 -11.921  1.00  0.00     0.000 C 
BRANCH   6   7
ATOM      7  C   UNL     1       9.779  25.399 -11.598  1.00  0.00     0.006 C 
BRANCH   7   8
ATOM      8  C   UNL     1       8.739  25.095 -12.688  1.00  0.00     0.053 C 
BRANCH   8   9
ATOM      9  C   UNL     1       7.440  24.625 -12.110  1.00  0.00     0.041 C 
ATOM     10  O   UNL     1       7.429  23.924 -11.065  1.00  0.00    -0.550 OA
ATOM     11  O   UNL     1       6.240  24.988 -12.709  1.00  0.00    -0.550 OA
ENDBRANCH   8   9
ENDBRANCH   7   8
ENDBRANCH   6   7
ENDBRANCH   5   6
ENDBRANCH   4   5
ENDBRANCH   3   4
ENDBRANCH   2   3
ENDBRANCH   1   2
BRANCH   1  12
ATOM     12  C   UNL     1       7.150  28.338 -13.775  1.00  0.00     0.000 C 
BRANCH  12  13
ATOM     13  C   UNL     1       7.518  29.147 -15.028  1.00  0.00    -0.000 C 
BRANCH  13  14
ATOM     14  C   UNL     1       6.287  29.872 -15.592  1.00  0.00    -0.000 C 
BRANCH  14  15
ATOM     15  C   UNL     1       6.278  31.372 -15.261  1.00  0.00    -0.000 C 
BRANCH  15  16
ATOM     16  C   UNL     1       4.891  31.875 -14.830  1.00  0.00    -0.000 C 
BRANCH  16  17
ATOM     17  C   UNL     1       4.970  32.615 -13.486  1.00  0.00    -0.000 C 
BRANCH  17  18
ATOM     18  C   UNL     1       6.186  32.195 -12.647  1.00  0.00    -0.000 C 
BRANCH  18  19
ATOM     19  C   UNL     1       6.306  32.990 -11.339  1.00  0.00    -0.003 C 
ATOM     20  C   UNL     1       5.132  32.697 -10.409  1.00  0.00     0.004 C 
ENDBRANCH  18  19
ENDBRANCH  17  18
ENDBRANCH  16  17
ENDBRANCH  15  16
ENDBRANCH  14  15
ENDBRANCH  13  14
ENDBRANCH  12  13
ENDBRANCH   1  12
TORSDOF 16
ENDMDL
MODEL 6
REMARK VINA RESULT:    -5.090      4.786     10.351
REMARK INTER + INTRA:         -10.669
REMARK INTER:                  -9.423
REMARK INTRA:                  -1.247
REMARK UNBOUND:                -0.818
REMARK SMILES CCCCCCCCCCCCCCCCCC(=O)[O-]
REMARK SMILES IDX 10 1 11 2 12 3 13 4 14 5 15 6 16 7 17 8 18 9 19 10 20 11
REMARK SMILES IDX 9 12 8 13 7 14 6 15 5 16 4 17 3 18 2 19 1 20
REMARK H PARENT
REMARK Flexibility Score: inf
ROOT
ATOM      1  C   UNL     1       1.932  20.274 -12.744  1.00  0.00     0.000 C 
ENDROOT
BRANCH   1   2
ATOM      2  C   UNL     1       2.387  21.665 -12.263  1.00  0.00     0.000 C 
BRANCH   2   3
ATOM      3  C   UNL     1       2.867  22.591 -13.400  1.00  0.00     0.000 C 
BRANCH   3   4
ATOM      4  C   UNL     1       2.508  22.044 -14.791  1.00  0.00     0.000 C 
BRANCH   4   5
ATOM      5  C   UNL     1       3.695  22.162 -15.752  1.00  0.00     0.000 C 
BRANCH   5   6
ATOM      6  C   UNL     1       3.226  22.563 -17.159  1.00  0.00     0.000 C 
BRANCH   6   7
ATOM      7  C   UNL     1       1.868  21.943 -17.534  1.00  0.00     0.006 C 
BRANCH   7   8
ATOM      8  C   UNL     1       1.494  22.092 -19.018  1.00  0.00     0.053 C 
BRANCH   8   9
ATOM      9  C   UNL     1       2.231  21.118 -19.884  1.00  0.00     0.041 C 
ATOM     10  O   UNL     1       3.129  21.522 -20.668  1.00  0.00    -0.550 OA
ATOM     11  O   UNL     1       1.948  19.760 -19.802  1.00  0.00    -0.550 OA
ENDBRANCH   8   9
ENDBRANCH   7   8
ENDBRANCH   6   7
ENDBRANCH   5   6
ENDBRANCH   4   5
ENDBRANCH   3   4
ENDBRANCH   2   3
ENDBRANCH   1   2
BRANCH   1  12
ATOM     12  C   UNL     1       1.818  19.211 -11.639  1.00  0.00     0.000 C 
BRANCH  12  13
ATOM     13  C   UNL     1       3.100  18.379 -11.479  1.00  0.00    -0.000 C 
BRANCH  13  14
ATOM     14  C   UNL     1       3.729  18.603 -10.096  1.00  0.00    -0.000 C 
BRANCH  14  15
ATOM     15  C   UNL     1       2.729  18.390  -8.948  1.00  0.00    -0.000 C 
BRANCH  15  16
ATOM     16  C   UNL     1       2.913  19.402  -7.806  1.00  0.00    -0.000 C 
BRANCH  16  17
ATOM     17  C   UNL     1       2.811  20.842  -8.330  1.00  0.00    -0.000 C 
BRANCH  17  18
ATOM     18  C   UNL     1       1.892  21.723  -7.470  1.00  0.00    -0.000 C 
BRANCH  18  19
ATOM     19  C   UNL     1       1.460  21.032  -6.167  1.00  0.00    -0.003 C 
ATOM     20  C   UNL     1      -0.058  21.045  -6.017  1.00  0.00     0.004 C 
ENDBRANCH  18  19
ENDBRANCH  17  18
ENDBRANCH  16  17
ENDBRANCH  15  16
ENDBRANCH  14  15
ENDBRANCH  13  14
ENDBRANCH  12  13
ENDBRANCH   1  12
TORSDOF 16
ENDMDL
MODEL 7
REMARK VINA RESULT:    -5.063      9.861     12.634
REMARK INTER + INTRA:         -10.618
REMARK INTER:                  -8.925
REMARK INTRA:                  -1.692
REMARK UNBOUND:                -0.818
REMARK SMILES CCCCCCCCCCCCCCCCCC(=O)[O-]
REMARK SMILES IDX 10 1 11 2 12 3 13 4 14 5 15 6 16 7 17 8 18 9 19 10 20 11
REMARK SMILES IDX 9 12 8 13 7 14 6 15 5 16 4 17 3 18 2 19 1 20
REMARK H PARENT
REMARK Flexibility Score: inf
ROOT
ATOM      1  C   UNL     1       8.398  28.308 -13.734  1.00  0.00     0.000 C 
ENDROOT
BRANCH   1   2
ATOM      2  C   UNL     1       8.519  29.205 -12.486  1.00  0.00     0.000 C 
BRANCH   2   3
ATOM      3  C   UNL     1       9.438  30.429 -12.686  1.00  0.00     0.000 C 
BRANCH   3   4
ATOM      4  C   UNL     1       8.668  31.757 -12.603  1.00  0.00     0.000 C 
BRANCH   4   5
ATOM      5  C   UNL     1       7.156  31.515 -12.555  1.00  0.00     0.000 C 
BRANCH   5   6
ATOM      6  C   UNL     1       6.472  32.058 -13.818  1.00  0.00     0.000 C 
BRANCH   6   7
ATOM      7  C   UNL     1       5.859  30.947 -14.690  1.00  0.00     0.006 C 
BRANCH   7   8
ATOM      8  C   UNL     1       6.148  31.092 -16.193  1.00  0.00     0.053 C 
BRANCH   8   9
ATOM      9  C   UNL     1       6.050  32.515 -16.649  1.00  0.00     0.041 C 
ATOM     10  O   UNL     1       7.081  33.133 -17.023  1.00  0.00    -0.550 OA
ATOM     11  O   UNL     1       4.815  33.149 -16.692  1.00  0.00    -0.550 OA
ENDBRANCH   8   9
ENDBRANCH   7   8
ENDBRANCH   6   7
ENDBRANCH   5   6
ENDBRANCH   4   5
ENDBRANCH   3   4
ENDBRANCH   2   3
ENDBRANCH   1   2
BRANCH   1  12
ATOM     12  C   UNL     1       9.365  28.656 -14.877  1.00  0.00     0.000 C 
BRANCH  12  13
ATOM     13  C   UNL     1      10.562  27.697 -14.957  1.00  0.00    -0.000 C 
BRANCH  13  14
ATOM     14  C   UNL     1      10.412  26.549 -13.948  1.00  0.00    -0.000 C 
BRANCH  14  15
ATOM     15  C   UNL     1      10.253  25.179 -14.626  1.00  0.00    -0.000 C 
BRANCH  15  16
ATOM     16  C   UNL     1       9.267  24.263 -13.885  1.00  0.00    -0.000 C 
BRANCH  16  17
ATOM     17  C   UNL     1       8.674  24.973 -12.659  1.00  0.00    -0.000 C 
BRANCH  17  18
ATOM     18  C   UNL     1       7.935  24.012 -11.715  1.00  0.00    -0.000 C 
BRANCH  18  19
ATOM     19  C   UNL     1       8.565  23.955 -10.316  1.00  0.00    -0.003 C 
ATOM     20  C   UNL     1       7.759  23.052  -9.387  1.00  0.00     0.004 C 
ENDBRANCH  18  19
ENDBRANCH  17  18
ENDBRANCH  16  17
ENDBRANCH  15  16
ENDBRANCH  14  15
ENDBRANCH  13  14
ENDBRANCH  12  13
ENDBRANCH   1  12
TORSDOF 16
ENDMDL
MODEL 8
REMARK VINA RESULT:    -5.008     10.500     13.042
REMARK INTER + INTRA:         -10.511
REMARK INTER:                  -8.784
REMARK INTRA:                  -1.727
REMARK UNBOUND:                -0.818
REMARK SMILES CCCCCCCCCCCCCCCCCC(=O)[O-]
REMARK SMILES IDX 10 1 11 2 12 3 13 4 14 5 15 6 16 7 17 8 18 9 19 10 20 11
REMARK SMILES IDX 9 12 8 13 7 14 6 15 5 16 4 17 3 18 2 19 1 20
REMARK H PARENT
REMARK Flexibility Score: inf
ROOT
ATOM      1  C   UNL     1       8.869  31.859 -13.446  1.00  0.00     0.000 C 
ENDROOT
BRANCH   1   2
ATOM      2  C   UNL     1       9.278  32.257 -12.014  1.00  0.00     0.000 C 
BRANCH   2   3
ATOM      3  C   UNL     1       8.225  33.117 -11.283  1.00  0.00     0.000 C 
BRANCH   3   4
ATOM      4  C   UNL     1       7.050  33.503 -12.194  1.00  0.00     0.000 C 
BRANCH   4   5
ATOM      5  C   UNL     1       5.755  32.816 -11.744  1.00  0.00     0.000 C 
BRANCH   5   6
ATOM      6  C   UNL     1       4.730  32.773 -12.887  1.00  0.00     0.000 C 
BRANCH   6   7
ATOM      7  C   UNL     1       5.159  31.846 -14.039  1.00  0.00     0.006 C 
BRANCH   7   8
ATOM      8  C   UNL     1       5.467  32.577 -15.356  1.00  0.00     0.053 C 
BRANCH   8   9
ATOM      9  C   UNL     1       5.926  31.636 -16.426  1.00  0.00     0.041 C 
ATOM     10  O   UNL     1       6.233  30.450 -16.138  1.00  0.00    -0.550 OA
ATOM     11  O   UNL     1       5.986  32.061 -17.748  1.00  0.00    -0.550 OA
ENDBRANCH   8   9
ENDBRANCH   7   8
ENDBRANCH   6   7
ENDBRANCH   5   6
ENDBRANCH   4   5
ENDBRANCH   3   4
ENDBRANCH   2   3
ENDBRANCH   1   2
BRANCH   1  12
ATOM     12  C   UNL     1       8.752  30.345 -13.689  1.00  0.00     0.000 C 
BRANCH  12  13
ATOM     13  C   UNL     1       7.776  29.660 -12.720  1.00  0.00    -0.000 C 
BRANCH  13  14
ATOM     14  C   UNL     1       7.963  28.136 -12.742  1.00  0.00    -0.000 C 
BRANCH  14  15
ATOM     15  C   UNL     1       9.442  27.719 -12.718  1.00  0.00    -0.000 C 
BRANCH  15  16
ATOM     16  C   UNL     1       9.640  26.220 -12.996  1.00  0.00    -0.000 C 
BRANCH  16  17
ATOM     17  C   UNL     1       9.650  25.418 -11.686  1.00  0.00    -0.000 C 
BRANCH  17  18
ATOM     18  C   UNL     1       8.930  24.067 -11.812  1.00  0.00    -0.000 C 
BRANCH  18  19
ATOM     19  C   UNL     1       7.654  23.995 -10.958  1.00  0.00    -0.003 C 
ATOM     20  C   UNL     1       7.896  23.204  -9.676  1.00  0.00     0.004 C 
ENDBRANCH  18  19
ENDBRANCH  17  18
ENDBRANCH  16  17
ENDBRANCH  15  16
ENDBRANCH  14  15
ENDBRANCH  13  14
ENDBRANCH  12  13
ENDBRANCH   1  12
TORSDOF 16
ENDMDL
MODEL 9
REMARK VINA RESULT:    -4.942     10.361     12.845
REMARK INTER + INTRA:         -10.382
REMARK INTER:                  -8.688
REMARK INTRA:                  -1.695
REMARK UNBOUND:                -0.818
REMARK SMILES CCCCCCCCCCCCCCCCCC(=O)[O-]
REMARK SMILES IDX 10 1 11 2 12 3 13 4 14 5 15 6 16 7 17 8 18 9 19 10 20 11
REMARK SMILES IDX 9 12 8 13 7 14 6 15 5 16 4 17 3 18 2 19 1 20
REMARK H PARENT
REMARK Flexibility Score: inf
ROOT
ATOM      1  C   UNL     1       6.476  30.963 -14.959  1.00  0.00     0.000 C 
ENDROOT
BRANCH   1   2
ATOM      2  C   UNL     1       7.698  31.173 -14.043  1.00  0.00     0.000 C 
BRANCH   2   3
ATOM      3  C   UNL     1       7.682  30.296 -12.773  1.00  0.00     0.000 C 
BRANCH   3   4
ATOM      4  C   UNL     1       9.019  29.575 -12.544  1.00  0.00     0.000 C 
BRANCH   4   5
ATOM      5  C   UNL     1       8.872  28.063 -12.749  1.00  0.00     0.000 C 
BRANCH   5   6
ATOM      6  C   UNL     1       7.407  27.684 -13.011  1.00  0.00     0.000 C 
BRANCH   6   7
ATOM      7  C   UNL     1       7.149  26.172 -12.886  1.00  0.00     0.006 C 
BRANCH   7   8
ATOM      8  C   UNL     1       8.140  25.436 -11.969  1.00  0.00     0.053 C 
BRANCH   8   9
ATOM      9  C   UNL     1       8.829  24.311 -12.676  1.00  0.00     0.041 C 
ATOM     10  O   UNL     1       8.926  23.183 -12.127  1.00  0.00    -0.550 OA
ATOM     11  O   UNL     1       9.338  24.499 -13.955  1.00  0.00    -0.550 OA
ENDBRANCH   8   9
ENDBRANCH   7   8
ENDBRANCH   6   7
ENDBRANCH   5   6
ENDBRANCH   4   5
ENDBRANCH   3   4
ENDBRANCH   2   3
ENDBRANCH   1   2
BRANCH   1  12
ATOM     12  C   UNL     1       5.898  32.250 -15.572  1.00  0.00     0.000 C 
BRANCH  12  13
ATOM     13  C   UNL     1       4.565  32.667 -14.931  1.00  0.00    -0.000 C 
BRANCH  13  14
ATOM     14  C   UNL     1       4.670  34.071 -14.316  1.00  0.00    -0.000 C 
BRANCH  14  15
ATOM     15  C   UNL     1       4.828  34.039 -12.788  1.00  0.00    -0.000 C 
BRANCH  15  16
ATOM     16  C   UNL     1       4.654  32.628 -12.204  1.00  0.00    -0.000 C 
BRANCH  16  17
ATOM     17  C   UNL     1       5.187  32.562 -10.765  1.00  0.00    -0.000 C 
BRANCH  17  18
ATOM     18  C   UNL     1       6.393  33.486 -10.535  1.00  0.00    -0.000 C 
BRANCH  18  19
ATOM     19  C   UNL     1       6.516  33.946  -9.075  1.00  0.00    -0.003 C 
ATOM     20  C   UNL     1       5.460  33.279  -8.198  1.00  0.00     0.004 C 
ENDBRANCH  18  19
ENDBRANCH  17  18
ENDBRANCH  16  17
ENDBRANCH  15  16
ENDBRANCH  14  15
ENDBRANCH  13  14
ENDBRANCH  12  13
ENDBRANCH   1  12
TORSDOF 16
ENDMDL
