MODEL 1
REMARK VINA RESULT:    -4.330      0.000      0.000
REMARK INTER + INTRA:         -10.037
REMARK INTER:                  -7.874
REMARK INTRA:                  -2.163
REMARK UNBOUND:                -2.163
REMARK SMILES CCCCCCCCCCCCCCCC(=O)[O-]
REMARK SMILES IDX 9 1 10 2 11 3 12 4 13 5 14 6 15 7 16 8 17 9 18 10 8 11 7 12
REMARK SMILES IDX 6 13 5 14 4 15 3 16 2 17 1 18
REMARK H PARENT
REMARK Flexibility Score: inf
ROOT
ATOM      1  C   UNL     1       8.060 -17.193  21.034  1.00  0.00     0.000 C 
ENDROOT
BRANCH   1   2
ATOM      2  C   UNL     1       7.150 -15.956  21.054  1.00  0.00     0.000 C 
BRANCH   2   3
ATOM      3  C   UNL     1       6.751 -15.592  22.490  1.00  0.00     0.000 C 
BRANCH   3   4
ATOM      4  C   UNL     1       7.839 -14.745  23.166  1.00  0.00     0.000 C 
BRANCH   4   5
ATOM      5  C   UNL     1       8.561 -15.500  24.294  1.00  0.00     0.000 C 
BRANCH   5   6
ATOM      6  C   UNL     1      10.083 -15.574  24.076  1.00  0.00     0.006 C 
BRANCH   6   7
ATOM      7  C   UNL     1      10.589 -17.022  24.008  1.00  0.00     0.053 C 
BRANCH   7   8
ATOM      8  C   UNL     1      11.230 -17.451  25.291  1.00  0.00     0.041 C 
ATOM      9  O   UNL     1      10.600 -17.357  26.376  1.00  0.00    -0.550 OA
ATOM     10  O   UNL     1      12.536 -17.926  25.291  1.00  0.00    -0.550 OA
ENDBRANCH   7   8
ENDBRANCH   6   7
ENDBRANCH   5   6
ENDBRANCH   4   5
ENDBRANCH   3   4
ENDBRANCH   2   3
ENDBRANCH   1   2
BRANCH   1  11
ATOM     11  C   UNL     1       7.500 -18.326  20.158  1.00  0.00     0.000 C 
BRANCH  11  12
ATOM     12  C   UNL     1       8.167 -19.681  20.451  1.00  0.00    -0.000 C 
BRANCH  12  13
ATOM     13  C   UNL     1       9.240 -19.599  21.552  1.00  0.00    -0.000 C 
BRANCH  13  14
ATOM     14  C   UNL     1       8.932 -20.389  22.836  1.00  0.00    -0.000 C 
BRANCH  14  15
ATOM     15  C   UNL     1       7.520 -21.001  22.841  1.00  0.00    -0.000 C 
BRANCH  15  16
ATOM     16  C   UNL     1       6.612 -20.403  23.931  1.00  0.00    -0.000 C 
BRANCH  16  17
ATOM     17  C   UNL     1       6.779 -18.890  24.162  1.00  0.00    -0.003 C 
ATOM     18  C   UNL     1       6.955 -18.525  25.635  1.00  0.00     0.004 C 
ENDBRANCH  16  17
ENDBRANCH  15  16
ENDBRANCH  14  15
ENDBRANCH  13  14
ENDBRANCH  12  13
ENDBRANCH  11  12
ENDBRANCH   1  11
TORSDOF 14
ENDMDL
MODEL 2
REMARK VINA RESULT:    -4.298      2.532      4.896
REMARK INTER + INTRA:          -9.978
REMARK INTER:                  -7.404
REMARK INTRA:                  -2.574
REMARK UNBOUND:                -2.163
REMARK SMILES CCCCCCCCCCCCCCCC(=O)[O-]
REMARK SMILES IDX 9 1 10 2 11 3 12 4 13 5 14 6 15 7 16 8 17 9 18 10 8 11 7 12
REMARK SMILES IDX 6 13 5 14 4 15 3 16 2 17 1 18
REMARK H PARENT
REMARK Flexibility Score: inf
ROOT
ATOM      1  C   UNL     1       8.471 -22.933  21.774  1.00  0.00     0.000 C 
ENDROOT
BRANCH   1   2
ATOM      2  C   UNL     1       7.507 -22.276  20.775  1.00  0.00     0.000 C 
BRANCH   2   3
ATOM      3  C   UNL     1       6.734 -21.126  21.434  1.00  0.00     0.000 C 
BRANCH   3   4
ATOM      4  C   UNL     1       6.941 -21.126  22.956  1.00  0.00     0.000 C 
BRANCH   4   5
ATOM      5  C   UNL     1       6.713 -19.741  23.585  1.00  0.00     0.000 C 
BRANCH   5   6
ATOM      6  C   UNL     1       7.356 -19.611  24.977  1.00  0.00     0.006 C 
BRANCH   6   7
ATOM      7  C   UNL     1       7.175 -18.207  25.570  1.00  0.00     0.053 C 
BRANCH   7   8
ATOM      8  C   UNL     1       8.477 -17.474  25.678  1.00  0.00     0.041 C 
ATOM      9  O   UNL     1       9.563 -18.109  25.674  1.00  0.00    -0.550 OA
ATOM     10  O   UNL     1       8.487 -16.091  25.815  1.00  0.00    -0.550 OA
ENDBRANCH   7   8
ENDBRANCH   6   7
ENDBRANCH   5   6
ENDBRANCH   4   5
ENDBRANCH   3   4
ENDBRANCH   2   3
ENDBRANCH   1   2
BRANCH   1  11
ATOM     11  C   UNL     1       9.902 -23.051  21.225  1.00  0.00     0.000 C 
BRANCH  11  12
ATOM     12  C   UNL     1      10.969 -22.773  22.298  1.00  0.00    -0.000 C 
BRANCH  12  13
ATOM     13  C   UNL     1      11.490 -21.324  22.268  1.00  0.00    -0.000 C 
BRANCH  13  14
ATOM     14  C   UNL     1      10.619 -20.294  23.009  1.00  0.00    -0.000 C 
BRANCH  14  15
ATOM     15  C   UNL     1      10.030 -19.223  22.075  1.00  0.00    -0.000 C 
BRANCH  15  16
ATOM     16  C   UNL     1      10.598 -19.295  20.645  1.00  0.00    -0.000 C 
BRANCH  16  17
ATOM     17  C   UNL     1       9.546 -19.447  19.532  1.00  0.00    -0.003 C 
ATOM     18  C   UNL     1       9.916 -20.510  18.498  1.00  0.00     0.004 C 
ENDBRANCH  16  17
ENDBRANCH  15  16
ENDBRANCH  14  15
ENDBRANCH  13  14
ENDBRANCH  12  13
ENDBRANCH  11  12
ENDBRANCH   1  11
TORSDOF 14
ENDMDL
MODEL 3
REMARK VINA RESULT:    -4.269      2.218      4.442
REMARK INTER + INTRA:          -9.926
REMARK INTER:                  -7.939
REMARK INTRA:                  -1.987
REMARK UNBOUND:                -2.163
REMARK SMILES CCCCCCCCCCCCCCCC(=O)[O-]
REMARK SMILES IDX 9 1 10 2 11 3 12 4 13 5 14 6 15 7 16 8 17 9 18 10 8 11 7 12
REMARK SMILES IDX 6 13 5 14 4 15 3 16 2 17 1 18
REMARK H PARENT
REMARK Flexibility Score: inf
ROOT
ATOM      1  C   UNL     1       6.981 -20.975  21.299  1.00  0.00     0.000 C 
ENDROOT
BRANCH   1   2
ATOM      2  C   UNL     1       7.087 -20.907  22.830  1.00  0.00     0.000 C 
BRANCH   2   3
ATOM      3  C   UNL     1       7.182 -19.454  23.309  1.00  0.00     0.000 C 
BRANCH   3   4
ATOM      4  C   UNL     1       8.348 -18.723  22.625  1.00  0.00     0.000 C 
BRANCH   4   5
ATOM      5  C   UNL     1       7.923 -17.385  22.000  1.00  0.00     0.000 C 
BRANCH   5   6
ATOM      6  C   UNL     1       7.133 -16.499  22.979  1.00  0.00     0.006 C 
BRANCH   6   7
ATOM      7  C   UNL     1       7.868 -15.190  23.299  1.00  0.00     0.053 C 
BRANCH   7   8
ATOM      8  C   UNL     1       8.968 -15.396  24.294  1.00  0.00     0.041 C 
ATOM      9  O   UNL     1      10.156 -15.108  23.993  1.00  0.00    -0.550 OA
ATOM     10  O   UNL     1       8.684 -15.935  25.543  1.00  0.00    -0.550 OA
ENDBRANCH   7   8
ENDBRANCH   6   7
ENDBRANCH   5   6
ENDBRANCH   4   5
ENDBRANCH   3   4
ENDBRANCH   2   3
ENDBRANCH   1   2
BRANCH   1  11
ATOM     11  C   UNL     1       7.621 -22.245  20.717  1.00  0.00     0.000 C 
BRANCH  11  12
ATOM     12  C   UNL     1       8.444 -23.021  21.760  1.00  0.00    -0.000 C 
BRANCH  12  13
ATOM     13  C   UNL     1       9.944 -23.087  21.415  1.00  0.00    -0.000 C 
BRANCH  13  14
ATOM     14  C   UNL     1      10.755 -21.821  21.744  1.00  0.00    -0.000 C 
BRANCH  14  15
ATOM     15  C   UNL     1      11.863 -21.534  20.716  1.00  0.00    -0.000 C 
BRANCH  15  16
ATOM     16  C   UNL     1      11.325 -20.923  19.409  1.00  0.00    -0.000 C 
BRANCH  16  17
ATOM     17  C   UNL     1      10.236 -19.850  19.590  1.00  0.00    -0.003 C 
ATOM     18  C   UNL     1       9.371 -19.656  18.346  1.00  0.00     0.004 C 
ENDBRANCH  16  17
ENDBRANCH  15  16
ENDBRANCH  14  15
ENDBRANCH  13  14
ENDBRANCH  12  13
ENDBRANCH  11  12
ENDBRANCH   1  11
TORSDOF 14
ENDMDL
MODEL 4
REMARK VINA RESULT:    -4.267      1.618      3.408
REMARK INTER + INTRA:          -9.922
REMARK INTER:                  -7.331
REMARK INTRA:                  -2.591
REMARK UNBOUND:                -2.163
REMARK SMILES CCCCCCCCCCCCCCCC(=O)[O-]
REMARK SMILES IDX 9 1 10 2 11 3 12 4 13 5 14 6 15 7 16 8 17 9 18 10 8 11 7 12
REMARK SMILES IDX 6 13 5 14 4 15 3 16 2 17 1 18
REMARK H PARENT
REMARK Flexibility Score: inf
ROOT
ATOM      1  C   UNL     1       7.512 -16.776  23.846  1.00  0.00     0.000 C 
ENDROOT
BRANCH   1   2
ATOM      2  C   UNL     1       7.619 -16.347  22.375  1.00  0.00     0.000 C 
BRANCH   2   3
ATOM      3  C   UNL     1       7.872 -17.558  21.469  1.00  0.00     0.000 C 
BRANCH   3   4
ATOM      4  C   UNL     1       9.364 -17.690  21.130  1.00  0.00     0.000 C 
BRANCH   4   5
ATOM      5  C   UNL     1      10.032 -18.876  21.845  1.00  0.00     0.000 C 
BRANCH   5   6
ATOM      6  C   UNL     1      11.234 -18.448  22.704  1.00  0.00     0.006 C 
BRANCH   6   7
ATOM      7  C   UNL     1      10.940 -18.558  24.207  1.00  0.00     0.053 C 
BRANCH   7   8
ATOM      8  C   UNL     1      10.920 -17.216  24.873  1.00  0.00     0.041 C 
ATOM      9  O   UNL     1      10.687 -17.125  26.106  1.00  0.00    -0.550 OA
ATOM     10  O   UNL     1      11.128 -16.065  24.123  1.00  0.00    -0.550 OA
ENDBRANCH   7   8
ENDBRANCH   6   7
ENDBRANCH   5   6
ENDBRANCH   4   5
ENDBRANCH   3   4
ENDBRANCH   2   3
ENDBRANCH   1   2
BRANCH   1  11
ATOM     11  C   UNL     1       6.650 -18.035  24.035  1.00  0.00     0.000 C 
BRANCH  11  12
ATOM     12  C   UNL     1       7.377 -19.132  24.832  1.00  0.00    -0.000 C 
BRANCH  12  13
ATOM     13  C   UNL     1       7.638 -20.404  24.005  1.00  0.00    -0.000 C 
BRANCH  13  14
ATOM     14  C   UNL     1       6.583 -20.722  22.930  1.00  0.00    -0.000 C 
BRANCH  14  15
ATOM     15  C   UNL     1       7.189 -21.342  21.659  1.00  0.00    -0.000 C 
BRANCH  15  16
ATOM     16  C   UNL     1       8.126 -22.527  21.958  1.00  0.00    -0.000 C 
BRANCH  16  17
ATOM     17  C   UNL     1       9.471 -22.501  21.210  1.00  0.00    -0.003 C 
ATOM     18  C   UNL     1      10.668 -22.783  22.117  1.00  0.00     0.004 C 
ENDBRANCH  16  17
ENDBRANCH  15  16
ENDBRANCH  14  15
ENDBRANCH  13  14
ENDBRANCH  12  13
ENDBRANCH  11  12
ENDBRANCH   1  11
TORSDOF 14
ENDMDL
MODEL 5
REMARK VINA RESULT:    -4.265      2.858      5.523
REMARK INTER + INTRA:          -9.918
REMARK INTER:                  -7.313
REMARK INTRA:                  -2.605
REMARK UNBOUND:                -2.163
REMARK SMILES CCCCCCCCCCCCCCCC(=O)[O-]
REMARK SMILES IDX 9 1 10 2 11 3 12 4 13 5 14 6 15 7 16 8 17 9 18 10 8 11 7 12
REMARK SMILES IDX 6 13 5 14 4 15 3 16 2 17 1 18
REMARK H PARENT
REMARK Flexibility Score: inf
ROOT
ATOM      1  C   UNL     1       9.707 -18.109  21.640  1.00  0.00     0.000 C 
ENDROOT
BRANCH   1   2
ATOM      2  C   UNL     1      10.191 -19.202  22.605  1.00  0.00     0.000 C 
BRANCH   2   3
ATOM      3  C   UNL     1       9.073 -19.615  23.570  1.00  0.00     0.000 C 
BRANCH   3   4
ATOM      4  C   UNL     1       7.690 -19.343  22.959  1.00  0.00     0.000 C 
BRANCH   4   5
ATOM      5  C   UNL     1       6.845 -20.619  22.816  1.00  0.00     0.000 C 
BRANCH   5   6
ATOM      6  C   UNL     1       7.693 -21.854  22.463  1.00  0.00     0.006 C 
BRANCH   6   7
ATOM      7  C   UNL     1       7.580 -22.229  20.979  1.00  0.00     0.053 C 
BRANCH   7   8
ATOM      8  C   UNL     1       8.609 -21.530  20.145  1.00  0.00     0.041 C 
ATOM      9  O   UNL     1       9.806 -21.914  20.163  1.00  0.00    -0.550 OA
ATOM     10  O   UNL     1       8.249 -20.432  19.372  1.00  0.00    -0.550 OA
ENDBRANCH   7   8
ENDBRANCH   6   7
ENDBRANCH   5   6
ENDBRANCH   4   5
ENDBRANCH   3   4
ENDBRANCH   2   3
ENDBRANCH   1   2
BRANCH   1  11
ATOM     11  C   UNL     1      10.761 -17.014  21.410  1.00  0.00     0.000 C 
BRANCH  11  12
ATOM     12  C   UNL     1      11.536 -16.664  22.692  1.00  0.00    -0.000 C 
BRANCH  12  13
ATOM     13  C   UNL     1      10.811 -15.627  23.570  1.00  0.00    -0.000 C 
BRANCH  13  14
ATOM     14  C   UNL     1      10.094 -16.194  24.808  1.00  0.00    -0.000 C 
BRANCH  14  15
ATOM     15  C   UNL     1       8.594 -15.853  24.842  1.00  0.00    -0.000 C 
BRANCH  15  16
ATOM     16  C   UNL     1       8.116 -15.120  23.575  1.00  0.00    -0.000 C 
BRANCH  16  17
ATOM     17  C   UNL     1       6.924 -15.774  22.853  1.00  0.00    -0.003 C 
ATOM     18  C   UNL     1       6.985 -15.619  21.334  1.00  0.00     0.004 C 
ENDBRANCH  16  17
ENDBRANCH  15  16
ENDBRANCH  14  15
ENDBRANCH  13  14
ENDBRANCH  12  13
ENDBRANCH  11  12
ENDBRANCH   1  11
TORSDOF 14
ENDMDL
MODEL 6
REMARK VINA RESULT:    -4.242      2.935      5.510
REMARK INTER + INTRA:          -9.876
REMARK INTER:                  -7.567
REMARK INTRA:                  -2.309
REMARK UNBOUND:                -2.163
REMARK SMILES CCCCCCCCCCCCCCCC(=O)[O-]
REMARK SMILES IDX 9 1 10 2 11 3 12 4 13 5 14 6 15 7 16 8 17 9 18 10 8 11 7 12
REMARK SMILES IDX 6 13 5 14 4 15 3 16 2 17 1 18
REMARK H PARENT
REMARK Flexibility Score: inf
ROOT
ATOM      1  C   UNL     1       9.442 -16.597  25.836  1.00  0.00     0.000 C 
ENDROOT
BRANCH   1   2
ATOM      2  C   UNL     1       7.986 -17.078  25.749  1.00  0.00     0.000 C 
BRANCH   2   3
ATOM      3  C   UNL     1       7.923 -18.594  25.522  1.00  0.00     0.000 C 
BRANCH   3   4
ATOM      4  C   UNL     1       6.723 -18.969  24.638  1.00  0.00     0.000 C 
BRANCH   4   5
ATOM      5  C   UNL     1       6.757 -20.437  24.185  1.00  0.00     0.000 C 
BRANCH   5   6
ATOM      6  C   UNL     1       7.835 -20.701  23.118  1.00  0.00     0.006 C 
BRANCH   6   7
ATOM      7  C   UNL     1       7.229 -20.939  21.728  1.00  0.00     0.053 C 
BRANCH   7   8
ATOM      8  C   UNL     1       7.866 -22.102  21.032  1.00  0.00     0.041 C 
ATOM      9  O   UNL     1       8.122 -23.157  21.667  1.00  0.00    -0.550 OA
ATOM     10  O   UNL     1       8.205 -22.007  19.688  1.00  0.00    -0.550 OA
ENDBRANCH   7   8
ENDBRANCH   6   7
ENDBRANCH   5   6
ENDBRANCH   4   5
ENDBRANCH   3   4
ENDBRANCH   2   3
ENDBRANCH   1   2
BRANCH   1  11
ATOM     11  C   UNL     1      10.426 -17.738  26.138  1.00  0.00     0.000 C 
BRANCH  11  12
ATOM     12  C   UNL     1      11.707 -17.650  25.290  1.00  0.00    -0.000 C 
BRANCH  12  13
ATOM     13  C   UNL     1      11.511 -16.861  23.983  1.00  0.00    -0.000 C 
BRANCH  13  14
ATOM     14  C   UNL     1      11.335 -17.715  22.715  1.00  0.00    -0.000 C 
BRANCH  14  15
ATOM     15  C   UNL     1       9.861 -17.890  22.308  1.00  0.00    -0.000 C 
BRANCH  15  16
ATOM     16  C   UNL     1       9.105 -16.553  22.205  1.00  0.00    -0.000 C 
BRANCH  16  17
ATOM     17  C   UNL     1       7.590 -16.677  21.963  1.00  0.00    -0.003 C 
ATOM     18  C   UNL     1       6.793 -15.505  22.534  1.00  0.00     0.004 C 
ENDBRANCH  16  17
ENDBRANCH  15  16
ENDBRANCH  14  15
ENDBRANCH  13  14
ENDBRANCH  12  13
ENDBRANCH  11  12
ENDBRANCH   1  11
TORSDOF 14
ENDMDL
MODEL 7
REMARK VINA RESULT:    -4.177      1.653      3.628
REMARK INTER + INTRA:          -9.758
REMARK INTER:                  -7.561
REMARK INTRA:                  -2.197
REMARK UNBOUND:                -2.163
REMARK SMILES CCCCCCCCCCCCCCCC(=O)[O-]
REMARK SMILES IDX 9 1 10 2 11 3 12 4 13 5 14 6 15 7 16 8 17 9 18 10 8 11 7 12
REMARK SMILES IDX 6 13 5 14 4 15 3 16 2 17 1 18
REMARK H PARENT
REMARK Flexibility Score: inf
ROOT
ATOM      1  C   UNL     1       6.783 -18.751  24.494  1.00  0.00     0.000 C 
ENDROOT
BRANCH   1   2
ATOM      2  C   UNL     1       7.501 -18.536  25.835  1.00  0.00     0.000 C 
BRANCH   2   3
ATOM      3  C   UNL     1       8.263 -17.205  25.841  1.00  0.00     0.000 C 
BRANCH   3   4
ATOM      4  C   UNL     1       9.768 -17.434  26.044  1.00  0.00     0.000 C 
BRANCH   4   5
ATOM      5  C   UNL     1      10.427 -18.142  24.849  1.00  0.00     0.000 C 
BRANCH   5   6
ATOM      6  C   UNL     1      11.836 -17.604  24.546  1.00  0.00     0.006 C 
BRANCH   6   7
ATOM      7  C   UNL     1      11.941 -17.019  23.130  1.00  0.00     0.053 C 
BRANCH   7   8
ATOM      8  C   UNL     1      11.736 -15.536  23.121  1.00  0.00     0.041 C 
ATOM      9  O   UNL     1      10.679 -15.040  23.591  1.00  0.00    -0.550 OA
ATOM     10  O   UNL     1      12.700 -14.704  22.564  1.00  0.00    -0.550 OA
ENDBRANCH   7   8
ENDBRANCH   6   7
ENDBRANCH   5   6
ENDBRANCH   4   5
ENDBRANCH   3   4
ENDBRANCH   2   3
ENDBRANCH   1   2
BRANCH   1  11
ATOM     11  C   UNL     1       6.517 -20.236  24.196  1.00  0.00     0.000 C 
BRANCH  11  12
ATOM     12  C   UNL     1       7.106 -20.680  22.846  1.00  0.00    -0.000 C 
BRANCH  12  13
ATOM     13  C   UNL     1       8.640 -20.565  22.791  1.00  0.00    -0.000 C 
BRANCH  13  14
ATOM     14  C   UNL     1       9.194 -19.619  21.710  1.00  0.00    -0.000 C 
BRANCH  14  15
ATOM     15  C   UNL     1       8.151 -18.606  21.206  1.00  0.00    -0.000 C 
BRANCH  15  16
ATOM     16  C   UNL     1       8.559 -17.145  21.470  1.00  0.00    -0.000 C 
BRANCH  16  17
ATOM     17  C   UNL     1       7.402 -16.129  21.440  1.00  0.00    -0.003 C 
ATOM     18  C   UNL     1       7.124 -15.496  22.802  1.00  0.00     0.004 C 
ENDBRANCH  16  17
ENDBRANCH  15  16
ENDBRANCH  14  15
ENDBRANCH  13  14
ENDBRANCH  12  13
ENDBRANCH  11  12
ENDBRANCH   1  11
TORSDOF 14
ENDMDL
MODEL 8
REMARK VINA RESULT:    -4.168      2.828      5.689
REMARK INTER + INTRA:          -9.743
REMARK INTER:                  -7.441
REMARK INTRA:                  -2.301
REMARK UNBOUND:                -2.163
REMARK SMILES CCCCCCCCCCCCCCCC(=O)[O-]
REMARK SMILES IDX 9 1 10 2 11 3 12 4 13 5 14 6 15 7 16 8 17 9 18 10 8 11 7 12
REMARK SMILES IDX 6 13 5 14 4 15 3 16 2 17 1 18
REMARK H PARENT
REMARK Flexibility Score: inf
ROOT
ATOM      1  C   UNL     1       8.244 -16.720  25.620  1.00  0.00     0.000 C 
ENDROOT
BRANCH   1   2
ATOM      2  C   UNL     1       8.230 -18.242  25.823  1.00  0.00     0.000 C 
BRANCH   2   3
ATOM      3  C   UNL     1       7.105 -18.893  25.008  1.00  0.00     0.000 C 
BRANCH   3   4
ATOM      4  C   UNL     1       7.652 -20.010  24.107  1.00  0.00     0.000 C 
BRANCH   4   5
ATOM      5  C   UNL     1       6.556 -20.683  23.265  1.00  0.00     0.000 C 
BRANCH   5   6
ATOM      6  C   UNL     1       7.034 -21.035  21.845  1.00  0.00     0.006 C 
BRANCH   6   7
ATOM      7  C   UNL     1       7.801 -22.364  21.806  1.00  0.00     0.053 C 
BRANCH   7   8
ATOM      8  C   UNL     1       8.819 -22.391  20.707  1.00  0.00     0.041 C 
ATOM      9  O   UNL     1       9.978 -22.826  20.928  1.00  0.00    -0.550 OA
ATOM     10  O   UNL     1       8.494 -21.903  19.447  1.00  0.00    -0.550 OA
ENDBRANCH   7   8
ENDBRANCH   6   7
ENDBRANCH   5   6
ENDBRANCH   4   5
ENDBRANCH   3   4
ENDBRANCH   2   3
ENDBRANCH   1   2
BRANCH   1  11
ATOM     11  C   UNL     1       9.540 -16.222  24.961  1.00  0.00     0.000 C 
BRANCH  11  12
ATOM     12  C   UNL     1       9.275 -15.401  23.687  1.00  0.00    -0.000 C 
BRANCH  12  13
ATOM     13  C   UNL     1       7.776 -15.255  23.366  1.00  0.00    -0.000 C 
BRANCH  13  14
ATOM     14  C   UNL     1       7.344 -15.766  21.980  1.00  0.00    -0.000 C 
BRANCH  14  15
ATOM     15  C   UNL     1       7.574 -17.276  21.797  1.00  0.00    -0.000 C 
BRANCH  15  16
ATOM     16  C   UNL     1       8.264 -17.621  20.464  1.00  0.00    -0.000 C 
BRANCH  16  17
ATOM     17  C   UNL     1       9.459 -18.584  20.578  1.00  0.00    -0.003 C 
ATOM     18  C   UNL     1      10.081 -18.606  21.973  1.00  0.00     0.004 C 
ENDBRANCH  16  17
ENDBRANCH  15  16
ENDBRANCH  14  15
ENDBRANCH  13  14
ENDBRANCH  12  13
ENDBRANCH  11  12
ENDBRANCH   1  11
TORSDOF 14
ENDMDL
MODEL 9
REMARK VINA RESULT:    -4.165      1.859      3.363
REMARK INTER + INTRA:          -9.737
REMARK INTER:                  -7.680
REMARK INTRA:                  -2.057
REMARK UNBOUND:                -2.163
REMARK SMILES CCCCCCCCCCCCCCCC(=O)[O-]
REMARK SMILES IDX 9 1 10 2 11 3 12 4 13 5 14 6 15 7 16 8 17 9 18 10 8 11 7 12
REMARK SMILES IDX 6 13 5 14 4 15 3 16 2 17 1 18
REMARK H PARENT
REMARK Flexibility Score: inf
ROOT
ATOM      1  C   UNL     1       7.144 -20.799  23.138  1.00  0.00     0.000 C 
ENDROOT
BRANCH   1   2
ATOM      2  C   UNL     1       7.446 -19.310  23.367  1.00  0.00     0.000 C 
BRANCH   2   3
ATOM      3  C   UNL     1       7.627 -18.576  22.032  1.00  0.00     0.000 C 
BRANCH   3   4
ATOM      4  C   UNL     1       8.602 -17.399  22.180  1.00  0.00     0.000 C 
BRANCH   4   5
ATOM      5  C   UNL     1       7.884 -16.061  22.417  1.00  0.00     0.000 C 
BRANCH   5   6
ATOM      6  C   UNL     1       8.348 -15.361  23.707  1.00  0.00     0.006 C 
BRANCH   6   7
ATOM      7  C   UNL     1       9.674 -15.930  24.229  1.00  0.00     0.053 C 
BRANCH   7   8
ATOM      8  C   UNL     1       9.526 -16.534  25.592  1.00  0.00     0.041 C 
ATOM      9  O   UNL     1       8.419 -16.487  26.187  1.00  0.00    -0.550 OA
ATOM     10  O   UNL     1      10.621 -17.119  26.216  1.00  0.00    -0.550 OA
ENDBRANCH   7   8
ENDBRANCH   6   7
ENDBRANCH   5   6
ENDBRANCH   4   5
ENDBRANCH   3   4
ENDBRANCH   2   3
ENDBRANCH   1   2
BRANCH   1  11
ATOM     11  C   UNL     1       6.711 -21.100  21.694  1.00  0.00     0.000 C 
BRANCH  11  12
ATOM     12  C   UNL     1       7.543 -22.222  21.051  1.00  0.00    -0.000 C 
BRANCH  12  13
ATOM     13  C   UNL     1       8.616 -22.793  21.997  1.00  0.00    -0.000 C 
BRANCH  13  14
ATOM     14  C   UNL     1      10.026 -22.928  21.393  1.00  0.00    -0.000 C 
BRANCH  14  15
ATOM     15  C   UNL     1      11.073 -22.062  22.114  1.00  0.00    -0.000 C 
BRANCH  15  16
ATOM     16  C   UNL     1      10.652 -20.585  22.233  1.00  0.00    -0.000 C 
BRANCH  16  17
ATOM     17  C   UNL     1      11.217 -19.842  23.457  1.00  0.00    -0.003 C 
ATOM     18  C   UNL     1      12.105 -18.656  23.081  1.00  0.00     0.004 C 
ENDBRANCH  16  17
ENDBRANCH  15  16
ENDBRANCH  14  15
ENDBRANCH  13  14
ENDBRANCH  12  13
ENDBRANCH  11  12
ENDBRANCH   1  11
TORSDOF 14
ENDMDL
