MODEL 1
REMARK VINA RESULT:    -4.354      0.000      0.000
REMARK INTER + INTRA:          -5.399
REMARK INTER:                  -5.245
REMARK INTRA:                  -0.154
REMARK UNBOUND:                -0.154
REMARK SMILES C=CCc1ccc(O)c(OC)c1
REMARK SMILES IDX 9 1 7 2 6 3 5 4 4 5 12 6 10 7 11 8 8 9 3 11 2 12 1 13
REMARK H PARENT 8 10
REMARK Flexibility Score: inf
ROOT
ATOM      1  C   UNL     1      13.110  33.288  27.745  1.00  0.00     0.160 A 
ATOM      2  C   UNL     1      11.711  33.184  27.863  1.00  0.00     0.157 A 
ATOM      3  C   UNL     1      11.150  32.267  28.758  1.00  0.00     0.050 A 
ATOM      4  C   UNL     1      11.970  31.449  29.539  1.00  0.00     0.008 A 
ATOM      5  C   UNL     1      13.364  31.533  29.427  1.00  0.00    -0.040 A 
ATOM      6  C   UNL     1      13.931  32.459  28.536  1.00  0.00     0.054 A 
ENDROOT
BRANCH   1   7
ATOM      7  O   UNL     1      13.645  34.220  26.842  1.00  0.00    -0.493 OA
ATOM      8  C   UNL     1      13.770  34.006  25.440  1.00  0.00     0.278 C 
ENDBRANCH   1   7
BRANCH   2   9
ATOM      9  O   UNL     1      10.862  33.983  27.099  1.00  0.00    -0.504 OA
ATOM     10  H   UNL     1      11.101  34.283  26.162  1.00  0.00     0.293 HD
ENDBRANCH   2   9
BRANCH   5  11
ATOM     11  C   UNL     1      14.251  30.672  30.288  1.00  0.00     0.062 C 
BRANCH  11  12
ATOM     12  C   UNL     1      15.665  31.182  30.272  1.00  0.00    -0.030 C 
ATOM     13  C   UNL     1      16.712  30.351  30.278  1.00  0.00     0.004 C 
ENDBRANCH  11  12
ENDBRANCH   5  11
TORSDOF 4
ENDMDL
MODEL 2
REMARK VINA RESULT:    -4.262     13.712     15.409
REMARK INTER + INTRA:          -5.288
REMARK INTER:                  -5.067
REMARK INTRA:                  -0.222
REMARK UNBOUND:                -0.154
REMARK SMILES C=CCc1ccc(O)c(OC)c1
REMARK SMILES IDX 9 1 7 2 6 3 5 4 4 5 12 6 10 7 11 8 8 9 3 11 2 12 1 13
REMARK H PARENT 8 10
REMARK Flexibility Score: inf
ROOT
ATOM      1  C   UNL     1      24.510  37.042  21.010  1.00  0.00     0.160 A 
ATOM      2  C   UNL     1      24.054  36.583  19.760  1.00  0.00     0.157 A 
ATOM      3  C   UNL     1      24.963  36.069  18.829  1.00  0.00     0.050 A 
ATOM      4  C   UNL     1      26.326  36.009  19.129  1.00  0.00     0.008 A 
ATOM      5  C   UNL     1      26.797  36.471  20.365  1.00  0.00    -0.040 A 
ATOM      6  C   UNL     1      25.887  36.979  21.306  1.00  0.00     0.054 A 
ENDROOT
BRANCH   1   7
ATOM      7  O   UNL     1      23.575  37.548  21.926  1.00  0.00    -0.493 OA
ATOM      8  C   UNL     1      23.173  38.913  22.000  1.00  0.00     0.278 C 
ENDBRANCH   1   7
BRANCH   2   9
ATOM      9  O   UNL     1      22.701  36.628  19.424  1.00  0.00    -0.504 OA
ATOM     10  H   UNL     1      22.296  37.407  18.921  1.00  0.00     0.293 HD
ENDBRANCH   2   9
BRANCH   5  11
ATOM     11  C   UNL     1      28.263  36.382  20.703  1.00  0.00     0.062 C 
BRANCH  11  12
ATOM     12  C   UNL     1      28.553  35.133  21.487  1.00  0.00    -0.030 C 
ATOM     13  C   UNL     1      28.700  33.947  20.889  1.00  0.00     0.004 C 
ENDBRANCH  11  12
ENDBRANCH   5  11
TORSDOF 4
ENDMDL
MODEL 3
REMARK VINA RESULT:    -4.119     11.769     14.493
REMARK INTER + INTRA:          -5.116
REMARK INTER:                  -4.857
REMARK INTRA:                  -0.259
REMARK UNBOUND:                -0.154
REMARK SMILES C=CCc1ccc(O)c(OC)c1
REMARK SMILES IDX 9 1 7 2 6 3 5 4 4 5 12 6 10 7 11 8 8 9 3 11 2 12 1 13
REMARK H PARENT 8 10
REMARK Flexibility Score: inf
ROOT
ATOM      1  C   UNL     1      25.605  28.780  26.572  1.00  0.00     0.160 A 
ATOM      2  C   UNL     1      25.525  29.504  25.368  1.00  0.00     0.157 A 
ATOM      3  C   UNL     1      26.590  29.476  24.461  1.00  0.00     0.050 A 
ATOM      4  C   UNL     1      27.738  28.733  24.742  1.00  0.00     0.008 A 
ATOM      5  C   UNL     1      27.838  28.013  25.941  1.00  0.00    -0.040 A 
ATOM      6  C   UNL     1      26.768  28.032  26.849  1.00  0.00     0.054 A 
ENDROOT
BRANCH   1   7
ATOM      7  O   UNL     1      24.520  28.823  27.461  1.00  0.00    -0.493 OA
ATOM      8  C   UNL     1      23.903  27.676  28.039  1.00  0.00     0.278 C 
ENDBRANCH   1   7
BRANCH   2   9
ATOM      9  O   UNL     1      24.395  30.259  25.054  1.00  0.00    -0.504 OA
ATOM     10  H   UNL     1      24.423  31.024  24.391  1.00  0.00     0.293 HD
ENDBRANCH   2   9
BRANCH   5  11
ATOM     11  C   UNL     1      29.064  27.189  26.234  1.00  0.00     0.062 C 
BRANCH  11  12
ATOM     12  C   UNL     1      29.099  25.961  25.366  1.00  0.00    -0.030 C 
ATOM     13  C   UNL     1      28.439  24.848  25.698  1.00  0.00     0.004 C 
ENDBRANCH  11  12
ENDBRANCH   5  11
TORSDOF 4
ENDMDL
MODEL 4
REMARK VINA RESULT:    -4.015     14.215     16.043
REMARK INTER + INTRA:          -4.990
REMARK INTER:                  -4.775
REMARK INTRA:                  -0.215
REMARK UNBOUND:                -0.154
REMARK SMILES C=CCc1ccc(O)c(OC)c1
REMARK SMILES IDX 9 1 7 2 6 3 5 4 4 5 12 6 10 7 11 8 8 9 3 11 2 12 1 13
REMARK H PARENT 8 10
REMARK Flexibility Score: inf
ROOT
ATOM      1  C   UNL     1      27.229  26.098  26.765  1.00  0.00     0.160 A 
ATOM      2  C   UNL     1      28.440  25.693  26.173  1.00  0.00     0.157 A 
ATOM      3  C   UNL     1      29.106  26.547  25.287  1.00  0.00     0.050 A 
ATOM      4  C   UNL     1      28.577  27.802  24.981  1.00  0.00     0.008 A 
ATOM      5  C   UNL     1      27.367  28.217  25.555  1.00  0.00    -0.040 A 
ATOM      6  C   UNL     1      26.700  27.367  26.452  1.00  0.00     0.054 A 
ENDROOT
BRANCH   1   7
ATOM      7  O   UNL     1      26.585  25.223  27.654  1.00  0.00    -0.493 OA
ATOM      8  C   UNL     1      25.206  25.296  28.002  1.00  0.00     0.278 C 
ENDBRANCH   1   7
BRANCH   2   9
ATOM      9  O   UNL     1      28.998  24.446  26.453  1.00  0.00    -0.504 OA
ATOM     10  H   UNL     1      29.987  24.326  26.634  1.00  0.00     0.293 HD
ENDBRANCH   2   9
BRANCH   5  11
ATOM     11  C   UNL     1      26.808  29.582  25.249  1.00  0.00     0.062 C 
BRANCH  11  12
ATOM     12  C   UNL     1      27.896  30.619  25.271  1.00  0.00    -0.030 C 
ATOM     13  C   UNL     1      27.975  31.574  24.339  1.00  0.00     0.004 C 
ENDBRANCH  11  12
ENDBRANCH   5  11
TORSDOF 4
ENDMDL
MODEL 5
REMARK VINA RESULT:    -4.002     14.683     16.740
REMARK INTER + INTRA:          -4.975
REMARK INTER:                  -4.757
REMARK INTRA:                  -0.218
REMARK UNBOUND:                -0.154
REMARK SMILES C=CCc1ccc(O)c(OC)c1
REMARK SMILES IDX 9 1 7 2 6 3 5 4 4 5 12 6 10 7 11 8 8 9 3 11 2 12 1 13
REMARK H PARENT 8 10
REMARK Flexibility Score: inf
ROOT
ATOM      1  C   UNL     1      25.616  37.024  19.955  1.00  0.00     0.160 A 
ATOM      2  C   UNL     1      26.034  38.352  20.160  1.00  0.00     0.157 A 
ATOM      3  C   UNL     1      27.391  38.681  20.072  1.00  0.00     0.050 A 
ATOM      4  C   UNL     1      28.340  37.697  19.783  1.00  0.00     0.008 A 
ATOM      5  C   UNL     1      27.942  36.368  19.586  1.00  0.00    -0.040 A 
ATOM      6  C   UNL     1      26.580  36.036  19.664  1.00  0.00     0.054 A 
ENDROOT
BRANCH   1   7
ATOM      7  O   UNL     1      24.248  36.723  20.044  1.00  0.00    -0.493 OA
ATOM      8  C   UNL     1      23.537  35.910  19.116  1.00  0.00     0.278 C 
ENDBRANCH   1   7
BRANCH   2   9
ATOM      9  O   UNL     1      25.115  39.360  20.451  1.00  0.00    -0.504 OA
ATOM     10  H   UNL     1      24.480  39.301  21.237  1.00  0.00     0.293 HD
ENDBRANCH   2   9
BRANCH   5  11
ATOM     11  C   UNL     1      28.959  35.311  19.248  1.00  0.00     0.062 C 
BRANCH  11  12
ATOM     12  C   UNL     1      28.535  33.972  19.785  1.00  0.00    -0.030 C 
ATOM     13  C   UNL     1      29.074  33.458  20.895  1.00  0.00     0.004 C 
ENDBRANCH  11  12
ENDBRANCH   5  11
TORSDOF 4
ENDMDL
MODEL 6
REMARK VINA RESULT:    -3.994     15.151     17.776
REMARK INTER + INTRA:          -4.965
REMARK INTER:                  -4.733
REMARK INTRA:                  -0.232
REMARK UNBOUND:                -0.154
REMARK SMILES C=CCc1ccc(O)c(OC)c1
REMARK SMILES IDX 9 1 7 2 6 3 5 4 4 5 12 6 10 7 11 8 8 9 3 11 2 12 1 13
REMARK H PARENT 8 10
REMARK Flexibility Score: inf
ROOT
ATOM      1  C   UNL     1      25.740  38.606  20.663  1.00  0.00     0.160 A 
ATOM      2  C   UNL     1      26.219  37.920  19.532  1.00  0.00     0.157 A 
ATOM      3  C   UNL     1      27.034  38.580  18.606  1.00  0.00     0.050 A 
ATOM      4  C   UNL     1      27.377  39.920  18.794  1.00  0.00     0.008 A 
ATOM      5  C   UNL     1      26.900  40.621  19.911  1.00  0.00    -0.040 A 
ATOM      6  C   UNL     1      26.089  39.960  20.847  1.00  0.00     0.054 A 
ENDROOT
BRANCH   1   7
ATOM      7  O   UNL     1      24.927  37.918  21.578  1.00  0.00    -0.493 OA
ATOM      8  C   UNL     1      23.514  38.061  21.671  1.00  0.00     0.278 C 
ENDBRANCH   1   7
BRANCH   2   9
ATOM      9  O   UNL     1      25.897  36.581  19.310  1.00  0.00    -0.504 OA
ATOM     10  H   UNL     1      25.194  36.098  19.856  1.00  0.00     0.293 HD
ENDBRANCH   2   9
BRANCH   5  11
ATOM     11  C   UNL     1      27.290  42.059  20.131  1.00  0.00     0.062 C 
BRANCH  11  12
ATOM     12  C   UNL     1      27.278  42.818  18.833  1.00  0.00    -0.030 C 
ATOM     13  C   UNL     1      26.722  44.029  18.733  1.00  0.00     0.004 C 
ENDBRANCH  11  12
ENDBRANCH   5  11
TORSDOF 4
ENDMDL
MODEL 7
REMARK VINA RESULT:    -3.945     14.043     15.934
REMARK INTER + INTRA:          -4.906
REMARK INTER:                  -4.700
REMARK INTRA:                  -0.206
REMARK UNBOUND:                -0.154
REMARK SMILES C=CCc1ccc(O)c(OC)c1
REMARK SMILES IDX 9 1 7 2 6 3 5 4 4 5 12 6 10 7 11 8 8 9 3 11 2 12 1 13
REMARK H PARENT 8 10
REMARK Flexibility Score: inf
ROOT
ATOM      1  C   UNL     1      26.194  37.006  21.011  1.00  0.00     0.160 A 
ATOM      2  C   UNL     1      26.402  36.749  19.643  1.00  0.00     0.157 A 
ATOM      3  C   UNL     1      27.388  35.840  19.244  1.00  0.00     0.050 A 
ATOM      4  C   UNL     1      28.172  35.184  20.195  1.00  0.00     0.008 A 
ATOM      5  C   UNL     1      27.984  35.436  21.561  1.00  0.00    -0.040 A 
ATOM      6  C   UNL     1      26.990  36.341  21.966  1.00  0.00     0.054 A 
ENDROOT
BRANCH   1   7
ATOM      7  O   UNL     1      25.195  37.920  21.383  1.00  0.00    -0.493 OA
ATOM      8  C   UNL     1      23.846  37.567  21.676  1.00  0.00     0.278 C 
ENDBRANCH   1   7
BRANCH   2   9
ATOM      9  O   UNL     1      25.639  37.386  18.665  1.00  0.00    -0.504 OA
ATOM     10  H   UNL     1      24.698  37.713  18.843  1.00  0.00     0.293 HD
ENDBRANCH   2   9
BRANCH   5  11
ATOM     11  C   UNL     1      28.810  34.710  22.590  1.00  0.00     0.062 C 
BRANCH  11  12
ATOM     12  C   UNL     1      27.935  34.169  23.687  1.00  0.00    -0.030 C 
ATOM     13  C   UNL     1      28.072  32.920  24.143  1.00  0.00     0.004 C 
ENDBRANCH  11  12
ENDBRANCH   5  11
TORSDOF 4
ENDMDL
MODEL 8
REMARK VINA RESULT:    -3.905     15.485     17.001
REMARK INTER + INTRA:          -4.857
REMARK INTER:                  -4.655
REMARK INTRA:                  -0.203
REMARK UNBOUND:                -0.154
REMARK SMILES C=CCc1ccc(O)c(OC)c1
REMARK SMILES IDX 9 1 7 2 6 3 5 4 4 5 12 6 10 7 11 8 8 9 3 11 2 12 1 13
REMARK H PARENT 8 10
REMARK Flexibility Score: inf
ROOT
ATOM      1  C   UNL     1      26.602  39.401  19.592  1.00  0.00     0.160 A 
ATOM      2  C   UNL     1      25.744  39.501  20.703  1.00  0.00     0.157 A 
ATOM      3  C   UNL     1      25.171  38.349  21.251  1.00  0.00     0.050 A 
ATOM      4  C   UNL     1      25.442  37.094  20.701  1.00  0.00     0.008 A 
ATOM      5  C   UNL     1      26.287  36.978  19.588  1.00  0.00    -0.040 A 
ATOM      6  C   UNL     1      26.871  38.131  19.042  1.00  0.00     0.054 A 
ENDROOT
BRANCH   1   7
ATOM      7  O   UNL     1      27.167  40.574  19.066  1.00  0.00    -0.493 OA
ATOM      8  C   UNL     1      28.389  40.625  18.336  1.00  0.00     0.278 C 
ENDBRANCH   1   7
BRANCH   2   9
ATOM      9  O   UNL     1      25.449  40.737  21.278  1.00  0.00    -0.504 OA
ATOM     10  H   UNL     1      25.833  41.604  20.921  1.00  0.00     0.293 HD
ENDBRANCH   2   9
BRANCH   5  11
ATOM     11  C   UNL     1      26.603  35.623  19.011  1.00  0.00     0.062 C 
BRANCH  11  12
ATOM     12  C   UNL     1      28.012  35.218  19.346  1.00  0.00    -0.030 C 
ATOM     13  C   UNL     1      28.279  34.082  19.998  1.00  0.00     0.004 C 
ENDBRANCH  11  12
ENDBRANCH   5  11
TORSDOF 4
ENDMDL
