MODEL 1
REMARK VINA RESULT:    -3.295      0.000      0.000
REMARK INTER + INTRA:          -3.837
REMARK INTER:                  -3.777
REMARK INTRA:                  -0.060
REMARK UNBOUND:                -0.060
REMARK SMILES COc1cc(C=O)ccc1O
REMARK SMILES IDX 3 1 10 2 9 3 8 4 5 5 4 6 2 7 1 8 11 9 6 11 7 12
REMARK H PARENT 11 10
REMARK Flexibility Score: inf
ROOT
ATOM      1  C   UNL     1     121.589 107.805 116.119  1.00  0.00     0.161 A 
ATOM      2  C   UNL     1     120.523 108.721 116.048  1.00  0.00     0.157 A 
ATOM      3  C   UNL     1     119.895 109.157 117.219  1.00  0.00     0.051 A 
ATOM      4  C   UNL     1     120.317 108.690 118.464  1.00  0.00     0.015 A 
ATOM      5  C   UNL     1     121.377 107.777 118.555  1.00  0.00     0.018 A 
ATOM      6  C   UNL     1     122.010 107.337 117.381  1.00  0.00     0.062 A 
ENDROOT
BRANCH   1   7
ATOM      7  O   UNL     1     122.201 107.384 114.927  1.00  0.00    -0.493 OA
ATOM      8  C   UNL     1     123.604 107.224 114.752  1.00  0.00     0.278 C 
ENDBRANCH   1   7
BRANCH   2   9
ATOM      9  O   UNL     1     120.074 109.210 114.821  1.00  0.00    -0.504 OA
ATOM     10  H   UNL     1     119.376 108.726 114.270  1.00  0.00     0.293 HD
ENDBRANCH   2   9
BRANCH   5  11
ATOM     11  C   UNL     1     121.807 107.296 119.882  1.00  0.00     0.260 C 
ATOM     12  O   UNL     1     120.971 106.876 120.725  1.00  0.00    -0.298 OA
ENDBRANCH   5  11
TORSDOF 3
ENDMDL
MODEL 2
REMARK VINA RESULT:    -3.211     13.468     14.070
REMARK INTER + INTRA:          -3.739
REMARK INTER:                  -3.674
REMARK INTRA:                  -0.065
REMARK UNBOUND:                -0.060
REMARK SMILES COc1cc(C=O)ccc1O
REMARK SMILES IDX 3 1 10 2 9 3 8 4 5 5 4 6 2 7 1 8 11 9 6 11 7 12
REMARK H PARENT 11 10
REMARK Flexibility Score: inf
ROOT
ATOM      1  C   UNL     1     107.707 111.389 116.042  1.00  0.00     0.161 A 
ATOM      2  C   UNL     1     108.648 112.432 115.960  1.00  0.00     0.157 A 
ATOM      3  C   UNL     1     109.075 113.085 117.121  1.00  0.00     0.051 A 
ATOM      4  C   UNL     1     108.574 112.708 118.368  1.00  0.00     0.015 A 
ATOM      5  C   UNL     1     107.636 111.672 118.470  1.00  0.00     0.018 A 
ATOM      6  C   UNL     1     107.205 111.015 117.305  1.00  0.00     0.062 A 
ENDROOT
BRANCH   1   7
ATOM      7  O   UNL     1     107.297 110.752 114.860  1.00  0.00    -0.493 OA
ATOM      8  C   UNL     1     107.305 109.343 114.655  1.00  0.00     0.278 C 
ENDBRANCH   1   7
BRANCH   2   9
ATOM      9  O   UNL     1     109.172 112.835 114.730  1.00  0.00    -0.504 OA
ATOM     10  H   UNL     1     108.649 112.748 113.867  1.00  0.00     0.293 HD
ENDBRANCH   2   9
BRANCH   5  11
ATOM     11  C   UNL     1     107.119 111.290 119.799  1.00  0.00     0.260 C 
ATOM     12  O   UNL     1     106.875 112.161 120.676  1.00  0.00    -0.298 OA
ENDBRANCH   5  11
TORSDOF 3
ENDMDL
MODEL 3
REMARK VINA RESULT:    -3.200     13.709     14.264
REMARK INTER + INTRA:          -3.727
REMARK INTER:                  -3.666
REMARK INTRA:                  -0.061
REMARK UNBOUND:                -0.060
REMARK SMILES COc1cc(C=O)ccc1O
REMARK SMILES IDX 3 1 10 2 9 3 8 4 5 5 4 6 2 7 1 8 11 9 6 11 7 12
REMARK H PARENT 11 10
REMARK Flexibility Score: inf
ROOT
ATOM      1  C   UNL     1     125.329 121.826 116.295  1.00  0.00     0.161 A 
ATOM      2  C   UNL     1     124.362 120.804 116.300  1.00  0.00     0.157 A 
ATOM      3  C   UNL     1     124.015 120.173 117.499  1.00  0.00     0.051 A 
ATOM      4  C   UNL     1     124.622 120.550 118.698  1.00  0.00     0.015 A 
ATOM      5  C   UNL     1     125.588 121.567 118.713  1.00  0.00     0.018 A 
ATOM      6  C   UNL     1     125.938 122.202 117.510  1.00  0.00     0.062 A 
ENDROOT
BRANCH   1   7
ATOM      7  O   UNL     1     125.658 122.442 115.076  1.00  0.00    -0.493 OA
ATOM      8  C   UNL     1     125.920 123.832 114.917  1.00  0.00     0.278 C 
ENDBRANCH   1   7
BRANCH   2   9
ATOM      9  O   UNL     1     123.734 120.400 115.121  1.00  0.00    -0.504 OA
ATOM     10  H   UNL     1     123.315 121.062 114.479  1.00  0.00     0.293 HD
ENDBRANCH   2   9
BRANCH   5  11
ATOM     11  C   UNL     1     126.217 121.950 119.991  1.00  0.00     0.260 C 
ATOM     12  O   UNL     1     126.243 121.155 120.967  1.00  0.00    -0.298 OA
ENDBRANCH   5  11
TORSDOF 3
ENDMDL
MODEL 4
REMARK VINA RESULT:    -3.074     18.463     20.169
REMARK INTER + INTRA:          -3.583
REMARK INTER:                  -3.513
REMARK INTRA:                  -0.071
REMARK UNBOUND:                -0.060
REMARK SMILES COc1cc(C=O)ccc1O
REMARK SMILES IDX 3 1 10 2 9 3 8 4 5 5 4 6 2 7 1 8 11 9 6 11 7 12
REMARK H PARENT 11 10
REMARK Flexibility Score: inf
ROOT
ATOM      1  C   UNL     1     111.366 125.569 116.118  1.00  0.00     0.161 A 
ATOM      2  C   UNL     1     112.372 124.585 116.150  1.00  0.00     0.157 A 
ATOM      3  C   UNL     1     113.007 124.271 117.355  1.00  0.00     0.051 A 
ATOM      4  C   UNL     1     112.652 124.926 118.534  1.00  0.00     0.015 A 
ATOM      5  C   UNL     1     111.652 125.910 118.523  1.00  0.00     0.018 A 
ATOM      6  C   UNL     1     111.012 126.228 117.314  1.00  0.00     0.062 A 
ENDROOT
BRANCH   1   7
ATOM      7  O   UNL     1     110.745 125.864 114.894  1.00  0.00    -0.493 OA
ATOM      8  C   UNL     1     109.348 125.750 114.648  1.00  0.00     0.278 C 
ENDBRANCH   1   7
BRANCH   2   9
ATOM      9  O   UNL     1     112.754 123.908 114.991  1.00  0.00    -0.504 OA
ATOM     10  H   UNL     1     112.872 122.902 114.968  1.00  0.00     0.293 HD
ENDBRANCH   2   9
BRANCH   5  11
ATOM     11  C   UNL     1     111.291 126.591 119.781  1.00  0.00     0.260 C 
ATOM     12  O   UNL     1     112.025 126.505 120.801  1.00  0.00    -0.298 OA
ENDBRANCH   5  11
TORSDOF 3
ENDMDL
MODEL 5
REMARK VINA RESULT:    -3.073     13.958     14.687
REMARK INTER + INTRA:          -3.582
REMARK INTER:                  -3.504
REMARK INTRA:                  -0.078
REMARK UNBOUND:                -0.060
REMARK SMILES COc1cc(C=O)ccc1O
REMARK SMILES IDX 3 1 10 2 9 3 8 4 5 5 4 6 2 7 1 8 11 9 6 11 7 12
REMARK H PARENT 11 10
REMARK Flexibility Score: inf
ROOT
ATOM      1  C   UNL     1     125.899 122.723 116.953  1.00  0.00     0.161 A 
ATOM      2  C   UNL     1     125.733 122.287 115.625  1.00  0.00     0.157 A 
ATOM      3  C   UNL     1     125.043 121.100 115.358  1.00  0.00     0.051 A 
ATOM      4  C   UNL     1     124.513 120.340 116.402  1.00  0.00     0.015 A 
ATOM      5  C   UNL     1     124.668 120.759 117.731  1.00  0.00     0.018 A 
ATOM      6  C   UNL     1     125.361 121.950 118.002  1.00  0.00     0.062 A 
ENDROOT
BRANCH   1   7
ATOM      7  O   UNL     1     126.596 123.918 117.191  1.00  0.00    -0.493 OA
ATOM      8  C   UNL     1     125.991 125.141 117.596  1.00  0.00     0.278 C 
ENDBRANCH   1   7
BRANCH   2   9
ATOM      9  O   UNL     1     126.249 123.020 114.556  1.00  0.00    -0.504 OA
ATOM     10  H   UNL     1     126.930 123.758 114.687  1.00  0.00     0.293 HD
ENDBRANCH   2   9
BRANCH   5  11
ATOM     11  C   UNL     1     124.100 119.940 118.820  1.00  0.00     0.260 C 
ATOM     12  O   UNL     1     123.348 118.960 118.572  1.00  0.00    -0.298 OA
ENDBRANCH   5  11
TORSDOF 3
ENDMDL
MODEL 6
REMARK VINA RESULT:    -3.030     18.616     20.403
REMARK INTER + INTRA:          -3.532
REMARK INTER:                  -3.463
REMARK INTRA:                  -0.069
REMARK UNBOUND:                -0.060
REMARK SMILES COc1cc(C=O)ccc1O
REMARK SMILES IDX 3 1 10 2 9 3 8 4 5 5 4 6 2 7 1 8 11 9 6 11 7 12
REMARK H PARENT 11 10
REMARK Flexibility Score: inf
ROOT
ATOM      1  C   UNL     1     110.636 126.269 116.970  1.00  0.00     0.161 A 
ATOM      2  C   UNL     1     110.981 126.043 115.625  1.00  0.00     0.157 A 
ATOM      3  C   UNL     1     112.076 125.234 115.308  1.00  0.00     0.051 A 
ATOM      4  C   UNL     1     112.835 124.644 116.319  1.00  0.00     0.015 A 
ATOM      5  C   UNL     1     112.507 124.857 117.666  1.00  0.00     0.018 A 
ATOM      6  C   UNL     1     111.407 125.669 117.987  1.00  0.00     0.062 A 
ENDROOT
BRANCH   1   7
ATOM      7  O   UNL     1     109.531 127.086 117.258  1.00  0.00    -0.493 OA
ATOM      8  C   UNL     1     108.414 126.687 118.046  1.00  0.00     0.278 C 
ENDBRANCH   1   7
BRANCH   2   9
ATOM      9  O   UNL     1     110.245 126.616 114.586  1.00  0.00    -0.504 OA
ATOM     10  H   UNL     1     110.646 126.791 113.673  1.00  0.00     0.293 HD
ENDBRANCH   2   9
BRANCH   5  11
ATOM     11  C   UNL     1     113.323 124.223 118.719  1.00  0.00     0.260 C 
ATOM     12  O   UNL     1     114.485 123.800 118.477  1.00  0.00    -0.298 OA
ENDBRANCH   5  11
TORSDOF 3
ENDMDL
MODEL 7
REMARK VINA RESULT:    -2.992      1.891      2.496
REMARK INTER + INTRA:          -3.488
REMARK INTER:                  -3.413
REMARK INTRA:                  -0.075
REMARK UNBOUND:                -0.060
REMARK SMILES COc1cc(C=O)ccc1O
REMARK SMILES IDX 3 1 10 2 9 3 8 4 5 5 4 6 2 7 1 8 11 9 6 11 7 12
REMARK H PARENT 11 10
REMARK Flexibility Score: inf
ROOT
ATOM      1  C   UNL     1     122.362 107.540 116.907  1.00  0.00     0.161 A 
ATOM      2  C   UNL     1     121.802 107.668 115.623  1.00  0.00     0.157 A 
ATOM      3  C   UNL     1     120.579 108.325 115.454  1.00  0.00     0.051 A 
ATOM      4  C   UNL     1     119.905 108.859 116.553  1.00  0.00     0.015 A 
ATOM      5  C   UNL     1     120.448 108.741 117.841  1.00  0.00     0.018 A 
ATOM      6  C   UNL     1     121.676 108.081 118.014  1.00  0.00     0.062 A 
ENDROOT
BRANCH   1   7
ATOM      7  O   UNL     1     123.591 106.875 117.047  1.00  0.00    -0.493 OA
ATOM      8  C   UNL     1     124.806 107.498 117.451  1.00  0.00     0.278 C 
ENDBRANCH   1   7
BRANCH   2   9
ATOM      9  O   UNL     1     122.447 107.148 114.500  1.00  0.00    -0.504 OA
ATOM     10  H   UNL     1     123.271 106.565 114.574  1.00  0.00     0.293 HD
ENDBRANCH   2   9
BRANCH   5  11
ATOM     11  C   UNL     1     119.719 109.313 118.990  1.00  0.00     0.260 C 
ATOM     12  O   UNL     1     118.594 109.859 118.840  1.00  0.00    -0.298 OA
ENDBRANCH   5  11
TORSDOF 3
ENDMDL
MODEL 8
REMARK VINA RESULT:    -2.881      8.797     10.150
REMARK INTER + INTRA:          -3.361
REMARK INTER:                  -3.283
REMARK INTRA:                  -0.078
REMARK UNBOUND:                -0.060
REMARK SMILES COc1cc(C=O)ccc1O
REMARK SMILES IDX 3 1 10 2 9 3 8 4 5 5 4 6 2 7 1 8 11 9 6 11 7 12
REMARK H PARENT 11 10
REMARK Flexibility Score: inf
ROOT
ATOM      1  C   UNL     1     114.189 113.664 115.375  1.00  0.00     0.161 A 
ATOM      2  C   UNL     1     113.265 113.262 114.393  1.00  0.00     0.157 A 
ATOM      3  C   UNL     1     113.625 113.280 113.042  1.00  0.00     0.051 A 
ATOM      4  C   UNL     1     114.901 113.694 112.656  1.00  0.00     0.015 A 
ATOM      5  C   UNL     1     115.835 114.099 113.619  1.00  0.00     0.018 A 
ATOM      6  C   UNL     1     115.476 114.082 114.977  1.00  0.00     0.062 A 
ENDROOT
BRANCH   1   7
ATOM      7  O   UNL     1     113.800 113.636 116.724  1.00  0.00    -0.493 OA
ATOM      8  C   UNL     1     113.371 114.773 117.465  1.00  0.00     0.278 C 
ENDBRANCH   1   7
BRANCH   2   9
ATOM      9  O   UNL     1     111.981 112.840 114.741  1.00  0.00    -0.504 OA
ATOM     10  H   UNL     1     111.317 112.510 114.053  1.00  0.00     0.293 HD
ENDBRANCH   2   9
BRANCH   5  11
ATOM     11  C   UNL     1     117.178 114.534 113.189  1.00  0.00     0.260 C 
ATOM     12  O   UNL     1     117.684 114.115 112.114  1.00  0.00    -0.298 OA
ENDBRANCH   5  11
TORSDOF 3
ENDMDL
MODEL 9
REMARK VINA RESULT:    -2.870     13.728     14.801
REMARK INTER + INTRA:          -3.349
REMARK INTER:                  -3.277
REMARK INTRA:                  -0.072
REMARK UNBOUND:                -0.060
REMARK SMILES COc1cc(C=O)ccc1O
REMARK SMILES IDX 3 1 10 2 9 3 8 4 5 5 4 6 2 7 1 8 11 9 6 11 7 12
REMARK H PARENT 11 10
REMARK Flexibility Score: inf
ROOT
ATOM      1  C   UNL     1     124.863 121.303 118.122  1.00  0.00     0.161 A 
ATOM      2  C   UNL     1     124.442 120.240 117.301  1.00  0.00     0.157 A 
ATOM      3  C   UNL     1     124.632 120.305 115.917  1.00  0.00     0.051 A 
ATOM      4  C   UNL     1     125.240 121.420 115.338  1.00  0.00     0.015 A 
ATOM      5  C   UNL     1     125.666 122.489 116.139  1.00  0.00     0.018 A 
ATOM      6  C   UNL     1     125.476 122.427 117.530  1.00  0.00     0.062 A 
ENDROOT
BRANCH   1   7
ATOM      7  O   UNL     1     124.659 121.210 119.508  1.00  0.00    -0.493 OA
ATOM      8  C   UNL     1     125.701 121.161 120.477  1.00  0.00     0.278 C 
ENDBRANCH   1   7
BRANCH   2   9
ATOM      9  O   UNL     1     123.831 119.109 117.844  1.00  0.00    -0.504 OA
ATOM     10  H   UNL     1     123.693 118.997 118.841  1.00  0.00     0.293 HD
ENDBRANCH   2   9
BRANCH   5  11
ATOM     11  C   UNL     1     126.306 123.659 115.507  1.00  0.00     0.260 C 
ATOM     12  O   UNL     1     125.949 124.058 114.367  1.00  0.00    -0.298 OA
ENDBRANCH   5  11
TORSDOF 3
ENDMDL
