MODEL 1
REMARK VINA RESULT:    11.832      0.000      0.000
REMARK INTER + INTRA:          23.449
REMARK INTER:                  18.403
REMARK INTRA:                   5.047
REMARK UNBOUND:                 5.047
REMARK SMILES C[C@]12C[C@]3(O)O[C@H](O1)[C@@]1(COC(=O)c4ccccc4)[C@@H]3C[C@]12O[C@H]1O[C@H](CO)[C@@H](O)[C@H](O)[C@@H]1O
REMARK SMILES IDX 1 1 2 2 3 3 4 4 20 5 21 6 22 7 9 8 7 9 8 10 6 11 23 12 24 13
REMARK SMILES IDX 33 14 25 15 31 16 26 17 29 18 34 19 32 21 27 23 28 24 30 26
REMARK SMILES IDX 5 28 10 30 11 31 12 32 13 33 14 34 15 35 19 36 16 37 18 38
REMARK SMILES IDX 17 39
REMARK H PARENT 34 20 32 22 28 25 30 27 5 29
REMARK Flexibility Score: inf
ROOT
ATOM      1  C   UNL     1      10.266 -13.962 -27.246  1.00  0.00     0.046 C 
ATOM      2  C   UNL     1      11.091 -12.896 -27.971  1.00  0.00     0.104 C 
ATOM      3  C   UNL     1      10.742 -12.854 -29.507  1.00  0.00     0.104 C 
ATOM      4  C   UNL     1      11.600 -11.662 -30.051  1.00  0.00     0.175 C 
ATOM      5  C   UNL     1      11.416 -10.402 -29.151  1.00  0.00     0.070 C 
ATOM      6  C   UNL     1      10.174 -10.490 -28.258  1.00  0.00     0.050 C 
ATOM      7  C   UNL     1      10.986 -11.439 -27.363  1.00  0.00     0.115 C 
ATOM      8  C   UNL     1      12.266 -10.845 -27.962  1.00  0.00     0.096 C 
ATOM      9  C   UNL     1      13.093 -12.027 -28.451  1.00  0.00     0.267 C 
ATOM     10  O   UNL     1      12.474 -13.193 -27.921  1.00  0.00    -0.342 OA
ATOM     11  O   UNL     1      12.955 -12.035 -29.862  1.00  0.00    -0.320 OA
ENDROOT
BRANCH   7  12
ATOM     12  O   UNL     1      10.672 -11.256 -25.984  1.00  0.00    -0.339 OA
BRANCH  12  13
ATOM     13  C   UNL     1      11.788 -11.246 -25.103  1.00  0.00     0.282 C 
ATOM     14  C   UNL     1      12.778 -12.367 -25.491  1.00  0.00     0.202 C 
ATOM     15  O   UNL     1      11.374 -11.408 -23.754  1.00  0.00    -0.341 OA
ATOM     16  C   UNL     1      12.161 -13.755 -25.226  1.00  0.00     0.179 C 
ATOM     17  C   UNL     1      10.678 -12.627 -23.546  1.00  0.00     0.178 C 
ATOM     18  C   UNL     1      11.612 -13.832 -23.797  1.00  0.00     0.177 C 
BRANCH  14  19
ATOM     19  O   UNL     1      13.962 -12.210 -24.746  1.00  0.00    -0.385 OA
ATOM     20  H   UNL     1      14.368 -13.112 -24.650  1.00  0.00     0.211 HD
ENDBRANCH  14  19
BRANCH  16  21
ATOM     21  O   UNL     1      13.115 -14.769 -25.418  1.00  0.00    -0.387 OA
ATOM     22  H   UNL     1      12.642 -15.632 -25.303  1.00  0.00     0.211 HD
ENDBRANCH  16  21
BRANCH  17  23
ATOM     23  C   UNL     1      10.113 -12.626 -22.116  1.00  0.00     0.191 C 
BRANCH  23  24
ATOM     24  O   UNL     1      10.334 -11.391 -21.485  1.00  0.00    -0.394 OA
ATOM     25  H   UNL     1       9.578 -11.253 -20.858  1.00  0.00     0.210 HD
ENDBRANCH  23  24
ENDBRANCH  17  23
BRANCH  18  26
ATOM     26  O   UNL     1      10.904 -15.038 -23.648  1.00  0.00    -0.387 OA
ATOM     27  H   UNL     1      11.368 -15.562 -22.943  1.00  0.00     0.211 HD
ENDBRANCH  18  26
ENDBRANCH  12  13
ENDBRANCH   7  12
BRANCH   4  28
ATOM     28  O   UNL     1      11.296 -11.383 -31.395  1.00  0.00    -0.365 OA
ATOM     29  H   UNL     1      10.936 -10.460 -31.449  1.00  0.00     0.214 HD
ENDBRANCH   4  28
BRANCH   8  30
ATOM     30  C   UNL     1      13.026  -9.721 -27.231  1.00  0.00     0.249 C 
BRANCH  30  31
ATOM     31  O   UNL     1      12.792  -8.465 -27.867  1.00  0.00    -0.461 OA
BRANCH  31  32
ATOM     32  C   UNL     1      13.757  -7.759 -28.596  1.00  0.00     0.338 C 
ATOM     33  O   UNL     1      14.758  -8.358 -29.079  1.00  0.00    -0.246 OA
BRANCH  32  34
ATOM     34  C   UNL     1      13.595  -6.302 -28.799  1.00  0.00     0.060 A 
ATOM     35  C   UNL     1      12.323  -5.760 -29.064  1.00  0.00     0.015 A 
ATOM     36  C   UNL     1      14.702  -5.437 -28.728  1.00  0.00     0.015 A 
ATOM     37  C   UNL     1      12.165  -4.384 -29.251  1.00  0.00     0.001 A 
ATOM     38  C   UNL     1      14.538  -4.060 -28.916  1.00  0.00     0.001 A 
ATOM     39  C   UNL     1      13.271  -3.535 -29.178  1.00  0.00     0.000 A 
ENDBRANCH  32  34
ENDBRANCH  31  32
ENDBRANCH  30  31
ENDBRANCH   8  30
TORSDOF 12
ENDMDL
MODEL 2
REMARK VINA RESULT:    12.254      2.085      4.433
REMARK INTER + INTRA:          24.107
REMARK INTER:                  22.203
REMARK INTRA:                   1.904
REMARK UNBOUND:                 5.047
REMARK SMILES C[C@]12C[C@]3(O)O[C@H](O1)[C@@]1(COC(=O)c4ccccc4)[C@@H]3C[C@]12O[C@H]1O[C@H](CO)[C@@H](O)[C@H](O)[C@@H]1O
REMARK SMILES IDX 1 1 2 2 3 3 4 4 20 5 21 6 22 7 9 8 7 9 8 10 6 11 23 12 24 13
REMARK SMILES IDX 33 14 25 15 31 16 26 17 29 18 34 19 32 21 27 23 28 24 30 26
REMARK SMILES IDX 5 28 10 30 11 31 12 32 13 33 14 34 15 35 19 36 16 37 18 38
REMARK SMILES IDX 17 39
REMARK H PARENT 34 20 32 22 28 25 30 27 5 29
REMARK Flexibility Score: inf
ROOT
ATOM      1  C   UNL     1      13.575 -14.101 -27.133  1.00  0.00     0.046 C 
ATOM      2  C   UNL     1      13.893 -12.671 -26.688  1.00  0.00     0.104 C 
ATOM      3  C   UNL     1      15.408 -12.528 -26.278  1.00  0.00     0.104 C 
ATOM      4  C   UNL     1      15.562 -11.004 -25.950  1.00  0.00     0.175 C 
ATOM      5  C   UNL     1      14.954 -10.136 -27.094  1.00  0.00     0.070 C 
ATOM      6  C   UNL     1      14.759 -10.924 -28.394  1.00  0.00     0.050 C 
ATOM      7  C   UNL     1      13.518 -11.546 -27.734  1.00  0.00     0.115 C 
ATOM      8  C   UNL     1      13.474 -10.347 -26.778  1.00  0.00     0.096 C 
ATOM      9  C   UNL     1      13.421 -10.929 -25.371  1.00  0.00     0.267 C 
ATOM     10  O   UNL     1      13.167 -12.320 -25.524  1.00  0.00    -0.342 OA
ATOM     11  O   UNL     1      14.721 -10.756 -24.835  1.00  0.00    -0.320 OA
ENDROOT
BRANCH   7  12
ATOM     12  O   UNL     1      12.473 -11.762 -28.681  1.00  0.00    -0.339 OA
BRANCH  12  13
ATOM     13  C   UNL     1      11.167 -11.427 -28.232  1.00  0.00     0.282 C 
ATOM     14  C   UNL     1      10.744 -12.369 -27.083  1.00  0.00     0.202 C 
ATOM     15  O   UNL     1      10.228 -11.503 -29.294  1.00  0.00    -0.341 OA
ATOM     16  C   UNL     1      10.556 -13.810 -27.602  1.00  0.00     0.179 C 
ATOM     17  C   UNL     1      10.162 -12.801 -29.865  1.00  0.00     0.178 C 
ATOM     18  C   UNL     1       9.637 -13.820 -28.829  1.00  0.00     0.177 C 
BRANCH  14  19
ATOM     19  O   UNL     1       9.546 -11.894 -26.519  1.00  0.00    -0.385 OA
ATOM     20  H   UNL     1       8.834 -12.016 -27.201  1.00  0.00     0.211 HD
ENDBRANCH  14  19
BRANCH  16  21
ATOM     21  O   UNL     1      10.011 -14.631 -26.601  1.00  0.00    -0.387 OA
ATOM     22  H   UNL     1      10.555 -14.487 -25.784  1.00  0.00     0.211 HD
ENDBRANCH  16  21
BRANCH  17  23
ATOM     23  C   UNL     1       9.268 -12.739 -31.114  1.00  0.00     0.191 C 
BRANCH  23  24
ATOM     24  O   UNL     1       8.124 -13.538 -30.958  1.00  0.00    -0.394 OA
ATOM     25  H   UNL     1       7.887 -13.876 -31.860  1.00  0.00     0.210 HD
ENDBRANCH  23  24
ENDBRANCH  17  23
BRANCH  18  26
ATOM     26  O   UNL     1       9.629 -15.115 -29.378  1.00  0.00    -0.387 OA
ATOM     27  H   UNL     1       9.336 -15.029 -30.323  1.00  0.00     0.211 HD
ENDBRANCH  18  26
ENDBRANCH  12  13
ENDBRANCH   7  12
BRANCH   4  28
ATOM     28  O   UNL     1      16.904 -10.665 -25.705  1.00  0.00    -0.365 OA
ATOM     29  H   UNL     1      16.923  -9.834 -25.164  1.00  0.00     0.214 HD
ENDBRANCH   4  28
BRANCH   8  30
ATOM     30  C   UNL     1      12.554  -9.146 -27.068  1.00  0.00     0.249 C 
BRANCH  30  31
ATOM     31  O   UNL     1      13.242  -8.166 -27.846  1.00  0.00    -0.461 OA
BRANCH  31  32
ATOM     32  C   UNL     1      12.610  -7.138 -28.556  1.00  0.00     0.338 C 
ATOM     33  O   UNL     1      11.496  -7.339 -29.115  1.00  0.00    -0.246 OA
BRANCH  32  34
ATOM     34  C   UNL     1      13.257  -5.810 -28.646  1.00  0.00     0.060 A 
ATOM     35  C   UNL     1      14.052  -5.335 -27.586  1.00  0.00     0.015 A 
ATOM     36  C   UNL     1      13.093  -5.004 -29.788  1.00  0.00     0.015 A 
ATOM     37  C   UNL     1      14.669  -4.084 -27.670  1.00  0.00     0.001 A 
ATOM     38  C   UNL     1      13.712  -3.752 -29.866  1.00  0.00     0.001 A 
ATOM     39  C   UNL     1      14.499  -3.293 -28.808  1.00  0.00     0.000 A 
ENDBRANCH  32  34
ENDBRANCH  31  32
ENDBRANCH  30  31
ENDBRANCH   8  30
TORSDOF 12
ENDMDL
MODEL 3
REMARK VINA RESULT:    12.847      1.740      7.618
REMARK INTER + INTRA:          25.028
REMARK INTER:                  23.510
REMARK INTRA:                   1.519
REMARK UNBOUND:                 5.047
REMARK SMILES C[C@]12C[C@]3(O)O[C@H](O1)[C@@]1(COC(=O)c4ccccc4)[C@@H]3C[C@]12O[C@H]1O[C@H](CO)[C@@H](O)[C@H](O)[C@@H]1O
REMARK SMILES IDX 1 1 2 2 3 3 4 4 20 5 21 6 22 7 9 8 7 9 8 10 6 11 23 12 24 13
REMARK SMILES IDX 33 14 25 15 31 16 26 17 29 18 34 19 32 21 27 23 28 24 30 26
REMARK SMILES IDX 5 28 10 30 11 31 12 32 13 33 14 34 15 35 19 36 16 37 18 38
REMARK SMILES IDX 17 39
REMARK H PARENT 34 20 32 22 28 25 30 27 5 29
REMARK Flexibility Score: inf
ROOT
ATOM      1  C   UNL     1      12.213 -11.034 -30.683  1.00  0.00     0.046 C 
ATOM      2  C   UNL     1      12.007 -11.437 -29.220  1.00  0.00     0.104 C 
ATOM      3  C   UNL     1      12.710 -12.810 -28.905  1.00  0.00     0.104 C 
ATOM      4  C   UNL     1      12.475 -13.005 -27.368  1.00  0.00     0.175 C 
ATOM      5  C   UNL     1      12.858 -11.709 -26.590  1.00  0.00     0.070 C 
ATOM      6  C   UNL     1      13.738 -10.763 -27.414  1.00  0.00     0.050 C 
ATOM      7  C   UNL     1      12.457 -10.354 -28.159  1.00  0.00     0.115 C 
ATOM      8  C   UNL     1      11.646 -10.855 -26.958  1.00  0.00     0.096 C 
ATOM      9  C   UNL     1      10.607 -11.817 -27.521  1.00  0.00     0.267 C 
ATOM     10  O   UNL     1      10.638 -11.655 -28.934  1.00  0.00    -0.342 OA
ATOM     11  O   UNL     1      11.072 -13.116 -27.198  1.00  0.00    -0.320 OA
ENDROOT
BRANCH   7  12
ATOM     12  O   UNL     1      12.471  -8.970 -28.504  1.00  0.00    -0.339 OA
BRANCH  12  13
ATOM     13  C   UNL     1      13.280  -8.145 -27.676  1.00  0.00     0.282 C 
ATOM     14  C   UNL     1      12.613  -6.764 -27.490  1.00  0.00     0.202 C 
ATOM     15  O   UNL     1      14.579  -7.987 -28.228  1.00  0.00    -0.341 OA
ATOM     16  C   UNL     1      12.598  -5.983 -28.821  1.00  0.00     0.179 C 
ATOM     17  C   UNL     1      14.550  -7.397 -29.518  1.00  0.00     0.178 C 
ATOM     18  C   UNL     1      14.000  -5.955 -29.440  1.00  0.00     0.177 C 
BRANCH  14  19
ATOM     19  O   UNL     1      13.319  -6.042 -26.510  1.00  0.00    -0.385 OA
ATOM     20  H   UNL     1      14.035  -5.537 -26.979  1.00  0.00     0.211 HD
ENDBRANCH  14  19
BRANCH  16  21
ATOM     21  O   UNL     1      12.147  -4.667 -28.620  1.00  0.00    -0.387 OA
ATOM     22  H   UNL     1      12.699  -4.085 -29.203  1.00  0.00     0.211 HD
ENDBRANCH  16  21
BRANCH  17  23
ATOM     23  C   UNL     1      15.970  -7.440 -30.105  1.00  0.00     0.191 C 
BRANCH  23  24
ATOM     24  O   UNL     1      16.000  -6.894 -31.398  1.00  0.00    -0.394 OA
ATOM     25  H   UNL     1      16.202  -5.928 -31.294  1.00  0.00     0.210 HD
ENDBRANCH  23  24
ENDBRANCH  17  23
BRANCH  18  26
ATOM     26  O   UNL     1      13.916  -5.394 -30.727  1.00  0.00    -0.387 OA
ATOM     27  H   UNL     1      13.060  -4.893 -30.770  1.00  0.00     0.211 HD
ENDBRANCH  18  26
ENDBRANCH  12  13
ENDBRANCH   7  12
BRANCH   4  28
ATOM     28  O   UNL     1      13.173 -14.123 -26.880  1.00  0.00    -0.365 OA
ATOM     29  H   UNL     1      12.655 -14.510 -26.127  1.00  0.00     0.214 HD
ENDBRANCH   4  28
BRANCH   8  30
ATOM     30  C   UNL     1      11.167  -9.875 -25.870  1.00  0.00     0.249 C 
BRANCH  30  31
ATOM     31  O   UNL     1      10.708 -10.588 -24.722  1.00  0.00    -0.461 OA
BRANCH  31  32
ATOM     32  C   UNL     1      11.473 -11.529 -24.021  1.00  0.00     0.338 C 
ATOM     33  O   UNL     1      12.699 -11.320 -23.802  1.00  0.00    -0.246 OA
BRANCH  32  34
ATOM     34  C   UNL     1      10.834 -12.772 -23.536  1.00  0.00     0.060 A 
ATOM     35  C   UNL     1      10.156 -12.786 -22.303  1.00  0.00     0.015 A 
ATOM     36  C   UNL     1      10.888 -13.955 -24.298  1.00  0.00     0.015 A 
ATOM     37  C   UNL     1       9.546 -13.957 -21.844  1.00  0.00     0.001 A 
ATOM     38  C   UNL     1      10.276 -15.124 -23.833  1.00  0.00     0.001 A 
ATOM     39  C   UNL     1       9.606 -15.125 -22.608  1.00  0.00     0.000 A 
ENDBRANCH  32  34
ENDBRANCH  31  32
ENDBRANCH  30  31
ENDBRANCH   8  30
TORSDOF 12
ENDMDL
MODEL 4
REMARK VINA RESULT:    13.263      1.774      7.524
REMARK INTER + INTRA:          25.675
REMARK INTER:                  24.215
REMARK INTRA:                   1.460
REMARK UNBOUND:                 5.047
REMARK SMILES C[C@]12C[C@]3(O)O[C@H](O1)[C@@]1(COC(=O)c4ccccc4)[C@@H]3C[C@]12O[C@H]1O[C@H](CO)[C@@H](O)[C@H](O)[C@@H]1O
REMARK SMILES IDX 1 1 2 2 3 3 4 4 20 5 21 6 22 7 9 8 7 9 8 10 6 11 23 12 24 13
REMARK SMILES IDX 33 14 25 15 31 16 26 17 29 18 34 19 32 21 27 23 28 24 30 26
REMARK SMILES IDX 5 28 10 30 11 31 12 32 13 33 14 34 15 35 19 36 16 37 18 38
REMARK SMILES IDX 17 39
REMARK H PARENT 34 20 32 22 28 25 30 27 5 29
REMARK Flexibility Score: inf
ROOT
ATOM      1  C   UNL     1      12.130 -10.670 -30.160  1.00  0.00     0.046 C 
ATOM      2  C   UNL     1      12.135 -11.197 -28.723  1.00  0.00     0.104 C 
ATOM      3  C   UNL     1      12.858 -12.594 -28.633  1.00  0.00     0.104 C 
ATOM      4  C   UNL     1      12.847 -12.920 -27.101  1.00  0.00     0.175 C 
ATOM      5  C   UNL     1      13.357 -11.697 -26.279  1.00  0.00     0.070 C 
ATOM      6  C   UNL     1      14.120 -10.684 -27.140  1.00  0.00     0.050 C 
ATOM      7  C   UNL     1      12.750 -10.211 -27.650  1.00  0.00     0.115 C 
ATOM      8  C   UNL     1      12.116 -10.814 -26.391  1.00  0.00     0.096 C 
ATOM      9  C   UNL     1      10.993 -11.722 -26.876  1.00  0.00     0.267 C 
ATOM     10  O   UNL     1      10.819 -11.438 -28.259  1.00  0.00    -0.342 OA
ATOM     11  O   UNL     1      11.482 -13.045 -26.737  1.00  0.00    -0.320 OA
ENDROOT
BRANCH   7  12
ATOM     12  O   UNL     1      12.732  -8.802 -27.874  1.00  0.00    -0.339 OA
BRANCH  12  13
ATOM     13  C   UNL     1      13.266  -8.378 -29.121  1.00  0.00     0.282 C 
ATOM     14  C   UNL     1      14.454  -7.418 -28.888  1.00  0.00     0.202 C 
ATOM     15  O   UNL     1      12.273  -7.740 -29.910  1.00  0.00    -0.341 OA
ATOM     16  C   UNL     1      13.969  -6.091 -28.268  1.00  0.00     0.179 C 
ATOM     17  C   UNL     1      11.726  -6.597 -29.271  1.00  0.00     0.178 C 
ATOM     18  C   UNL     1      12.809  -5.511 -29.086  1.00  0.00     0.177 C 
BRANCH  14  19
ATOM     19  O   UNL     1      15.094  -7.175 -30.118  1.00  0.00    -0.385 OA
ATOM     20  H   UNL     1      15.327  -6.209 -30.140  1.00  0.00     0.211 HD
ENDBRANCH  14  19
BRANCH  16  21
ATOM     21  O   UNL     1      15.017  -5.156 -28.212  1.00  0.00    -0.387 OA
ATOM     22  H   UNL     1      14.621  -4.302 -27.903  1.00  0.00     0.211 HD
ENDBRANCH  16  21
BRANCH  17  23
ATOM     23  C   UNL     1      10.542  -6.090 -30.110  1.00  0.00     0.191 C 
BRANCH  23  24
ATOM     24  O   UNL     1       9.708  -5.252 -29.353  1.00  0.00    -0.394 OA
ATOM     25  H   UNL     1       9.053  -4.857 -29.985  1.00  0.00     0.210 HD
ENDBRANCH  23  24
ENDBRANCH  17  23
BRANCH  18  26
ATOM     26  O   UNL     1      12.280  -4.405 -28.398  1.00  0.00    -0.387 OA
ATOM     27  H   UNL     1      12.984  -4.085 -27.776  1.00  0.00     0.211 HD
ENDBRANCH  18  26
ENDBRANCH  12  13
ENDBRANCH   7  12
BRANCH   4  28
ATOM     28  O   UNL     1      13.593 -14.078 -26.818  1.00  0.00    -0.365 OA
ATOM     29  H   UNL     1      13.345 -14.395 -25.912  1.00  0.00     0.214 HD
ENDBRANCH   4  28
BRANCH   8  30
ATOM     30  C   UNL     1      11.815  -9.931 -25.165  1.00  0.00     0.249 C 
BRANCH  30  31
ATOM     31  O   UNL     1      10.546 -10.270 -24.606  1.00  0.00    -0.461 OA
BRANCH  31  32
ATOM     32  C   UNL     1      10.371 -10.851 -23.343  1.00  0.00     0.338 C 
ATOM     33  O   UNL     1      10.231 -10.124 -22.320  1.00  0.00    -0.246 OA
BRANCH  32  34
ATOM     34  C   UNL     1      10.347 -12.325 -23.217  1.00  0.00     0.060 A 
ATOM     35  C   UNL     1       9.836 -12.929 -22.053  1.00  0.00     0.015 A 
ATOM     36  C   UNL     1      10.829 -13.145 -24.254  1.00  0.00     0.015 A 
ATOM     37  C   UNL     1       9.807 -14.321 -21.932  1.00  0.00     0.001 A 
ATOM     38  C   UNL     1      10.798 -14.538 -24.128  1.00  0.00     0.001 A 
ATOM     39  C   UNL     1      10.288 -15.125 -22.968  1.00  0.00     0.000 A 
ENDBRANCH  32  34
ENDBRANCH  31  32
ENDBRANCH  30  31
ENDBRANCH   8  30
TORSDOF 12
ENDMDL
MODEL 5
REMARK VINA RESULT:    13.440      1.869      3.866
REMARK INTER + INTRA:          25.951
REMARK INTER:                  14.723
REMARK INTRA:                  11.228
REMARK UNBOUND:                 5.047
REMARK SMILES C[C@]12C[C@]3(O)O[C@H](O1)[C@@]1(COC(=O)c4ccccc4)[C@@H]3C[C@]12O[C@H]1O[C@H](CO)[C@@H](O)[C@H](O)[C@@H]1O
REMARK SMILES IDX 1 1 2 2 3 3 4 4 20 5 21 6 22 7 9 8 7 9 8 10 6 11 23 12 24 13
REMARK SMILES IDX 33 14 25 15 31 16 26 17 29 18 34 19 32 21 27 23 28 24 30 26
REMARK SMILES IDX 5 28 10 30 11 31 12 32 13 33 14 34 15 35 19 36 16 37 18 38
REMARK SMILES IDX 17 39
REMARK H PARENT 34 20 32 22 28 25 30 27 5 29
REMARK Flexibility Score: inf
ROOT
ATOM      1  C   UNL     1      12.224 -12.148 -24.493  1.00  0.00     0.046 C 
ATOM      2  C   UNL     1      13.282 -11.791 -25.540  1.00  0.00     0.104 C 
ATOM      3  C   UNL     1      14.384 -12.913 -25.639  1.00  0.00     0.104 C 
ATOM      4  C   UNL     1      15.308 -12.424 -26.806  1.00  0.00     0.175 C 
ATOM      5  C   UNL     1      14.454 -12.024 -28.048  1.00  0.00     0.070 C 
ATOM      6  C   UNL     1      13.030 -12.589 -27.991  1.00  0.00     0.050 C 
ATOM      7  C   UNL     1      12.717 -11.473 -26.982  1.00  0.00     0.115 C 
ATOM      8  C   UNL     1      13.914 -10.691 -27.533  1.00  0.00     0.096 C 
ATOM      9  C   UNL     1      14.772 -10.325 -26.329  1.00  0.00     0.267 C 
ATOM     10  O   UNL     1      13.990 -10.619 -25.178  1.00  0.00    -0.342 OA
ATOM     11  O   UNL     1      15.882 -11.205 -26.366  1.00  0.00    -0.320 OA
ENDROOT
BRANCH   7  12
ATOM     12  O   UNL     1      11.387 -10.980 -27.141  1.00  0.00    -0.339 OA
BRANCH  12  13
ATOM     13  C   UNL     1      10.363 -11.816 -26.619  1.00  0.00     0.282 C 
ATOM     14  C   UNL     1      10.989 -13.013 -25.868  1.00  0.00     0.202 C 
ATOM     15  O   UNL     1       9.509 -12.283 -27.653  1.00  0.00    -0.341 OA
ATOM     16  C   UNL     1      11.713 -13.954 -26.852  1.00  0.00     0.179 C 
ATOM     17  C   UNL     1      10.210 -13.031 -28.635  1.00  0.00     0.178 C 
ATOM     18  C   UNL     1      10.789 -14.323 -28.018  1.00  0.00     0.177 C 
BRANCH  14  19
ATOM     19  O   UNL     1       9.972 -13.709 -25.188  1.00  0.00    -0.385 OA
ATOM     20  H   UNL     1       9.231 -13.848 -25.835  1.00  0.00     0.211 HD
ENDBRANCH  14  19
BRANCH  16  21
ATOM     21  O   UNL     1      12.136 -15.125 -26.200  1.00  0.00    -0.387 OA
ATOM     22  H   UNL     1      12.999 -14.911 -25.760  1.00  0.00     0.211 HD
ENDBRANCH  16  21
BRANCH  17  23
ATOM     23  C   UNL     1       9.247 -13.330 -29.796  1.00  0.00     0.191 C 
BRANCH  23  24
ATOM     24  O   UNL     1       9.500 -12.489 -30.892  1.00  0.00    -0.394 OA
ATOM     25  H   UNL     1       9.321 -11.562 -30.587  1.00  0.00     0.210 HD
ENDBRANCH  23  24
ENDBRANCH  17  23
BRANCH  18  26
ATOM     26  O   UNL     1      11.533 -15.032 -28.978  1.00  0.00    -0.387 OA
ATOM     27  H   UNL     1      12.165 -15.616 -28.483  1.00  0.00     0.211 HD
ENDBRANCH  18  26
ENDBRANCH  12  13
ENDBRANCH   7  12
BRANCH   4  28
ATOM     28  O   UNL     1      16.274 -13.392 -27.135  1.00  0.00    -0.365 OA
ATOM     29  H   UNL     1      15.915 -13.953 -27.871  1.00  0.00     0.214 HD
ENDBRANCH   4  28
BRANCH   8  30
ATOM     30  C   UNL     1      13.714  -9.598 -28.601  1.00  0.00     0.249 C 
BRANCH  30  31
ATOM     31  O   UNL     1      13.461  -8.337 -27.983  1.00  0.00    -0.461 OA
BRANCH  31  32
ATOM     32  C   UNL     1      12.700  -7.313 -28.562  1.00  0.00     0.338 C 
ATOM     33  O   UNL     1      11.532  -7.545 -28.981  1.00  0.00    -0.246 OA
BRANCH  32  34
ATOM     34  C   UNL     1      13.276  -5.955 -28.679  1.00  0.00     0.060 A 
ATOM     35  C   UNL     1      13.101  -5.210 -29.861  1.00  0.00     0.015 A 
ATOM     36  C   UNL     1      14.000  -5.386 -27.615  1.00  0.00     0.015 A 
ATOM     37  C   UNL     1      13.638  -3.924 -29.972  1.00  0.00     0.001 A 
ATOM     38  C   UNL     1      14.536  -4.099 -27.733  1.00  0.00     0.001 A 
ATOM     39  C   UNL     1      14.356  -3.369 -28.910  1.00  0.00     0.000 A 
ENDBRANCH  32  34
ENDBRANCH  31  32
ENDBRANCH  30  31
ENDBRANCH   8  30
TORSDOF 12
ENDMDL
MODEL 6
REMARK VINA RESULT:    14.272      1.442      2.846
REMARK INTER + INTRA:          27.245
REMARK INTER:                  15.626
REMARK INTRA:                  11.620
REMARK UNBOUND:                 5.047
REMARK SMILES C[C@]12C[C@]3(O)O[C@H](O1)[C@@]1(COC(=O)c4ccccc4)[C@@H]3C[C@]12O[C@H]1O[C@H](CO)[C@@H](O)[C@H](O)[C@@H]1O
REMARK SMILES IDX 1 1 2 2 3 3 4 4 20 5 21 6 22 7 9 8 7 9 8 10 6 11 23 12 24 13
REMARK SMILES IDX 33 14 25 15 31 16 26 17 29 18 34 19 32 21 27 23 28 24 30 26
REMARK SMILES IDX 5 28 10 30 11 31 12 32 13 33 14 34 15 35 19 36 16 37 18 38
REMARK SMILES IDX 17 39
REMARK H PARENT 34 20 32 22 28 25 30 27 5 29
REMARK Flexibility Score: inf
ROOT
ATOM      1  C   UNL     1      13.999 -12.868 -26.606  1.00  0.00     0.046 C 
ATOM      2  C   UNL     1      13.579 -11.673 -27.465  1.00  0.00     0.104 C 
ATOM      3  C   UNL     1      13.125 -12.136 -28.900  1.00  0.00     0.104 C 
ATOM      4  C   UNL     1      12.650 -10.810 -29.587  1.00  0.00     0.175 C 
ATOM      5  C   UNL     1      11.680 -10.028 -28.651  1.00  0.00     0.070 C 
ATOM      6  C   UNL     1      11.106 -10.904 -27.531  1.00  0.00     0.050 C 
ATOM      7  C   UNL     1      12.464 -10.749 -26.828  1.00  0.00     0.115 C 
ATOM      8  C   UNL     1      12.707  -9.485 -27.660  1.00  0.00     0.096 C 
ATOM      9  C   UNL     1      14.068  -9.667 -28.320  1.00  0.00     0.267 C 
ATOM     10  O   UNL     1      14.666 -10.796 -27.694  1.00  0.00    -0.342 OA
ATOM     11  O   UNL     1      13.798  -9.983 -29.675  1.00  0.00    -0.320 OA
ENDROOT
BRANCH   7  12
ATOM     12  O   UNL     1      12.315 -10.674 -25.411  1.00  0.00    -0.339 OA
BRANCH  12  13
ATOM     13  C   UNL     1      11.093 -11.189 -24.900  1.00  0.00     0.282 C 
ATOM     14  C   UNL     1      11.369 -12.420 -24.009  1.00  0.00     0.202 C 
ATOM     15  O   UNL     1      10.208 -11.541 -25.954  1.00  0.00    -0.341 OA
ATOM     16  C   UNL     1      11.897 -13.597 -24.854  1.00  0.00     0.179 C 
ATOM     17  C   UNL     1      10.759 -12.525 -26.816  1.00  0.00     0.178 C 
ATOM     18  C   UNL     1      10.975 -13.851 -26.053  1.00  0.00     0.177 C 
BRANCH  14  19
ATOM     19  O   UNL     1      10.180 -12.787 -23.353  1.00  0.00    -0.385 OA
ATOM     20  H   UNL     1       9.659 -13.349 -23.985  1.00  0.00     0.211 HD
ENDBRANCH  14  19
BRANCH  16  21
ATOM     21  O   UNL     1      11.989 -14.765 -24.078  1.00  0.00    -0.387 OA
ATOM     22  H   UNL     1      11.064 -15.103 -23.960  1.00  0.00     0.211 HD
ENDBRANCH  16  21
BRANCH  17  23
ATOM     23  C   UNL     1       9.817 -12.701 -28.018  1.00  0.00     0.191 C 
BRANCH  23  24
ATOM     24  O   UNL     1      10.272 -13.716 -28.874  1.00  0.00    -0.394 OA
ATOM     25  H   UNL     1       9.490 -14.007 -29.411  1.00  0.00     0.210 HD
ENDBRANCH  23  24
ENDBRANCH  17  23
BRANCH  18  26
ATOM     26  O   UNL     1      11.575 -14.805 -26.893  1.00  0.00    -0.387 OA
ATOM     27  H   UNL     1      10.983 -14.912 -27.682  1.00  0.00     0.211 HD
ENDBRANCH  18  26
ENDBRANCH  12  13
ENDBRANCH   7  12
BRANCH   4  28
ATOM     28  O   UNL     1      12.065 -11.063 -30.841  1.00  0.00    -0.365 OA
ATOM     29  H   UNL     1      12.575 -11.790 -31.282  1.00  0.00     0.214 HD
ENDBRANCH   4  28
BRANCH   8  30
ATOM     30  C   UNL     1      12.398  -8.091 -27.078  1.00  0.00     0.249 C 
BRANCH  30  31
ATOM     31  O   UNL     1      13.172  -7.092 -27.740  1.00  0.00    -0.461 OA
BRANCH  31  32
ATOM     32  C   UNL     1      12.659  -6.194 -28.685  1.00  0.00     0.338 C 
ATOM     33  O   UNL     1      11.645  -6.500 -29.371  1.00  0.00    -0.246 OA
BRANCH  32  34
ATOM     34  C   UNL     1      13.314  -4.880 -28.872  1.00  0.00     0.060 A 
ATOM     35  C   UNL     1      14.620  -4.663 -28.394  1.00  0.00     0.015 A 
ATOM     36  C   UNL     1      12.647  -3.831 -29.533  1.00  0.00     0.015 A 
ATOM     37  C   UNL     1      15.243  -3.425 -28.574  1.00  0.00     0.001 A 
ATOM     38  C   UNL     1      13.276  -2.594 -29.710  1.00  0.00     0.001 A 
ATOM     39  C   UNL     1      14.572  -2.391 -29.231  1.00  0.00     0.000 A 
ENDBRANCH  32  34
ENDBRANCH  31  32
ENDBRANCH  30  31
ENDBRANCH   8  30
TORSDOF 12
ENDMDL
MODEL 7
REMARK VINA RESULT:    14.326      1.838      7.116
REMARK INTER + INTRA:          27.329
REMARK INTER:                  24.767
REMARK INTRA:                   2.563
REMARK UNBOUND:                 5.047
REMARK SMILES C[C@]12C[C@]3(O)O[C@H](O1)[C@@]1(COC(=O)c4ccccc4)[C@@H]3C[C@]12O[C@H]1O[C@H](CO)[C@@H](O)[C@H](O)[C@@H]1O
REMARK SMILES IDX 1 1 2 2 3 3 4 4 20 5 21 6 22 7 9 8 7 9 8 10 6 11 23 12 24 13
REMARK SMILES IDX 33 14 25 15 31 16 26 17 29 18 34 19 32 21 27 23 28 24 30 26
REMARK SMILES IDX 5 28 10 30 11 31 12 32 13 33 14 34 15 35 19 36 16 37 18 38
REMARK SMILES IDX 17 39
REMARK H PARENT 34 20 32 22 28 25 30 27 5 29
REMARK Flexibility Score: inf
ROOT
ATOM      1  C   UNL     1      15.497 -10.617 -25.784  1.00  0.00     0.046 C 
ATOM      2  C   UNL     1      14.153 -11.166 -26.269  1.00  0.00     0.104 C 
ATOM      3  C   UNL     1      13.503 -12.111 -25.189  1.00  0.00     0.104 C 
ATOM      4  C   UNL     1      12.117 -12.492 -25.813  1.00  0.00     0.175 C 
ATOM      5  C   UNL     1      11.376 -11.214 -26.314  1.00  0.00     0.070 C 
ATOM      6  C   UNL     1      11.947  -9.925 -25.713  1.00  0.00     0.050 C 
ATOM      7  C   UNL     1      13.104 -10.070 -26.715  1.00  0.00     0.115 C 
ATOM      8  C   UNL     1      12.196 -10.955 -27.576  1.00  0.00     0.096 C 
ATOM      9  C   UNL     1      12.979 -12.234 -27.841  1.00  0.00     0.267 C 
ATOM     10  O   UNL     1      14.312 -11.981 -27.415  1.00  0.00    -0.342 OA
ATOM     11  O   UNL     1      12.407 -13.217 -26.996  1.00  0.00    -0.320 OA
ENDROOT
BRANCH   7  12
ATOM     12  O   UNL     1      13.548  -8.799 -27.190  1.00  0.00    -0.339 OA
BRANCH  12  13
ATOM     13  C   UNL     1      13.710  -8.701 -28.598  1.00  0.00     0.282 C 
ATOM     14  C   UNL     1      14.838  -7.698 -28.931  1.00  0.00     0.202 C 
ATOM     15  O   UNL     1      12.501  -8.297 -29.224  1.00  0.00    -0.341 OA
ATOM     16  C   UNL     1      14.423  -6.264 -28.545  1.00  0.00     0.179 C 
ATOM     17  C   UNL     1      12.046  -7.037 -28.758  1.00  0.00     0.178 C 
ATOM     18  C   UNL     1      13.050  -5.926 -29.138  1.00  0.00     0.177 C 
BRANCH  14  19
ATOM     19  O   UNL     1      15.122  -7.769 -30.308  1.00  0.00    -0.385 OA
ATOM     20  H   UNL     1      15.863  -8.421 -30.420  1.00  0.00     0.211 HD
ENDBRANCH  14  19
BRANCH  16  21
ATOM     21  O   UNL     1      15.373  -5.332 -28.999  1.00  0.00    -0.387 OA
ATOM     22  H   UNL     1      15.514  -4.686 -28.260  1.00  0.00     0.211 HD
ENDBRANCH  16  21
BRANCH  17  23
ATOM     23  C   UNL     1      10.650  -6.775 -29.347  1.00  0.00     0.191 C 
BRANCH  23  24
ATOM     24  O   UNL     1      10.708  -5.833 -30.387  1.00  0.00    -0.394 OA
ATOM     25  H   UNL     1      11.288  -6.222 -31.092  1.00  0.00     0.210 HD
ENDBRANCH  23  24
ENDBRANCH  17  23
BRANCH  18  26
ATOM     26  O   UNL     1      12.627  -4.687 -28.624  1.00  0.00    -0.387 OA
ATOM     27  H   UNL     1      12.585  -4.054 -29.388  1.00  0.00     0.211 HD
ENDBRANCH  18  26
ENDBRANCH  12  13
ENDBRANCH   7  12
BRANCH   4  28
ATOM     28  O   UNL     1      11.329 -13.222 -24.906  1.00  0.00    -0.365 OA
ATOM     29  H   UNL     1      10.422 -13.326 -25.294  1.00  0.00     0.214 HD
ENDBRANCH   4  28
BRANCH   8  30
ATOM     30  C   UNL     1      11.417 -10.359 -28.765  1.00  0.00     0.249 C 
BRANCH  30  31
ATOM     31  O   UNL     1      11.754 -11.038 -29.974  1.00  0.00    -0.461 OA
BRANCH  31  32
ATOM     32  C   UNL     1      10.841 -11.755 -30.757  1.00  0.00     0.338 C 
ATOM     33  O   UNL     1      10.623 -11.416 -31.954  1.00  0.00    -0.246 OA
BRANCH  32  34
ATOM     34  C   UNL     1      10.133 -12.915 -30.173  1.00  0.00     0.060 A 
ATOM     35  C   UNL     1       8.911 -13.350 -30.720  1.00  0.00     0.015 A 
ATOM     36  C   UNL     1      10.668 -13.603 -29.068  1.00  0.00     0.015 A 
ATOM     37  C   UNL     1       8.243 -14.449 -30.174  1.00  0.00     0.001 A 
ATOM     38  C   UNL     1       9.994 -14.703 -28.525  1.00  0.00     0.001 A 
ATOM     39  C   UNL     1       8.783 -15.125 -29.077  1.00  0.00     0.000 A 
ENDBRANCH  32  34
ENDBRANCH  31  32
ENDBRANCH  30  31
ENDBRANCH   8  30
TORSDOF 12
ENDMDL
MODEL 8
REMARK VINA RESULT:    14.332      1.839      3.962
REMARK INTER + INTRA:          27.338
REMARK INTER:                  15.000
REMARK INTRA:                  12.338
REMARK UNBOUND:                 5.047
REMARK SMILES C[C@]12C[C@]3(O)O[C@H](O1)[C@@]1(COC(=O)c4ccccc4)[C@@H]3C[C@]12O[C@H]1O[C@H](CO)[C@@H](O)[C@H](O)[C@@H]1O
REMARK SMILES IDX 1 1 2 2 3 3 4 4 20 5 21 6 22 7 9 8 7 9 8 10 6 11 23 12 24 13
REMARK SMILES IDX 33 14 25 15 31 16 26 17 29 18 34 19 32 21 27 23 28 24 30 26
REMARK SMILES IDX 5 28 10 30 11 31 12 32 13 33 14 34 15 35 19 36 16 37 18 38
REMARK SMILES IDX 17 39
REMARK H PARENT 34 20 32 22 28 25 30 27 5 29
REMARK Flexibility Score: inf
ROOT
ATOM      1  C   UNL     1      11.044 -11.947 -25.276  1.00  0.00     0.046 C 
ATOM      2  C   UNL     1      12.092 -11.011 -25.884  1.00  0.00     0.104 C 
ATOM      3  C   UNL     1      13.536 -11.360 -25.361  1.00  0.00     0.104 C 
ATOM      4  C   UNL     1      14.466 -10.377 -26.152  1.00  0.00     0.175 C 
ATOM      5  C   UNL     1      14.131 -10.417 -27.674  1.00  0.00     0.070 C 
ATOM      6  C   UNL     1      13.324 -11.658 -28.070  1.00  0.00     0.050 C 
ATOM      7  C   UNL     1      12.100 -10.952 -27.465  1.00  0.00     0.115 C 
ATOM      8  C   UNL     1      12.831  -9.616 -27.643  1.00  0.00     0.096 C 
ATOM      9  C   UNL     1      12.791  -8.927 -26.285  1.00  0.00     0.267 C 
ATOM     10  O   UNL     1      11.876  -9.669 -25.488  1.00  0.00    -0.342 OA
ATOM     11  O   UNL     1      14.093  -9.071 -25.744  1.00  0.00    -0.320 OA
ENDROOT
BRANCH   7  12
ATOM     12  O   UNL     1      10.912 -11.239 -28.202  1.00  0.00    -0.339 OA
BRANCH  12  13
ATOM     13  C   UNL     1      10.977 -12.389 -29.034  1.00  0.00     0.282 C 
ATOM     14  C   UNL     1      10.011 -13.476 -28.511  1.00  0.00     0.202 C 
ATOM     15  O   UNL     1      12.300 -12.901 -29.094  1.00  0.00    -0.341 OA
ATOM     16  C   UNL     1      10.494 -14.024 -27.152  1.00  0.00     0.179 C 
ATOM     17  C   UNL     1      12.794 -13.272 -27.816  1.00  0.00     0.178 C 
ATOM     18  C   UNL     1      11.967 -14.441 -27.236  1.00  0.00     0.177 C 
BRANCH  14  19
ATOM     19  O   UNL     1       9.937 -14.515 -29.456  1.00  0.00    -0.385 OA
ATOM     20  H   UNL     1      10.062 -15.369 -28.962  1.00  0.00     0.211 HD
ENDBRANCH  14  19
BRANCH  16  21
ATOM     21  O   UNL     1       9.716 -15.125 -26.755  1.00  0.00    -0.387 OA
ATOM     22  H   UNL     1       8.768 -14.851 -26.844  1.00  0.00     0.211 HD
ENDBRANCH  16  21
BRANCH  17  23
ATOM     23  C   UNL     1      14.281 -13.634 -27.956  1.00  0.00     0.191 C 
BRANCH  23  24
ATOM     24  O   UNL     1      14.834 -13.990 -26.716  1.00  0.00    -0.394 OA
ATOM     25  H   UNL     1      15.616 -14.569 -26.909  1.00  0.00     0.210 HD
ENDBRANCH  23  24
ENDBRANCH  17  23
BRANCH  18  26
ATOM     26  O   UNL     1      12.420 -14.767 -25.945  1.00  0.00    -0.387 OA
ATOM     27  H   UNL     1      13.238 -14.229 -25.780  1.00  0.00     0.211 HD
ENDBRANCH  18  26
ENDBRANCH  12  13
ENDBRANCH   7  12
BRANCH   4  28
ATOM     28  O   UNL     1      15.824 -10.654 -25.916  1.00  0.00    -0.365 OA
ATOM     29  H   UNL     1      15.926 -11.632 -25.790  1.00  0.00     0.214 HD
ENDBRANCH   4  28
BRANCH   8  30
ATOM     30  C   UNL     1      12.563  -8.734 -28.878  1.00  0.00     0.249 C 
BRANCH  30  31
ATOM     31  O   UNL     1      13.100  -7.426 -28.683  1.00  0.00    -0.461 OA
BRANCH  31  32
ATOM     32  C   UNL     1      12.488  -6.248 -29.128  1.00  0.00     0.338 C 
ATOM     33  O   UNL     1      11.291  -6.262 -29.527  1.00  0.00    -0.246 OA
BRANCH  32  34
ATOM     34  C   UNL     1      13.254  -4.982 -29.123  1.00  0.00     0.060 A 
ATOM     35  C   UNL     1      12.861  -3.911 -29.948  1.00  0.00     0.015 A 
ATOM     36  C   UNL     1      14.382  -4.826 -28.295  1.00  0.00     0.015 A 
ATOM     37  C   UNL     1      13.579  -2.713 -29.942  1.00  0.00     0.001 A 
ATOM     38  C   UNL     1      15.098  -3.623 -28.294  1.00  0.00     0.001 A 
ATOM     39  C   UNL     1      14.697  -2.568 -29.116  1.00  0.00     0.000 A 
ENDBRANCH  32  34
ENDBRANCH  31  32
ENDBRANCH  30  31
ENDBRANCH   8  30
TORSDOF 12
ENDMDL
MODEL 9
REMARK VINA RESULT:    14.670      1.182      2.413
REMARK INTER + INTRA:          27.864
REMARK INTER:                  26.306
REMARK INTRA:                   1.558
REMARK UNBOUND:                 5.047
REMARK SMILES C[C@]12C[C@]3(O)O[C@H](O1)[C@@]1(COC(=O)c4ccccc4)[C@@H]3C[C@]12O[C@H]1O[C@H](CO)[C@@H](O)[C@H](O)[C@@H]1O
REMARK SMILES IDX 1 1 2 2 3 3 4 4 20 5 21 6 22 7 9 8 7 9 8 10 6 11 23 12 24 13
REMARK SMILES IDX 33 14 25 15 31 16 26 17 29 18 34 19 32 21 27 23 28 24 30 26
REMARK SMILES IDX 5 28 10 30 11 31 12 32 13 33 14 34 15 35 19 36 16 37 18 38
REMARK SMILES IDX 17 39
REMARK H PARENT 34 20 32 22 28 25 30 27 5 29
REMARK Flexibility Score: inf
ROOT
ATOM      1  C   UNL     1      11.009 -15.096 -28.122  1.00  0.00     0.046 C 
ATOM      2  C   UNL     1      11.347 -13.645 -28.478  1.00  0.00     0.104 C 
ATOM      3  C   UNL     1      11.106 -13.365 -30.009  1.00  0.00     0.104 C 
ATOM      4  C   UNL     1      11.408 -11.835 -30.159  1.00  0.00     0.175 C 
ATOM      5  C   UNL     1      10.654 -11.020 -29.064  1.00  0.00     0.070 C 
ATOM      6  C   UNL     1       9.515 -11.815 -28.416  1.00  0.00     0.050 C 
ATOM      7  C   UNL     1      10.597 -12.553 -27.613  1.00  0.00     0.115 C 
ATOM      8  C   UNL     1      11.538 -11.370 -27.869  1.00  0.00     0.096 C 
ATOM      9  C   UNL     1      12.816 -11.963 -28.449  1.00  0.00     0.267 C 
ATOM     10  O   UNL     1      12.720 -13.371 -28.270  1.00  0.00    -0.342 OA
ATOM     11  O   UNL     1      12.779 -11.674 -29.835  1.00  0.00    -0.320 OA
ENDROOT
BRANCH   7  12
ATOM     12  O   UNL     1      10.153 -12.860 -26.293  1.00  0.00    -0.339 OA
BRANCH  12  13
ATOM     13  C   UNL     1      11.038 -13.666 -25.526  1.00  0.00     0.282 C 
ATOM     14  C   UNL     1      10.325 -14.170 -24.252  1.00  0.00     0.202 C 
ATOM     15  O   UNL     1      12.209 -12.943 -25.174  1.00  0.00    -0.341 OA
ATOM     16  C   UNL     1      10.030 -12.999 -23.293  1.00  0.00     0.179 C 
ATOM     17  C   UNL     1      11.919 -11.783 -24.410  1.00  0.00     0.178 C 
ATOM     18  C   UNL     1      11.299 -12.174 -23.050  1.00  0.00     0.177 C 
BRANCH  14  19
ATOM     19  O   UNL     1      11.141 -15.125 -23.618  1.00  0.00    -0.385 OA
ATOM     20  H   UNL     1      11.557 -14.678 -22.834  1.00  0.00     0.211 HD
ENDBRANCH  14  19
BRANCH  16  21
ATOM     21  O   UNL     1       9.536 -13.473 -22.066  1.00  0.00    -0.387 OA
ATOM     22  H   UNL     1      10.090 -13.059 -21.356  1.00  0.00     0.211 HD
ENDBRANCH  16  21
BRANCH  17  23
ATOM     23  C   UNL     1      13.216 -10.976 -24.239  1.00  0.00     0.191 C 
BRANCH  23  24
ATOM     24  O   UNL     1      14.078 -11.166 -25.331  1.00  0.00    -0.394 OA
ATOM     25  H   UNL     1      14.831 -10.532 -25.213  1.00  0.00     0.210 HD
ENDBRANCH  23  24
ENDBRANCH  17  23
BRANCH  18  26
ATOM     26  O   UNL     1      10.957 -11.022 -22.319  1.00  0.00    -0.387 OA
ATOM     27  H   UNL     1      10.518 -11.328 -21.483  1.00  0.00     0.211 HD
ENDBRANCH  18  26
ENDBRANCH  12  13
ENDBRANCH   7  12
BRANCH   4  28
ATOM     28  O   UNL     1      11.096 -11.375 -31.450  1.00  0.00    -0.365 OA
ATOM     29  H   UNL     1      11.938 -11.315 -31.972  1.00  0.00     0.214 HD
ENDBRANCH   4  28
BRANCH   8  30
ATOM     30  C   UNL     1      11.704 -10.257 -26.816  1.00  0.00     0.249 C 
BRANCH  30  31
ATOM     31  O   UNL     1      12.096  -9.035 -27.439  1.00  0.00    -0.461 OA
BRANCH  31  32
ATOM     32  C   UNL     1      13.410  -8.725 -27.812  1.00  0.00     0.338 C 
ATOM     33  O   UNL     1      14.337  -9.564 -27.637  1.00  0.00    -0.246 OA
BRANCH  32  34
ATOM     34  C   UNL     1      13.705  -7.407 -28.416  1.00  0.00     0.060 A 
ATOM     35  C   UNL     1      14.794  -7.257 -29.295  1.00  0.00     0.015 A 
ATOM     36  C   UNL     1      12.903  -6.287 -28.128  1.00  0.00     0.015 A 
ATOM     37  C   UNL     1      15.071  -6.014 -29.872  1.00  0.00     0.001 A 
ATOM     38  C   UNL     1      13.186  -5.045 -28.707  1.00  0.00     0.001 A 
ATOM     39  C   UNL     1      14.269  -4.910 -29.578  1.00  0.00     0.000 A 
ENDBRANCH  32  34
ENDBRANCH  31  32
ENDBRANCH  30  31
ENDBRANCH   8  30
TORSDOF 12
ENDMDL
