MODEL 1
REMARK VINA RESULT:    -4.715      0.000      0.000
REMARK INTER + INTRA:          -7.928
REMARK INTER:                  -7.196
REMARK INTRA:                  -0.733
REMARK UNBOUND:                -0.733
REMARK SMILES O=C([O-])CCCCCCCCC(=O)[O-]
REMARK SMILES IDX 7 1 6 2 5 3 4 4 2 5 1 6 3 7 8 8 9 9 10 10 11 11 12 12 13 13
REMARK SMILES IDX 14 14
REMARK H PARENT
REMARK Flexibility Score: inf
ROOT
ATOM      1  C   UNL     1     117.641 -83.363  21.193  1.00  0.00     0.000 C 
ENDROOT
BRANCH   1   2
ATOM      2  C   UNL     1     116.146 -83.356  21.543  1.00  0.00     0.000 C 
BRANCH   2   3
ATOM      3  C   UNL     1     115.288 -83.179  20.281  1.00  0.00     0.006 C 
BRANCH   3   4
ATOM      4  C   UNL     1     113.937 -83.898  20.392  1.00  0.00     0.053 C 
BRANCH   4   5
ATOM      5  C   UNL     1     112.987 -83.160  21.286  1.00  0.00     0.041 C 
ATOM      6  O   UNL     1     112.476 -83.735  22.283  1.00  0.00    -0.550 OA
ATOM      7  O   UNL     1     112.640 -81.846  20.996  1.00  0.00    -0.550 OA
ENDBRANCH   4   5
ENDBRANCH   3   4
ENDBRANCH   2   3
ENDBRANCH   1   2
BRANCH   1   8
ATOM      8  C   UNL     1     118.450 -82.322  21.987  1.00  0.00     0.000 C 
BRANCH   8   9
ATOM      9  C   UNL     1     119.126 -81.231  21.136  1.00  0.00     0.000 C 
BRANCH   9  10
ATOM     10  C   UNL     1     118.480 -79.846  21.314  1.00  0.00     0.006 C 
BRANCH  10  11
ATOM     11  C   UNL     1     117.069 -79.783  20.714  1.00  0.00     0.053 C 
BRANCH  11  12
ATOM     12  C   UNL     1     116.088 -79.157  21.657  1.00  0.00     0.041 C 
ATOM     13  O   UNL     1     116.144 -77.922  21.899  1.00  0.00    -0.550 OA
ATOM     14  O   UNL     1     115.096 -79.930  22.244  1.00  0.00    -0.550 OA
ENDBRANCH  11  12
ENDBRANCH  10  11
ENDBRANCH   9  10
ENDBRANCH   8   9
ENDBRANCH   1   8
TORSDOF 9
ENDMDL
MODEL 2
REMARK VINA RESULT:    -4.636      2.915      4.891
REMARK INTER + INTRA:          -7.808
REMARK INTER:                  -6.791
REMARK INTRA:                  -1.017
REMARK UNBOUND:                -0.733
REMARK SMILES O=C([O-])CCCCCCCCC(=O)[O-]
REMARK SMILES IDX 7 1 6 2 5 3 4 4 2 5 1 6 3 7 8 8 9 9 10 10 11 11 12 12 13 13
REMARK SMILES IDX 14 14
REMARK H PARENT
REMARK Flexibility Score: inf
ROOT
ATOM      1  C   UNL     1     114.500 -81.234  21.527  1.00  0.00     0.000 C 
ENDROOT
BRANCH   1   2
ATOM      2  C   UNL     1     115.103 -80.553  20.289  1.00  0.00     0.000 C 
BRANCH   2   3
ATOM      3  C   UNL     1     116.148 -79.503  20.694  1.00  0.00     0.006 C 
BRANCH   3   4
ATOM      4  C   UNL     1     116.122 -79.208  22.200  1.00  0.00     0.053 C 
BRANCH   4   5
ATOM      5  C   UNL     1     116.938 -78.000  22.542  1.00  0.00     0.041 C 
ATOM      6  O   UNL     1     118.196 -78.049  22.496  1.00  0.00    -0.550 OA
ATOM      7  O   UNL     1     116.310 -76.828  22.946  1.00  0.00    -0.550 OA
ENDBRANCH   4   5
ENDBRANCH   3   4
ENDBRANCH   2   3
ENDBRANCH   1   2
BRANCH   1   8
ATOM      8  C   UNL     1     114.502 -82.770  21.430  1.00  0.00     0.000 C 
BRANCH   8   9
ATOM      9  C   UNL     1     115.848 -83.398  21.023  1.00  0.00     0.000 C 
BRANCH   9  10
ATOM     10  C   UNL     1     116.974 -83.103  22.029  1.00  0.00     0.006 C 
BRANCH  10  11
ATOM     11  C   UNL     1     118.335 -82.930  21.341  1.00  0.00     0.053 C 
BRANCH  11  12
ATOM     12  C   UNL     1     118.965 -81.612  21.675  1.00  0.00     0.041 C 
ATOM     13  O   UNL     1     119.022 -81.223  22.871  1.00  0.00    -0.550 OA
ATOM     14  O   UNL     1     119.515 -80.829  20.669  1.00  0.00    -0.550 OA
ENDBRANCH  11  12
ENDBRANCH  10  11
ENDBRANCH   9  10
ENDBRANCH   8   9
ENDBRANCH   1   8
TORSDOF 9
ENDMDL
MODEL 3
REMARK VINA RESULT:    -4.623      3.242      4.558
REMARK INTER + INTRA:          -7.787
REMARK INTER:                  -7.002
REMARK INTRA:                  -0.786
REMARK UNBOUND:                -0.733
REMARK SMILES O=C([O-])CCCCCCCCC(=O)[O-]
REMARK SMILES IDX 7 1 6 2 5 3 4 4 2 5 1 6 3 7 8 8 9 9 10 10 11 11 12 12 13 13
REMARK SMILES IDX 14 14
REMARK H PARENT
REMARK Flexibility Score: inf
ROOT
ATOM      1  C   UNL     1     116.011 -82.004  21.857  1.00  0.00     0.000 C 
ENDROOT
BRANCH   1   2
ATOM      2  C   UNL     1     116.836 -83.171  21.296  1.00  0.00     0.000 C 
BRANCH   2   3
ATOM      3  C   UNL     1     118.310 -83.053  21.715  1.00  0.00     0.006 C 
BRANCH   3   4
ATOM      4  C   UNL     1     118.584 -81.774  22.517  1.00  0.00     0.053 C 
BRANCH   4   5
ATOM      5  C   UNL     1     119.517 -80.853  21.791  1.00  0.00     0.041 C 
ATOM      6  O   UNL     1     119.528 -80.823  20.532  1.00  0.00    -0.550 OA
ATOM      7  O   UNL     1     120.398 -80.051  22.507  1.00  0.00    -0.550 OA
ENDBRANCH   4   5
ENDBRANCH   3   4
ENDBRANCH   2   3
ENDBRANCH   1   2
BRANCH   1   8
ATOM      8  C   UNL     1     114.923 -81.514  20.885  1.00  0.00     0.000 C 
BRANCH   8   9
ATOM      9  C   UNL     1     115.130 -80.089  20.337  1.00  0.00     0.000 C 
BRANCH   9  10
ATOM     10  C   UNL     1     116.216 -79.307  21.096  1.00  0.00     0.006 C 
BRANCH  10  11
ATOM     11  C   UNL     1     115.629 -78.157  21.925  1.00  0.00     0.053 C 
BRANCH  11  12
ATOM     12  C   UNL     1     116.692 -77.399  22.659  1.00  0.00     0.041 C 
ATOM     13  O   UNL     1     117.888 -77.795  22.627  1.00  0.00    -0.550 OA
ATOM     14  O   UNL     1     116.369 -76.240  23.351  1.00  0.00    -0.550 OA
ENDBRANCH  11  12
ENDBRANCH  10  11
ENDBRANCH   9  10
ENDBRANCH   8   9
ENDBRANCH   1   8
TORSDOF 9
ENDMDL
MODEL 4
REMARK VINA RESULT:    -4.573      2.659      4.619
REMARK INTER + INTRA:          -7.711
REMARK INTER:                  -6.854
REMARK INTRA:                  -0.857
REMARK UNBOUND:                -0.733
REMARK SMILES O=C([O-])CCCCCCCCC(=O)[O-]
REMARK SMILES IDX 7 1 6 2 5 3 4 4 2 5 1 6 3 7 8 8 9 9 10 10 11 11 12 12 13 13
REMARK SMILES IDX 14 14
REMARK H PARENT
REMARK Flexibility Score: inf
ROOT
ATOM      1  C   UNL     1     116.472 -82.973  21.982  1.00  0.00     0.000 C 
ENDROOT
BRANCH   1   2
ATOM      2  C   UNL     1     117.728 -83.308  21.164  1.00  0.00     0.000 C 
BRANCH   2   3
ATOM      3  C   UNL     1     118.851 -82.298  21.443  1.00  0.00     0.006 C 
BRANCH   3   4
ATOM      4  C   UNL     1     118.775 -81.723  22.864  1.00  0.00     0.053 C 
BRANCH   4   5
ATOM      5  C   UNL     1     119.782 -82.357  23.774  1.00  0.00     0.041 C 
ATOM      6  O   UNL     1     120.942 -81.876  23.871  1.00  0.00    -0.550 OA
ATOM      7  O   UNL     1     119.448 -83.500  24.490  1.00  0.00    -0.550 OA
ENDBRANCH   4   5
ENDBRANCH   3   4
ENDBRANCH   2   3
ENDBRANCH   1   2
BRANCH   1   8
ATOM      8  C   UNL     1     115.282 -82.542  21.107  1.00  0.00     0.000 C 
BRANCH   8   9
ATOM      9  C   UNL     1     114.772 -81.110  21.357  1.00  0.00     0.000 C 
BRANCH   9  10
ATOM     10  C   UNL     1     115.425 -80.071  20.429  1.00  0.00     0.006 C 
BRANCH  10  11
ATOM     11  C   UNL     1     116.535 -79.281  21.135  1.00  0.00     0.053 C 
BRANCH  11  12
ATOM     12  C   UNL     1     115.995 -78.089  21.864  1.00  0.00     0.041 C 
ATOM     13  O   UNL     1     114.848 -77.647  21.589  1.00  0.00    -0.550 OA
ATOM     14  O   UNL     1     116.745 -77.484  22.863  1.00  0.00    -0.550 OA
ENDBRANCH  11  12
ENDBRANCH  10  11
ENDBRANCH   9  10
ENDBRANCH   8   9
ENDBRANCH   1   8
TORSDOF 9
ENDMDL
MODEL 5
REMARK VINA RESULT:    -4.567      2.485      3.577
REMARK INTER + INTRA:          -7.703
REMARK INTER:                  -6.951
REMARK INTRA:                  -0.752
REMARK UNBOUND:                -0.733
REMARK SMILES O=C([O-])CCCCCCCCC(=O)[O-]
REMARK SMILES IDX 7 1 6 2 5 3 4 4 2 5 1 6 3 7 8 8 9 9 10 10 11 11 12 12 13 13
REMARK SMILES IDX 14 14
REMARK H PARENT
REMARK Flexibility Score: inf
ROOT
ATOM      1  C   UNL     1     115.871 -79.305  21.899  1.00  0.00     0.000 C 
ENDROOT
BRANCH   1   2
ATOM      2  C   UNL     1     115.345 -79.899  20.584  1.00  0.00     0.000 C 
BRANCH   2   3
ATOM      3  C   UNL     1     114.245 -80.937  20.852  1.00  0.00     0.006 C 
BRANCH   3   4
ATOM      4  C   UNL     1     114.816 -82.277  21.334  1.00  0.00     0.053 C 
BRANCH   4   5
ATOM      5  C   UNL     1     113.877 -83.412  21.057  1.00  0.00     0.041 C 
ATOM      6  O   UNL     1     114.007 -84.104  20.012  1.00  0.00    -0.550 OA
ATOM      7  O   UNL     1     112.838 -83.684  21.937  1.00  0.00    -0.550 OA
ENDBRANCH   4   5
ENDBRANCH   3   4
ENDBRANCH   2   3
ENDBRANCH   1   2
BRANCH   1   8
ATOM      8  C   UNL     1     117.381 -79.529  22.099  1.00  0.00     0.000 C 
BRANCH   8   9
ATOM      9  C   UNL     1     118.152 -79.952  20.834  1.00  0.00     0.000 C 
BRANCH   9  10
ATOM     10  C   UNL     1     119.268 -80.969  21.125  1.00  0.00     0.006 C 
BRANCH  10  11
ATOM     11  C   UNL     1     118.725 -82.264  21.742  1.00  0.00     0.053 C 
BRANCH  11  12
ATOM     12  C   UNL     1     119.346 -82.553  23.074  1.00  0.00     0.041 C 
ATOM     13  O   UNL     1     119.625 -83.737  23.398  1.00  0.00    -0.550 OA
ATOM     14  O   UNL     1     119.643 -81.512  23.944  1.00  0.00    -0.550 OA
ENDBRANCH  11  12
ENDBRANCH  10  11
ENDBRANCH   9  10
ENDBRANCH   8   9
ENDBRANCH   1   8
TORSDOF 9
ENDMDL
MODEL 6
REMARK VINA RESULT:    -4.559      3.145      4.998
REMARK INTER + INTRA:          -7.690
REMARK INTER:                  -6.962
REMARK INTRA:                  -0.729
REMARK UNBOUND:                -0.733
REMARK SMILES O=C([O-])CCCCCCCCC(=O)[O-]
REMARK SMILES IDX 7 1 6 2 5 3 4 4 2 5 1 6 3 7 8 8 9 9 10 10 11 11 12 12 13 13
REMARK SMILES IDX 14 14
REMARK H PARENT
REMARK Flexibility Score: inf
ROOT
ATOM      1  C   UNL     1     115.632 -82.233  21.871  1.00  0.00     0.000 C 
ENDROOT
BRANCH   1   2
ATOM      2  C   UNL     1     115.168 -81.469  20.622  1.00  0.00     0.000 C 
BRANCH   2   3
ATOM      3  C   UNL     1     115.616 -80.000  20.679  1.00  0.00     0.006 C 
BRANCH   3   4
ATOM      4  C   UNL     1     115.982 -79.560  22.103  1.00  0.00     0.053 C 
BRANCH   4   5
ATOM      5  C   UNL     1     117.086 -78.547  22.103  1.00  0.00     0.041 C 
ATOM      6  O   UNL     1     116.884 -77.386  22.547  1.00  0.00    -0.550 OA
ATOM      7  O   UNL     1     118.331 -78.878  21.582  1.00  0.00    -0.550 OA
ENDBRANCH   4   5
ENDBRANCH   3   4
ENDBRANCH   2   3
ENDBRANCH   1   2
BRANCH   1   8
ATOM      8  C   UNL     1     116.589 -83.393  21.545  1.00  0.00     0.000 C 
BRANCH   8   9
ATOM      9  C   UNL     1     118.027 -82.973  21.185  1.00  0.00     0.000 C 
BRANCH   9  10
ATOM     10  C   UNL     1     118.760 -82.290  22.352  1.00  0.00     0.006 C 
BRANCH  10  11
ATOM     11  C   UNL     1     119.224 -83.298  23.413  1.00  0.00     0.053 C 
BRANCH  11  12
ATOM     12  C   UNL     1     119.637 -82.620  24.684  1.00  0.00     0.041 C 
ATOM     13  O   UNL     1     119.628 -83.257  25.771  1.00  0.00    -0.550 OA
ATOM     14  O   UNL     1     120.057 -81.297  24.664  1.00  0.00    -0.550 OA
ENDBRANCH  11  12
ENDBRANCH  10  11
ENDBRANCH   9  10
ENDBRANCH   8   9
ENDBRANCH   1   8
TORSDOF 9
ENDMDL
MODEL 7
REMARK VINA RESULT:    -4.535      3.161      4.296
REMARK INTER + INTRA:          -7.653
REMARK INTER:                  -6.973
REMARK INTRA:                  -0.680
REMARK UNBOUND:                -0.733
REMARK SMILES O=C([O-])CCCCCCCCC(=O)[O-]
REMARK SMILES IDX 7 1 6 2 5 3 4 4 2 5 1 6 3 7 8 8 9 9 10 10 11 11 12 12 13 13
REMARK SMILES IDX 14 14
REMARK H PARENT
REMARK Flexibility Score: inf
ROOT
ATOM      1  C   UNL     1     114.532 -80.731  20.829  1.00  0.00     0.000 C 
ENDROOT
BRANCH   1   2
ATOM      2  C   UNL     1     115.023 -82.183  20.738  1.00  0.00     0.000 C 
BRANCH   2   3
ATOM      3  C   UNL     1     116.025 -82.495  21.860  1.00  0.00     0.006 C 
BRANCH   3   4
ATOM      4  C   UNL     1     117.190 -83.367  21.373  1.00  0.00     0.053 C 
BRANCH   4   5
ATOM      5  C   UNL     1     118.516 -82.787  21.758  1.00  0.00     0.041 C 
ATOM      6  O   UNL     1     119.044 -81.885  21.054  1.00  0.00    -0.550 OA
ATOM      7  O   UNL     1     119.186 -83.267  22.877  1.00  0.00    -0.550 OA
ENDBRANCH   4   5
ENDBRANCH   3   4
ENDBRANCH   2   3
ENDBRANCH   1   2
BRANCH   1   8
ATOM      8  C   UNL     1     115.672 -79.703  20.731  1.00  0.00     0.000 C 
BRANCH   8   9
ATOM      9  C   UNL     1     115.438 -78.390  21.502  1.00  0.00     0.000 C 
BRANCH   9  10
ATOM     10  C   UNL     1     116.692 -77.901  22.246  1.00  0.00     0.006 C 
BRANCH  10  11
ATOM     11  C   UNL     1     117.916 -78.779  21.957  1.00  0.00     0.053 C 
BRANCH  11  12
ATOM     12  C   UNL     1     119.050 -78.482  22.890  1.00  0.00     0.041 C 
ATOM     13  O   UNL     1     119.307 -77.291  23.213  1.00  0.00    -0.550 OA
ATOM     14  O   UNL     1     119.803 -79.518  23.424  1.00  0.00    -0.550 OA
ENDBRANCH  11  12
ENDBRANCH  10  11
ENDBRANCH   9  10
ENDBRANCH   8   9
ENDBRANCH   1   8
TORSDOF 9
ENDMDL
MODEL 8
REMARK VINA RESULT:    -4.525      9.443     10.966
REMARK INTER + INTRA:          -7.638
REMARK INTER:                  -7.100
REMARK INTRA:                  -0.538
REMARK UNBOUND:                -0.733
REMARK SMILES O=C([O-])CCCCCCCCC(=O)[O-]
REMARK SMILES IDX 7 1 6 2 5 3 4 4 2 5 1 6 3 7 8 8 9 9 10 10 11 11 12 12 13 13
REMARK SMILES IDX 14 14
REMARK H PARENT
REMARK Flexibility Score: inf
ROOT
ATOM      1  C   UNL     1     104.329 -81.653  21.880  1.00  0.00     0.000 C 
ENDROOT
BRANCH   1   2
ATOM      2  C   UNL     1     103.348 -82.711  21.353  1.00  0.00     0.000 C 
BRANCH   2   3
ATOM      3  C   UNL     1     103.463 -82.856  19.828  1.00  0.00     0.006 C 
BRANCH   3   4
ATOM      4  C   UNL     1     104.739 -83.599  19.411  1.00  0.00     0.053 C 
BRANCH   4   5
ATOM      5  C   UNL     1     105.624 -82.745  18.556  1.00  0.00     0.041 C 
ATOM      6  O   UNL     1     105.444 -81.499  18.500  1.00  0.00    -0.550 OA
ATOM      7  O   UNL     1     106.629 -83.329  17.794  1.00  0.00    -0.550 OA
ENDBRANCH   4   5
ENDBRANCH   3   4
ENDBRANCH   2   3
ENDBRANCH   1   2
BRANCH   1   8
ATOM      8  C   UNL     1     105.138 -82.136  23.097  1.00  0.00     0.000 C 
BRANCH   8   9
ATOM      9  C   UNL     1     106.171 -83.238  22.799  1.00  0.00     0.000 C 
BRANCH   9  10
ATOM     10  C   UNL     1     107.290 -83.310  23.853  1.00  0.00     0.006 C 
BRANCH  10  11
ATOM     11  C   UNL     1     106.739 -83.282  25.285  1.00  0.00     0.053 C 
BRANCH  11  12
ATOM     12  C   UNL     1     107.204 -82.074  26.039  1.00  0.00     0.041 C 
ATOM     13  O   UNL     1     106.369 -81.224  26.447  1.00  0.00    -0.550 OA
ATOM     14  O   UNL     1     108.553 -81.901  26.315  1.00  0.00    -0.550 OA
ENDBRANCH  11  12
ENDBRANCH  10  11
ENDBRANCH   9  10
ENDBRANCH   8   9
ENDBRANCH   1   8
TORSDOF 9
ENDMDL
MODEL 9
REMARK VINA RESULT:    -4.448      2.659      5.669
REMARK INTER + INTRA:          -7.521
REMARK INTER:                  -6.925
REMARK INTRA:                  -0.595
REMARK UNBOUND:                -0.733
REMARK SMILES O=C([O-])CCCCCCCCC(=O)[O-]
REMARK SMILES IDX 7 1 6 2 5 3 4 4 2 5 1 6 3 7 8 8 9 9 10 10 11 11 12 12 13 13
REMARK SMILES IDX 14 14
REMARK H PARENT
REMARK Flexibility Score: inf
ROOT
ATOM      1  C   UNL     1     116.395 -81.656  21.655  1.00  0.00     0.000 C 
ENDROOT
BRANCH   1   2
ATOM      2  C   UNL     1     116.977 -83.068  21.819  1.00  0.00     0.000 C 
BRANCH   2   3
ATOM      3  C   UNL     1     118.510 -83.045  21.723  1.00  0.00     0.006 C 
BRANCH   3   4
ATOM      4  C   UNL     1     119.124 -81.884  22.517  1.00  0.00     0.053 C 
BRANCH   4   5
ATOM      5  C   UNL     1     119.821 -82.365  23.753  1.00  0.00     0.041 C 
ATOM      6  O   UNL     1     120.907 -81.839  24.116  1.00  0.00    -0.550 OA
ATOM      7  O   UNL     1     119.288 -83.419  24.485  1.00  0.00    -0.550 OA
ENDBRANCH   4   5
ENDBRANCH   3   4
ENDBRANCH   2   3
ENDBRANCH   1   2
BRANCH   1   8
ATOM      8  C   UNL     1     115.118 -81.628  20.797  1.00  0.00     0.000 C 
BRANCH   8   9
ATOM      9  C   UNL     1     114.736 -82.972  20.149  1.00  0.00     0.000 C 
BRANCH   9  10
ATOM     10  C   UNL     1     113.277 -83.375  20.423  1.00  0.00     0.006 C 
BRANCH  10  11
ATOM     11  C   UNL     1     112.938 -83.341  21.919  1.00  0.00     0.053 C 
BRANCH  11  12
ATOM     12  C   UNL     1     111.747 -82.478  22.202  1.00  0.00     0.041 C 
ATOM     13  O   UNL     1     110.723 -82.973  22.744  1.00  0.00    -0.550 OA
ATOM     14  O   UNL     1     111.778 -81.125  21.895  1.00  0.00    -0.550 OA
ENDBRANCH  11  12
ENDBRANCH  10  11
ENDBRANCH   9  10
ENDBRANCH   8   9
ENDBRANCH   1   8
TORSDOF 9
ENDMDL
