MODEL 1
REMARK VINA RESULT:    -4.322      0.000      0.000
REMARK INTER + INTRA:          -6.634
REMARK INTER:                  -6.596
REMARK INTRA:                  -0.037
REMARK UNBOUND:                -0.037
REMARK SMILES CC1=CCC[C@@H](C)C(=O)C[C@H](C(C)C)C(=O)C1
REMARK SMILES IDX 8 1 9 2 6 3 7 4 5 5 4 6 3 7 2 8 1 9 10 11 11 12 15 13 16 14
REMARK SMILES IDX 17 15 12 17 13 18 14 19
REMARK H PARENT
REMARK Flexibility Score: 70.00
ROOT
ATOM      1  C   UNL     1      -7.540  71.814  24.264  1.00  0.00     0.136 C 
ATOM      2  O   UNL     1      -6.615  72.013  25.035  1.00  0.00    -0.299 OA
ENDROOT
BRANCH   1   3
ATOM      3  C   UNL     1      -7.214  71.422  22.833  1.00  0.00     0.053 C 
ATOM      4  C   UNL     1      -6.416  70.111  22.803  1.00  0.00     0.016 C 
BRANCH   3   5
ATOM      5  C   UNL     1      -6.479  72.548  22.064  1.00  0.00     0.015 C 
BRANCH   5   6
ATOM      6  C   UNL     1      -7.198  73.915  22.047  1.00  0.00     0.028 C 
BRANCH   6   7
ATOM      7  C   UNL     1      -8.367  74.056  21.093  1.00  0.00    -0.028 C 
ATOM      8  C   UNL     1      -9.582  74.580  21.376  1.00  0.00    -0.070 CG0
ATOM      9  C   UNL     1     -10.574  74.700  20.247  1.00  0.00     0.039 C 
ATOM     10  G   UNL     1     -10.015  75.006  22.762  1.00  0.00     0.000 G0
ENDBRANCH   6   7
ENDBRANCH   5   6
ENDBRANCH   3   5
ENDBRANCH   1   3
BRANCH   1  11
ATOM     11  C   UNL     1      -8.960  72.002  24.773  1.00  0.00     0.087 C 
BRANCH  11  12
ATOM     12  C   UNL     1      -9.438  73.480  24.832  1.00  0.00     0.066 C 
BRANCH  12  13
ATOM     13  C   UNL     1     -10.320  73.809  23.642  1.00  0.00     0.140 C 
ATOM     14  O   UNL     1     -11.269  73.086  23.377  1.00  0.00    -0.299 OA
BRANCH  13  15
ATOM     15  C   UNL     1     -10.021  74.999  22.761  1.00  0.00     0.106 CG0
ATOM     16  G   UNL     1      -9.610  74.537  21.379  1.00  0.00     0.000 G0
ENDBRANCH  13  15
ENDBRANCH  12  13
BRANCH  12  17
ATOM     17  C   UNL     1     -10.149  73.812  26.181  1.00  0.00    -0.006 C 
ATOM     18  C   UNL     1      -9.230  73.531  27.383  1.00  0.00     0.008 C 
ATOM     19  C   UNL     1     -10.608  75.282  26.233  1.00  0.00     0.008 C 
ENDBRANCH  12  17
ENDBRANCH  11  12
ENDBRANCH   1  11
TORSDOF 1
ENDMDL
MODEL 2
REMARK VINA RESULT:    -3.652      1.759      4.225
REMARK INTER + INTRA:          -5.610
REMARK INTER:                  -6.251
REMARK INTRA:                   0.641
REMARK UNBOUND:                -0.037
REMARK SMILES CC1=CCC[C@@H](C)C(=O)C[C@H](C(C)C)C(=O)C1
REMARK SMILES IDX 8 1 9 2 6 3 7 4 5 5 4 6 3 7 2 8 1 9 10 11 11 12 15 13 16 14
REMARK SMILES IDX 17 15 12 17 13 18 14 19
REMARK H PARENT
REMARK Flexibility Score: 70.00
ROOT
ATOM      1  C   UNL     1     -10.185  73.745  24.129  1.00  0.00     0.136 C 
ATOM      2  O   UNL     1     -10.479  74.845  24.566  1.00  0.00    -0.299 OA
ENDROOT
BRANCH   1   3
ATOM      3  C   UNL     1      -9.477  72.768  25.054  1.00  0.00     0.053 C 
ATOM      4  C   UNL     1      -9.496  73.286  26.499  1.00  0.00     0.016 C 
BRANCH   3   5
ATOM      5  C   UNL     1      -8.035  72.451  24.586  1.00  0.00     0.015 C 
BRANCH   5   6
ATOM      6  C   UNL     1      -7.922  71.763  23.208  1.00  0.00     0.028 C 
BRANCH   6   7
ATOM      7  C   UNL     1      -6.779  72.209  22.318  1.00  0.00    -0.028 C 
ATOM      8  C   UNL     1      -6.577  73.454  21.826  1.00  0.00    -0.070 CG0
ATOM      9  C   UNL     1      -5.322  73.697  21.027  1.00  0.00     0.039 C 
ATOM     10  G   UNL     1      -7.557  74.596  21.993  1.00  0.00     0.000 G0
ENDBRANCH   6   7
ENDBRANCH   5   6
ENDBRANCH   3   5
ENDBRANCH   1   3
BRANCH   1  11
ATOM     11  C   UNL     1     -10.513  73.429  22.679  1.00  0.00     0.087 C 
BRANCH  11  12
ATOM     12  C   UNL     1     -10.189  74.573  21.676  1.00  0.00     0.066 C 
BRANCH  12  13
ATOM     13  C   UNL     1      -8.787  74.417  21.117  1.00  0.00     0.140 C 
ATOM     14  O   UNL     1      -8.637  74.110  19.943  1.00  0.00    -0.299 OA
BRANCH  13  15
ATOM     15  C   UNL     1      -7.575  74.604  21.998  1.00  0.00     0.106 CG0
ATOM     16  G   UNL     1      -6.596  73.468  21.789  1.00  0.00     0.000 G0
ENDBRANCH  13  15
ENDBRANCH  12  13
BRANCH  12  17
ATOM     17  C   UNL     1     -11.252  74.673  20.539  1.00  0.00    -0.006 C 
ATOM     18  C   UNL     1     -12.518  73.867  20.882  1.00  0.00     0.008 C 
ATOM     19  C   UNL     1     -11.648  76.135  20.261  1.00  0.00     0.008 C 
ENDBRANCH  12  17
ENDBRANCH  11  12
ENDBRANCH   1  11
TORSDOF 1
ENDMDL
MODEL 3
REMARK VINA RESULT:    -3.620      1.560      4.125
REMARK INTER + INTRA:          -5.563
REMARK INTER:                  -5.806
REMARK INTRA:                   0.244
REMARK UNBOUND:                -0.037
REMARK SMILES CC1=CCC[C@@H](C)C(=O)C[C@H](C(C)C)C(=O)C1
REMARK SMILES IDX 8 1 9 2 6 3 7 4 5 5 4 6 3 7 2 8 1 9 10 11 11 12 15 13 16 14
REMARK SMILES IDX 17 15 12 17 13 18 14 19
REMARK H PARENT
REMARK Flexibility Score: 70.00
ROOT
ATOM      1  C   UNL     1      -8.927  72.782  25.043  1.00  0.00     0.136 C 
ATOM      2  O   UNL     1      -9.800  71.934  25.124  1.00  0.00    -0.299 OA
ENDROOT
BRANCH   1   3
ATOM      3  C   UNL     1      -9.323  74.241  25.188  1.00  0.00     0.053 C 
ATOM      4  C   UNL     1     -10.124  74.455  26.480  1.00  0.00     0.016 C 
BRANCH   3   5
ATOM      5  C   UNL     1     -10.091  74.771  23.952  1.00  0.00     0.015 C 
BRANCH   5   6
ATOM      6  C   UNL     1     -10.146  73.809  22.745  1.00  0.00     0.028 C 
BRANCH   6   7
ATOM      7  C   UNL     1      -9.432  74.259  21.486  1.00  0.00    -0.028 C 
ATOM      8  C   UNL     1      -8.095  74.268  21.275  1.00  0.00    -0.070 CG0
ATOM      9  C   UNL     1      -7.603  74.679  19.910  1.00  0.00     0.039 C 
ATOM     10  G   UNL     1      -7.071  73.936  22.339  1.00  0.00     0.000 G0
ENDBRANCH   6   7
ENDBRANCH   5   6
ENDBRANCH   3   5
ENDBRANCH   1   3
BRANCH   1  11
ATOM     11  C   UNL     1      -7.501  72.329  24.769  1.00  0.00     0.087 C 
BRANCH  11  12
ATOM     12  C   UNL     1      -7.315  71.539  23.443  1.00  0.00     0.066 C 
BRANCH  12  13
ATOM     13  C   UNL     1      -6.775  72.442  22.349  1.00  0.00     0.140 C 
ATOM     14  O   UNL     1      -6.077  71.967  21.466  1.00  0.00    -0.299 OA
BRANCH  13  15
ATOM     15  C   UNL     1      -7.063  73.924  22.355  1.00  0.00     0.106 CG0
ATOM     16  G   UNL     1      -8.094  74.260  21.298  1.00  0.00     0.000 G0
ENDBRANCH  13  15
ENDBRANCH  12  13
BRANCH  12  17
ATOM     17  C   UNL     1      -6.421  70.274  23.636  1.00  0.00    -0.006 C 
ATOM     18  C   UNL     1      -5.460  70.444  24.826  1.00  0.00     0.008 C 
ATOM     19  C   UNL     1      -7.271  69.008  23.853  1.00  0.00     0.008 C 
ENDBRANCH  12  17
ENDBRANCH  11  12
ENDBRANCH   1  11
TORSDOF 1
ENDMDL
MODEL 4
REMARK VINA RESULT:    -3.436      1.555      4.060
REMARK INTER + INTRA:          -5.281
REMARK INTER:                  -5.454
REMARK INTRA:                   0.172
REMARK UNBOUND:                -0.037
REMARK SMILES CC1=CCC[C@@H](C)C(=O)C[C@H](C(C)C)C(=O)C1
REMARK SMILES IDX 8 1 9 2 6 3 7 4 5 5 4 6 3 7 2 8 1 9 10 11 11 12 15 13 16 14
REMARK SMILES IDX 17 15 12 17 13 18 14 19
REMARK H PARENT
REMARK Flexibility Score: 70.00
ROOT
ATOM      1  C   UNL     1      -8.345  72.774  24.506  1.00  0.00     0.136 C 
ATOM      2  O   UNL     1      -8.301  71.566  24.678  1.00  0.00    -0.299 OA
ENDROOT
BRANCH   1   3
ATOM      3  C   UNL     1      -9.339  73.582  25.323  1.00  0.00     0.053 C 
ATOM      4  C   UNL     1      -9.409  73.052  26.761  1.00  0.00     0.016 C 
BRANCH   3   5
ATOM      5  C   UNL     1     -10.741  73.632  24.668  1.00  0.00     0.015 C 
BRANCH   5   6
ATOM      6  C   UNL     1     -10.850  72.956  23.283  1.00  0.00     0.028 C 
BRANCH   6   7
ATOM      7  C   UNL     1     -11.307  73.833  22.135  1.00  0.00    -0.028 C 
ATOM      8  C   UNL     1     -10.528  74.630  21.367  1.00  0.00    -0.070 CG0
ATOM      9  C   UNL     1     -11.183  75.355  20.218  1.00  0.00     0.039 C 
ATOM     10  G   UNL     1      -9.055  74.870  21.624  1.00  0.00     0.000 G0
ENDBRANCH   6   7
ENDBRANCH   5   6
ENDBRANCH   3   5
ENDBRANCH   1   3
BRANCH   1  11
ATOM     11  C   UNL     1      -7.428  73.391  23.462  1.00  0.00     0.087 C 
BRANCH  11  12
ATOM     12  C   UNL     1      -7.548  72.766  22.042  1.00  0.00     0.066 C 
BRANCH  12  13
ATOM     13  C   UNL     1      -8.230  73.727  21.087  1.00  0.00     0.140 C 
ATOM     14  O   UNL     1      -8.102  73.571  19.881  1.00  0.00    -0.299 OA
BRANCH  13  15
ATOM     15  C   UNL     1      -9.041  74.891  21.605  1.00  0.00     0.106 CG0
ATOM     16  G   UNL     1     -10.514  74.657  21.349  1.00  0.00     0.000 G0
ENDBRANCH  13  15
ENDBRANCH  12  13
BRANCH  12  17
ATOM     17  C   UNL     1      -6.166  72.295  21.492  1.00  0.00    -0.006 C 
ATOM     18  C   UNL     1      -5.169  73.465  21.403  1.00  0.00     0.008 C 
ATOM     19  C   UNL     1      -5.557  71.182  22.367  1.00  0.00     0.008 C 
ENDBRANCH  12  17
ENDBRANCH  11  12
ENDBRANCH   1  11
TORSDOF 1
ENDMDL
MODEL 5
REMARK VINA RESULT:    -3.357     11.144     14.332
REMARK INTER + INTRA:          -5.160
REMARK INTER:                  -5.121
REMARK INTRA:                  -0.040
REMARK UNBOUND:                -0.037
REMARK SMILES CC1=CCC[C@@H](C)C(=O)C[C@H](C(C)C)C(=O)C1
REMARK SMILES IDX 8 1 9 2 6 3 7 4 5 5 4 6 3 7 2 8 1 9 10 11 11 12 15 13 16 14
REMARK SMILES IDX 17 15 12 17 13 18 14 19
REMARK H PARENT
REMARK Flexibility Score: 70.00
ROOT
ATOM      1  C   UNL     1      -8.583  70.271  36.080  1.00  0.00     0.136 C 
ATOM      2  O   UNL     1      -8.635  69.412  35.214  1.00  0.00    -0.299 OA
ENDROOT
BRANCH   1   3
ATOM      3  C   UNL     1      -8.126  69.865  37.471  1.00  0.00     0.053 C 
ATOM      4  C   UNL     1      -6.634  69.507  37.464  1.00  0.00     0.016 C 
BRANCH   3   5
ATOM      5  C   UNL     1      -8.981  68.716  38.062  1.00  0.00     0.015 C 
BRANCH   5   6
ATOM      6  C   UNL     1     -10.488  69.022  38.212  1.00  0.00     0.028 C 
BRANCH   6   7
ATOM      7  C   UNL     1     -10.863  70.128  39.179  1.00  0.00    -0.028 C 
ATOM      8  C   UNL     1     -11.641  71.202  38.915  1.00  0.00    -0.070 CG0
ATOM      9  C   UNL     1     -11.956  72.138  40.054  1.00  0.00     0.039 C 
ATOM     10  G   UNL     1     -12.174  71.540  37.539  1.00  0.00     0.000 G0
ENDBRANCH   6   7
ENDBRANCH   5   6
ENDBRANCH   3   5
ENDBRANCH   1   3
BRANCH   1  11
ATOM     11  C   UNL     1      -9.009  71.686  35.723  1.00  0.00     0.087 C 
BRANCH  11  12
ATOM     12  C   UNL     1     -10.537  71.867  35.498  1.00  0.00     0.066 C 
BRANCH  12  13
ATOM     13  C   UNL     1     -11.206  72.399  36.751  1.00  0.00     0.140 C 
ATOM     14  O   UNL     1     -10.929  73.519  37.153  1.00  0.00    -0.299 OA
BRANCH  13  15
ATOM     15  C   UNL     1     -12.186  71.551  37.526  1.00  0.00     0.106 CG0
ATOM     16  G   UNL     1     -11.613  71.198  38.882  1.00  0.00     0.000 G0
ENDBRANCH  13  15
ENDBRANCH  12  13
BRANCH  12  17
ATOM     17  C   UNL     1     -10.844  72.764  34.259  1.00  0.00    -0.006 C 
ATOM     18  C   UNL     1     -10.520  72.033  32.944  1.00  0.00     0.008 C 
ATOM     19  C   UNL     1     -12.318  73.211  34.235  1.00  0.00     0.008 C 
ENDBRANCH  12  17
ENDBRANCH  11  12
ENDBRANCH   1  11
TORSDOF 1
ENDMDL
MODEL 6
REMARK VINA RESULT:    -3.227     12.375     14.671
REMARK INTER + INTRA:          -4.962
REMARK INTER:                  -4.897
REMARK INTRA:                  -0.065
REMARK UNBOUND:                -0.037
REMARK SMILES CC1=CCC[C@@H](C)C(=O)C[C@H](C(C)C)C(=O)C1
REMARK SMILES IDX 8 1 9 2 6 3 7 4 5 5 4 6 3 7 2 8 1 9 10 11 11 12 15 13 16 14
REMARK SMILES IDX 17 15 12 17 13 18 14 19
REMARK H PARENT
REMARK Flexibility Score: 70.00
ROOT
ATOM      1  C   UNL     1      -3.193  69.608  36.397  1.00  0.00     0.136 C 
ATOM      2  O   UNL     1      -2.260  68.822  36.393  1.00  0.00    -0.299 OA
ENDROOT
BRANCH   1   3
ATOM      3  C   UNL     1      -3.405  70.470  37.630  1.00  0.00     0.053 C 
ATOM      4  C   UNL     1      -2.190  70.381  38.563  1.00  0.00     0.016 C 
BRANCH   3   5
ATOM      5  C   UNL     1      -4.717  70.123  38.376  1.00  0.00     0.015 C 
BRANCH   5   6
ATOM      6  C   UNL     1      -5.107  68.628  38.369  1.00  0.00     0.028 C 
BRANCH   6   7
ATOM      7  C   UNL     1      -6.583  68.313  38.230  1.00  0.00    -0.028 C 
ATOM      8  C   UNL     1      -7.360  68.543  37.146  1.00  0.00    -0.070 CG0
ATOM      9  C   UNL     1      -8.791  68.070  37.195  1.00  0.00     0.039 C 
ATOM     10  G   UNL     1      -6.889  69.284  35.913  1.00  0.00     0.000 G0
ENDBRANCH   6   7
ENDBRANCH   5   6
ENDBRANCH   3   5
ENDBRANCH   1   3
BRANCH   1  11
ATOM     11  C   UNL     1      -4.107  69.654  35.182  1.00  0.00     0.087 C 
BRANCH  11  12
ATOM     12  C   UNL     1      -4.732  68.286  34.788  1.00  0.00     0.066 C 
BRANCH  12  13
ATOM     13  C   UNL     1      -6.243  68.326  34.921  1.00  0.00     0.140 C 
ATOM     14  O   UNL     1      -6.929  67.599  34.218  1.00  0.00    -0.299 OA
BRANCH  13  15
ATOM     15  C   UNL     1      -6.911  69.274  35.888  1.00  0.00     0.106 CG0
ATOM     16  G   UNL     1      -7.361  68.527  37.125  1.00  0.00     0.000 G0
ENDBRANCH  13  15
ENDBRANCH  12  13
BRANCH  12  17
ATOM     17  C   UNL     1      -4.294  67.832  33.361  1.00  0.00    -0.006 C 
ATOM     18  C   UNL     1      -3.258  68.798  32.759  1.00  0.00     0.008 C 
ATOM     19  C   UNL     1      -3.703  66.409  33.376  1.00  0.00     0.008 C 
ENDBRANCH  12  17
ENDBRANCH  11  12
ENDBRANCH   1  11
TORSDOF 1
ENDMDL
MODEL 7
REMARK VINA RESULT:    -3.112     12.386     13.908
REMARK INTER + INTRA:          -4.786
REMARK INTER:                  -4.736
REMARK INTRA:                  -0.050
REMARK UNBOUND:                -0.037
REMARK SMILES CC1=CCC[C@@H](C)C(=O)C[C@H](C(C)C)C(=O)C1
REMARK SMILES IDX 8 1 9 2 6 3 7 4 5 5 4 6 3 7 2 8 1 9 10 11 11 12 15 13 16 14
REMARK SMILES IDX 17 15 12 17 13 18 14 19
REMARK H PARENT
REMARK Flexibility Score: 70.00
ROOT
ATOM      1  C   UNL     1      -5.458  69.546  37.504  1.00  0.00     0.136 C 
ATOM      2  O   UNL     1      -5.686  70.743  37.578  1.00  0.00    -0.299 OA
ENDROOT
BRANCH   1   3
ATOM      3  C   UNL     1      -4.014  69.081  37.585  1.00  0.00     0.053 C 
ATOM      4  C   UNL     1      -3.327  69.673  38.823  1.00  0.00     0.016 C 
BRANCH   3   5
ATOM      5  C   UNL     1      -3.219  69.395  36.293  1.00  0.00     0.015 C 
BRANCH   5   6
ATOM      6  C   UNL     1      -4.013  69.253  34.976  1.00  0.00     0.028 C 
BRANCH   6   7
ATOM      7  C   UNL     1      -4.134  67.855  34.403  1.00  0.00    -0.028 C 
ATOM      8  C   UNL     1      -5.227  67.314  33.817  1.00  0.00    -0.070 CG0
ATOM      9  C   UNL     1      -5.100  65.927  33.239  1.00  0.00     0.039 C 
ATOM     10  G   UNL     1      -6.575  68.000  33.751  1.00  0.00     0.000 G0
ENDBRANCH   6   7
ENDBRANCH   5   6
ENDBRANCH   3   5
ENDBRANCH   1   3
BRANCH   1  11
ATOM     11  C   UNL     1      -6.629  68.597  37.301  1.00  0.00     0.087 C 
BRANCH  11  12
ATOM     12  C   UNL     1      -7.491  68.890  36.041  1.00  0.00     0.066 C 
BRANCH  12  13
ATOM     13  C   UNL     1      -7.355  67.773  35.024  1.00  0.00     0.140 C 
ATOM     14  O   UNL     1      -7.857  66.682  35.255  1.00  0.00    -0.299 OA
BRANCH  13  15
ATOM     15  C   UNL     1      -6.580  67.979  33.744  1.00  0.00     0.106 CG0
ATOM     16  G   UNL     1      -5.230  67.302  33.835  1.00  0.00     0.000 G0
ENDBRANCH  13  15
ENDBRANCH  12  13
BRANCH  12  17
ATOM     17  C   UNL     1      -8.985  69.157  36.403  1.00  0.00    -0.006 C 
ATOM     18  C   UNL     1      -9.388  68.425  37.696  1.00  0.00     0.008 C 
ATOM     19  C   UNL     1      -9.268  70.662  36.570  1.00  0.00     0.008 C 
ENDBRANCH  12  17
ENDBRANCH  11  12
ENDBRANCH   1  11
TORSDOF 1
ENDMDL
MODEL 8
REMARK VINA RESULT:    -2.954      4.117      6.499
REMARK INTER + INTRA:          -4.546
REMARK INTER:                  -4.600
REMARK INTRA:                   0.054
REMARK UNBOUND:                -0.037
REMARK SMILES CC1=CCC[C@@H](C)C(=O)C[C@H](C(C)C)C(=O)C1
REMARK SMILES IDX 8 1 9 2 6 3 7 4 5 5 4 6 3 7 2 8 1 9 10 11 11 12 15 13 16 14
REMARK SMILES IDX 17 15 12 17 13 18 14 19
REMARK H PARENT
REMARK Flexibility Score: 70.00
ROOT
ATOM      1  C   UNL     1      -4.085  68.999  26.117  1.00  0.00     0.136 C 
ATOM      2  O   UNL     1      -4.864  69.082  27.052  1.00  0.00    -0.299 OA
ENDROOT
BRANCH   1   3
ATOM      3  C   UNL     1      -2.775  69.763  26.200  1.00  0.00     0.053 C 
ATOM      4  C   UNL     1      -2.252  69.778  27.643  1.00  0.00     0.016 C 
BRANCH   3   5
ATOM      5  C   UNL     1      -2.888  71.196  25.625  1.00  0.00     0.015 C 
BRANCH   5   6
ATOM      6  C   UNL     1      -3.361  71.285  24.157  1.00  0.00     0.028 C 
BRANCH   6   7
ATOM      7  C   UNL     1      -4.775  71.780  23.928  1.00  0.00    -0.028 C 
ATOM      8  C   UNL     1      -5.801  71.077  23.394  1.00  0.00    -0.070 CG0
ATOM      9  C   UNL     1      -7.153  71.742  23.337  1.00  0.00     0.039 C 
ATOM     10  G   UNL     1      -5.658  69.687  22.812  1.00  0.00     0.000 G0
ENDBRANCH   6   7
ENDBRANCH   5   6
ENDBRANCH   3   5
ENDBRANCH   1   3
BRANCH   1  11
ATOM     11  C   UNL     1      -4.487  68.163  24.911  1.00  0.00     0.087 C 
BRANCH  11  12
ATOM     12  C   UNL     1      -6.019  67.947  24.753  1.00  0.00     0.066 C 
BRANCH  12  13
ATOM     13  C   UNL     1      -6.546  68.694  23.542  1.00  0.00     0.140 C 
ATOM     14  O   UNL     1      -7.683  68.479  23.150  1.00  0.00    -0.299 OA
BRANCH  13  15
ATOM     15  C   UNL     1      -5.674  69.677  22.797  1.00  0.00     0.106 CG0
ATOM     16  G   UNL     1      -5.812  71.059  23.399  1.00  0.00     0.000 G0
ENDBRANCH  13  15
ENDBRANCH  12  13
BRANCH  12  17
ATOM     17  C   UNL     1      -6.394  66.434  24.701  1.00  0.00    -0.006 C 
ATOM     18  C   UNL     1      -5.721  65.730  23.509  1.00  0.00     0.008 C 
ATOM     19  C   UNL     1      -5.999  65.707  26.000  1.00  0.00     0.008 C 
ENDBRANCH  12  17
ENDBRANCH  11  12
ENDBRANCH   1  11
TORSDOF 1
ENDMDL
MODEL 9
REMARK VINA RESULT:    -2.847      4.904      8.049
REMARK INTER + INTRA:          -4.383
REMARK INTER:                  -4.158
REMARK INTRA:                  -0.225
REMARK UNBOUND:                -0.037
REMARK SMILES CC1=CCC[C@@H](C)C(=O)C[C@H](C(C)C)C(=O)C1
REMARK SMILES IDX 8 1 9 2 6 3 7 4 5 5 4 6 3 7 2 8 1 9 10 11 11 12 15 13 16 14
REMARK SMILES IDX 17 15 12 17 13 18 14 19
REMARK H PARENT
REMARK Flexibility Score: 70.00
ROOT
ATOM      1  C   UNL     1      -6.673  69.674  23.631  1.00  0.00     0.136 C 
ATOM      2  O   UNL     1      -7.133  70.049  22.565  1.00  0.00    -0.299 OA
ENDROOT
BRANCH   1   3
ATOM      3  C   UNL     1      -6.020  70.705  24.536  1.00  0.00     0.053 C 
ATOM      4  C   UNL     1      -6.861  71.988  24.585  1.00  0.00     0.016 C 
BRANCH   3   5
ATOM      5  C   UNL     1      -4.555  71.005  24.131  1.00  0.00     0.015 C 
BRANCH   5   6
ATOM      6  C   UNL     1      -3.479  70.500  25.117  1.00  0.00     0.028 C 
BRANCH   6   7
ATOM      7  C   UNL     1      -3.964  70.061  26.485  1.00  0.00    -0.028 C 
ATOM      8  C   UNL     1      -4.035  68.792  26.947  1.00  0.00    -0.070 CG0
ATOM      9  C   UNL     1      -4.470  68.589  28.376  1.00  0.00     0.039 C 
ATOM     10  G   UNL     1      -3.749  67.569  26.101  1.00  0.00     0.000 G0
ENDBRANCH   6   7
ENDBRANCH   5   6
ENDBRANCH   3   5
ENDBRANCH   1   3
BRANCH   1  11
ATOM     11  C   UNL     1      -6.751  68.195  23.974  1.00  0.00     0.087 C 
BRANCH  11  12
ATOM     12  C   UNL     1      -5.377  67.467  24.026  1.00  0.00     0.066 C 
BRANCH  12  13
ATOM     13  C   UNL     1      -5.027  67.079  25.450  1.00  0.00     0.140 C 
ATOM     14  O   UNL     1      -5.797  66.377  26.090  1.00  0.00    -0.299 OA
BRANCH  13  15
ATOM     15  C   UNL     1      -3.756  67.573  26.099  1.00  0.00     0.106 CG0
ATOM     16  G   UNL     1      -4.043  68.791  26.950  1.00  0.00     0.000 G0
ENDBRANCH  13  15
ENDBRANCH  12  13
BRANCH  12  17
ATOM     17  C   UNL     1      -5.330  66.237  23.068  1.00  0.00    -0.006 C 
ATOM     18  C   UNL     1      -6.586  66.169  22.181  1.00  0.00     0.008 C 
ATOM     19  C   UNL     1      -4.081  66.268  22.167  1.00  0.00     0.008 C 
ENDBRANCH  12  17
ENDBRANCH  11  12
ENDBRANCH   1  11
TORSDOF 1
ENDMDL
