MODEL 1
REMARK VINA RESULT:     8.203      0.000      0.000
REMARK INTER + INTRA:          15.763
REMARK INTER:                  15.876
REMARK INTRA:                  -0.112
REMARK UNBOUND:                -0.112
REMARK SMILES CCCCCCCCCCCCCCCCCC(=O)[O-]
REMARK SMILES IDX 10 1 11 2 12 3 13 4 14 5 15 6 16 7 17 8 18 9 19 10 20 11
REMARK SMILES IDX 9 12 8 13 7 14 6 15 5 16 4 17 3 18 2 19 1 20
REMARK H PARENT
REMARK Flexibility Score: inf
ROOT
ATOM      1  C   UNL     1     -11.887  19.370 -15.341  1.00  0.00     0.000 C 
ENDROOT
BRANCH   1   2
ATOM      2  C   UNL     1     -10.654  19.328 -16.261  1.00  0.00     0.000 C 
BRANCH   2   3
ATOM      3  C   UNL     1     -10.845  19.979 -17.643  1.00  0.00     0.000 C 
BRANCH   3   4
ATOM      4  C   UNL     1     -11.742  19.148 -18.577  1.00  0.00     0.000 C 
BRANCH   4   5
ATOM      5  C   UNL     1     -12.154  19.921 -19.840  1.00  0.00     0.000 C 
BRANCH   5   6
ATOM      6  C   UNL     1     -13.621  19.679 -20.233  1.00  0.00     0.000 C 
BRANCH   6   7
ATOM      7  C   UNL     1     -14.251  20.954 -20.814  1.00  0.00     0.006 C 
BRANCH   7   8
ATOM      8  C   UNL     1     -14.168  20.998 -22.345  1.00  0.00     0.053 C 
BRANCH   8   9
ATOM      9  C   UNL     1     -13.372  19.853 -22.893  1.00  0.00     0.041 C 
ATOM     10  O   UNL     1     -12.142  19.991 -23.124  1.00  0.00    -0.550 OA
ATOM     11  O   UNL     1     -13.981  18.625 -23.115  1.00  0.00    -0.550 OA
ENDBRANCH   8   9
ENDBRANCH   7   8
ENDBRANCH   6   7
ENDBRANCH   5   6
ENDBRANCH   4   5
ENDBRANCH   3   4
ENDBRANCH   2   3
ENDBRANCH   1   2
BRANCH   1  12
ATOM     12  C   UNL     1     -11.524  19.513 -13.855  1.00  0.00     0.000 C 
BRANCH  12  13
ATOM     13  C   UNL     1     -12.786  19.667 -12.994  1.00  0.00    -0.000 C 
BRANCH  13  14
ATOM     14  C   UNL     1     -13.012  18.472 -12.054  1.00  0.00    -0.000 C 
BRANCH  14  15
ATOM     15  C   UNL     1     -13.347  18.902 -10.618  1.00  0.00    -0.000 C 
BRANCH  15  16
ATOM     16  C   UNL     1     -12.641  17.998  -9.597  1.00  0.00    -0.000 C 
BRANCH  16  17
ATOM     17  C   UNL     1     -12.802  18.497  -8.151  1.00  0.00    -0.000 C 
BRANCH  17  18
ATOM     18  C   UNL     1     -13.540  19.841  -8.068  1.00  0.00    -0.000 C 
BRANCH  18  19
ATOM     19  C   UNL     1     -12.753  20.847  -7.221  1.00  0.00    -0.003 C 
ATOM     20  C   UNL     1     -11.560  21.406  -7.992  1.00  0.00     0.004 C 
ENDBRANCH  18  19
ENDBRANCH  17  18
ENDBRANCH  16  17
ENDBRANCH  15  16
ENDBRANCH  14  15
ENDBRANCH  13  14
ENDBRANCH  12  13
ENDBRANCH   1  12
TORSDOF 16
ENDMDL
MODEL 2
REMARK VINA RESULT:     9.348      1.303      1.527
REMARK INTER + INTRA:          17.979
REMARK INTER:                  18.386
REMARK INTRA:                  -0.408
REMARK UNBOUND:                -0.112
REMARK SMILES CCCCCCCCCCCCCCCCCC(=O)[O-]
REMARK SMILES IDX 10 1 11 2 12 3 13 4 14 5 15 6 16 7 17 8 18 9 19 10 20 11
REMARK SMILES IDX 9 12 8 13 7 14 6 15 5 16 4 17 3 18 2 19 1 20
REMARK H PARENT
REMARK Flexibility Score: inf
ROOT
ATOM      1  C   UNL     1     -12.874  18.536 -14.652  1.00  0.00     0.000 C 
ENDROOT
BRANCH   1   2
ATOM      2  C   UNL     1     -12.955  18.396 -16.183  1.00  0.00     0.000 C 
BRANCH   2   3
ATOM      3  C   UNL     1     -14.315  17.919 -16.726  1.00  0.00     0.000 C 
BRANCH   3   4
ATOM      4  C   UNL     1     -14.382  17.927 -18.263  1.00  0.00     0.000 C 
BRANCH   4   5
ATOM      5  C   UNL     1     -13.990  19.288 -18.863  1.00  0.00     0.000 C 
BRANCH   5   6
ATOM      6  C   UNL     1     -14.518  19.479 -20.294  1.00  0.00     0.000 C 
BRANCH   6   7
ATOM      7  C   UNL     1     -14.359  20.939 -20.746  1.00  0.00     0.006 C 
BRANCH   7   8
ATOM      8  C   UNL     1     -13.942  21.049 -22.219  1.00  0.00     0.053 C 
BRANCH   8   9
ATOM      9  C   UNL     1     -13.283  19.795 -22.706  1.00  0.00     0.041 C 
ATOM     10  O   UNL     1     -12.027  19.702 -22.711  1.00  0.00    -0.550 OA
ATOM     11  O   UNL     1     -14.056  18.720 -23.123  1.00  0.00    -0.550 OA
ENDBRANCH   8   9
ENDBRANCH   7   8
ENDBRANCH   6   7
ENDBRANCH   5   6
ENDBRANCH   4   5
ENDBRANCH   3   4
ENDBRANCH   2   3
ENDBRANCH   1   2
BRANCH   1  12
ATOM     12  C   UNL     1     -12.102  19.787 -14.203  1.00  0.00     0.000 C 
BRANCH  12  13
ATOM     13  C   UNL     1     -11.840  19.755 -12.690  1.00  0.00    -0.000 C 
BRANCH  13  14
ATOM     14  C   UNL     1     -13.087  19.366 -11.880  1.00  0.00    -0.000 C 
BRANCH  14  15
ATOM     15  C   UNL     1     -12.959  17.985 -11.221  1.00  0.00    -0.000 C 
BRANCH  15  16
ATOM     16  C   UNL     1     -12.893  18.111  -9.692  1.00  0.00    -0.000 C 
BRANCH  16  17
ATOM     17  C   UNL     1     -13.198  19.537  -9.201  1.00  0.00    -0.000 C 
BRANCH  17  18
ATOM     18  C   UNL     1     -13.175  19.653  -7.671  1.00  0.00    -0.000 C 
BRANCH  18  19
ATOM     19  C   UNL     1     -12.491  20.951  -7.229  1.00  0.00    -0.003 C 
ATOM     20  C   UNL     1     -11.577  21.494  -8.324  1.00  0.00     0.004 C 
ENDBRANCH  18  19
ENDBRANCH  17  18
ENDBRANCH  16  17
ENDBRANCH  15  16
ENDBRANCH  14  15
ENDBRANCH  13  14
ENDBRANCH  12  13
ENDBRANCH   1  12
TORSDOF 16
ENDMDL
MODEL 3
REMARK VINA RESULT:     9.483      5.207     11.116
REMARK INTER + INTRA:          18.241
REMARK INTER:                  19.069
REMARK INTRA:                  -0.828
REMARK UNBOUND:                -0.112
REMARK SMILES CCCCCCCCCCCCCCCCCC(=O)[O-]
REMARK SMILES IDX 10 1 11 2 12 3 13 4 14 5 15 6 16 7 17 8 18 9 19 10 20 11
REMARK SMILES IDX 9 12 8 13 7 14 6 15 5 16 4 17 3 18 2 19 1 20
REMARK H PARENT
REMARK Flexibility Score: inf
ROOT
ATOM      1  C   UNL     1     -13.317  18.713 -14.731  1.00  0.00     0.000 C 
ENDROOT
BRANCH   1   2
ATOM      2  C   UNL     1     -12.080  19.490 -14.246  1.00  0.00     0.000 C 
BRANCH   2   3
ATOM      3  C   UNL     1     -11.984  19.682 -12.721  1.00  0.00     0.000 C 
BRANCH   3   4
ATOM      4  C   UNL     1     -13.167  19.056 -11.963  1.00  0.00     0.000 C 
BRANCH   4   5
ATOM      5  C   UNL     1     -12.748  17.845 -11.113  1.00  0.00     0.000 C 
BRANCH   5   6
ATOM      6  C   UNL     1     -12.701  18.164  -9.610  1.00  0.00     0.000 C 
BRANCH   6   7
ATOM      7  C   UNL     1     -13.364  19.518  -9.315  1.00  0.00     0.006 C 
BRANCH   7   8
ATOM      8  C   UNL     1     -13.327  19.871  -7.822  1.00  0.00     0.053 C 
BRANCH   8   9
ATOM      9  C   UNL     1     -12.348  20.968  -7.534  1.00  0.00     0.041 C 
ATOM     10  O   UNL     1     -11.646  21.449  -8.461  1.00  0.00    -0.550 OA
ATOM     11  O   UNL     1     -12.238  21.482  -6.248  1.00  0.00    -0.550 OA
ENDBRANCH   8   9
ENDBRANCH   7   8
ENDBRANCH   6   7
ENDBRANCH   5   6
ENDBRANCH   4   5
ENDBRANCH   3   4
ENDBRANCH   2   3
ENDBRANCH   1   2
BRANCH   1  12
ATOM     12  C   UNL     1     -13.159  18.162 -16.157  1.00  0.00     0.000 C 
BRANCH  12  13
ATOM     13  C   UNL     1     -14.508  17.681 -16.711  1.00  0.00    -0.000 C 
BRANCH  13  14
ATOM     14  C   UNL     1     -14.552  17.678 -18.247  1.00  0.00    -0.000 C 
BRANCH  14  15
ATOM     15  C   UNL     1     -13.839  18.892 -18.862  1.00  0.00    -0.000 C 
BRANCH  15  16
ATOM     16  C   UNL     1     -14.642  19.459 -20.042  1.00  0.00    -0.000 C 
BRANCH  16  17
ATOM     17  C   UNL     1     -13.964  20.678 -20.689  1.00  0.00    -0.000 C 
BRANCH  17  18
ATOM     18  C   UNL     1     -14.311  20.826 -22.177  1.00  0.00    -0.000 C 
BRANCH  18  19
ATOM     19  C   UNL     1     -13.548  19.802 -23.023  1.00  0.00    -0.003 C 
ATOM     20  C   UNL     1     -12.039  19.996 -22.900  1.00  0.00     0.004 C 
ENDBRANCH  18  19
ENDBRANCH  17  18
ENDBRANCH  16  17
ENDBRANCH  15  16
ENDBRANCH  14  15
ENDBRANCH  13  14
ENDBRANCH  12  13
ENDBRANCH   1  12
TORSDOF 16
ENDMDL
MODEL 4
REMARK VINA RESULT:    10.143      1.179      1.658
REMARK INTER + INTRA:          19.518
REMARK INTER:                  19.692
REMARK INTRA:                  -0.174
REMARK UNBOUND:                -0.112
REMARK SMILES CCCCCCCCCCCCCCCCCC(=O)[O-]
REMARK SMILES IDX 10 1 11 2 12 3 13 4 14 5 15 6 16 7 17 8 18 9 19 10 20 11
REMARK SMILES IDX 9 12 8 13 7 14 6 15 5 16 4 17 3 18 2 19 1 20
REMARK H PARENT
REMARK Flexibility Score: inf
ROOT
ATOM      1  C   UNL     1     -11.921  19.011 -15.711  1.00  0.00     0.000 C 
ENDROOT
BRANCH   1   2
ATOM      2  C   UNL     1     -10.988  19.360 -16.886  1.00  0.00     0.000 C 
BRANCH   2   3
ATOM      3  C   UNL     1     -11.405  18.777 -18.249  1.00  0.00     0.000 C 
BRANCH   3   4
ATOM      4  C   UNL     1     -11.620  19.859 -19.321  1.00  0.00     0.000 C 
BRANCH   4   5
ATOM      5  C   UNL     1     -12.068  19.271 -20.670  1.00  0.00     0.000 C 
BRANCH   5   6
ATOM      6  C   UNL     1     -11.142  19.673 -21.829  1.00  0.00     0.000 C 
BRANCH   6   7
ATOM      7  C   UNL     1     -11.949  19.926 -23.112  1.00  0.00     0.006 C 
BRANCH   7   8
ATOM      8  C   UNL     1     -13.027  21.000 -22.919  1.00  0.00     0.053 C 
BRANCH   8   9
ATOM      9  C   UNL     1     -14.291  20.426 -22.358  1.00  0.00     0.041 C 
ATOM     10  O   UNL     1     -14.759  19.353 -22.822  1.00  0.00    -0.550 OA
ATOM     11  O   UNL     1     -14.932  21.057 -21.300  1.00  0.00    -0.550 OA
ENDBRANCH   8   9
ENDBRANCH   7   8
ENDBRANCH   6   7
ENDBRANCH   5   6
ENDBRANCH   4   5
ENDBRANCH   3   4
ENDBRANCH   2   3
ENDBRANCH   1   2
BRANCH   1  12
ATOM     12  C   UNL     1     -11.214  19.058 -14.348  1.00  0.00     0.000 C 
BRANCH  12  13
ATOM     13  C   UNL     1     -11.978  19.956 -13.365  1.00  0.00    -0.000 C 
BRANCH  13  14
ATOM     14  C   UNL     1     -13.169  19.239 -12.710  1.00  0.00    -0.000 C 
BRANCH  14  15
ATOM     15  C   UNL     1     -12.760  18.414 -11.480  1.00  0.00    -0.000 C 
BRANCH  15  16
ATOM     16  C   UNL     1     -13.380  18.995 -10.201  1.00  0.00    -0.000 C 
BRANCH  16  17
ATOM     17  C   UNL     1     -12.967  18.222  -8.937  1.00  0.00    -0.000 C 
BRANCH  17  18
ATOM     18  C   UNL     1     -12.780  19.136  -7.718  1.00  0.00    -0.000 C 
BRANCH  18  19
ATOM     19  C   UNL     1     -12.777  20.611  -8.134  1.00  0.00    -0.003 C 
ATOM     20  C   UNL     1     -11.782  21.417  -7.304  1.00  0.00     0.004 C 
ENDBRANCH  18  19
ENDBRANCH  17  18
ENDBRANCH  16  17
ENDBRANCH  15  16
ENDBRANCH  14  15
ENDBRANCH  13  14
ENDBRANCH  12  13
ENDBRANCH   1  12
TORSDOF 16
ENDMDL
MODEL 5
REMARK VINA RESULT:    10.166      5.045     11.232
REMARK INTER + INTRA:          19.563
REMARK INTER:                  19.923
REMARK INTRA:                  -0.360
REMARK UNBOUND:                -0.112
REMARK SMILES CCCCCCCCCCCCCCCCCC(=O)[O-]
REMARK SMILES IDX 10 1 11 2 12 3 13 4 14 5 15 6 16 7 17 8 18 9 19 10 20 11
REMARK SMILES IDX 9 12 8 13 7 14 6 15 5 16 4 17 3 18 2 19 1 20
REMARK H PARENT
REMARK Flexibility Score: inf
ROOT
ATOM      1  C   UNL     1     -11.296  18.809 -15.378  1.00  0.00     0.000 C 
ENDROOT
BRANCH   1   2
ATOM      2  C   UNL     1     -11.629  19.642 -14.126  1.00  0.00     0.000 C 
BRANCH   2   3
ATOM      3  C   UNL     1     -12.990  19.333 -13.476  1.00  0.00     0.000 C 
BRANCH   3   4
ATOM      4  C   UNL     1     -12.953  19.417 -11.940  1.00  0.00     0.000 C 
BRANCH   4   5
ATOM      5  C   UNL     1     -12.744  18.045 -11.279  1.00  0.00     0.000 C 
BRANCH   5   6
ATOM      6  C   UNL     1     -12.938  18.085  -9.755  1.00  0.00     0.000 C 
BRANCH   6   7
ATOM      7  C   UNL     1     -13.477  19.452  -9.307  1.00  0.00     0.006 C 
BRANCH   7   8
ATOM      8  C   UNL     1     -13.274  19.694  -7.805  1.00  0.00     0.053 C 
BRANCH   8   9
ATOM      9  C   UNL     1     -12.415  20.894  -7.546  1.00  0.00     0.041 C 
ATOM     10  O   UNL     1     -12.192  21.268  -6.365  1.00  0.00    -0.550 OA
ATOM     11  O   UNL     1     -11.834  21.575  -8.607  1.00  0.00    -0.550 OA
ENDBRANCH   8   9
ENDBRANCH   7   8
ENDBRANCH   6   7
ENDBRANCH   5   6
ENDBRANCH   4   5
ENDBRANCH   3   4
ENDBRANCH   2   3
ENDBRANCH   1   2
BRANCH   1  12
ATOM     12  C   UNL     1     -10.931  19.673 -16.594  1.00  0.00     0.000 C 
BRANCH  12  13
ATOM     13  C   UNL     1     -11.281  18.952 -17.904  1.00  0.00    -0.000 C 
BRANCH  13  14
ATOM     14  C   UNL     1     -11.589  19.925 -19.053  1.00  0.00    -0.000 C 
BRANCH  14  15
ATOM     15  C   UNL     1     -12.042  19.206 -20.333  1.00  0.00    -0.000 C 
BRANCH  15  16
ATOM     16  C   UNL     1     -11.373  19.820 -21.571  1.00  0.00    -0.000 C 
BRANCH  16  17
ATOM     17  C   UNL     1     -12.166  19.563 -22.863  1.00  0.00    -0.000 C 
BRANCH  17  18
ATOM     18  C   UNL     1     -13.685  19.585 -22.640  1.00  0.00    -0.000 C 
BRANCH  18  19
ATOM     19  C   UNL     1     -14.166  20.995 -22.282  1.00  0.00    -0.003 C 
ATOM     20  C   UNL     1     -14.621  21.073 -20.828  1.00  0.00     0.004 C 
ENDBRANCH  18  19
ENDBRANCH  17  18
ENDBRANCH  16  17
ENDBRANCH  15  16
ENDBRANCH  14  15
ENDBRANCH  13  14
ENDBRANCH  12  13
ENDBRANCH   1  12
TORSDOF 16
ENDMDL
