MODEL 1
REMARK VINA RESULT:    -2.143      0.000      0.000
REMARK INTER + INTRA:          -2.143
REMARK INTER:                  -2.143
REMARK INTRA:                   0.000
REMARK UNBOUND:                 0.000
REMARK SMILES CC(=O)[O-]
REMARK SMILES IDX 1 1 2 2 3 3 4 4
REMARK H PARENT
REMARK Flexibility Score: inf
ROOT
ATOM      1  C   UNL     1     -20.826 -10.066   4.185  1.00  0.00     0.063 C 
ATOM      2  C   UNL     1     -20.193 -11.359   3.798  1.00  0.00     0.038 C 
ATOM      3  O   UNL     1     -18.980 -11.392   3.463  1.00  0.00    -0.550 OA
ATOM      4  O   UNL     1     -20.925 -12.537   3.857  1.00  0.00    -0.550 OA
ENDROOT
TORSDOF 0
ENDMDL
MODEL 2
REMARK VINA RESULT:    -2.111      8.906      9.478
REMARK INTER + INTRA:          -2.111
REMARK INTER:                  -2.111
REMARK INTRA:                   0.000
REMARK UNBOUND:                 0.000
REMARK SMILES CC(=O)[O-]
REMARK SMILES IDX 1 1 2 2 3 3 4 4
REMARK H PARENT
REMARK Flexibility Score: inf
ROOT
ATOM      1  C   UNL     1     -14.980 -16.251  -3.395  1.00  0.00     0.063 C 
ATOM      2  C   UNL     1     -16.226 -15.434  -3.338  1.00  0.00     0.038 C 
ATOM      3  O   UNL     1     -17.187 -15.797  -2.610  1.00  0.00    -0.550 OA
ATOM      4  O   UNL     1     -16.309 -14.242  -4.046  1.00  0.00    -0.550 OA
ENDROOT
TORSDOF 0
ENDMDL
MODEL 3
REMARK VINA RESULT:    -2.091     17.137     17.526
REMARK INTER + INTRA:          -2.091
REMARK INTER:                  -2.091
REMARK INTRA:                   0.000
REMARK UNBOUND:                 0.000
REMARK SMILES CC(=O)[O-]
REMARK SMILES IDX 1 1 2 2 3 3 4 4
REMARK H PARENT
REMARK Flexibility Score: inf
ROOT
ATOM      1  C   UNL     1     -18.977 -29.052  -0.604  1.00  0.00     0.063 C 
ATOM      2  C   UNL     1     -18.140 -27.916  -1.088  1.00  0.00     0.038 C 
ATOM      3  O   UNL     1     -16.928 -27.841  -0.759  1.00  0.00    -0.550 OA
ATOM      4  O   UNL     1     -18.683 -26.968  -1.944  1.00  0.00    -0.550 OA
ENDROOT
TORSDOF 0
ENDMDL
MODEL 4
REMARK VINA RESULT:    -2.074      8.984      9.489
REMARK INTER + INTRA:          -2.074
REMARK INTER:                  -2.074
REMARK INTRA:                   0.000
REMARK UNBOUND:                 0.000
REMARK SMILES CC(=O)[O-]
REMARK SMILES IDX 1 1 2 2 3 3 4 4
REMARK H PARENT
REMARK Flexibility Score: inf
ROOT
ATOM      1  C   UNL     1     -16.278 -14.481  -4.473  1.00  0.00     0.063 C 
ATOM      2  C   UNL     1     -16.105 -15.485  -3.384  1.00  0.00     0.038 C 
ATOM      3  O   UNL     1     -17.084 -15.808  -2.662  1.00  0.00    -0.550 OA
ATOM      4  O   UNL     1     -14.877 -16.106  -3.199  1.00  0.00    -0.550 OA
ENDROOT
TORSDOF 0
ENDMDL
MODEL 5
REMARK VINA RESULT:    -2.051     17.198     17.416
REMARK INTER + INTRA:          -2.051
REMARK INTER:                  -2.051
REMARK INTRA:                   0.000
REMARK UNBOUND:                 0.000
REMARK SMILES CC(=O)[O-]
REMARK SMILES IDX 1 1 2 2 3 3 4 4
REMARK H PARENT
REMARK Flexibility Score: inf
ROOT
ATOM      1  C   UNL     1     -18.654 -27.080  -2.163  1.00  0.00     0.063 C 
ATOM      2  C   UNL     1     -18.048 -27.904  -1.077  1.00  0.00     0.038 C 
ATOM      3  O   UNL     1     -16.822 -27.797  -0.813  1.00  0.00    -0.550 OA
ATOM      4  O   UNL     1     -18.846 -28.751  -0.320  1.00  0.00    -0.550 OA
ENDROOT
TORSDOF 0
ENDMDL
MODEL 6
REMARK VINA RESULT:    -2.043      1.710      1.988
REMARK INTER + INTRA:          -2.043
REMARK INTER:                  -2.043
REMARK INTRA:                   0.000
REMARK UNBOUND:                 0.000
REMARK SMILES CC(=O)[O-]
REMARK SMILES IDX 1 1 2 2 3 3 4 4
REMARK H PARENT
REMARK Flexibility Score: inf
ROOT
ATOM      1  C   UNL     1     -19.393 -11.376   3.659  1.00  0.00     0.063 C 
ATOM      2  C   UNL     1     -20.683 -11.901   4.192  1.00  0.00     0.038 C 
ATOM      3  O   UNL     1     -21.247 -12.876   3.630  1.00  0.00    -0.550 OA
ATOM      4  O   UNL     1     -21.237 -11.350   5.338  1.00  0.00    -0.550 OA
ENDROOT
TORSDOF 0
ENDMDL
MODEL 7
REMARK VINA RESULT:    -2.036      9.040      9.556
REMARK INTER + INTRA:          -2.036
REMARK INTER:                  -2.036
REMARK INTRA:                   0.000
REMARK UNBOUND:                 0.000
REMARK SMILES CC(=O)[O-]
REMARK SMILES IDX 1 1 2 2 3 3 4 4
REMARK H PARENT
REMARK Flexibility Score: inf
ROOT
ATOM      1  C   UNL     1     -17.927 -17.783  -3.566  1.00  0.00     0.063 C 
ATOM      2  C   UNL     1     -17.006 -16.754  -3.004  1.00  0.00     0.038 C 
ATOM      3  O   UNL     1     -17.463 -15.818  -2.297  1.00  0.00    -0.550 OA
ATOM      4  O   UNL     1     -15.638 -16.856  -3.214  1.00  0.00    -0.550 OA
ENDROOT
TORSDOF 0
ENDMDL
MODEL 8
REMARK VINA RESULT:    -2.028     17.372     17.979
REMARK INTER + INTRA:          -2.028
REMARK INTER:                  -2.028
REMARK INTRA:                   0.000
REMARK UNBOUND:                 0.000
REMARK SMILES CC(=O)[O-]
REMARK SMILES IDX 1 1 2 2 3 3 4 4
REMARK H PARENT
REMARK Flexibility Score: inf
ROOT
ATOM      1  C   UNL     1     -17.662 -28.127  -0.697  1.00  0.00     0.063 C 
ATOM      2  C   UNL     1     -19.012 -28.677  -0.384  1.00  0.00     0.038 C 
ATOM      3  O   UNL     1     -19.953 -27.901  -0.072  1.00  0.00    -0.550 OA
ATOM      4  O   UNL     1     -19.248 -30.041  -0.487  1.00  0.00    -0.550 OA
ENDROOT
TORSDOF 0
ENDMDL
MODEL 9
REMARK VINA RESULT:    -1.984     10.239     10.546
REMARK INTER + INTRA:          -1.984
REMARK INTER:                  -1.984
REMARK INTRA:                   0.000
REMARK UNBOUND:                 0.000
REMARK SMILES CC(=O)[O-]
REMARK SMILES IDX 1 1 2 2 3 3 4 4
REMARK H PARENT
REMARK Flexibility Score: inf
ROOT
ATOM      1  C   UNL     1     -17.529 -16.994  -3.141  1.00  0.00     0.063 C 
ATOM      2  C   UNL     1     -17.957 -18.241  -3.838  1.00  0.00     0.038 C 
ATOM      3  O   UNL     1     -17.390 -18.593  -4.905  1.00  0.00    -0.550 OA
ATOM      4  O   UNL     1     -18.946 -19.042  -3.285  1.00  0.00    -0.550 OA
ENDROOT
TORSDOF 0
ENDMDL
