MODEL 1
REMARK VINA RESULT:    -6.124      0.000      0.000
REMARK INTER + INTRA:          -9.660
REMARK INTER:                  -8.630
REMARK INTRA:                  -1.030
REMARK UNBOUND:                -1.030
REMARK SMILES COc1c(O[C@@H]2O[C@H](C(=O)[O-])[C@H](O)[C@H](O)[C@@H]2O)cc(O)c2c(=O)cc(-c3ccccc3)oc12
REMARK SMILES IDX 5 1 6 2 8 3 12 4 7 5 14 6 16 7 9 8 10 9 11 10 13 11 15 13
REMARK SMILES IDX 17 15 4 17 3 18 18 19 33 20 19 21 21 22 32 23 22 24 25 25
REMARK SMILES IDX 24 26 23 27 2 28 1 29 20 30 26 32 27 33 31 34 28 35 30 36
REMARK SMILES IDX 29 37
REMARK H PARENT 13 12 15 14 17 16 20 31
REMARK Flexibility Score: inf
ROOT
ATOM      1  O   UNL     1      44.292  16.146  -2.331  1.00  0.00    -0.458 OA
ENDROOT
BRANCH   1   2
ATOM      2  C   UNL     1      43.659  17.137  -3.127  1.00  0.00     0.339 C 
ATOM      3  C   UNL     1      42.882  19.250  -2.390  1.00  0.00     0.199 C 
ATOM      4  C   UNL     1      43.469  19.672  -3.910  1.00  0.00     0.180 C 
ATOM      5  O   UNL     1      42.677  17.830  -2.332  1.00  0.00    -0.328 OA
ATOM      6  C   UNL     1      43.201  18.511  -5.062  1.00  0.00     0.181 C 
ATOM      7  C   UNL     1      42.976  16.951  -4.566  1.00  0.00     0.214 C 
BRANCH   3   8
ATOM      8  C   UNL     1      41.798  20.044  -1.672  1.00  0.00     0.073 C 
ATOM      9  O   UNL     1      40.543  19.875  -1.896  1.00  0.00    -0.547 OA
ATOM     10  O   UNL     1      42.170  20.741  -0.519  1.00  0.00    -0.547 OA
ENDBRANCH   3   8
BRANCH   4  11
ATOM     11  O   UNL     1      43.152  21.015  -4.369  1.00  0.00    -0.387 OA
ATOM     12  H   UNL     1      43.937  21.713  -4.396  1.00  0.00     0.211 HD
ENDBRANCH   4  11
BRANCH   6  13
ATOM     13  O   UNL     1      42.169  18.970  -5.932  1.00  0.00    -0.387 OA
ATOM     14  H   UNL     1      41.842  19.806  -5.526  1.00  0.00     0.211 HD
ENDBRANCH   6  13
BRANCH   7  15
ATOM     15  O   UNL     1      41.617  16.673  -4.394  1.00  0.00    -0.384 OA
ATOM     16  H   UNL     1      41.416  16.669  -3.418  1.00  0.00     0.211 HD
ENDBRANCH   7  15
ENDBRANCH   1   2
BRANCH   1  17
ATOM     17  C   UNL     1      45.333  15.234  -2.834  1.00  0.00     0.172 A 
ATOM     18  C   UNL     1      46.643  15.561  -3.480  1.00  0.00     0.205 A 
ATOM     19  C   UNL     1      44.968  13.880  -2.759  1.00  0.00     0.097 A 
ATOM     20  C   UNL     1      47.592  14.556  -3.612  1.00  0.00     0.188 A 
ATOM     21  C   UNL     1      45.974  12.929  -2.836  1.00  0.00     0.134 A 
ATOM     22  C   UNL     1      47.294  13.245  -3.162  1.00  0.00     0.111 A 
ATOM     23  O   UNL     1      48.800  14.777  -4.196  1.00  0.00    -0.452 OA
ATOM     24  C   UNL     1      48.276  12.234  -3.417  1.00  0.00     0.197 A 
ATOM     25  C   UNL     1      49.715  13.833  -4.396  1.00  0.00     0.138 A 
ATOM     26  C   UNL     1      49.486  12.564  -3.981  1.00  0.00     0.100 A 
ATOM     27  O   UNL     1      48.108  11.035  -3.069  1.00  0.00    -0.289 OA
BRANCH  18  28
ATOM     28  O   UNL     1      46.826  16.751  -4.341  1.00  0.00    -0.490 OA
ATOM     29  C   UNL     1      46.411  16.754  -5.698  1.00  0.00     0.278 C 
ENDBRANCH  18  28
BRANCH  21  30
ATOM     30  O   UNL     1      45.544  11.677  -2.412  1.00  0.00    -0.507 OA
ATOM     31  H   UNL     1      45.114  11.435  -1.520  1.00  0.00     0.293 HD
ENDBRANCH  21  30
BRANCH  25  32
ATOM     32  C   UNL     1      50.954  14.276  -5.068  1.00  0.00     0.017 A 
ATOM     33  C   UNL     1      51.845  13.363  -5.641  1.00  0.00     0.012 A 
ATOM     34  C   UNL     1      51.279  15.660  -5.103  1.00  0.00     0.012 A 
ATOM     35  C   UNL     1      53.097  13.805  -6.125  1.00  0.00     0.001 A 
ATOM     36  C   UNL     1      52.489  16.106  -5.612  1.00  0.00     0.001 A 
ATOM     37  C   UNL     1      53.438  15.164  -6.075  1.00  0.00     0.000 A 
ENDBRANCH  25  32
ENDBRANCH   1  17
TORSDOF 9
ENDMDL
MODEL 2
REMARK VINA RESULT:    -5.715      1.601      2.946
REMARK INTER + INTRA:          -9.084
REMARK INTER:                  -8.429
REMARK INTRA:                  -0.654
REMARK UNBOUND:                -1.030
REMARK SMILES COc1c(O[C@@H]2O[C@H](C(=O)[O-])[C@H](O)[C@H](O)[C@@H]2O)cc(O)c2c(=O)cc(-c3ccccc3)oc12
REMARK SMILES IDX 5 1 6 2 8 3 12 4 7 5 14 6 16 7 9 8 10 9 11 10 13 11 15 13
REMARK SMILES IDX 17 15 4 17 3 18 18 19 33 20 19 21 21 22 32 23 22 24 25 25
REMARK SMILES IDX 24 26 23 27 2 28 1 29 20 30 26 32 27 33 31 34 28 35 30 36
REMARK SMILES IDX 29 37
REMARK H PARENT 13 12 15 14 17 16 20 31
REMARK Flexibility Score: inf
ROOT
ATOM      1  O   UNL     1      44.649  17.549  -4.297  1.00  0.00    -0.458 OA
ENDROOT
BRANCH   1   2
ATOM      2  C   UNL     1      43.480  17.568  -3.490  1.00  0.00     0.339 C 
ATOM      3  C   UNL     1      41.792  15.908  -3.419  1.00  0.00     0.199 C 
ATOM      4  C   UNL     1      41.846  16.334  -1.792  1.00  0.00     0.180 C 
ATOM      5  O   UNL     1      42.397  16.944  -4.208  1.00  0.00    -0.328 OA
ATOM      6  C   UNL     1      42.097  17.954  -1.547  1.00  0.00     0.181 C 
ATOM      7  C   UNL     1      42.820  18.827  -2.748  1.00  0.00     0.214 C 
BRANCH   3   8
ATOM      8  C   UNL     1      40.559  15.296  -4.074  1.00  0.00     0.073 C 
ATOM      9  O   UNL     1      39.967  14.252  -3.611  1.00  0.00    -0.547 OA
ATOM     10  O   UNL     1      39.875  16.077  -5.009  1.00  0.00    -0.547 OA
ENDBRANCH   3   8
BRANCH   4  11
ATOM     11  O   UNL     1      40.795  15.785  -0.950  1.00  0.00    -0.387 OA
ATOM     12  H   UNL     1      40.276  14.947  -1.314  1.00  0.00     0.211 HD
ENDBRANCH   4  11
BRANCH   6  13
ATOM     13  O   UNL     1      40.875  18.535  -1.098  1.00  0.00    -0.387 OA
ATOM     14  H   UNL     1      41.070  18.884  -0.198  1.00  0.00     0.211 HD
ENDBRANCH   6  13
BRANCH   7  15
ATOM     15  O   UNL     1      41.864  19.403  -3.591  1.00  0.00    -0.384 OA
ATOM     16  H   UNL     1      41.797  18.851  -4.417  1.00  0.00     0.211 HD
ENDBRANCH   7  15
ENDBRANCH   1   2
BRANCH   1  17
ATOM     17  C   UNL     1      45.620  16.441  -4.304  1.00  0.00     0.172 A 
ATOM     18  C   UNL     1      47.020  16.417  -4.831  1.00  0.00     0.205 A 
ATOM     19  C   UNL     1      45.089  15.235  -3.818  1.00  0.00     0.097 A 
ATOM     20  C   UNL     1      47.850  15.363  -4.474  1.00  0.00     0.188 A 
ATOM     21  C   UNL     1      45.976  14.247  -3.420  1.00  0.00     0.134 A 
ATOM     22  C   UNL     1      47.351  14.325  -3.646  1.00  0.00     0.111 A 
ATOM     23  O   UNL     1      49.130  15.268  -4.922  1.00  0.00    -0.452 OA
ATOM     24  C   UNL     1      48.226  13.219  -3.396  1.00  0.00     0.197 A 
ATOM     25  C   UNL     1      49.942  14.250  -4.653  1.00  0.00     0.138 A 
ATOM     26  C   UNL     1      49.519  13.234  -3.863  1.00  0.00     0.100 A 
ATOM     27  O   UNL     1      47.879  12.240  -2.683  1.00  0.00    -0.289 OA
BRANCH  18  28
ATOM     28  O   UNL     1      47.434  17.203  -6.015  1.00  0.00    -0.490 OA
ATOM     29  C   UNL     1      48.562  18.062  -5.977  1.00  0.00     0.278 C 
ENDBRANCH  18  28
BRANCH  21  30
ATOM     30  O   UNL     1      45.356  13.265  -2.656  1.00  0.00    -0.507 OA
ATOM     31  H   UNL     1      45.577  12.271  -2.622  1.00  0.00     0.293 HD
ENDBRANCH  21  30
BRANCH  25  32
ATOM     32  C   UNL     1      51.289  14.328  -5.255  1.00  0.00     0.017 A 
ATOM     33  C   UNL     1      51.987  13.181  -5.645  1.00  0.00     0.012 A 
ATOM     34  C   UNL     1      51.918  15.595  -5.408  1.00  0.00     0.012 A 
ATOM     35  C   UNL     1      53.334  13.280  -6.060  1.00  0.00     0.001 A 
ATOM     36  C   UNL     1      53.227  15.702  -5.851  1.00  0.00     0.001 A 
ATOM     37  C   UNL     1      53.968  14.529  -6.125  1.00  0.00     0.000 A 
ENDBRANCH  25  32
ENDBRANCH   1  17
TORSDOF 9
ENDMDL
MODEL 3
REMARK VINA RESULT:    -5.586      2.503      8.719
REMARK INTER + INTRA:          -8.902
REMARK INTER:                  -7.355
REMARK INTRA:                  -1.548
REMARK UNBOUND:                -1.030
REMARK SMILES COc1c(O[C@@H]2O[C@H](C(=O)[O-])[C@H](O)[C@H](O)[C@@H]2O)cc(O)c2c(=O)cc(-c3ccccc3)oc12
REMARK SMILES IDX 5 1 6 2 8 3 12 4 7 5 14 6 16 7 9 8 10 9 11 10 13 11 15 13
REMARK SMILES IDX 17 15 4 17 3 18 18 19 33 20 19 21 21 22 32 23 22 24 25 25
REMARK SMILES IDX 24 26 23 27 2 28 1 29 20 30 26 32 27 33 31 34 28 35 30 36
REMARK SMILES IDX 29 37
REMARK H PARENT 13 12 15 14 17 16 20 31
REMARK Flexibility Score: inf
ROOT
ATOM      1  O   UNL     1      45.751  13.599  -5.051  1.00  0.00    -0.458 OA
ENDROOT
BRANCH   1   2
ATOM      2  C   UNL     1      47.064  13.420  -4.539  1.00  0.00     0.339 C 
ATOM      3  C   UNL     1      47.750  11.781  -2.972  1.00  0.00     0.199 C 
ATOM      4  C   UNL     1      49.104  11.809  -3.972  1.00  0.00     0.180 C 
ATOM      5  O   UNL     1      46.982  12.978  -3.169  1.00  0.00    -0.328 OA
ATOM      6  C   UNL     1      49.478  13.326  -4.525  1.00  0.00     0.181 C 
ATOM      7  C   UNL     1      48.281  14.463  -4.570  1.00  0.00     0.214 C 
BRANCH   3   8
ATOM      8  C   UNL     1      47.807  11.335  -1.515  1.00  0.00     0.073 C 
ATOM      9  O   UNL     1      48.909  11.066  -0.909  1.00  0.00    -0.547 OA
ATOM     10  O   UNL     1      46.663  11.535  -0.738  1.00  0.00    -0.547 OA
ENDBRANCH   3   8
BRANCH   4  11
ATOM     11  O   UNL     1      50.265  11.071  -3.501  1.00  0.00    -0.387 OA
ATOM     12  H   UNL     1      50.547  11.207  -2.498  1.00  0.00     0.211 HD
ENDBRANCH   4  11
BRANCH   6  13
ATOM     13  O   UNL     1      50.646  13.778  -3.843  1.00  0.00    -0.387 OA
ATOM     14  H   UNL     1      50.312  14.269  -3.057  1.00  0.00     0.211 HD
ENDBRANCH   6  13
BRANCH   7  15
ATOM     15  O   UNL     1      48.265  15.217  -3.393  1.00  0.00    -0.384 OA
ATOM     16  H   UNL     1      48.870  16.000  -3.511  1.00  0.00     0.211 HD
ENDBRANCH   7  15
ENDBRANCH   1   2
BRANCH   1  17
ATOM     17  C   UNL     1      44.617  14.079  -4.244  1.00  0.00     0.172 A 
ATOM     18  C   UNL     1      44.351  15.453  -3.713  1.00  0.00     0.205 A 
ATOM     19  C   UNL     1      43.730  13.056  -3.869  1.00  0.00     0.097 A 
ATOM     20  C   UNL     1      43.084  15.746  -3.226  1.00  0.00     0.188 A 
ATOM     21  C   UNL     1      42.459  13.417  -3.451  1.00  0.00     0.134 A 
ATOM     22  C   UNL     1      42.084  14.741  -3.216  1.00  0.00     0.111 A 
ATOM     23  O   UNL     1      42.771  16.969  -2.719  1.00  0.00    -0.452 OA
ATOM     24  C   UNL     1      40.831  15.079  -2.611  1.00  0.00     0.197 A 
ATOM     25  C   UNL     1      41.591  17.278  -2.191  1.00  0.00     0.138 A 
ATOM     26  C   UNL     1      40.597  16.357  -2.160  1.00  0.00     0.100 A 
ATOM     27  O   UNL     1      39.878  14.257  -2.540  1.00  0.00    -0.289 OA
BRANCH  18  28
ATOM     28  O   UNL     1      45.439  16.365  -3.297  1.00  0.00    -0.490 OA
ATOM     29  C   UNL     1      45.922  17.383  -4.159  1.00  0.00     0.278 C 
ENDBRANCH  18  28
BRANCH  21  30
ATOM     30  O   UNL     1      41.586  12.335  -3.440  1.00  0.00    -0.507 OA
ATOM     31  H   UNL     1      41.821  11.346  -3.374  1.00  0.00     0.293 HD
ENDBRANCH  21  30
BRANCH  25  32
ATOM     32  C   UNL     1      41.461  18.656  -1.675  1.00  0.00     0.017 A 
ATOM     33  C   UNL     1      42.569  19.500  -1.547  1.00  0.00     0.012 A 
ATOM     34  C   UNL     1      40.188  19.132  -1.256  1.00  0.00     0.012 A 
ATOM     35  C   UNL     1      42.436  20.747  -0.895  1.00  0.00     0.001 A 
ATOM     36  C   UNL     1      40.043  20.372  -0.651  1.00  0.00     0.001 A 
ATOM     37  C   UNL     1      41.189  21.167  -0.412  1.00  0.00     0.000 A 
ENDBRANCH  25  32
ENDBRANCH   1  17
TORSDOF 9
ENDMDL
MODEL 4
REMARK VINA RESULT:    -4.852      1.447      2.405
REMARK INTER + INTRA:          -7.868
REMARK INTER:                  -7.166
REMARK INTRA:                  -0.702
REMARK UNBOUND:                -1.030
REMARK SMILES COc1c(O[C@@H]2O[C@H](C(=O)[O-])[C@H](O)[C@H](O)[C@@H]2O)cc(O)c2c(=O)cc(-c3ccccc3)oc12
REMARK SMILES IDX 5 1 6 2 8 3 12 4 7 5 14 6 16 7 9 8 10 9 11 10 13 11 15 13
REMARK SMILES IDX 17 15 4 17 3 18 18 19 33 20 19 21 21 22 32 23 22 24 25 25
REMARK SMILES IDX 24 26 23 27 2 28 1 29 20 30 26 32 27 33 31 34 28 35 30 36
REMARK SMILES IDX 29 37
REMARK H PARENT 13 12 15 14 17 16 20 31
REMARK Flexibility Score: inf
ROOT
ATOM      1  O   UNL     1      41.749  16.496  -3.555  1.00  0.00    -0.458 OA
ENDROOT
BRANCH   1   2
ATOM      2  C   UNL     1      41.850  17.897  -3.767  1.00  0.00     0.339 C 
ATOM      3  C   UNL     1      43.107  19.429  -2.469  1.00  0.00     0.199 C 
ATOM      4  C   UNL     1      43.355  20.078  -4.002  1.00  0.00     0.180 C 
ATOM      5  O   UNL     1      41.963  18.563  -2.493  1.00  0.00    -0.328 OA
ATOM      6  C   UNL     1      42.019  19.981  -4.979  1.00  0.00     0.181 C 
ATOM      7  C   UNL     1      40.883  18.830  -4.642  1.00  0.00     0.214 C 
BRANCH   3   8
ATOM      8  C   UNL     1      43.208  20.257  -1.194  1.00  0.00     0.073 C 
ATOM      9  O   UNL     1      44.275  20.890  -0.854  1.00  0.00    -0.547 OA
ATOM     10  O   UNL     1      42.013  20.593  -0.550  1.00  0.00    -0.547 OA
ENDBRANCH   3   8
BRANCH   4  11
ATOM     11  O   UNL     1      44.004  21.378  -4.051  1.00  0.00    -0.387 OA
ATOM     12  H   UNL     1      43.392  22.226  -3.945  1.00  0.00     0.211 HD
ENDBRANCH   4  11
BRANCH   6  13
ATOM     13  O   UNL     1      41.462  21.287  -5.110  1.00  0.00    -0.387 OA
ATOM     14  H   UNL     1      41.448  21.466  -6.079  1.00  0.00     0.211 HD
ENDBRANCH   6  13
BRANCH   7  15
ATOM     15  O   UNL     1      39.878  19.346  -3.818  1.00  0.00    -0.384 OA
ATOM     16  H   UNL     1      40.174  20.234  -3.477  1.00  0.00     0.211 HD
ENDBRANCH   7  15
ENDBRANCH   1   2
BRANCH   1  17
ATOM     17  C   UNL     1      42.894  15.573  -3.637  1.00  0.00     0.172 A 
ATOM     18  C   UNL     1      44.324  15.869  -3.964  1.00  0.00     0.205 A 
ATOM     19  C   UNL     1      42.533  14.226  -3.465  1.00  0.00     0.097 A 
ATOM     20  C   UNL     1      45.283  14.899  -3.702  1.00  0.00     0.188 A 
ATOM     21  C   UNL     1      43.532  13.321  -3.143  1.00  0.00     0.134 A 
ATOM     22  C   UNL     1      44.889  13.649  -3.160  1.00  0.00     0.111 A 
ATOM     23  O   UNL     1      46.600  15.093  -3.980  1.00  0.00    -0.452 OA
ATOM     24  C   UNL     1      45.912  12.658  -3.006  1.00  0.00     0.197 A 
ATOM     25  C   UNL     1      47.543  14.174  -3.799  1.00  0.00     0.138 A 
ATOM     26  C   UNL     1      47.224  12.964  -3.280  1.00  0.00     0.100 A 
ATOM     27  O   UNL     1      45.669  11.512  -2.544  1.00  0.00    -0.289 OA
BRANCH  18  28
ATOM     28  O   UNL     1      44.715  16.937  -4.910  1.00  0.00    -0.490 OA
ATOM     29  C   UNL     1      45.524  16.663  -6.044  1.00  0.00     0.278 C 
ENDBRANCH  18  28
BRANCH  21  30
ATOM     30  O   UNL     1      43.017  12.120  -2.669  1.00  0.00    -0.507 OA
ATOM     31  H   UNL     1      43.027  11.212  -3.132  1.00  0.00     0.293 HD
ENDBRANCH  21  30
BRANCH  25  32
ATOM     32  C   UNL     1      48.911  14.576  -4.186  1.00  0.00     0.017 A 
ATOM     33  C   UNL     1      49.221  15.898  -4.522  1.00  0.00     0.012 A 
ATOM     34  C   UNL     1      49.937  13.594  -4.261  1.00  0.00     0.012 A 
ATOM     35  C   UNL     1      50.495  16.213  -5.047  1.00  0.00     0.001 A 
ATOM     36  C   UNL     1      51.202  13.905  -4.739  1.00  0.00     0.001 A 
ATOM     37  C   UNL     1      51.469  15.217  -5.195  1.00  0.00     0.000 A 
ENDBRANCH  25  32
ENDBRANCH   1  17
TORSDOF 9
ENDMDL
MODEL 5
REMARK VINA RESULT:    -4.577      1.438      2.390
REMARK INTER + INTRA:          -7.481
REMARK INTER:                  -6.595
REMARK INTRA:                  -0.886
REMARK UNBOUND:                -1.030
REMARK SMILES COc1c(O[C@@H]2O[C@H](C(=O)[O-])[C@H](O)[C@H](O)[C@@H]2O)cc(O)c2c(=O)cc(-c3ccccc3)oc12
REMARK SMILES IDX 5 1 6 2 8 3 12 4 7 5 14 6 16 7 9 8 10 9 11 10 13 11 15 13
REMARK SMILES IDX 17 15 4 17 3 18 18 19 33 20 19 21 21 22 32 23 22 24 25 25
REMARK SMILES IDX 24 26 23 27 2 28 1 29 20 30 26 32 27 33 31 34 28 35 30 36
REMARK SMILES IDX 29 37
REMARK H PARENT 13 12 15 14 17 16 20 31
REMARK Flexibility Score: inf
ROOT
ATOM      1  O   UNL     1      44.967  17.880  -3.574  1.00  0.00    -0.458 OA
ENDROOT
BRANCH   1   2
ATOM      2  C   UNL     1      43.547  17.865  -3.541  1.00  0.00     0.339 C 
ATOM      3  C   UNL     1      42.092  18.825  -5.145  1.00  0.00     0.199 C 
ATOM      4  C   UNL     1      41.229  17.428  -4.771  1.00  0.00     0.180 C 
ATOM      5  O   UNL     1      43.046  19.093  -4.106  1.00  0.00    -0.328 OA
ATOM      6  C   UNL     1      41.317  17.013  -3.169  1.00  0.00     0.181 C 
ATOM      7  C   UNL     1      42.598  17.564  -2.284  1.00  0.00     0.214 C 
BRANCH   3   8
ATOM      8  C   UNL     1      41.431  20.083  -5.694  1.00  0.00     0.073 C 
ATOM      9  O   UNL     1      40.179  20.146  -5.982  1.00  0.00    -0.547 OA
ATOM     10  O   UNL     1      42.138  21.283  -5.577  1.00  0.00    -0.547 OA
ENDBRANCH   3   8
BRANCH   4  11
ATOM     11  O   UNL     1      39.881  17.344  -5.310  1.00  0.00    -0.387 OA
ATOM     12  H   UNL     1      39.398  16.412  -5.255  1.00  0.00     0.211 HD
ENDBRANCH   4  11
BRANCH   6  13
ATOM     13  O   UNL     1      40.060  17.300  -2.561  1.00  0.00    -0.387 OA
ATOM     14  H   UNL     1      39.577  17.856  -3.216  1.00  0.00     0.211 HD
ENDBRANCH   6  13
BRANCH   7  15
ATOM     15  O   UNL     1      42.285  18.771  -1.650  1.00  0.00    -0.384 OA
ATOM     16  H   UNL     1      42.062  19.446  -2.348  1.00  0.00     0.211 HD
ENDBRANCH   7  15
ENDBRANCH   1   2
BRANCH   1  17
ATOM     17  C   UNL     1      45.793  16.681  -3.800  1.00  0.00     0.172 A 
ATOM     18  C   UNL     1      47.179  16.580  -4.354  1.00  0.00     0.205 A 
ATOM     19  C   UNL     1      45.115  15.482  -3.526  1.00  0.00     0.097 A 
ATOM     20  C   UNL     1      47.871  15.385  -4.209  1.00  0.00     0.188 A 
ATOM     21  C   UNL     1      45.872  14.337  -3.330  1.00  0.00     0.134 A 
ATOM     22  C   UNL     1      47.246  14.285  -3.569  1.00  0.00     0.111 A 
ATOM     23  O   UNL     1      49.129  15.216  -4.694  1.00  0.00    -0.452 OA
ATOM     24  C   UNL     1      47.975  13.052  -3.539  1.00  0.00     0.197 A 
ATOM     25  C   UNL     1      49.807  14.074  -4.630  1.00  0.00     0.138 A 
ATOM     26  C   UNL     1      49.261  12.992  -4.025  1.00  0.00     0.100 A 
ATOM     27  O   UNL     1      47.509  12.011  -3.005  1.00  0.00    -0.289 OA
BRANCH  18  28
ATOM     28  O   UNL     1      47.688  17.510  -5.387  1.00  0.00    -0.490 OA
ATOM     29  C   UNL     1      46.859  18.508  -5.960  1.00  0.00     0.278 C 
ENDBRANCH  18  28
BRANCH  21  30
ATOM     30  O   UNL     1      45.134  13.317  -2.740  1.00  0.00    -0.507 OA
ATOM     31  H   UNL     1      45.485  12.458  -2.318  1.00  0.00     0.293 HD
ENDBRANCH  21  30
BRANCH  25  32
ATOM     32  C   UNL     1      51.154  14.093  -5.237  1.00  0.00     0.017 A 
ATOM     33  C   UNL     1      51.807  12.915  -5.613  1.00  0.00     0.012 A 
ATOM     34  C   UNL     1      51.828  15.333  -5.411  1.00  0.00     0.012 A 
ATOM     35  C   UNL     1      53.156  12.958  -6.033  1.00  0.00     0.001 A 
ATOM     36  C   UNL     1      53.139  15.386  -5.861  1.00  0.00     0.001 A 
ATOM     37  C   UNL     1      53.835  14.181  -6.120  1.00  0.00     0.000 A 
ENDBRANCH  25  32
ENDBRANCH   1  17
TORSDOF 9
ENDMDL
MODEL 6
REMARK VINA RESULT:    -4.243      2.719      4.272
REMARK INTER + INTRA:          -7.009
REMARK INTER:                  -5.746
REMARK INTRA:                  -1.263
REMARK UNBOUND:                -1.030
REMARK SMILES COc1c(O[C@@H]2O[C@H](C(=O)[O-])[C@H](O)[C@H](O)[C@@H]2O)cc(O)c2c(=O)cc(-c3ccccc3)oc12
REMARK SMILES IDX 5 1 6 2 8 3 12 4 7 5 14 6 16 7 9 8 10 9 11 10 13 11 15 13
REMARK SMILES IDX 17 15 4 17 3 18 18 19 33 20 19 21 21 22 32 23 22 24 25 25
REMARK SMILES IDX 24 26 23 27 2 28 1 29 20 30 26 32 27 33 31 34 28 35 30 36
REMARK SMILES IDX 29 37
REMARK H PARENT 13 12 15 14 17 16 20 31
REMARK Flexibility Score: inf
ROOT
ATOM      1  O   UNL     1      42.522  16.870  -1.737  1.00  0.00    -0.458 OA
ENDROOT
BRANCH   1   2
ATOM      2  C   UNL     1      42.438  18.211  -2.198  1.00  0.00     0.339 C 
ATOM      3  C   UNL     1      43.106  19.013  -4.325  1.00  0.00     0.199 C 
ATOM      4  C   UNL     1      41.727  19.948  -4.084  1.00  0.00     0.180 C 
ATOM      5  O   UNL     1      43.555  18.486  -3.067  1.00  0.00    -0.328 OA
ATOM      6  C   UNL     1      41.528  20.428  -2.510  1.00  0.00     0.181 C 
ATOM      7  C   UNL     1      42.254  19.541  -1.321  1.00  0.00     0.214 C 
BRANCH   3   8
ATOM      8  C   UNL     1      44.247  19.442  -5.239  1.00  0.00     0.073 C 
ATOM      9  O   UNL     1      44.810  18.645  -6.076  1.00  0.00    -0.547 OA
ATOM     10  O   UNL     1      44.465  20.814  -5.391  1.00  0.00    -0.547 OA
ENDBRANCH   3   8
BRANCH   4  11
ATOM     11  O   UNL     1      41.504  21.020  -5.040  1.00  0.00    -0.387 OA
ATOM     12  H   UNL     1      42.137  21.857  -4.981  1.00  0.00     0.211 HD
ENDBRANCH   4  11
BRANCH   6  13
ATOM     13  O   UNL     1      41.826  21.819  -2.423  1.00  0.00    -0.387 OA
ATOM     14  H   UNL     1      42.519  21.892  -1.727  1.00  0.00     0.211 HD
ENDBRANCH   6  13
BRANCH   7  15
ATOM     15  O   UNL     1      43.514  20.060  -1.010  1.00  0.00    -0.384 OA
ATOM     16  H   UNL     1      43.983  19.416  -0.413  1.00  0.00     0.211 HD
ENDBRANCH   7  15
ENDBRANCH   1   2
BRANCH   1  17
ATOM     17  C   UNL     1      42.905  15.734  -2.593  1.00  0.00     0.172 A 
ATOM     18  C   UNL     1      44.249  15.103  -2.778  1.00  0.00     0.205 A 
ATOM     19  C   UNL     1      41.852  15.265  -3.396  1.00  0.00     0.097 A 
ATOM     20  C   UNL     1      44.325  13.868  -3.407  1.00  0.00     0.188 A 
ATOM     21  C   UNL     1      41.967  13.997  -3.943  1.00  0.00     0.134 A 
ATOM     22  C   UNL     1      43.143  13.247  -3.884  1.00  0.00     0.111 A 
ATOM     23  O   UNL     1      45.511  13.238  -3.619  1.00  0.00    -0.452 OA
ATOM     24  C   UNL     1      43.300  12.023  -4.610  1.00  0.00     0.197 A 
ATOM     25  C   UNL     1      45.639  12.084  -4.267  1.00  0.00     0.138 A 
ATOM     26  C   UNL     1      44.541  11.444  -4.739  1.00  0.00     0.100 A 
ATOM     27  O   UNL     1      42.317  11.395  -5.085  1.00  0.00    -0.289 OA
BRANCH  18  28
ATOM     28  O   UNL     1      45.505  15.882  -2.710  1.00  0.00    -0.490 OA
ATOM     29  C   UNL     1      46.104  16.426  -3.876  1.00  0.00     0.278 C 
ENDBRANCH  18  28
BRANCH  21  30
ATOM     30  O   UNL     1      40.749  13.519  -4.416  1.00  0.00    -0.507 OA
ATOM     31  H   UNL     1      39.826  13.660  -4.010  1.00  0.00     0.293 HD
ENDBRANCH  21  30
BRANCH  25  32
ATOM     32  C   UNL     1      47.019  11.577  -4.409  1.00  0.00     0.017 A 
ATOM     33  C   UNL     1      47.861  11.419  -3.304  1.00  0.00     0.012 A 
ATOM     34  C   UNL     1      47.529  11.281  -5.703  1.00  0.00     0.012 A 
ATOM     35  C   UNL     1      49.223  11.094  -3.494  1.00  0.00     0.001 A 
ATOM     36  C   UNL     1      48.855  10.923  -5.893  1.00  0.00     0.001 A 
ATOM     37  C   UNL     1      49.731  10.887  -4.783  1.00  0.00     0.000 A 
ENDBRANCH  25  32
ENDBRANCH   1  17
TORSDOF 9
ENDMDL
MODEL 7
REMARK VINA RESULT:    -4.074      2.066      3.346
REMARK INTER + INTRA:          -6.771
REMARK INTER:                  -6.770
REMARK INTRA:                  -0.001
REMARK UNBOUND:                -1.030
REMARK SMILES COc1c(O[C@@H]2O[C@H](C(=O)[O-])[C@H](O)[C@H](O)[C@@H]2O)cc(O)c2c(=O)cc(-c3ccccc3)oc12
REMARK SMILES IDX 5 1 6 2 8 3 12 4 7 5 14 6 16 7 9 8 10 9 11 10 13 11 15 13
REMARK SMILES IDX 17 15 4 17 3 18 18 19 33 20 19 21 21 22 32 23 22 24 25 25
REMARK SMILES IDX 24 26 23 27 2 28 1 29 20 30 26 32 27 33 31 34 28 35 30 36
REMARK SMILES IDX 29 37
REMARK H PARENT 13 12 15 14 17 16 20 31
REMARK Flexibility Score: inf
ROOT
ATOM      1  O   UNL     1      44.453  19.063  -4.967  1.00  0.00    -0.458 OA
ENDROOT
BRANCH   1   2
ATOM      2  C   UNL     1      43.588  19.364  -3.882  1.00  0.00     0.339 C 
ATOM      3  C   UNL     1      41.983  17.913  -2.917  1.00  0.00     0.199 C 
ATOM      4  C   UNL     1      42.538  18.693  -1.532  1.00  0.00     0.180 C 
ATOM      5  O   UNL     1      42.330  18.687  -4.076  1.00  0.00    -0.328 OA
ATOM      6  C   UNL     1      42.870  20.299  -1.773  1.00  0.00     0.181 C 
ATOM      7  C   UNL     1      43.201  20.810  -3.308  1.00  0.00     0.214 C 
BRANCH   3   8
ATOM      8  C   UNL     1      40.602  17.276  -3.011  1.00  0.00     0.073 C 
ATOM      9  O   UNL     1      40.018  17.035  -4.131  1.00  0.00    -0.547 OA
ATOM     10  O   UNL     1      40.105  16.651  -1.864  1.00  0.00    -0.547 OA
ENDBRANCH   3   8
BRANCH   4  11
ATOM     11  O   UNL     1      41.788  18.441  -0.312  1.00  0.00    -0.387 OA
ATOM     12  H   UNL     1      41.640  17.438  -0.036  1.00  0.00     0.211 HD
ENDBRANCH   4  11
BRANCH   6  13
ATOM     13  O   UNL     1      41.850  21.068  -1.140  1.00  0.00    -0.387 OA
ATOM     14  H   UNL     1      42.279  21.924  -0.908  1.00  0.00     0.211 HD
ENDBRANCH   6  13
BRANCH   7  15
ATOM     15  O   UNL     1      42.040  21.259  -3.946  1.00  0.00    -0.384 OA
ATOM     16  H   UNL     1      41.656  22.008  -3.413  1.00  0.00     0.211 HD
ENDBRANCH   7  15
ENDBRANCH   1   2
BRANCH   1  17
ATOM     17  C   UNL     1      44.918  17.702  -5.289  1.00  0.00     0.172 A 
ATOM     18  C   UNL     1      46.315  17.203  -5.482  1.00  0.00     0.205 A 
ATOM     19  C   UNL     1      43.868  16.799  -5.525  1.00  0.00     0.097 A 
ATOM     20  C   UNL     1      46.539  15.833  -5.492  1.00  0.00     0.188 A 
ATOM     21  C   UNL     1      44.149  15.443  -5.458  1.00  0.00     0.134 A 
ATOM     22  C   UNL     1      45.446  14.941  -5.348  1.00  0.00     0.111 A 
ATOM     23  O   UNL     1      47.779  15.305  -5.672  1.00  0.00    -0.452 OA
ATOM     24  C   UNL     1      45.731  13.542  -5.466  1.00  0.00     0.197 A 
ATOM     25  C   UNL     1      48.033  14.002  -5.746  1.00  0.00     0.138 A 
ATOM     26  C   UNL     1      47.027  13.105  -5.610  1.00  0.00     0.100 A 
ATOM     27  O   UNL     1      44.832  12.665  -5.364  1.00  0.00    -0.289 OA
BRANCH  18  28
ATOM     28  O   UNL     1      47.383  18.044  -6.068  1.00  0.00    -0.490 OA
ATOM     29  C   UNL     1      48.751  17.820  -5.768  1.00  0.00     0.278 C 
ENDBRANCH  18  28
BRANCH  21  30
ATOM     30  O   UNL     1      42.994  14.674  -5.366  1.00  0.00    -0.507 OA
ATOM     31  H   UNL     1      42.625  14.020  -6.055  1.00  0.00     0.293 HD
ENDBRANCH  21  30
BRANCH  25  32
ATOM     32  C   UNL     1      49.447  13.636  -5.968  1.00  0.00     0.017 A 
ATOM     33  C   UNL     1      49.852  12.302  -6.082  1.00  0.00     0.012 A 
ATOM     34  C   UNL     1      50.436  14.657  -6.026  1.00  0.00     0.012 A 
ATOM     35  C   UNL     1      51.227  11.982  -6.124  1.00  0.00     0.001 A 
ATOM     36  C   UNL     1      51.786  14.351  -6.108  1.00  0.00     0.001 A 
ATOM     37  C   UNL     1      52.194  12.997  -6.096  1.00  0.00     0.000 A 
ENDBRANCH  25  32
ENDBRANCH   1  17
TORSDOF 9
ENDMDL
MODEL 8
REMARK VINA RESULT:    -3.822      2.661      8.815
REMARK INTER + INTRA:          -6.416
REMARK INTER:                  -5.778
REMARK INTRA:                  -0.637
REMARK UNBOUND:                -1.030
REMARK SMILES COc1c(O[C@@H]2O[C@H](C(=O)[O-])[C@H](O)[C@H](O)[C@@H]2O)cc(O)c2c(=O)cc(-c3ccccc3)oc12
REMARK SMILES IDX 5 1 6 2 8 3 12 4 7 5 14 6 16 7 9 8 10 9 11 10 13 11 15 13
REMARK SMILES IDX 17 15 4 17 3 18 18 19 33 20 19 21 21 22 32 23 22 24 25 25
REMARK SMILES IDX 24 26 23 27 2 28 1 29 20 30 26 32 27 33 31 34 28 35 30 36
REMARK SMILES IDX 29 37
REMARK H PARENT 13 12 15 14 17 16 20 31
REMARK Flexibility Score: inf
ROOT
ATOM      1  O   UNL     1      48.436  16.450  -4.582  1.00  0.00    -0.458 OA
ENDROOT
BRANCH   1   2
ATOM      2  C   UNL     1      49.241  15.297  -4.785  1.00  0.00     0.339 C 
ATOM      3  C   UNL     1      48.884  13.151  -3.848  1.00  0.00     0.199 C 
ATOM      4  C   UNL     1      49.433  12.711  -5.377  1.00  0.00     0.180 C 
ATOM      5  O   UNL     1      49.255  14.511  -3.576  1.00  0.00    -0.328 OA
ATOM      6  C   UNL     1      50.629  13.703  -5.954  1.00  0.00     0.181 C 
ATOM      7  C   UNL     1      50.742  15.234  -5.344  1.00  0.00     0.214 C 
BRANCH   3   8
ATOM      8  C   UNL     1      49.004  12.240  -2.632  1.00  0.00     0.073 C 
ATOM      9  O   UNL     1      48.313  12.409  -1.560  1.00  0.00    -0.547 OA
ATOM     10  O   UNL     1      49.645  11.011  -2.812  1.00  0.00    -0.547 OA
ENDBRANCH   3   8
BRANCH   4  11
ATOM     11  O   UNL     1      49.718  11.299  -5.574  1.00  0.00    -0.387 OA
ATOM     12  H   UNL     1      49.821  10.704  -4.713  1.00  0.00     0.211 HD
ENDBRANCH   4  11
BRANCH   6  13
ATOM     13  O   UNL     1      51.865  12.993  -5.901  1.00  0.00    -0.387 OA
ATOM     14  H   UNL     1      52.428  13.403  -6.598  1.00  0.00     0.211 HD
ENDBRANCH   6  13
BRANCH   7  15
ATOM     15  O   UNL     1      51.632  15.277  -4.266  1.00  0.00    -0.384 OA
ATOM     16  H   UNL     1      52.559  15.352  -4.624  1.00  0.00     0.211 HD
ENDBRANCH   7  15
ENDBRANCH   1   2
BRANCH   1  17
ATOM     17  C   UNL     1      46.987  16.492  -4.844  1.00  0.00     0.172 A 
ATOM     18  C   UNL     1      45.951  15.444  -4.589  1.00  0.00     0.205 A 
ATOM     19  C   UNL     1      46.577  17.661  -5.506  1.00  0.00     0.097 A 
ATOM     20  C   UNL     1      44.611  15.802  -4.643  1.00  0.00     0.188 A 
ATOM     21  C   UNL     1      45.232  17.993  -5.468  1.00  0.00     0.134 A 
ATOM     22  C   UNL     1      44.252  17.136  -4.963  1.00  0.00     0.111 A 
ATOM     23  O   UNL     1      43.613  14.902  -4.431  1.00  0.00    -0.452 OA
ATOM     24  C   UNL     1      42.854  17.417  -5.100  1.00  0.00     0.197 A 
ATOM     25  C   UNL     1      42.318  15.187  -4.529  1.00  0.00     0.138 A 
ATOM     26  C   UNL     1      41.919  16.446  -4.828  1.00  0.00     0.100 A 
ATOM     27  O   UNL     1      42.428  18.566  -5.392  1.00  0.00    -0.289 OA
BRANCH  18  28
ATOM     28  O   UNL     1      46.246  13.997  -4.693  1.00  0.00    -0.490 OA
ATOM     29  C   UNL     1      45.886  13.249  -5.844  1.00  0.00     0.278 C 
ENDBRANCH  18  28
BRANCH  21  30
ATOM     30  O   UNL     1      45.007  19.312  -5.848  1.00  0.00    -0.507 OA
ATOM     31  H   UNL     1      45.013  19.697  -6.791  1.00  0.00     0.293 HD
ENDBRANCH  21  30
BRANCH  25  32
ATOM     32  C   UNL     1      41.395  14.060  -4.282  1.00  0.00     0.017 A 
ATOM     33  C   UNL     1      40.618  13.987  -3.121  1.00  0.00     0.012 A 
ATOM     34  C   UNL     1      41.317  12.997  -5.224  1.00  0.00     0.012 A 
ATOM     35  C   UNL     1      39.876  12.818  -2.840  1.00  0.00     0.001 A 
ATOM     36  C   UNL     1      40.558  11.863  -4.972  1.00  0.00     0.001 A 
ATOM     37  C   UNL     1      39.875  11.743  -3.739  1.00  0.00     0.000 A 
ENDBRANCH  25  32
ENDBRANCH   1  17
TORSDOF 9
ENDMDL
