MODEL 1
REMARK VINA RESULT:    -0.512      0.000      0.000
REMARK INTER + INTRA:          -0.734
REMARK INTER:                  -0.602
REMARK INTRA:                  -0.132
REMARK UNBOUND:                -0.132
REMARK SMILES O=c1c(O)c(-c2ccc(O)c(O)c2)oc2cc(O)ccc12
REMARK SMILES IDX 5 1 3 2 2 3 1 4 21 5 15 6 14 7 16 8 17 9 19 10 20 11 6 12
REMARK SMILES IDX 7 13 8 14 9 15 13 16 11 17 10 18 12 20 4 22 18 24
REMARK H PARENT 10 19 12 21 4 23 18 25
REMARK Flexibility Score: inf
ROOT
ATOM      1  C   UNL     1     -18.840   9.330  26.190  1.00  0.00     0.180 A 
ATOM      2  C   UNL     1     -17.448   9.396  26.404  1.00  0.00     0.208 A 
ATOM      3  C   UNL     1     -16.604   9.624  25.306  1.00  0.00     0.235 A 
ATOM      4  O   UNL     1     -15.356   9.697  25.474  1.00  0.00    -0.285 OA
ATOM      5  C   UNL     1     -17.161   9.760  24.025  1.00  0.00     0.069 A 
ATOM      6  C   UNL     1     -18.563   9.657  23.890  1.00  0.00     0.142 A 
ATOM      7  O   UNL     1     -19.326   9.450  24.957  1.00  0.00    -0.452 OA
ATOM      8  C   UNL     1     -19.155   9.778  22.628  1.00  0.00     0.094 A 
ATOM      9  C   UNL     1     -18.361  10.002  21.494  1.00  0.00     0.119 A 
ATOM     10  C   UNL     1     -16.972  10.105  21.626  1.00  0.00     0.047 A 
ATOM     11  C   UNL     1     -16.371   9.985  22.882  1.00  0.00     0.020 A 
ENDROOT
BRANCH   1  12
ATOM     12  C   UNL     1     -19.797   9.112  27.299  1.00  0.00     0.025 A 
ATOM     13  C   UNL     1     -20.711  10.124  27.631  1.00  0.00     0.016 A 
ATOM     14  C   UNL     1     -21.609   9.948  28.687  1.00  0.00     0.051 A 
ATOM     15  C   UNL     1     -21.598   8.767  29.435  1.00  0.00     0.157 A 
ATOM     16  C   UNL     1     -19.773   7.933  28.065  1.00  0.00     0.062 A 
ATOM     17  C   UNL     1     -20.674   7.755  29.127  1.00  0.00     0.158 A 
BRANCH  15  18
ATOM     18  O   UNL     1     -22.508   8.619  30.481  1.00  0.00    -0.504 OA
ATOM     19  H   UNL     1     -23.298   9.241  30.600  1.00  0.00     0.293 HD
ENDBRANCH  15  18
BRANCH  17  20
ATOM     20  O   UNL     1     -20.648   6.581  29.878  1.00  0.00    -0.504 OA
ATOM     21  H   UNL     1     -21.246   6.454  30.686  1.00  0.00     0.293 HD
ENDBRANCH  17  20
ENDBRANCH   1  12
BRANCH   2  22
ATOM     22  O   UNL     1     -16.919   9.207  27.684  1.00  0.00    -0.502 OA
ATOM     23  H   UNL     1     -15.976   9.486  27.927  1.00  0.00     0.293 HD
ENDBRANCH   2  22
BRANCH   9  24
ATOM     24  O   UNL     1     -18.942  10.124  20.234  1.00  0.00    -0.508 OA
ATOM     25  H   UNL     1     -19.825  10.603  20.102  1.00  0.00     0.293 HD
ENDBRANCH   9  24
TORSDOF 5
ENDMDL
MODEL 2
REMARK VINA RESULT:    -0.306      1.634      6.619
REMARK INTER + INTRA:          -0.492
REMARK INTER:                  -0.888
REMARK INTRA:                   0.396
REMARK UNBOUND:                -0.132
REMARK SMILES O=c1c(O)c(-c2ccc(O)c(O)c2)oc2cc(O)ccc12
REMARK SMILES IDX 5 1 3 2 2 3 1 4 21 5 15 6 14 7 16 8 17 9 19 10 20 11 6 12
REMARK SMILES IDX 7 13 8 14 9 15 13 16 11 17 10 18 12 20 4 22 18 24
REMARK H PARENT 10 19 12 21 4 23 18 25
REMARK Flexibility Score: inf
ROOT
ATOM      1  C   UNL     1     -18.824   9.225  26.999  1.00  0.00     0.180 A 
ATOM      2  C   UNL     1     -18.305   8.601  28.152  1.00  0.00     0.208 A 
ATOM      3  C   UNL     1     -19.159   8.379  29.244  1.00  0.00     0.235 A 
ATOM      4  O   UNL     1     -18.720   7.814  30.283  1.00  0.00    -0.285 OA
ATOM      5  C   UNL     1     -20.496   8.799  29.170  1.00  0.00     0.069 A 
ATOM      6  C   UNL     1     -20.933   9.438  27.989  1.00  0.00     0.142 A 
ATOM      7  O   UNL     1     -20.095   9.621  26.975  1.00  0.00    -0.452 OA
ATOM      8  C   UNL     1     -22.256   9.880  27.881  1.00  0.00     0.094 A 
ATOM      9  C   UNL     1     -23.153   9.689  28.942  1.00  0.00     0.119 A 
ATOM     10  C   UNL     1     -22.723   9.055  30.112  1.00  0.00     0.047 A 
ATOM     11  C   UNL     1     -21.402   8.611  30.231  1.00  0.00     0.020 A 
ENDROOT
BRANCH   1  12
ATOM     12  C   UNL     1     -17.992   9.477  25.799  1.00  0.00     0.025 A 
ATOM     13  C   UNL     1     -18.615   9.655  24.553  1.00  0.00     0.016 A 
ATOM     14  C   UNL     1     -17.849   9.874  23.406  1.00  0.00     0.051 A 
ATOM     15  C   UNL     1     -16.453   9.902  23.481  1.00  0.00     0.157 A 
ATOM     16  C   UNL     1     -16.588   9.485  25.871  1.00  0.00     0.062 A 
ATOM     17  C   UNL     1     -15.818   9.703  24.718  1.00  0.00     0.158 A 
BRANCH  15  18
ATOM     18  O   UNL     1     -15.716  10.125  22.319  1.00  0.00    -0.504 OA
ATOM     19  H   UNL     1     -14.816  10.588  22.333  1.00  0.00     0.293 HD
ENDBRANCH  15  18
BRANCH  17  20
ATOM     20  O   UNL     1     -14.427   9.716  24.798  1.00  0.00    -0.504 OA
ATOM     21  H   UNL     1     -13.852   9.202  24.140  1.00  0.00     0.293 HD
ENDBRANCH  17  20
ENDBRANCH   1  12
BRANCH   2  22
ATOM     22  O   UNL     1     -16.957   8.239  28.216  1.00  0.00    -0.502 OA
ATOM     23  H   UNL     1     -16.520   7.653  27.515  1.00  0.00     0.293 HD
ENDBRANCH   2  22
BRANCH   9  24
ATOM     24  O   UNL     1     -24.472  10.125  28.842  1.00  0.00    -0.508 OA
ATOM     25  H   UNL     1     -24.948  10.557  29.625  1.00  0.00     0.293 HD
ENDBRANCH   9  24
TORSDOF 5
ENDMDL
MODEL 3
REMARK VINA RESULT:     0.019      1.595      6.673
REMARK INTER + INTRA:          -0.110
REMARK INTER:                  -0.547
REMARK INTRA:                   0.437
REMARK UNBOUND:                -0.132
REMARK SMILES O=c1c(O)c(-c2ccc(O)c(O)c2)oc2cc(O)ccc12
REMARK SMILES IDX 5 1 3 2 2 3 1 4 21 5 15 6 14 7 16 8 17 9 19 10 20 11 6 12
REMARK SMILES IDX 7 13 8 14 9 15 13 16 11 17 10 18 12 20 4 22 18 24
REMARK H PARENT 10 19 12 21 4 23 18 25
REMARK Flexibility Score: inf
ROOT
ATOM      1  C   UNL     1     -18.812   9.161  26.958  1.00  0.00     0.180 A 
ATOM      2  C   UNL     1     -18.280   8.544  28.110  1.00  0.00     0.208 A 
ATOM      3  C   UNL     1     -19.119   8.341  29.217  1.00  0.00     0.235 A 
ATOM      4  O   UNL     1     -18.669   7.782  30.255  1.00  0.00    -0.285 OA
ATOM      5  C   UNL     1     -20.454   8.771  29.160  1.00  0.00     0.069 A 
ATOM      6  C   UNL     1     -20.904   9.401  27.979  1.00  0.00     0.142 A 
ATOM      7  O   UNL     1     -20.079   9.567  26.951  1.00  0.00    -0.452 OA
ATOM      8  C   UNL     1     -22.225   9.852  27.887  1.00  0.00     0.094 A 
ATOM      9  C   UNL     1     -23.107   9.679  28.962  1.00  0.00     0.119 A 
ATOM     10  C   UNL     1     -22.664   9.054  30.133  1.00  0.00     0.047 A 
ATOM     11  C   UNL     1     -21.345   8.600  30.235  1.00  0.00     0.020 A 
ENDROOT
BRANCH   1  12
ATOM     12  C   UNL     1     -17.997   9.394  25.744  1.00  0.00     0.025 A 
ATOM     13  C   UNL     1     -16.597   9.427  25.849  1.00  0.00     0.016 A 
ATOM     14  C   UNL     1     -15.809   9.665  24.720  1.00  0.00     0.051 A 
ATOM     15  C   UNL     1     -16.405   9.890  23.475  1.00  0.00     0.157 A 
ATOM     16  C   UNL     1     -18.596   9.640  24.496  1.00  0.00     0.062 A 
ATOM     17  C   UNL     1     -17.806   9.881  23.362  1.00  0.00     0.158 A 
BRANCH  15  18
ATOM     18  O   UNL     1     -15.593  10.122  22.366  1.00  0.00    -0.504 OA
ATOM     19  H   UNL     1     -14.615   9.861  22.351  1.00  0.00     0.293 HD
ENDBRANCH  15  18
BRANCH  17  20
ATOM     20  O   UNL     1     -18.407  10.119  22.127  1.00  0.00    -0.504 OA
ATOM     21  H   UNL     1     -18.824  11.015  21.903  1.00  0.00     0.293 HD
ENDBRANCH  17  20
ENDBRANCH   1  12
BRANCH   2  22
ATOM     22  O   UNL     1     -16.934   8.172  28.157  1.00  0.00    -0.502 OA
ATOM     23  H   UNL     1     -16.288   8.559  28.834  1.00  0.00     0.293 HD
ENDBRANCH   2  22
BRANCH   9  24
ATOM     24  O   UNL     1     -24.424  10.125  28.878  1.00  0.00    -0.508 OA
ATOM     25  H   UNL     1     -24.663  11.101  29.011  1.00  0.00     0.293 HD
ENDBRANCH   9  24
TORSDOF 5
ENDMDL
MODEL 4
REMARK VINA RESULT:     0.020      0.812      1.488
REMARK INTER + INTRA:          -0.109
REMARK INTER:                   0.207
REMARK INTRA:                  -0.316
REMARK UNBOUND:                -0.132
REMARK SMILES O=c1c(O)c(-c2ccc(O)c(O)c2)oc2cc(O)ccc12
REMARK SMILES IDX 5 1 3 2 2 3 1 4 21 5 15 6 14 7 16 8 17 9 19 10 20 11 6 12
REMARK SMILES IDX 7 13 8 14 9 15 13 16 11 17 10 18 12 20 4 22 18 24
REMARK H PARENT 10 19 12 21 4 23 18 25
REMARK Flexibility Score: inf
ROOT
ATOM      1  C   UNL     1     -18.406   8.890  26.019  1.00  0.00     0.180 A 
ATOM      2  C   UNL     1     -17.006   9.032  26.122  1.00  0.00     0.208 A 
ATOM      3  C   UNL     1     -16.277   9.396  24.979  1.00  0.00     0.235 A 
ATOM      4  O   UNL     1     -15.025   9.539  25.048  1.00  0.00    -0.285 OA
ATOM      5  C   UNL     1     -16.952   9.590  23.763  1.00  0.00     0.069 A 
ATOM      6  C   UNL     1     -18.351   9.406  23.737  1.00  0.00     0.142 A 
ATOM      7  O   UNL     1     -19.005   9.070  24.844  1.00  0.00    -0.452 OA
ATOM      8  C   UNL     1     -19.058   9.580  22.543  1.00  0.00     0.094 A 
ATOM      9  C   UNL     1     -18.382   9.940  21.369  1.00  0.00     0.119 A 
ATOM     10  C   UNL     1     -16.996  10.125  21.392  1.00  0.00     0.047 A 
ATOM     11  C   UNL     1     -16.280   9.952  22.581  1.00  0.00     0.020 A 
ENDROOT
BRANCH   1  12
ATOM     12  C   UNL     1     -19.247   8.527  27.183  1.00  0.00     0.025 A 
ATOM     13  C   UNL     1     -19.467   7.172  27.479  1.00  0.00     0.016 A 
ATOM     14  C   UNL     1     -20.274   6.807  28.560  1.00  0.00     0.051 A 
ATOM     15  C   UNL     1     -20.883   7.785  29.350  1.00  0.00     0.157 A 
ATOM     16  C   UNL     1     -19.876   9.511  27.966  1.00  0.00     0.062 A 
ATOM     17  C   UNL     1     -20.688   9.144  29.051  1.00  0.00     0.158 A 
BRANCH  15  18
ATOM     18  O   UNL     1     -21.680   7.390  30.424  1.00  0.00    -0.504 OA
ATOM     19  H   UNL     1     -21.941   8.029  31.165  1.00  0.00     0.293 HD
ENDBRANCH  15  18
BRANCH  17  20
ATOM     20  O   UNL     1     -21.304  10.125  29.827  1.00  0.00    -0.504 OA
ATOM     21  H   UNL     1     -20.906  10.435  30.706  1.00  0.00     0.293 HD
ENDBRANCH  17  20
ENDBRANCH   1  12
BRANCH   2  22
ATOM     22  O   UNL     1     -16.356   8.784  27.333  1.00  0.00    -0.502 OA
ATOM     23  H   UNL     1     -16.390   7.881  27.791  1.00  0.00     0.293 HD
ENDBRANCH   2  22
BRANCH   9  24
ATOM     24  O   UNL     1     -19.078  10.117  20.175  1.00  0.00    -0.508 OA
ATOM     25  H   UNL     1     -20.009   9.739  20.044  1.00  0.00     0.293 HD
ENDBRANCH   9  24
TORSDOF 5
ENDMDL
