MODEL 1
REMARK VINA RESULT:    -6.750      0.000      0.000
REMARK INTER + INTRA:         -10.974
REMARK INTER:                  -9.512
REMARK INTRA:                  -1.462
REMARK UNBOUND:                -1.462
REMARK SMILES COc1c(O[C@@H]2O[C@@H](C(=O)[O-])[C@@H](O)[C@@H](O)[C@@H]2O)cc(O)c2c(=O)cc(-c3ccccc3)oc12
REMARK SMILES IDX 5 1 6 2 8 3 12 4 7 5 14 6 16 7 9 8 10 9 11 10 13 11 15 13
REMARK SMILES IDX 17 15 4 17 3 18 18 19 33 20 19 21 21 22 32 23 22 24 25 25
REMARK SMILES IDX 24 26 23 27 2 28 1 29 20 30 26 32 27 33 31 34 28 35 30 36
REMARK SMILES IDX 29 37
REMARK H PARENT 13 12 15 14 17 16 20 31
REMARK Flexibility Score: inf
ROOT
ATOM      1  O   UNL     1      19.760  34.716  24.777  1.00  0.00    -0.458 OA
ENDROOT
BRANCH   1   2
ATOM      2  C   UNL     1      20.280  33.901  23.726  1.00  0.00     0.339 C 
ATOM      3  C   UNL     1      21.580  31.872  23.619  1.00  0.00     0.199 C 
ATOM      4  C   UNL     1      21.866  32.274  22.151  1.00  0.00     0.180 C 
ATOM      5  O   UNL     1      20.485  32.568  24.203  1.00  0.00    -0.328 OA
ATOM      6  C   UNL     1      22.302  33.750  22.111  1.00  0.00     0.181 C 
ATOM      7  C   UNL     1      21.533  34.613  23.146  1.00  0.00     0.214 C 
BRANCH   3   8
ATOM      8  C   UNL     1      21.334  30.395  23.731  1.00  0.00     0.073 C 
ATOM      9  O   UNL     1      20.847  29.750  22.763  1.00  0.00    -0.547 OA
ATOM     10  O   UNL     1      21.621  29.730  24.923  1.00  0.00    -0.547 OA
ENDBRANCH   3   8
BRANCH   4  11
ATOM     11  O   UNL     1      20.712  32.087  21.354  1.00  0.00    -0.387 OA
ATOM     12  H   UNL     1      20.986  31.555  20.563  1.00  0.00     0.211 HD
ENDBRANCH   4  11
BRANCH   6  13
ATOM     13  O   UNL     1      22.117  34.258  20.815  1.00  0.00    -0.387 OA
ATOM     14  H   UNL     1      22.144  35.249  20.888  1.00  0.00     0.211 HD
ENDBRANCH   6  13
BRANCH   7  15
ATOM     15  O   UNL     1      22.385  35.054  24.176  1.00  0.00    -0.384 OA
ATOM     16  H   UNL     1      22.931  34.284  24.480  1.00  0.00     0.211 HD
ENDBRANCH   7  15
ENDBRANCH   1   2
BRANCH   1  17
ATOM     17  C   UNL     1      19.276  34.198  25.983  1.00  0.00     0.172 A 
ATOM     18  C   UNL     1      20.121  34.116  27.093  1.00  0.00     0.205 A 
ATOM     19  C   UNL     1      17.972  33.698  26.061  1.00  0.00     0.097 A 
ATOM     20  C   UNL     1      19.643  33.596  28.304  1.00  0.00     0.188 A 
ATOM     21  C   UNL     1      17.490  33.121  27.244  1.00  0.00     0.134 A 
ATOM     22  C   UNL     1      18.304  33.132  28.411  1.00  0.00     0.111 A 
ATOM     23  O   UNL     1      20.464  33.537  29.344  1.00  0.00    -0.452 OA
ATOM     24  C   UNL     1      17.869  32.725  29.697  1.00  0.00     0.197 A 
ATOM     25  C   UNL     1      20.103  33.078  30.538  1.00  0.00     0.138 A 
ATOM     26  C   UNL     1      18.776  32.682  30.752  1.00  0.00     0.100 A 
ATOM     27  O   UNL     1      16.667  32.438  29.930  1.00  0.00    -0.289 OA
BRANCH  18  28
ATOM     28  O   UNL     1      21.436  34.577  27.009  1.00  0.00    -0.490 OA
ATOM     29  C   UNL     1      21.767  35.923  27.322  1.00  0.00     0.278 C 
ENDBRANCH  18  28
BRANCH  21  30
ATOM     30  O   UNL     1      16.229  32.517  27.177  1.00  0.00    -0.507 OA
ATOM     31  H   UNL     1      15.883  31.834  27.837  1.00  0.00     0.293 HD
ENDBRANCH  21  30
BRANCH  25  32
ATOM     32  C   UNL     1      21.122  33.004  31.616  1.00  0.00     0.017 A 
ATOM     33  C   UNL     1      22.313  32.284  31.402  1.00  0.00     0.012 A 
ATOM     34  C   UNL     1      20.899  33.590  32.878  1.00  0.00     0.012 A 
ATOM     35  C   UNL     1      23.269  32.176  32.419  1.00  0.00     0.001 A 
ATOM     36  C   UNL     1      21.853  33.468  33.894  1.00  0.00     0.001 A 
ATOM     37  C   UNL     1      23.040  32.767  33.664  1.00  0.00     0.000 A 
ENDBRANCH  25  32
ENDBRANCH   1  17
TORSDOF 9
ENDMDL
MODEL 2
REMARK VINA RESULT:    -6.532      2.412      3.048
REMARK INTER + INTRA:         -10.666
REMARK INTER:                 -10.707
REMARK INTRA:                   0.041
REMARK UNBOUND:                -1.462
REMARK SMILES COc1c(O[C@@H]2O[C@@H](C(=O)[O-])[C@@H](O)[C@@H](O)[C@@H]2O)cc(O)c2c(=O)cc(-c3ccccc3)oc12
REMARK SMILES IDX 5 1 6 2 8 3 12 4 7 5 14 6 16 7 9 8 10 9 11 10 13 11 15 13
REMARK SMILES IDX 17 15 4 17 3 18 18 19 33 20 19 21 21 22 32 23 22 24 25 25
REMARK SMILES IDX 24 26 23 27 2 28 1 29 20 30 26 32 27 33 31 34 28 35 30 36
REMARK SMILES IDX 29 37
REMARK H PARENT 13 12 15 14 17 16 20 31
REMARK Flexibility Score: inf
ROOT
ATOM      1  O   UNL     1      21.650  34.284  23.633  1.00  0.00    -0.458 OA
ENDROOT
BRANCH   1   2
ATOM      2  C   UNL     1      21.439  33.859  22.286  1.00  0.00     0.339 C 
ATOM      3  C   UNL     1      21.418  31.734  21.144  1.00  0.00     0.199 C 
ATOM      4  C   UNL     1      21.572  32.565  19.847  1.00  0.00     0.180 C 
ATOM      5  O   UNL     1      20.999  32.498  22.269  1.00  0.00    -0.328 OA
ATOM      6  C   UNL     1      22.705  33.591  20.040  1.00  0.00     0.181 C 
ATOM      7  C   UNL     1      22.733  34.163  21.482  1.00  0.00     0.214 C 
BRANCH   3   8
ATOM      8  C   UNL     1      20.456  30.599  20.942  1.00  0.00     0.073 C 
ATOM      9  O   UNL     1      19.863  30.079  21.925  1.00  0.00    -0.547 OA
ATOM     10  O   UNL     1      20.232  30.096  19.661  1.00  0.00    -0.547 OA
ENDBRANCH   3   8
BRANCH   4  11
ATOM     11  O   UNL     1      20.362  33.230  19.539  1.00  0.00    -0.387 OA
ATOM     12  H   UNL     1      20.509  34.197  19.708  1.00  0.00     0.211 HD
ENDBRANCH   4  11
BRANCH   6  13
ATOM     13  O   UNL     1      22.561  34.628  19.104  1.00  0.00    -0.387 OA
ATOM     14  H   UNL     1      23.072  35.406  19.455  1.00  0.00     0.211 HD
ENDBRANCH   6  13
BRANCH   7  15
ATOM     15  O   UNL     1      23.875  33.729  22.180  1.00  0.00    -0.384 OA
ATOM     16  H   UNL     1      24.379  34.528  22.482  1.00  0.00     0.211 HD
ENDBRANCH   7  15
ENDBRANCH   1   2
BRANCH   1  17
ATOM     17  C   UNL     1      21.615  33.412  24.727  1.00  0.00     0.172 A 
ATOM     18  C   UNL     1      21.711  33.922  26.025  1.00  0.00     0.205 A 
ATOM     19  C   UNL     1      21.555  32.030  24.524  1.00  0.00     0.097 A 
ATOM     20  C   UNL     1      21.679  33.054  27.126  1.00  0.00     0.188 A 
ATOM     21  C   UNL     1      21.579  31.140  25.606  1.00  0.00     0.134 A 
ATOM     22  C   UNL     1      21.566  31.650  26.934  1.00  0.00     0.111 A 
ATOM     23  O   UNL     1      21.764  33.565  28.347  1.00  0.00    -0.452 OA
ATOM     24  C   UNL     1      21.429  30.854  28.099  1.00  0.00     0.197 A 
ATOM     25  C   UNL     1      21.725  32.829  29.454  1.00  0.00     0.138 A 
ATOM     26  C   UNL     1      21.528  31.446  29.355  1.00  0.00     0.100 A 
ATOM     27  O   UNL     1      21.176  29.624  28.035  1.00  0.00    -0.289 OA
BRANCH  18  28
ATOM     28  O   UNL     1      21.812  35.298  26.233  1.00  0.00    -0.490 OA
ATOM     29  C   UNL     1      20.654  36.111  26.365  1.00  0.00     0.278 C 
ENDBRANCH  18  28
BRANCH  21  30
ATOM     30  O   UNL     1      21.666  29.777  25.294  1.00  0.00    -0.507 OA
ATOM     31  H   UNL     1      21.565  29.392  24.365  1.00  0.00     0.293 HD
ENDBRANCH  21  30
BRANCH  25  32
ATOM     32  C   UNL     1      21.887  33.503  30.767  1.00  0.00     0.017 A 
ATOM     33  C   UNL     1      21.725  34.898  30.861  1.00  0.00     0.012 A 
ATOM     34  C   UNL     1      22.262  32.783  31.919  1.00  0.00     0.012 A 
ATOM     35  C   UNL     1      21.908  35.554  32.084  1.00  0.00     0.001 A 
ATOM     36  C   UNL     1      22.456  33.446  33.137  1.00  0.00     0.001 A 
ATOM     37  C   UNL     1      22.272  34.828  33.221  1.00  0.00     0.000 A 
ENDBRANCH  25  32
ENDBRANCH   1  17
TORSDOF 9
ENDMDL
MODEL 3
REMARK VINA RESULT:    -6.488      2.509      8.426
REMARK INTER + INTRA:         -10.605
REMARK INTER:                  -9.158
REMARK INTRA:                  -1.447
REMARK UNBOUND:                -1.462
REMARK SMILES COc1c(O[C@@H]2O[C@@H](C(=O)[O-])[C@@H](O)[C@@H](O)[C@@H]2O)cc(O)c2c(=O)cc(-c3ccccc3)oc12
REMARK SMILES IDX 5 1 6 2 8 3 12 4 7 5 14 6 16 7 9 8 10 9 11 10 13 11 15 13
REMARK SMILES IDX 17 15 4 17 3 18 18 19 33 20 19 21 21 22 32 23 22 24 25 25
REMARK SMILES IDX 24 26 23 27 2 28 1 29 20 30 26 32 27 33 31 34 28 35 30 36
REMARK SMILES IDX 29 37
REMARK H PARENT 13 12 15 14 17 16 20 31
REMARK Flexibility Score: inf
ROOT
ATOM      1  O   UNL     1      20.441  34.991  26.802  1.00  0.00    -0.458 OA
ENDROOT
BRANCH   1   2
ATOM      2  C   UNL     1      20.543  34.309  28.053  1.00  0.00     0.339 C 
ATOM      3  C   UNL     1      20.392  32.010  28.766  1.00  0.00     0.199 C 
ATOM      4  C   UNL     1      20.187  32.589  30.188  1.00  0.00     0.180 C 
ATOM      5  O   UNL     1      20.919  32.947  27.834  1.00  0.00    -0.328 OA
ATOM      6  C   UNL     1      19.117  33.696  30.129  1.00  0.00     0.181 C 
ATOM      7  C   UNL     1      19.212  34.529  28.825  1.00  0.00     0.214 C 
BRANCH   3   8
ATOM      8  C   UNL     1      21.286  30.804  28.803  1.00  0.00     0.073 C 
ATOM      9  O   UNL     1      21.972  30.545  29.829  1.00  0.00    -0.547 OA
ATOM     10  O   UNL     1      21.380  29.974  27.687  1.00  0.00    -0.547 OA
ENDBRANCH   3   8
BRANCH   4  11
ATOM     11  O   UNL     1      21.402  33.115  30.687  1.00  0.00    -0.387 OA
ATOM     12  H   UNL     1      21.490  34.037  30.330  1.00  0.00     0.211 HD
ENDBRANCH   4  11
BRANCH   6  13
ATOM     13  O   UNL     1      19.244  34.528  31.253  1.00  0.00    -0.387 OA
ATOM     14  H   UNL     1      19.466  35.436  30.915  1.00  0.00     0.211 HD
ENDBRANCH   6  13
BRANCH   7  15
ATOM     15  O   UNL     1      18.101  34.299  27.991  1.00  0.00    -0.384 OA
ATOM     16  H   UNL     1      18.384  34.437  27.050  1.00  0.00     0.211 HD
ENDBRANCH   7  15
ENDBRANCH   1   2
BRANCH   1  17
ATOM     17  C   UNL     1      21.028  34.521  25.622  1.00  0.00     0.172 A 
ATOM     18  C   UNL     1      20.287  33.723  24.747  1.00  0.00     0.205 A 
ATOM     19  C   UNL     1      22.374  34.788  25.350  1.00  0.00     0.097 A 
ATOM     20  C   UNL     1      20.869  33.247  23.563  1.00  0.00     0.188 A 
ATOM     21  C   UNL     1      22.994  34.275  24.203  1.00  0.00     0.134 A 
ATOM     22  C   UNL     1      22.221  33.554  23.251  1.00  0.00     0.111 A 
ATOM     23  O   UNL     1      20.140  32.498  22.747  1.00  0.00    -0.452 OA
ATOM     24  C   UNL     1      22.698  33.128  21.987  1.00  0.00     0.197 A 
ATOM     25  C   UNL     1      20.593  32.014  21.595  1.00  0.00     0.138 A 
ATOM     26  C   UNL     1      21.888  32.343  21.171  1.00  0.00     0.100 A 
ATOM     27  O   UNL     1      23.826  33.475  21.553  1.00  0.00    -0.289 OA
BRANCH  18  28
ATOM     28  O   UNL     1      18.954  33.419  25.032  1.00  0.00    -0.490 OA
ATOM     29  C   UNL     1      17.890  34.190  24.493  1.00  0.00     0.278 C 
ENDBRANCH  18  28
BRANCH  21  30
ATOM     30  O   UNL     1      24.376  34.473  24.097  1.00  0.00    -0.507 OA
ATOM     31  H   UNL     1      25.032  34.374  24.860  1.00  0.00     0.293 HD
ENDBRANCH  21  30
BRANCH  25  32
ATOM     32  C   UNL     1      19.706  31.138  20.787  1.00  0.00     0.017 A 
ATOM     33  C   UNL     1      20.262  30.089  20.031  1.00  0.00     0.012 A 
ATOM     34  C   UNL     1      18.319  31.373  20.709  1.00  0.00     0.012 A 
ATOM     35  C   UNL     1      19.444  29.277  19.236  1.00  0.00     0.001 A 
ATOM     36  C   UNL     1      17.508  30.565  19.904  1.00  0.00     0.001 A 
ATOM     37  C   UNL     1      18.069  29.514  19.173  1.00  0.00     0.000 A 
ENDBRANCH  25  32
ENDBRANCH   1  17
TORSDOF 9
ENDMDL
MODEL 4
REMARK VINA RESULT:    -6.476      1.084      2.302
REMARK INTER + INTRA:         -10.587
REMARK INTER:                  -9.454
REMARK INTRA:                  -1.133
REMARK UNBOUND:                -1.462
REMARK SMILES COc1c(O[C@@H]2O[C@@H](C(=O)[O-])[C@@H](O)[C@@H](O)[C@@H]2O)cc(O)c2c(=O)cc(-c3ccccc3)oc12
REMARK SMILES IDX 5 1 6 2 8 3 12 4 7 5 14 6 16 7 9 8 10 9 11 10 13 11 15 13
REMARK SMILES IDX 17 15 4 17 3 18 18 19 33 20 19 21 21 22 32 23 22 24 25 25
REMARK SMILES IDX 24 26 23 27 2 28 1 29 20 30 26 32 27 33 31 34 28 35 30 36
REMARK SMILES IDX 29 37
REMARK H PARENT 13 12 15 14 17 16 20 31
REMARK Flexibility Score: inf
ROOT
ATOM      1  O   UNL     1      19.519  34.029  24.720  1.00  0.00    -0.458 OA
ENDROOT
BRANCH   1   2
ATOM      2  C   UNL     1      20.296  33.127  23.932  1.00  0.00     0.339 C 
ATOM      3  C   UNL     1      21.679  33.326  21.966  1.00  0.00     0.199 C 
ATOM      4  C   UNL     1      21.532  31.789  21.852  1.00  0.00     0.180 C 
ATOM      5  O   UNL     1      21.323  33.845  23.242  1.00  0.00    -0.328 OA
ATOM      6  C   UNL     1      20.045  31.415  22.002  1.00  0.00     0.181 C 
ATOM      7  C   UNL     1      19.321  32.313  23.038  1.00  0.00     0.214 C 
BRANCH   3   8
ATOM      8  C   UNL     1      23.081  33.756  21.641  1.00  0.00     0.073 C 
ATOM      9  O   UNL     1      23.965  33.791  22.538  1.00  0.00    -0.547 OA
ATOM     10  O   UNL     1      23.406  34.143  20.341  1.00  0.00    -0.547 OA
ENDBRANCH   3   8
BRANCH   4  11
ATOM     11  O   UNL     1      22.298  31.144  22.853  1.00  0.00    -0.387 OA
ATOM     12  H   UNL     1      21.658  30.746  23.498  1.00  0.00     0.211 HD
ENDBRANCH   4  11
BRANCH   6  13
ATOM     13  O   UNL     1      19.937  30.063  22.365  1.00  0.00    -0.387 OA
ATOM     14  H   UNL     1      20.863  29.705  22.420  1.00  0.00     0.211 HD
ENDBRANCH   6  13
BRANCH   7  15
ATOM     15  O   UNL     1      18.384  33.158  22.413  1.00  0.00    -0.384 OA
ATOM     16  H   UNL     1      18.195  32.798  21.508  1.00  0.00     0.211 HD
ENDBRANCH   7  15
ENDBRANCH   1   2
BRANCH   1  17
ATOM     17  C   UNL     1      19.062  33.726  26.007  1.00  0.00     0.172 A 
ATOM     18  C   UNL     1      19.965  33.677  27.072  1.00  0.00     0.205 A 
ATOM     19  C   UNL     1      17.717  33.404  26.219  1.00  0.00     0.097 A 
ATOM     20  C   UNL     1      19.514  33.373  28.365  1.00  0.00     0.188 A 
ATOM     21  C   UNL     1      17.254  33.040  27.490  1.00  0.00     0.134 A 
ATOM     22  C   UNL     1      18.141  33.093  28.601  1.00  0.00     0.111 A 
ATOM     23  O   UNL     1      20.392  33.340  29.358  1.00  0.00    -0.452 OA
ATOM     24  C   UNL     1      17.750  32.903  29.950  1.00  0.00     0.197 A 
ATOM     25  C   UNL     1      20.062  33.079  30.620  1.00  0.00     0.138 A 
ATOM     26  C   UNL     1      18.716  32.879  30.952  1.00  0.00     0.100 A 
ATOM     27  O   UNL     1      16.541  32.797  30.281  1.00  0.00    -0.289 OA
BRANCH  18  28
ATOM     28  O   UNL     1      21.316  33.959  26.861  1.00  0.00    -0.490 OA
ATOM     29  C   UNL     1      21.799  35.295  26.860  1.00  0.00     0.278 C 
ENDBRANCH  18  28
BRANCH  21  30
ATOM     30  O   UNL     1      15.929  32.591  27.569  1.00  0.00    -0.507 OA
ATOM     31  H   UNL     1      15.324  32.442  26.773  1.00  0.00     0.293 HD
ENDBRANCH  21  30
BRANCH  25  32
ATOM     32  C   UNL     1      21.137  33.013  31.642  1.00  0.00     0.017 A 
ATOM     33  C   UNL     1      22.290  32.245  31.394  1.00  0.00     0.012 A 
ATOM     34  C   UNL     1      21.002  33.655  32.889  1.00  0.00     0.012 A 
ATOM     35  C   UNL     1      23.297  32.144  32.361  1.00  0.00     0.001 A 
ATOM     36  C   UNL     1      22.007  33.541  33.857  1.00  0.00     0.001 A 
ATOM     37  C   UNL     1      23.156  32.792  33.591  1.00  0.00     0.000 A 
ENDBRANCH  25  32
ENDBRANCH   1  17
TORSDOF 9
ENDMDL
MODEL 5
REMARK VINA RESULT:    -6.264      2.498      3.973
REMARK INTER + INTRA:         -10.290
REMARK INTER:                  -9.181
REMARK INTRA:                  -1.108
REMARK UNBOUND:                -1.462
REMARK SMILES COc1c(O[C@@H]2O[C@@H](C(=O)[O-])[C@@H](O)[C@@H](O)[C@@H]2O)cc(O)c2c(=O)cc(-c3ccccc3)oc12
REMARK SMILES IDX 5 1 6 2 8 3 12 4 7 5 14 6 16 7 9 8 10 9 11 10 13 11 15 13
REMARK SMILES IDX 17 15 4 17 3 18 18 19 33 20 19 21 21 22 32 23 22 24 25 25
REMARK SMILES IDX 24 26 23 27 2 28 1 29 20 30 26 32 27 33 31 34 28 35 30 36
REMARK SMILES IDX 29 37
REMARK H PARENT 13 12 15 14 17 16 20 31
REMARK Flexibility Score: inf
ROOT
ATOM      1  O   UNL     1      21.568  34.153  23.250  1.00  0.00    -0.458 OA
ENDROOT
BRANCH   1   2
ATOM      2  C   UNL     1      21.256  33.687  21.936  1.00  0.00     0.339 C 
ATOM      3  C   UNL     1      21.504  34.567  19.704  1.00  0.00     0.199 C 
ATOM      4  C   UNL     1      20.467  33.493  19.294  1.00  0.00     0.180 C 
ATOM      5  O   UNL     1      22.095  34.338  20.978  1.00  0.00    -0.328 OA
ATOM      6  C   UNL     1      19.276  33.547  20.269  1.00  0.00     0.181 C 
ATOM      7  C   UNL     1      19.726  33.853  21.721  1.00  0.00     0.214 C 
BRANCH   3   8
ATOM      8  C   UNL     1      22.593  34.680  18.676  1.00  0.00     0.073 C 
ATOM      9  O   UNL     1      22.691  33.831  17.749  1.00  0.00    -0.547 OA
ATOM     10  O   UNL     1      23.520  35.718  18.756  1.00  0.00    -0.547 OA
ENDBRANCH   3   8
BRANCH   4  11
ATOM     11  O   UNL     1      21.053  32.206  19.316  1.00  0.00    -0.387 OA
ATOM     12  H   UNL     1      20.335  31.554  19.105  1.00  0.00     0.211 HD
ENDBRANCH   4  11
BRANCH   6  13
ATOM     13  O   UNL     1      18.574  32.332  20.219  1.00  0.00    -0.387 OA
ATOM     14  H   UNL     1      17.631  32.534  20.461  1.00  0.00     0.211 HD
ENDBRANCH   6  13
BRANCH   7  15
ATOM     15  O   UNL     1      19.295  35.129  22.131  1.00  0.00    -0.384 OA
ATOM     16  H   UNL     1      19.198  35.123  23.118  1.00  0.00     0.211 HD
ENDBRANCH   7  15
ENDBRANCH   1   2
BRANCH   1  17
ATOM     17  C   UNL     1      21.554  33.329  24.380  1.00  0.00     0.172 A 
ATOM     18  C   UNL     1      21.649  33.895  25.654  1.00  0.00     0.205 A 
ATOM     19  C   UNL     1      21.516  31.938  24.237  1.00  0.00     0.097 A 
ATOM     20  C   UNL     1      21.638  33.074  26.791  1.00  0.00     0.188 A 
ATOM     21  C   UNL     1      21.562  31.096  25.356  1.00  0.00     0.134 A 
ATOM     22  C   UNL     1      21.548  31.662  26.661  1.00  0.00     0.111 A 
ATOM     23  O   UNL     1      21.722  33.639  27.988  1.00  0.00    -0.452 OA
ATOM     24  C   UNL     1      21.431  30.915  27.859  1.00  0.00     0.197 A 
ATOM     25  C   UNL     1      21.701  32.951  29.127  1.00  0.00     0.138 A 
ATOM     26  C   UNL     1      21.527  31.561  29.088  1.00  0.00     0.100 A 
ATOM     27  O   UNL     1      21.199  29.679  27.849  1.00  0.00    -0.289 OA
BRANCH  18  28
ATOM     28  O   UNL     1      21.728  35.281  25.803  1.00  0.00    -0.490 OA
ATOM     29  C   UNL     1      22.963  35.968  25.661  1.00  0.00     0.278 C 
ENDBRANCH  18  28
BRANCH  21  30
ATOM     30  O   UNL     1      21.670  29.723  25.102  1.00  0.00    -0.507 OA
ATOM     31  H   UNL     1      21.093  29.211  24.448  1.00  0.00     0.293 HD
ENDBRANCH  21  30
BRANCH  25  32
ATOM     32  C   UNL     1      21.859  33.683  30.409  1.00  0.00     0.017 A 
ATOM     33  C   UNL     1      21.422  35.017  30.509  1.00  0.00     0.012 A 
ATOM     34  C   UNL     1      22.497  33.091  31.517  1.00  0.00     0.012 A 
ATOM     35  C   UNL     1      21.595  35.733  31.700  1.00  0.00     0.001 A 
ATOM     36  C   UNL     1      22.678  33.815  32.701  1.00  0.00     0.001 A 
ATOM     37  C   UNL     1      22.222  35.133  32.795  1.00  0.00     0.000 A 
ENDBRANCH  25  32
ENDBRANCH   1  17
TORSDOF 9
ENDMDL
MODEL 6
REMARK VINA RESULT:    -6.188      2.305      8.803
REMARK INTER + INTRA:         -10.182
REMARK INTER:                  -9.033
REMARK INTRA:                  -1.149
REMARK UNBOUND:                -1.462
REMARK SMILES COc1c(O[C@@H]2O[C@@H](C(=O)[O-])[C@@H](O)[C@@H](O)[C@@H]2O)cc(O)c2c(=O)cc(-c3ccccc3)oc12
REMARK SMILES IDX 5 1 6 2 8 3 12 4 7 5 14 6 16 7 9 8 10 9 11 10 13 11 15 13
REMARK SMILES IDX 17 15 4 17 3 18 18 19 33 20 19 21 21 22 32 23 22 24 25 25
REMARK SMILES IDX 24 26 23 27 2 28 1 29 20 30 26 32 27 33 31 34 28 35 30 36
REMARK SMILES IDX 29 37
REMARK H PARENT 13 12 15 14 17 16 20 31
REMARK Flexibility Score: inf
ROOT
ATOM      1  O   UNL     1      20.142  34.376  26.671  1.00  0.00    -0.458 OA
ENDROOT
BRANCH   1   2
ATOM      2  C   UNL     1      19.985  33.410  27.711  1.00  0.00     0.339 C 
ATOM      3  C   UNL     1      18.518  33.162  29.610  1.00  0.00     0.199 C 
ATOM      4  C   UNL     1      19.561  32.144  30.133  1.00  0.00     0.180 C 
ATOM      5  O   UNL     1      18.651  33.463  28.226  1.00  0.00    -0.328 OA
ATOM      6  C   UNL     1      20.967  32.764  30.022  1.00  0.00     0.181 C 
ATOM      7  C   UNL     1      21.121  33.635  28.748  1.00  0.00     0.214 C 
BRANCH   3   8
ATOM      8  C   UNL     1      17.121  32.678  29.871  1.00  0.00     0.073 C 
ATOM      9  O   UNL     1      16.211  33.490  30.193  1.00  0.00    -0.547 OA
ATOM     10  O   UNL     1      16.827  31.319  29.780  1.00  0.00    -0.547 OA
ENDBRANCH   3   8
BRANCH   4  11
ATOM     11  O   UNL     1      19.500  30.945  29.383  1.00  0.00    -0.387 OA
ATOM     12  H   UNL     1      20.228  30.984  28.710  1.00  0.00     0.211 HD
ENDBRANCH   4  11
BRANCH   6  13
ATOM     13  O   UNL     1      21.931  31.744  30.038  1.00  0.00    -0.387 OA
ATOM     14  H   UNL     1      21.539  30.969  29.554  1.00  0.00     0.211 HD
ENDBRANCH   6  13
BRANCH   7  15
ATOM     15  O   UNL     1      21.243  34.999  29.074  1.00  0.00    -0.384 OA
ATOM     16  H   UNL     1      20.794  35.152  29.945  1.00  0.00     0.211 HD
ENDBRANCH   7  15
ENDBRANCH   1   2
BRANCH   1  17
ATOM     17  C   UNL     1      20.901  34.146  25.519  1.00  0.00     0.172 A 
ATOM     18  C   UNL     1      20.345  33.436  24.451  1.00  0.00     0.205 A 
ATOM     19  C   UNL     1      22.234  34.563  25.459  1.00  0.00     0.097 A 
ATOM     20  C   UNL     1      21.101  33.201  23.293  1.00  0.00     0.188 A 
ATOM     21  C   UNL     1      23.027  34.289  24.336  1.00  0.00     0.134 A 
ATOM     22  C   UNL     1      22.440  33.664  23.200  1.00  0.00     0.111 A 
ATOM     23  O   UNL     1      20.546  32.530  22.293  1.00  0.00    -0.452 OA
ATOM     24  C   UNL     1      23.096  33.482  21.957  1.00  0.00     0.197 A 
ATOM     25  C   UNL     1      21.171  32.271  21.148  1.00  0.00     0.138 A 
ATOM     26  C   UNL     1      22.464  32.769  20.941  1.00  0.00     0.100 A 
ATOM     27  O   UNL     1      24.224  33.984  21.723  1.00  0.00    -0.289 OA
BRANCH  18  28
ATOM     28  O   UNL     1      19.027  32.981  24.521  1.00  0.00    -0.490 OA
ATOM     29  C   UNL     1      17.939  33.813  24.142  1.00  0.00     0.278 C 
ENDBRANCH  18  28
BRANCH  21  30
ATOM     30  O   UNL     1      24.385  34.615  24.434  1.00  0.00    -0.507 OA
ATOM     31  H   UNL     1      24.742  35.495  24.779  1.00  0.00     0.293 HD
ENDBRANCH  21  30
BRANCH  25  32
ATOM     32  C   UNL     1      20.472  31.462  20.117  1.00  0.00     0.017 A 
ATOM     33  C   UNL     1      19.821  32.106  19.048  1.00  0.00     0.012 A 
ATOM     34  C   UNL     1      20.391  30.059  20.217  1.00  0.00     0.012 A 
ATOM     35  C   UNL     1      19.128  31.360  18.087  1.00  0.00     0.001 A 
ATOM     36  C   UNL     1      19.686  29.320  19.260  1.00  0.00     0.001 A 
ATOM     37  C   UNL     1      19.061  29.969  18.192  1.00  0.00     0.000 A 
ENDBRANCH  25  32
ENDBRANCH   1  17
TORSDOF 9
ENDMDL
MODEL 7
REMARK VINA RESULT:    -6.154      0.935      1.273
REMARK INTER + INTRA:         -10.134
REMARK INTER:                  -8.800
REMARK INTRA:                  -1.335
REMARK UNBOUND:                -1.462
REMARK SMILES COc1c(O[C@@H]2O[C@@H](C(=O)[O-])[C@@H](O)[C@@H](O)[C@@H]2O)cc(O)c2c(=O)cc(-c3ccccc3)oc12
REMARK SMILES IDX 5 1 6 2 8 3 12 4 7 5 14 6 16 7 9 8 10 9 11 10 13 11 15 13
REMARK SMILES IDX 17 15 4 17 3 18 18 19 33 20 19 21 21 22 32 23 22 24 25 25
REMARK SMILES IDX 24 26 23 27 2 28 1 29 20 30 26 32 27 33 31 34 28 35 30 36
REMARK SMILES IDX 29 37
REMARK H PARENT 13 12 15 14 17 16 20 31
REMARK Flexibility Score: inf
ROOT
ATOM      1  O   UNL     1      20.298  34.880  24.182  1.00  0.00    -0.458 OA
ENDROOT
BRANCH   1   2
ATOM      2  C   UNL     1      20.629  33.929  23.170  1.00  0.00     0.339 C 
ATOM      3  C   UNL     1      21.654  31.745  23.143  1.00  0.00     0.199 C 
ATOM      4  C   UNL     1      21.873  31.998  21.631  1.00  0.00     0.180 C 
ATOM      5  O   UNL     1      20.703  32.619  23.740  1.00  0.00    -0.328 OA
ATOM      6  C   UNL     1      22.485  33.398  21.439  1.00  0.00     0.181 C 
ATOM      7  C   UNL     1      21.912  34.427  22.449  1.00  0.00     0.214 C 
BRANCH   3   8
ATOM      8  C   UNL     1      21.235  30.326  23.394  1.00  0.00     0.073 C 
ATOM      9  O   UNL     1      21.566  29.738  24.460  1.00  0.00    -0.547 OA
ATOM     10  O   UNL     1      20.493  29.639  22.434  1.00  0.00    -0.547 OA
ENDBRANCH   3   8
BRANCH   4  11
ATOM     11  O   UNL     1      20.646  31.905  20.932  1.00  0.00    -0.387 OA
ATOM     12  H   UNL     1      20.720  31.133  20.313  1.00  0.00     0.211 HD
ENDBRANCH   4  11
BRANCH   6  13
ATOM     13  O   UNL     1      22.264  33.829  20.121  1.00  0.00    -0.387 OA
ATOM     14  H   UNL     1      22.448  33.052  19.530  1.00  0.00     0.211 HD
ENDBRANCH   6  13
BRANCH   7  15
ATOM     15  O   UNL     1      22.890  34.828  23.378  1.00  0.00    -0.384 OA
ATOM     16  H   UNL     1      22.832  35.813  23.485  1.00  0.00     0.211 HD
ENDBRANCH   7  15
ENDBRANCH   1   2
BRANCH   1  17
ATOM     17  C   UNL     1      19.800  34.522  25.440  1.00  0.00     0.172 A 
ATOM     18  C   UNL     1      20.676  34.382  26.519  1.00  0.00     0.205 A 
ATOM     19  C   UNL     1      18.442  34.234  25.604  1.00  0.00     0.097 A 
ATOM     20  C   UNL     1      20.185  34.020  27.782  1.00  0.00     0.188 A 
ATOM     21  C   UNL     1      17.937  33.816  26.842  1.00  0.00     0.134 A 
ATOM     22  C   UNL     1      18.799  33.776  27.973  1.00  0.00     0.111 A 
ATOM     23  O   UNL     1      21.038  33.902  28.791  1.00  0.00    -0.452 OA
ATOM     24  C   UNL     1      18.370  33.524  29.300  1.00  0.00     0.197 A 
ATOM     25  C   UNL     1      20.670  33.582  30.028  1.00  0.00     0.138 A 
ATOM     26  C   UNL     1      19.311  33.410  30.320  1.00  0.00     0.100 A 
ATOM     27  O   UNL     1      17.152  33.442  29.599  1.00  0.00    -0.289 OA
BRANCH  18  28
ATOM     28  O   UNL     1      22.041  34.628  26.353  1.00  0.00    -0.490 OA
ATOM     29  C   UNL     1      22.557  35.952  26.357  1.00  0.00     0.278 C 
ENDBRANCH  18  28
BRANCH  21  30
ATOM     30  O   UNL     1      16.597  33.410  26.867  1.00  0.00    -0.507 OA
ATOM     31  H   UNL     1      16.020  33.381  27.696  1.00  0.00     0.293 HD
ENDBRANCH  21  30
BRANCH  25  32
ATOM     32  C   UNL     1      21.719  33.422  31.068  1.00  0.00     0.017 A 
ATOM     33  C   UNL     1      22.296  34.562  31.658  1.00  0.00     0.012 A 
ATOM     34  C   UNL     1      22.197  32.149  31.436  1.00  0.00     0.012 A 
ATOM     35  C   UNL     1      23.310  34.429  32.615  1.00  0.00     0.001 A 
ATOM     36  C   UNL     1      23.219  32.023  32.384  1.00  0.00     0.001 A 
ATOM     37  C   UNL     1      23.771  33.161  32.978  1.00  0.00     0.000 A 
ENDBRANCH  25  32
ENDBRANCH   1  17
TORSDOF 9
ENDMDL
MODEL 8
REMARK VINA RESULT:    -6.023      2.106      3.728
REMARK INTER + INTRA:          -9.950
REMARK INTER:                  -8.523
REMARK INTRA:                  -1.427
REMARK UNBOUND:                -1.462
REMARK SMILES COc1c(O[C@@H]2O[C@@H](C(=O)[O-])[C@@H](O)[C@@H](O)[C@@H]2O)cc(O)c2c(=O)cc(-c3ccccc3)oc12
REMARK SMILES IDX 5 1 6 2 8 3 12 4 7 5 14 6 16 7 9 8 10 9 11 10 13 11 15 13
REMARK SMILES IDX 17 15 4 17 3 18 18 19 33 20 19 21 21 22 32 23 22 24 25 25
REMARK SMILES IDX 24 26 23 27 2 28 1 29 20 30 26 32 27 33 31 34 28 35 30 36
REMARK SMILES IDX 29 37
REMARK H PARENT 13 12 15 14 17 16 20 31
REMARK Flexibility Score: inf
ROOT
ATOM      1  O   UNL     1      19.832  32.805  27.182  1.00  0.00    -0.458 OA
ENDROOT
BRANCH   1   2
ATOM      2  C   UNL     1      20.314  33.497  26.030  1.00  0.00     0.339 C 
ATOM      3  C   UNL     1      19.894  33.371  23.657  1.00  0.00     0.199 C 
ATOM      4  C   UNL     1      21.218  34.160  23.502  1.00  0.00     0.180 C 
ATOM      5  O   UNL     1      19.354  33.409  24.973  1.00  0.00    -0.328 OA
ATOM      6  C   UNL     1      22.304  33.493  24.368  1.00  0.00     0.181 C 
ATOM      7  C   UNL     1      21.732  32.951  25.704  1.00  0.00     0.214 C 
BRANCH   3   8
ATOM      8  C   UNL     1      18.858  33.869  22.691  1.00  0.00     0.073 C 
ATOM      9  O   UNL     1      18.275  34.969  22.887  1.00  0.00    -0.547 OA
ATOM     10  O   UNL     1      18.517  33.100  21.579  1.00  0.00    -0.547 OA
ENDBRANCH   3   8
BRANCH   4  11
ATOM     11  O   UNL     1      21.040  35.506  23.899  1.00  0.00    -0.387 OA
ATOM     12  H   UNL     1      20.270  35.527  24.525  1.00  0.00     0.211 HD
ENDBRANCH   4  11
BRANCH   6  13
ATOM     13  O   UNL     1      23.336  34.413  24.614  1.00  0.00    -0.387 OA
ATOM     14  H   UNL     1      23.478  34.430  25.597  1.00  0.00     0.211 HD
ENDBRANCH   6  13
BRANCH   7  15
ATOM     15  O   UNL     1      21.750  31.544  25.733  1.00  0.00    -0.384 OA
ATOM     16  H   UNL     1      21.331  31.245  26.581  1.00  0.00     0.211 HD
ENDBRANCH   7  15
ENDBRANCH   1   2
BRANCH   1  17
ATOM     17  C   UNL     1      19.950  33.305  28.483  1.00  0.00     0.172 A 
ATOM     18  C   UNL     1      20.907  32.769  29.349  1.00  0.00     0.205 A 
ATOM     19  C   UNL     1      19.070  34.291  28.942  1.00  0.00     0.097 A 
ATOM     20  C   UNL     1      21.030  33.265  30.655  1.00  0.00     0.188 A 
ATOM     21  C   UNL     1      19.136  34.761  30.260  1.00  0.00     0.134 A 
ATOM     22  C   UNL     1      20.175  34.301  31.117  1.00  0.00     0.111 A 
ATOM     23  O   UNL     1      21.951  32.742  31.454  1.00  0.00    -0.452 OA
ATOM     24  C   UNL     1      20.437  34.820  32.409  1.00  0.00     0.197 A 
ATOM     25  C   UNL     1      22.159  33.154  32.701  1.00  0.00     0.138 A 
ATOM     26  C   UNL     1      21.417  34.231  33.204  1.00  0.00     0.100 A 
ATOM     27  O   UNL     1      19.837  35.832  32.852  1.00  0.00    -0.289 OA
BRANCH  18  28
ATOM     28  O   UNL     1      21.762  31.757  28.911  1.00  0.00    -0.490 OA
ATOM     29  C   UNL     1      21.363  30.394  28.931  1.00  0.00     0.278 C 
ENDBRANCH  18  28
BRANCH  21  30
ATOM     30  O   UNL     1      18.119  35.634  30.665  1.00  0.00    -0.507 OA
ATOM     31  H   UNL     1      18.241  36.625  30.824  1.00  0.00     0.293 HD
ENDBRANCH  21  30
BRANCH  25  32
ATOM     32  C   UNL     1      23.180  32.458  33.524  1.00  0.00     0.017 A 
ATOM     33  C   UNL     1      23.725  33.101  34.652  1.00  0.00     0.012 A 
ATOM     34  C   UNL     1      23.667  31.185  33.166  1.00  0.00     0.012 A 
ATOM     35  C   UNL     1      24.714  32.473  35.419  1.00  0.00     0.001 A 
ATOM     36  C   UNL     1      24.665  30.568  33.929  1.00  0.00     0.001 A 
ATOM     37  C   UNL     1      25.183  31.208  35.058  1.00  0.00     0.000 A 
ENDBRANCH  25  32
ENDBRANCH   1  17
TORSDOF 9
ENDMDL
MODEL 9
REMARK VINA RESULT:    -5.097      2.466      3.887
REMARK INTER + INTRA:          -8.644
REMARK INTER:                  -7.417
REMARK INTRA:                  -1.227
REMARK UNBOUND:                -1.462
REMARK SMILES COc1c(O[C@@H]2O[C@@H](C(=O)[O-])[C@@H](O)[C@@H](O)[C@@H]2O)cc(O)c2c(=O)cc(-c3ccccc3)oc12
REMARK SMILES IDX 5 1 6 2 8 3 12 4 7 5 14 6 16 7 9 8 10 9 11 10 13 11 15 13
REMARK SMILES IDX 17 15 4 17 3 18 18 19 33 20 19 21 21 22 32 23 22 24 25 25
REMARK SMILES IDX 24 26 23 27 2 28 1 29 20 30 26 32 27 33 31 34 28 35 30 36
REMARK SMILES IDX 29 37
REMARK H PARENT 13 12 15 14 17 16 20 31
REMARK Flexibility Score: inf
ROOT
ATOM      1  O   UNL     1      21.339  34.015  23.032  1.00  0.00    -0.458 OA
ENDROOT
BRANCH   1   2
ATOM      2  C   UNL     1      22.323  33.939  22.000  1.00  0.00     0.339 C 
ATOM      3  C   UNL     1      24.527  34.858  21.665  1.00  0.00     0.199 C 
ATOM      4  C   UNL     1      24.319  34.504  20.172  1.00  0.00     0.180 C 
ATOM      5  O   UNL     1      23.619  34.205  22.543  1.00  0.00    -0.328 OA
ATOM      6  C   UNL     1      22.937  35.016  19.723  1.00  0.00     0.181 C 
ATOM      7  C   UNL     1      21.871  34.868  20.840  1.00  0.00     0.214 C 
BRANCH   3   8
ATOM      8  C   UNL     1      25.931  34.548  22.098  1.00  0.00     0.073 C 
ATOM      9  O   UNL     1      26.880  34.581  21.269  1.00  0.00    -0.547 OA
ATOM     10  O   UNL     1      26.189  34.196  23.422  1.00  0.00    -0.547 OA
ENDBRANCH   3   8
BRANCH   4  11
ATOM     11  O   UNL     1      24.403  33.105  19.980  1.00  0.00    -0.387 OA
ATOM     12  H   UNL     1      24.319  32.938  19.005  1.00  0.00     0.211 HD
ENDBRANCH   4  11
BRANCH   6  13
ATOM     13  O   UNL     1      22.535  34.327  18.568  1.00  0.00    -0.387 OA
ATOM     14  H   UNL     1      23.312  34.329  17.947  1.00  0.00     0.211 HD
ENDBRANCH   6  13
BRANCH   7  15
ATOM     15  O   UNL     1      21.467  36.125  21.328  1.00  0.00    -0.384 OA
ATOM     16  H   UNL     1      21.046  35.993  22.217  1.00  0.00     0.211 HD
ENDBRANCH   7  15
ENDBRANCH   1   2
BRANCH   1  17
ATOM     17  C   UNL     1      21.386  33.241  24.196  1.00  0.00     0.172 A 
ATOM     18  C   UNL     1      21.468  33.866  25.444  1.00  0.00     0.205 A 
ATOM     19  C   UNL     1      21.421  31.846  24.113  1.00  0.00     0.097 A 
ATOM     20  C   UNL     1      21.518  33.096  26.615  1.00  0.00     0.188 A 
ATOM     21  C   UNL     1      21.529  31.056  25.265  1.00  0.00     0.134 A 
ATOM     22  C   UNL     1      21.503  31.677  26.546  1.00  0.00     0.111 A 
ATOM     23  O   UNL     1      21.588  33.716  27.785  1.00  0.00    -0.452 OA
ATOM     24  C   UNL     1      21.444  30.977  27.776  1.00  0.00     0.197 A 
ATOM     25  C   UNL     1      21.622  33.077  28.952  1.00  0.00     0.138 A 
ATOM     26  C   UNL     1      21.523  31.680  28.975  1.00  0.00     0.100 A 
ATOM     27  O   UNL     1      21.279  29.731  27.823  1.00  0.00    -0.289 OA
BRANCH  18  28
ATOM     28  O   UNL     1      21.474  35.259  25.532  1.00  0.00    -0.490 OA
ATOM     29  C   UNL     1      20.271  35.991  25.724  1.00  0.00     0.278 C 
ENDBRANCH  18  28
BRANCH  21  30
ATOM     30  O   UNL     1      21.708  29.681  25.068  1.00  0.00    -0.507 OA
ATOM     31  H   UNL     1      22.125  29.268  24.246  1.00  0.00     0.293 HD
ENDBRANCH  21  30
BRANCH  25  32
ATOM     32  C   UNL     1      21.758  33.871  30.199  1.00  0.00     0.017 A 
ATOM     33  C   UNL     1      22.029  33.218  31.416  1.00  0.00     0.012 A 
ATOM     34  C   UNL     1      21.560  35.266  30.205  1.00  0.00     0.012 A 
ATOM     35  C   UNL     1      22.126  33.948  32.607  1.00  0.00     0.001 A 
ATOM     36  C   UNL     1      21.647  35.989  31.400  1.00  0.00     0.001 A 
ATOM     37  C   UNL     1      21.936  35.332  32.599  1.00  0.00     0.000 A 
ENDBRANCH  25  32
ENDBRANCH   1  17
TORSDOF 9
ENDMDL
