MODEL 1
REMARK VINA RESULT:    -3.453      0.000      0.000
REMARK INTER + INTRA:          -4.497
REMARK INTER:                  -4.866
REMARK INTRA:                   0.369
REMARK UNBOUND:                 0.369
REMARK SMILES CC1=CCC(=C(C)C)C(=O)CC(C)=CCC1
REMARK SMILES IDX 12 1 14 2 13 3 15 4 16 5 2 6 1 7 3 8 11 10 9 11 10 12 5 13
REMARK SMILES IDX 6 14 7 15 8 16 4 17
REMARK H PARENT
REMARK Flexibility Score: 60.00
ROOT
ATOM      1  C   UNL     1      14.906  27.564  15.208  1.00  0.00    -0.070 C 
ATOM      2  C   UNL     1      15.314  26.274  15.293  1.00  0.00    -0.027 C 
ATOM      3  C   UNL     1      15.835  28.542  14.531  1.00  0.00     0.039 C 
ENDROOT
BRANCH   2   4
ATOM      4  C   UNL     1      14.508  25.116  15.829  1.00  0.00     0.032 C 
BRANCH   4   5
ATOM      5  C   UNL     1      13.456  24.609  14.824  1.00  0.00     0.034 C 
BRANCH   5   6
ATOM      6  C   UNL     1      12.078  24.500  15.445  1.00  0.00    -0.077 C 
ATOM      7  C   UNL     1      11.861  23.477  16.532  1.00  0.00     0.039 C 
ATOM      8  C   UNL     1      11.021  25.252  15.063  1.00  0.00    -0.023 CG0
ATOM      9  G   UNL     1      11.030  26.299  13.975  1.00  0.00     0.000 G0
ENDBRANCH   5   6
ENDBRANCH   4   5
ENDBRANCH   2   4
BRANCH   1  10
ATOM     10  C   UNL     1      13.552  28.055  15.692  1.00  0.00     0.111 C 
BRANCH  10  11
ATOM     11  C   UNL     1      12.590  28.247  14.546  1.00  0.00     0.163 C 
ATOM     12  O   UNL     1      12.968  28.945  13.565  1.00  0.00    -0.294 OA
BRANCH  11  13
ATOM     13  C   UNL     1      11.204  27.684  14.570  1.00  0.00    -0.002 C 
ATOM     14  C   UNL     1      10.142  28.407  15.034  1.00  0.00    -0.069 C 
ATOM     15  C   UNL     1      10.296  29.844  15.481  1.00  0.00     0.039 C 
ATOM     16  C   UNL     1       8.750  27.817  15.090  1.00  0.00     0.039 C 
BRANCH  13  17
ATOM     17  C   UNL     1      11.014  26.296  13.984  1.00  0.00     0.066 CG0
ATOM     18  G   UNL     1      11.018  25.268  15.090  1.00  0.00     0.000 G0
ENDBRANCH  13  17
ENDBRANCH  11  13
ENDBRANCH  10  11
ENDBRANCH   1  10
TORSDOF 0
ENDMDL
MODEL 2
REMARK VINA RESULT:    -3.403      3.823      7.478
REMARK INTER + INTRA:          -4.427
REMARK INTER:                  -5.255
REMARK INTRA:                   0.828
REMARK UNBOUND:                 0.369
REMARK SMILES CC1=CCC(=C(C)C)C(=O)CC(C)=CCC1
REMARK SMILES IDX 12 1 14 2 13 3 15 4 16 5 2 6 1 7 3 8 11 10 9 11 10 12 5 13
REMARK SMILES IDX 6 14 7 15 8 16 4 17
REMARK H PARENT
REMARK Flexibility Score: 60.00
ROOT
ATOM      1  C   UNL     1       5.491  27.509  16.953  1.00  0.00    -0.070 C 
ATOM      2  C   UNL     1       5.024  28.705  17.385  1.00  0.00    -0.027 C 
ATOM      3  C   UNL     1       4.488  26.538  16.378  1.00  0.00     0.039 C 
ENDROOT
BRANCH   2   4
ATOM      4  C   UNL     1       5.854  29.857  17.895  1.00  0.00     0.032 C 
BRANCH   4   5
ATOM      5  C   UNL     1       5.740  31.110  17.004  1.00  0.00     0.034 C 
BRANCH   5   6
ATOM      6  C   UNL     1       5.900  30.782  15.533  1.00  0.00    -0.077 C 
ATOM      7  C   UNL     1       4.732  31.036  14.612  1.00  0.00     0.039 C 
ATOM      8  C   UNL     1       7.024  30.251  15.000  1.00  0.00    -0.023 CG0
ATOM      9  G   UNL     1       8.279  29.895  15.761  1.00  0.00     0.000 G0
ENDBRANCH   5   6
ENDBRANCH   4   5
ENDBRANCH   2   4
BRANCH   1  10
ATOM     10  C   UNL     1       6.961  27.126  16.955  1.00  0.00     0.111 C 
BRANCH  10  11
ATOM     11  C   UNL     1       7.617  27.438  15.632  1.00  0.00     0.163 C 
ATOM     12  O   UNL     1       7.268  26.766  14.623  1.00  0.00    -0.294 OA
BRANCH  11  13
ATOM     13  C   UNL     1       8.690  28.472  15.503  1.00  0.00    -0.002 C 
ATOM     14  C   UNL     1       9.958  28.148  15.108  1.00  0.00    -0.069 C 
ATOM     15  C   UNL     1      10.326  26.737  14.709  1.00  0.00     0.039 C 
ATOM     16  C   UNL     1      11.047  29.194  15.016  1.00  0.00     0.039 C 
BRANCH  13  17
ATOM     17  C   UNL     1       8.291  29.915  15.757  1.00  0.00     0.066 CG0
ATOM     18  G   UNL     1       7.024  30.237  15.002  1.00  0.00     0.000 G0
ENDBRANCH  13  17
ENDBRANCH  11  13
ENDBRANCH  10  11
ENDBRANCH   1  10
TORSDOF 0
ENDMDL
MODEL 3
REMARK VINA RESULT:    -3.363      3.695      6.365
REMARK INTER + INTRA:          -4.370
REMARK INTER:                  -4.756
REMARK INTRA:                   0.386
REMARK UNBOUND:                 0.369
REMARK SMILES CC1=CCC(=C(C)C)C(=O)CC(C)=CCC1
REMARK SMILES IDX 12 1 14 2 13 3 15 4 16 5 2 6 1 7 3 8 11 10 9 11 10 12 5 13
REMARK SMILES IDX 6 14 7 15 8 16 4 17
REMARK H PARENT
REMARK Flexibility Score: 60.00
ROOT
ATOM      1  C   UNL     1       7.143  29.971  17.246  1.00  0.00    -0.070 C 
ATOM      2  C   UNL     1       8.347  30.374  16.774  1.00  0.00    -0.027 C 
ATOM      3  C   UNL     1       6.157  31.043  17.644  1.00  0.00     0.039 C 
ENDROOT
BRANCH   2   4
ATOM      4  C   UNL     1       9.435  29.485  16.224  1.00  0.00     0.032 C 
BRANCH   4   5
ATOM      5  C   UNL     1       9.151  29.021  14.783  1.00  0.00     0.034 C 
BRANCH   5   6
ATOM      6  C   UNL     1       9.271  27.518  14.632  1.00  0.00    -0.077 C 
ATOM      7  C   UNL     1      10.633  26.889  14.792  1.00  0.00     0.039 C 
ATOM      8  C   UNL     1       8.229  26.708  14.336  1.00  0.00    -0.023 CG0
ATOM      9  G   UNL     1       6.805  27.150  14.104  1.00  0.00     0.000 G0
ENDBRANCH   5   6
ENDBRANCH   4   5
ENDBRANCH   2   4
BRANCH   1  10
ATOM     10  C   UNL     1       6.713  28.515  17.329  1.00  0.00     0.111 C 
BRANCH  10  11
ATOM     11  C   UNL     1       5.755  28.156  16.220  1.00  0.00     0.163 C 
ATOM     12  O   UNL     1       4.730  28.874  16.066  1.00  0.00    -0.294 OA
BRANCH  11  13
ATOM     13  C   UNL     1       5.963  26.956  15.351  1.00  0.00    -0.002 C 
ATOM     14  C   UNL     1       5.375  25.755  15.630  1.00  0.00    -0.069 C 
ATOM     15  C   UNL     1       4.423  25.590  16.794  1.00  0.00     0.039 C 
ATOM     16  C   UNL     1       5.620  24.537  14.766  1.00  0.00     0.039 C 
BRANCH  13  17
ATOM     17  C   UNL     1       6.797  27.150  14.097  1.00  0.00     0.066 CG0
ATOM     18  G   UNL     1       8.209  26.674  14.343  1.00  0.00     0.000 G0
ENDBRANCH  13  17
ENDBRANCH  11  13
ENDBRANCH  10  11
ENDBRANCH   1  10
TORSDOF 0
ENDMDL
MODEL 4
REMARK VINA RESULT:    -3.336      5.200      8.680
REMARK INTER + INTRA:          -4.332
REMARK INTER:                  -4.647
REMARK INTRA:                   0.315
REMARK UNBOUND:                 0.369
REMARK SMILES CC1=CCC(=C(C)C)C(=O)CC(C)=CCC1
REMARK SMILES IDX 12 1 14 2 13 3 15 4 16 5 2 6 1 7 3 8 11 10 9 11 10 12 5 13
REMARK SMILES IDX 6 14 7 15 8 16 4 17
REMARK H PARENT
REMARK Flexibility Score: 60.00
ROOT
ATOM      1  C   UNL     1       4.277  26.075  15.891  1.00  0.00    -0.070 C 
ATOM      2  C   UNL     1       3.057  26.579  16.196  1.00  0.00    -0.027 C 
ATOM      3  C   UNL     1       4.436  24.574  15.922  1.00  0.00     0.039 C 
ENDROOT
BRANCH   2   4
ATOM      4  C   UNL     1       2.647  28.029  16.126  1.00  0.00     0.032 C 
BRANCH   4   5
ATOM      5  C   UNL     1       3.272  28.877  17.251  1.00  0.00     0.034 C 
BRANCH   5   6
ATOM      6  C   UNL     1       3.986  30.102  16.714  1.00  0.00    -0.077 C 
ATOM      7  C   UNL     1       3.200  31.076  15.871  1.00  0.00     0.039 C 
ATOM      8  C   UNL     1       5.296  30.361  16.926  1.00  0.00    -0.023 CG0
ATOM      9  G   UNL     1       6.251  29.492  17.709  1.00  0.00     0.000 G0
ENDBRANCH   5   6
ENDBRANCH   4   5
ENDBRANCH   2   4
BRANCH   1  10
ATOM     10  C   UNL     1       5.459  26.927  15.460  1.00  0.00     0.111 C 
BRANCH  10  11
ATOM     11  C   UNL     1       6.397  27.196  16.610  1.00  0.00     0.163 C 
ATOM     12  O   UNL     1       6.616  26.262  17.429  1.00  0.00    -0.294 OA
BRANCH  11  13
ATOM     13  C   UNL     1       7.020  28.539  16.828  1.00  0.00    -0.002 C 
ATOM     14  C   UNL     1       8.171  28.910  16.191  1.00  0.00    -0.069 C 
ATOM     15  C   UNL     1       8.839  28.011  15.174  1.00  0.00     0.039 C 
ATOM     16  C   UNL     1       8.814  30.256  16.445  1.00  0.00     0.039 C 
BRANCH  13  17
ATOM     17  C   UNL     1       6.276  29.506  17.732  1.00  0.00     0.066 CG0
ATOM     18  G   UNL     1       5.308  30.328  16.916  1.00  0.00     0.000 G0
ENDBRANCH  13  17
ENDBRANCH  11  13
ENDBRANCH  10  11
ENDBRANCH   1  10
TORSDOF 0
ENDMDL
MODEL 5
REMARK VINA RESULT:    -3.322      5.722      8.340
REMARK INTER + INTRA:          -4.312
REMARK INTER:                  -4.692
REMARK INTRA:                   0.380
REMARK UNBOUND:                 0.369
REMARK SMILES CC1=CCC(=C(C)C)C(=O)CC(C)=CCC1
REMARK SMILES IDX 12 1 14 2 13 3 15 4 16 5 2 6 1 7 3 8 11 10 9 11 10 12 5 13
REMARK SMILES IDX 6 14 7 15 8 16 4 17
REMARK H PARENT
REMARK Flexibility Score: 60.00
ROOT
ATOM      1  C   UNL     1       3.654  30.263  15.924  1.00  0.00    -0.070 C 
ATOM      2  C   UNL     1       4.356  31.076  16.749  1.00  0.00    -0.027 C 
ATOM      3  C   UNL     1       2.169  30.505  15.809  1.00  0.00     0.039 C 
ENDROOT
BRANCH   2   4
ATOM      4  C   UNL     1       5.854  31.083  16.934  1.00  0.00     0.032 C 
BRANCH   4   5
ATOM      5  C   UNL     1       6.351  29.904  17.792  1.00  0.00     0.034 C 
BRANCH   5   6
ATOM      6  C   UNL     1       7.528  29.191  17.157  1.00  0.00    -0.077 C 
ATOM      7  C   UNL     1       8.777  29.987  16.869  1.00  0.00     0.039 C 
ATOM      8  C   UNL     1       7.516  27.884  16.810  1.00  0.00    -0.023 CG0
ATOM      9  G   UNL     1       6.354  26.935  16.985  1.00  0.00     0.000 G0
ENDBRANCH   5   6
ENDBRANCH   4   5
ENDBRANCH   2   4
BRANCH   1  10
ATOM     10  C   UNL     1       4.287  29.179  15.067  1.00  0.00     0.111 C 
BRANCH  10  11
ATOM     11  C   UNL     1       4.285  27.845  15.771  1.00  0.00     0.163 C 
ATOM     12  O   UNL     1       3.262  27.527  16.438  1.00  0.00    -0.294 OA
BRANCH  11  13
ATOM     13  C   UNL     1       5.469  26.930  15.741  1.00  0.00    -0.002 C 
ATOM     14  C   UNL     1       5.786  26.200  14.630  1.00  0.00    -0.069 C 
ATOM     15  C   UNL     1       4.999  26.331  13.345  1.00  0.00     0.039 C 
ATOM     16  C   UNL     1       6.963  25.249  14.621  1.00  0.00     0.039 C 
BRANCH  13  17
ATOM     17  C   UNL     1       6.352  26.905  16.976  1.00  0.00     0.066 CG0
ATOM     18  G   UNL     1       7.484  27.891  16.817  1.00  0.00     0.000 G0
ENDBRANCH  13  17
ENDBRANCH  11  13
ENDBRANCH  10  11
ENDBRANCH   1  10
TORSDOF 0
ENDMDL
MODEL 6
REMARK VINA RESULT:    -3.144      2.910      5.989
REMARK INTER + INTRA:          -4.061
REMARK INTER:                  -4.713
REMARK INTRA:                   0.652
REMARK UNBOUND:                 0.369
REMARK SMILES CC1=CCC(=C(C)C)C(=O)CC(C)=CCC1
REMARK SMILES IDX 12 1 14 2 13 3 15 4 16 5 2 6 1 7 3 8 11 10 9 11 10 12 5 13
REMARK SMILES IDX 6 14 7 15 8 16 4 17
REMARK H PARENT
REMARK Flexibility Score: 60.00
ROOT
ATOM      1  C   UNL     1       7.068  29.519  17.300  1.00  0.00    -0.070 C 
ATOM      2  C   UNL     1       6.217  28.475  17.447  1.00  0.00    -0.027 C 
ATOM      3  C   UNL     1       6.511  30.905  17.521  1.00  0.00     0.039 C 
ENDROOT
BRANCH   2   4
ATOM      4  C   UNL     1       6.579  27.012  17.377  1.00  0.00     0.032 C 
BRANCH   4   5
ATOM      5  C   UNL     1       5.798  26.259  16.282  1.00  0.00     0.034 C 
BRANCH   5   6
ATOM      6  C   UNL     1       5.984  26.885  14.914  1.00  0.00    -0.077 C 
ATOM      7  C   UNL     1       4.756  27.329  14.158  1.00  0.00     0.039 C 
ATOM      8  C   UNL     1       7.187  27.046  14.319  1.00  0.00    -0.023 CG0
ATOM      9  G   UNL     1       8.520  26.634  14.898  1.00  0.00     0.000 G0
ENDBRANCH   5   6
ENDBRANCH   4   5
ENDBRANCH   2   4
BRANCH   1  10
ATOM     10  C   UNL     1       8.548  29.366  16.994  1.00  0.00     0.111 C 
BRANCH  10  11
ATOM     11  C   UNL     1       8.789  29.128  15.524  1.00  0.00     0.163 C 
ATOM     12  O   UNL     1       8.397  30.007  14.708  1.00  0.00    -0.294 OA
BRANCH  11  13
ATOM     13  C   UNL     1       9.423  27.871  15.017  1.00  0.00    -0.002 C 
ATOM     14  C   UNL     1      10.760  27.800  14.740  1.00  0.00    -0.069 C 
ATOM     15  C   UNL     1      11.685  28.968  15.001  1.00  0.00     0.039 C 
ATOM     16  C   UNL     1      11.386  26.536  14.193  1.00  0.00     0.039 C 
BRANCH  13  17
ATOM     17  C   UNL     1       8.530  26.650  14.894  1.00  0.00     0.066 CG0
ATOM     18  G   UNL     1       7.193  27.049  14.316  1.00  0.00     0.000 G0
ENDBRANCH  13  17
ENDBRANCH  11  13
ENDBRANCH  10  11
ENDBRANCH   1  10
TORSDOF 0
ENDMDL
MODEL 7
REMARK VINA RESULT:    -3.072      2.843      6.375
REMARK INTER + INTRA:          -3.960
REMARK INTER:                  -4.386
REMARK INTRA:                   0.427
REMARK UNBOUND:                 0.369
REMARK SMILES CC1=CCC(=C(C)C)C(=O)CC(C)=CCC1
REMARK SMILES IDX 12 1 14 2 13 3 15 4 16 5 2 6 1 7 3 8 11 10 9 11 10 12 5 13
REMARK SMILES IDX 6 14 7 15 8 16 4 17
REMARK H PARENT
REMARK Flexibility Score: 60.00
ROOT
ATOM      1  C   UNL     1       6.320  26.789  16.654  1.00  0.00    -0.070 C 
ATOM      2  C   UNL     1       6.037  28.100  16.844  1.00  0.00    -0.027 C 
ATOM      3  C   UNL     1       5.155  25.848  16.467  1.00  0.00     0.039 C 
ENDROOT
BRANCH   2   4
ATOM      4  C   UNL     1       7.039  29.225  16.946  1.00  0.00     0.032 C 
BRANCH   4   5
ATOM      5  C   UNL     1       7.471  29.762  15.568  1.00  0.00     0.034 C 
BRANCH   5   6
ATOM      6  C   UNL     1       8.974  29.926  15.463  1.00  0.00    -0.077 C 
ATOM      7  C   UNL     1       9.630  31.033  16.250  1.00  0.00     0.039 C 
ATOM      8  C   UNL     1       9.761  29.150  14.684  1.00  0.00    -0.023 CG0
ATOM      9  G   UNL     1       9.289  28.020  13.800  1.00  0.00     0.000 G0
ENDBRANCH   5   6
ENDBRANCH   4   5
ENDBRANCH   2   4
BRANCH   1  10
ATOM     10  C   UNL     1       7.731  26.236  16.552  1.00  0.00     0.111 C 
BRANCH  10  11
ATOM     11  C   UNL     1       8.163  26.080  15.114  1.00  0.00     0.163 C 
ATOM     12  O   UNL     1       7.451  25.368  14.354  1.00  0.00    -0.294 OA
BRANCH  11  13
ATOM     13  C   UNL     1       9.423  26.697  14.593  1.00  0.00    -0.002 C 
ATOM     14  C   UNL     1      10.637  26.090  14.745  1.00  0.00    -0.069 C 
ATOM     15  C   UNL     1      10.767  24.726  15.386  1.00  0.00     0.039 C 
ATOM     16  C   UNL     1      11.911  26.739  14.248  1.00  0.00     0.039 C 
BRANCH  13  17
ATOM     17  C   UNL     1       9.284  27.995  13.817  1.00  0.00     0.066 CG0
ATOM     18  G   UNL     1       9.756  29.151  14.666  1.00  0.00     0.000 G0
ENDBRANCH  13  17
ENDBRANCH  11  13
ENDBRANCH  10  11
ENDBRANCH   1  10
TORSDOF 0
ENDMDL
MODEL 8
REMARK VINA RESULT:    -2.990      3.417      5.980
REMARK INTER + INTRA:          -3.844
REMARK INTER:                  -4.591
REMARK INTRA:                   0.748
REMARK UNBOUND:                 0.369
REMARK SMILES CC1=CCC(=C(C)C)C(=O)CC(C)=CCC1
REMARK SMILES IDX 12 1 14 2 13 3 15 4 16 5 2 6 1 7 3 8 11 10 9 11 10 12 5 13
REMARK SMILES IDX 6 14 7 15 8 16 4 17
REMARK H PARENT
REMARK Flexibility Score: 60.00
ROOT
ATOM      1  C   UNL     1       6.660  26.346  16.306  1.00  0.00    -0.070 C 
ATOM      2  C   UNL     1       7.507  25.757  15.429  1.00  0.00    -0.027 C 
ATOM      3  C   UNL     1       5.199  25.974  16.217  1.00  0.00     0.039 C 
ENDROOT
BRANCH   2   4
ATOM      4  C   UNL     1       9.010  25.900  15.405  1.00  0.00     0.032 C 
BRANCH   4   5
ATOM      5  C   UNL     1       9.513  26.674  14.171  1.00  0.00     0.034 C 
BRANCH   5   6
ATOM      6  C   UNL     1       9.906  28.098  14.511  1.00  0.00    -0.077 C 
ATOM      7  C   UNL     1      11.353  28.385  14.827  1.00  0.00     0.039 C 
ATOM      8  C   UNL     1       9.028  29.125  14.572  1.00  0.00    -0.023 CG0
ATOM      9  G   UNL     1       7.541  29.031  14.324  1.00  0.00     0.000 G0
ENDBRANCH   5   6
ENDBRANCH   4   5
ENDBRANCH   2   4
BRANCH   1  10
ATOM     10  C   UNL     1       7.107  27.297  17.403  1.00  0.00     0.111 C 
BRANCH  10  11
ATOM     11  C   UNL     1       7.439  28.662  16.852  1.00  0.00     0.163 C 
ATOM     12  O   UNL     1       8.267  29.372  17.485  1.00  0.00    -0.294 OA
BRANCH  11  13
ATOM     13  C   UNL     1       6.779  29.204  15.623  1.00  0.00    -0.002 C 
ATOM     14  C   UNL     1       5.586  29.868  15.680  1.00  0.00    -0.069 C 
ATOM     15  C   UNL     1       4.903  30.157  16.998  1.00  0.00     0.039 C 
ATOM     16  C   UNL     1       4.907  30.380  14.429  1.00  0.00     0.039 C 
BRANCH  13  17
ATOM     17  C   UNL     1       7.530  29.050  14.313  1.00  0.00     0.066 CG0
ATOM     18  G   UNL     1       9.017  29.124  14.564  1.00  0.00     0.000 G0
ENDBRANCH  13  17
ENDBRANCH  11  13
ENDBRANCH  10  11
ENDBRANCH   1  10
TORSDOF 0
ENDMDL
MODEL 9
REMARK VINA RESULT:    -2.939      5.881      7.691
REMARK INTER + INTRA:          -3.772
REMARK INTER:                  -4.498
REMARK INTRA:                   0.726
REMARK UNBOUND:                 0.369
REMARK SMILES CC1=CCC(=C(C)C)C(=O)CC(C)=CCC1
REMARK SMILES IDX 12 1 14 2 13 3 15 4 16 5 2 6 1 7 3 8 11 10 9 11 10 12 5 13
REMARK SMILES IDX 6 14 7 15 8 16 4 17
REMARK H PARENT
REMARK Flexibility Score: 60.00
ROOT
ATOM      1  C   UNL     1       6.767  29.423  17.465  1.00  0.00    -0.070 C 
ATOM      2  C   UNL     1       7.392  28.228  17.337  1.00  0.00    -0.027 C 
ATOM      3  C   UNL     1       7.617  30.666  17.363  1.00  0.00     0.039 C 
ENDROOT
BRANCH   2   4
ATOM      4  C   UNL     1       6.729  26.873  17.300  1.00  0.00     0.032 C 
BRANCH   4   5
ATOM      5  C   UNL     1       6.963  26.134  15.969  1.00  0.00     0.034 C 
BRANCH   5   6
ATOM      6  C   UNL     1       6.573  26.976  14.771  1.00  0.00    -0.077 C 
ATOM      7  C   UNL     1       7.644  27.340  13.773  1.00  0.00     0.039 C 
ATOM      8  C   UNL     1       5.322  27.443  14.557  1.00  0.00    -0.023 CG0
ATOM      9  G   UNL     1       4.130  27.218  15.455  1.00  0.00     0.000 G0
ENDBRANCH   5   6
ENDBRANCH   4   5
ENDBRANCH   2   4
BRANCH   1  10
ATOM     10  C   UNL     1       5.264  29.577  17.634  1.00  0.00     0.111 C 
BRANCH  10  11
ATOM     11  C   UNL     1       4.558  29.621  16.302  1.00  0.00     0.163 C 
ATOM     12  O   UNL     1       4.789  30.599  15.539  1.00  0.00    -0.294 OA
BRANCH  11  13
ATOM     13  C   UNL     1       3.566  28.577  15.895  1.00  0.00    -0.002 C 
ATOM     14  C   UNL     1       2.224  28.836  15.858  1.00  0.00    -0.069 C 
ATOM     15  C   UNL     1       1.674  30.213  16.157  1.00  0.00     0.039 C 
ATOM     16  C   UNL     1       1.224  27.764  15.482  1.00  0.00     0.039 C 
BRANCH  13  17
ATOM     17  C   UNL     1       4.120  27.236  15.450  1.00  0.00     0.066 CG0
ATOM     18  G   UNL     1       5.318  27.448  14.556  1.00  0.00     0.000 G0
ENDBRANCH  13  17
ENDBRANCH  11  13
ENDBRANCH  10  11
ENDBRANCH   1  10
TORSDOF 0
ENDMDL
