MODEL 1
REMARK VINA RESULT:    34.341      0.000      0.000
REMARK INTER + INTRA:          41.484
REMARK INTER:                  40.364
REMARK INTRA:                   1.121
REMARK UNBOUND:                 1.121
REMARK SMILES C=C(C)[C@@H]1CC[C@@]2(CO)CC[C@]3(C)[C@@H](CC[C@@H]4[C@]5(C)CC[C@@H](O)C(C)(C)[C@@H]5CC[C@@]43C)[C@H]12
REMARK SMILES IDX 4 1 5 2 6 3 7 4 32 5 14 6 15 7 16 8 17 9 18 10 20 11 21 12
REMARK SMILES IDX 22 13 24 14 27 15 28 16 29 17 30 18 12 19 11 20 10 21 13 22
REMARK SMILES IDX 31 23 25 24 26 25 19 26 2 27 3 28 1 29 8 30 9 31 23 33
REMARK H PARENT 9 32 23 34
REMARK Flexibility Score: inf
ROOT
ATOM      1  C   UNL     1       8.799 -36.328  16.435  1.00  0.00     0.018 C 
ATOM      2  C   UNL     1       8.414 -37.139  17.696  1.00  0.00     0.009 C 
ATOM      3  C   UNL     1       8.018 -36.118  18.787  1.00  0.00     0.010 C 
ATOM      4  C   UNL     1       7.530 -34.876  18.015  1.00  0.00    -0.003 C 
ATOM      5  C   UNL     1       8.573 -34.862  16.875  1.00  0.00     0.008 C 
ATOM      6  C   UNL     1       8.470 -33.629  15.949  1.00  0.00    -0.000 C 
ATOM      7  C   UNL     1       9.360 -33.771  14.716  1.00  0.00     0.005 C 
ATOM      8  C   UNL     1       9.417 -32.446  13.981  1.00  0.00     0.005 C 
ATOM      9  C   UNL     1      10.267 -31.401  14.752  1.00  0.00     0.002 C 
ATOM     10  C   UNL     1      11.772 -31.308  14.166  1.00  0.00    -0.026 C 
ATOM     11  C   UNL     1      12.402 -32.695  13.778  1.00  0.00     0.010 C 
ATOM     12  C   UNL     1      13.856 -32.617  13.271  1.00  0.00     0.033 C 
ATOM     13  C   UNL     1      14.800 -31.921  14.270  1.00  0.00     0.120 C 
ATOM     14  C   UNL     1      14.272 -30.531  14.755  1.00  0.00    -0.006 C 
ATOM     15  C   UNL     1      12.747 -30.651  15.213  1.00  0.00     0.003 C 
ATOM     16  C   UNL     1      12.650 -31.375  16.598  1.00  0.00     0.005 C 
ATOM     17  C   UNL     1      11.327 -32.075  16.960  1.00  0.00     0.008 C 
ATOM     18  C   UNL     1      10.054 -31.451  16.337  1.00  0.00    -0.024 C 
ATOM     19  C   UNL     1       8.692 -32.261  16.771  1.00  0.00    -0.024 C 
ATOM     20  C   UNL     1       8.659 -32.542  18.343  1.00  0.00     0.008 C 
ATOM     21  C   UNL     1       7.582 -33.542  18.827  1.00  0.00     0.010 C 
ATOM     22  C   UNL     1       7.447 -31.354  16.493  1.00  0.00     0.012 C 
ATOM     23  C   UNL     1       9.958 -29.986  16.903  1.00  0.00     0.012 C 
ATOM     24  C   UNL     1      14.462 -29.439  13.660  1.00  0.00     0.014 C 
ATOM     25  C   UNL     1      15.157 -30.059  15.948  1.00  0.00     0.014 C 
ATOM     26  C   UNL     1      11.639 -30.430  12.876  1.00  0.00     0.012 C 
ENDROOT
BRANCH   1  27
ATOM     27  C   UNL     1       8.148 -36.883  15.164  1.00  0.00    -0.077 C 
ATOM     28  C   UNL     1       8.631 -36.354  13.838  1.00  0.00     0.039 C 
ATOM     29  C   UNL     1       7.207 -37.839  15.143  1.00  0.00     0.008 C 
ENDBRANCH   1  27
BRANCH   4  30
ATOM     30  C   UNL     1       6.045 -35.162  17.613  1.00  0.00     0.163 C 
BRANCH  30  31
ATOM     31  O   UNL     1       5.875 -35.247  16.222  1.00  0.00    -0.396 OA
ATOM     32  H   UNL     1       6.079 -36.181  15.949  1.00  0.00     0.210 HD
ENDBRANCH  30  31
ENDBRANCH   4  30
BRANCH  13  33
ATOM     33  O   UNL     1      16.107 -31.829  13.752  1.00  0.00    -0.393 OA
ATOM     34  H   UNL     1      16.180 -32.439  12.972  1.00  0.00     0.210 HD
ENDBRANCH  13  33
TORSDOF 4
ENDMDL
