MODEL 1
REMARK VINA RESULT:    -4.206      0.000      0.000
REMARK INTER + INTRA:          -5.813
REMARK INTER:                  -5.312
REMARK INTRA:                  -0.501
REMARK UNBOUND:                -0.501
REMARK SMILES CC(C)=CCCC(C)=CCO
REMARK SMILES IDX 7 1 9 2 8 3 6 4 5 5 4 6 1 7 2 8 3 9 10 10 11 11
REMARK H PARENT 11 12
REMARK Flexibility Score: inf
ROOT
ATOM      1  C   UNL     1      28.307  12.090  58.014  1.00  0.00    -0.075 C 
ATOM      2  C   UNL     1      27.749  12.230  56.791  1.00  0.00    -0.000 C 
ATOM      3  C   UNL     1      29.589  12.825  58.307  1.00  0.00     0.039 C 
ENDROOT
BRANCH   1   4
ATOM      4  C   UNL     1      27.675  11.258  59.112  1.00  0.00     0.034 C 
BRANCH   4   5
ATOM      5  C   UNL     1      26.848  12.140  60.054  1.00  0.00     0.032 C 
BRANCH   5   6
ATOM      6  C   UNL     1      27.264  11.933  61.489  1.00  0.00    -0.028 C 
ATOM      7  C   UNL     1      28.331  12.470  63.636  1.00  0.00     0.039 C 
ATOM      8  C   UNL     1      28.014  12.803  62.201  1.00  0.00    -0.080 C 
ATOM      9  C   UNL     1      28.554  14.079  61.597  1.00  0.00     0.039 C 
ENDBRANCH   5   6
ENDBRANCH   4   5
ENDBRANCH   1   4
BRANCH   2  10
ATOM     10  C   UNL     1      26.468  11.556  56.369  1.00  0.00     0.183 C 
BRANCH  10  11
ATOM     11  O   UNL     1      26.526  11.210  55.012  1.00  0.00    -0.392 OA
ATOM     12  H   UNL     1      26.772  10.248  54.973  1.00  0.00     0.210 HD
ENDBRANCH  10  11
ENDBRANCH   2  10
TORSDOF 5
ENDMDL
MODEL 2
REMARK VINA RESULT:    -4.198      3.793      5.941
REMARK INTER + INTRA:          -5.803
REMARK INTER:                  -5.386
REMARK INTRA:                  -0.416
REMARK UNBOUND:                -0.501
REMARK SMILES CC(C)=CCCC(C)=CCO
REMARK SMILES IDX 7 1 9 2 8 3 6 4 5 5 4 6 1 7 2 8 3 9 10 10 11 11
REMARK H PARENT 11 12
REMARK Flexibility Score: inf
ROOT
ATOM      1  C   UNL     1      28.224  12.273  63.207  1.00  0.00    -0.075 C 
ATOM      2  C   UNL     1      27.883  12.710  61.974  1.00  0.00    -0.000 C 
ATOM      3  C   UNL     1      27.398  11.181  63.835  1.00  0.00     0.039 C 
ENDROOT
BRANCH   1   4
ATOM      4  C   UNL     1      29.425  12.808  63.962  1.00  0.00     0.034 C 
BRANCH   4   5
ATOM      5  C   UNL     1      29.018  13.284  65.362  1.00  0.00     0.032 C 
BRANCH   5   6
ATOM      6  C   UNL     1      30.209  13.321  66.286  1.00  0.00    -0.028 C 
ATOM      7  C   UNL     1      31.768  12.508  68.002  1.00  0.00     0.039 C 
ATOM      8  C   UNL     1      30.530  12.340  67.158  1.00  0.00    -0.080 C 
ATOM      9  C   UNL     1      29.682  11.100  67.321  1.00  0.00     0.039 C 
ENDBRANCH   5   6
ENDBRANCH   4   5
ENDBRANCH   1   4
BRANCH   2  10
ATOM     10  C   UNL     1      28.626  13.791  61.231  1.00  0.00     0.183 C 
BRANCH  10  11
ATOM     11  O   UNL     1      28.161  15.054  61.619  1.00  0.00    -0.392 OA
ATOM     12  H   UNL     1      28.938  15.671  61.574  1.00  0.00     0.210 HD
ENDBRANCH  10  11
ENDBRANCH   2  10
TORSDOF 5
ENDMDL
MODEL 3
REMARK VINA RESULT:    -4.124      3.778      5.817
REMARK INTER + INTRA:          -5.709
REMARK INTER:                  -5.224
REMARK INTRA:                  -0.485
REMARK UNBOUND:                -0.501
REMARK SMILES CC(C)=CCCC(C)=CCO
REMARK SMILES IDX 7 1 9 2 8 3 6 4 5 5 4 6 1 7 2 8 3 9 10 10 11 11
REMARK H PARENT 11 12
REMARK Flexibility Score: inf
ROOT
ATOM      1  C   UNL     1      27.983  11.942  63.936  1.00  0.00    -0.075 C 
ATOM      2  C   UNL     1      27.583  10.861  64.642  1.00  0.00    -0.000 C 
ATOM      3  C   UNL     1      28.971  12.887  64.568  1.00  0.00     0.039 C 
ENDROOT
BRANCH   1   4
ATOM      4  C   UNL     1      27.508  12.218  62.523  1.00  0.00     0.034 C 
BRANCH   4   5
ATOM      5  C   UNL     1      28.204  13.459  61.949  1.00  0.00     0.032 C 
BRANCH   5   6
ATOM      6  C   UNL     1      28.730  13.187  60.562  1.00  0.00    -0.028 C 
ATOM      7  C   UNL     1      30.339  12.460  58.854  1.00  0.00     0.039 C 
ATOM      8  C   UNL     1      29.962  12.702  60.293  1.00  0.00    -0.080 C 
ATOM      9  C   UNL     1      30.969  12.417  61.383  1.00  0.00     0.039 C 
ENDBRANCH   5   6
ENDBRANCH   4   5
ENDBRANCH   1   4
BRANCH   2  10
ATOM     10  C   UNL     1      26.605   9.836  64.127  1.00  0.00     0.183 C 
BRANCH  10  11
ATOM     11  O   UNL     1      25.531   9.701  65.017  1.00  0.00    -0.392 OA
ATOM     12  H   UNL     1      25.236  10.620  65.250  1.00  0.00     0.210 HD
ENDBRANCH  10  11
ENDBRANCH   2  10
TORSDOF 5
ENDMDL
MODEL 4
REMARK VINA RESULT:    -4.061      2.580      5.076
REMARK INTER + INTRA:          -5.630
REMARK INTER:                  -5.057
REMARK INTRA:                  -0.573
REMARK UNBOUND:                -0.501
REMARK SMILES CC(C)=CCCC(C)=CCO
REMARK SMILES IDX 7 1 9 2 8 3 6 4 5 5 4 6 1 7 2 8 3 9 10 10 11 11
REMARK H PARENT 11 12
REMARK Flexibility Score: inf
ROOT
ATOM      1  C   UNL     1      27.647  12.085  62.566  1.00  0.00    -0.075 C 
ATOM      2  C   UNL     1      28.703  12.925  62.494  1.00  0.00    -0.000 C 
ATOM      3  C   UNL     1      27.541  11.165  63.754  1.00  0.00     0.039 C 
ENDROOT
BRANCH   1   4
ATOM      4  C   UNL     1      26.547  12.061  61.522  1.00  0.00     0.034 C 
BRANCH   4   5
ATOM      5  C   UNL     1      26.821  10.979  60.470  1.00  0.00     0.032 C 
BRANCH   5   6
ATOM      6  C   UNL     1      26.851  11.571  59.083  1.00  0.00    -0.028 C 
ATOM      7  C   UNL     1      27.831  12.276  56.944  1.00  0.00     0.039 C 
ATOM      8  C   UNL     1      27.962  11.683  58.323  1.00  0.00    -0.080 C 
ATOM      9  C   UNL     1      29.322  11.249  58.820  1.00  0.00     0.039 C 
ENDBRANCH   5   6
ENDBRANCH   4   5
ENDBRANCH   1   4
BRANCH   2  10
ATOM     10  C   UNL     1      28.927  13.898  61.365  1.00  0.00     0.183 C 
BRANCH  10  11
ATOM     11  O   UNL     1      28.288  15.115  61.639  1.00  0.00    -0.392 OA
ATOM     12  H   UNL     1      27.321  14.914  61.738  1.00  0.00     0.210 HD
ENDBRANCH  10  11
ENDBRANCH   2  10
TORSDOF 5
ENDMDL
MODEL 5
REMARK VINA RESULT:    -4.020      3.165      4.871
REMARK INTER + INTRA:          -5.578
REMARK INTER:                  -4.883
REMARK INTRA:                  -0.696
REMARK UNBOUND:                -0.501
REMARK SMILES CC(C)=CCCC(C)=CCO
REMARK SMILES IDX 7 1 9 2 8 3 6 4 5 5 4 6 1 7 2 8 3 9 10 10 11 11
REMARK H PARENT 11 12
REMARK Flexibility Score: inf
ROOT
ATOM      1  C   UNL     1      29.442  12.940  62.607  1.00  0.00    -0.075 C 
ATOM      2  C   UNL     1      30.434  12.108  62.219  1.00  0.00    -0.000 C 
ATOM      3  C   UNL     1      29.067  12.978  64.066  1.00  0.00     0.039 C 
ENDROOT
BRANCH   1   4
ATOM      4  C   UNL     1      28.722  13.862  61.643  1.00  0.00     0.034 C 
BRANCH   4   5
ATOM      5  C   UNL     1      27.235  13.498  61.552  1.00  0.00     0.032 C 
BRANCH   5   6
ATOM      6  C   UNL     1      27.002  12.446  60.496  1.00  0.00    -0.028 C 
ATOM      7  C   UNL     1      26.461  10.226  59.595  1.00  0.00     0.039 C 
ATOM      8  C   UNL     1      26.688  11.158  60.757  1.00  0.00    -0.080 C 
ATOM      9  C   UNL     1      26.578  10.628  62.168  1.00  0.00     0.039 C 
ENDBRANCH   5   6
ENDBRANCH   4   5
ENDBRANCH   1   4
BRANCH   2  10
ATOM     10  C   UNL     1      30.910  11.976  60.794  1.00  0.00     0.183 C 
BRANCH  10  11
ATOM     11  O   UNL     1      31.790  13.019  60.478  1.00  0.00    -0.392 OA
ATOM     12  H   UNL     1      32.407  12.671  59.782  1.00  0.00     0.210 HD
ENDBRANCH  10  11
ENDBRANCH   2  10
TORSDOF 5
ENDMDL
MODEL 6
REMARK VINA RESULT:    -4.011      3.833      4.785
REMARK INTER + INTRA:          -5.566
REMARK INTER:                  -4.959
REMARK INTRA:                  -0.607
REMARK UNBOUND:                -0.501
REMARK SMILES CC(C)=CCCC(C)=CCO
REMARK SMILES IDX 7 1 9 2 8 3 6 4 5 5 4 6 1 7 2 8 3 9 10 10 11 11
REMARK H PARENT 11 12
REMARK Flexibility Score: inf
ROOT
ATOM      1  C   UNL     1      29.803  11.962  62.276  1.00  0.00    -0.075 C 
ATOM      2  C   UNL     1      29.900  13.156  61.650  1.00  0.00    -0.000 C 
ATOM      3  C   UNL     1      31.037  11.387  62.919  1.00  0.00     0.039 C 
ENDROOT
BRANCH   1   4
ATOM      4  C   UNL     1      28.496  11.203  62.392  1.00  0.00     0.034 C 
BRANCH   4   5
ATOM      5  C   UNL     1      27.635  11.773  63.526  1.00  0.00     0.032 C 
BRANCH   5   6
ATOM      6  C   UNL     1      28.038  11.184  64.855  1.00  0.00    -0.028 C 
ATOM      7  C   UNL     1      28.993  11.148  67.119  1.00  0.00     0.039 C 
ATOM      8  C   UNL     1      28.676  11.866  65.832  1.00  0.00    -0.080 C 
ATOM      9  C   UNL     1      29.091  13.309  65.664  1.00  0.00     0.039 C 
ENDBRANCH   5   6
ENDBRANCH   4   5
ENDBRANCH   1   4
BRANCH   2  10
ATOM     10  C   UNL     1      28.743  13.845  60.971  1.00  0.00     0.183 C 
BRANCH  10  11
ATOM     11  O   UNL     1      28.316  14.940  61.734  1.00  0.00    -0.392 OA
ATOM     12  H   UNL     1      27.890  14.570  62.551  1.00  0.00     0.210 HD
ENDBRANCH  10  11
ENDBRANCH   2  10
TORSDOF 5
ENDMDL
MODEL 7
REMARK VINA RESULT:    -3.981      2.443      3.067
REMARK INTER + INTRA:          -5.529
REMARK INTER:                  -4.828
REMARK INTRA:                  -0.701
REMARK UNBOUND:                -0.501
REMARK SMILES CC(C)=CCCC(C)=CCO
REMARK SMILES IDX 7 1 9 2 8 3 6 4 5 5 4 6 1 7 2 8 3 9 10 10 11 11
REMARK H PARENT 11 12
REMARK Flexibility Score: inf
ROOT
ATOM      1  C   UNL     1      28.623  11.806  58.620  1.00  0.00    -0.075 C 
ATOM      2  C   UNL     1      29.901  12.191  58.834  1.00  0.00    -0.000 C 
ATOM      3  C   UNL     1      27.937  12.265  57.360  1.00  0.00     0.039 C 
ENDROOT
BRANCH   1   4
ATOM      4  C   UNL     1      27.871  10.900  59.575  1.00  0.00     0.034 C 
BRANCH   4   5
ATOM      5  C   UNL     1      26.944  11.719  60.483  1.00  0.00     0.032 C 
BRANCH   5   6
ATOM      6  C   UNL     1      27.501  11.807  61.882  1.00  0.00    -0.028 C 
ATOM      7  C   UNL     1      28.587  12.848  63.824  1.00  0.00     0.039 C 
ATOM      8  C   UNL     1      28.100  12.902  62.399  1.00  0.00    -0.080 C 
ATOM      9  C   UNL     1      28.309  14.161  61.589  1.00  0.00     0.039 C 
ENDBRANCH   5   6
ENDBRANCH   4   5
ENDBRANCH   1   4
BRANCH   2  10
ATOM     10  C   UNL     1      30.705  11.800  60.049  1.00  0.00     0.183 C 
BRANCH  10  11
ATOM     11  O   UNL     1      31.580  12.835  60.405  1.00  0.00    -0.392 OA
ATOM     12  H   UNL     1      32.498  12.515  60.201  1.00  0.00     0.210 HD
ENDBRANCH  10  11
ENDBRANCH   2  10
TORSDOF 5
ENDMDL
MODEL 8
REMARK VINA RESULT:    -3.898      3.253      4.366
REMARK INTER + INTRA:          -5.424
REMARK INTER:                  -4.674
REMARK INTRA:                  -0.750
REMARK UNBOUND:                -0.501
REMARK SMILES CC(C)=CCCC(C)=CCO
REMARK SMILES IDX 7 1 9 2 8 3 6 4 5 5 4 6 1 7 2 8 3 9 10 10 11 11
REMARK H PARENT 11 12
REMARK Flexibility Score: inf
ROOT
ATOM      1  C   UNL     1      29.908  12.564  60.282  1.00  0.00    -0.075 C 
ATOM      2  C   UNL     1      30.657  11.449  60.425  1.00  0.00    -0.000 C 
ATOM      3  C   UNL     1      29.095  12.727  59.023  1.00  0.00     0.039 C 
ENDROOT
BRANCH   1   4
ATOM      4  C   UNL     1      29.821  13.635  61.352  1.00  0.00     0.034 C 
BRANCH   4   5
ATOM      5  C   UNL     1      28.407  13.701  61.940  1.00  0.00     0.032 C 
BRANCH   5   6
ATOM      6  C   UNL     1      28.255  12.732  63.086  1.00  0.00    -0.028 C 
ATOM      7  C   UNL     1      27.500  10.705  64.250  1.00  0.00     0.039 C 
ATOM      8  C   UNL     1      27.541  11.586  63.028  1.00  0.00    -0.080 C 
ATOM      9  C   UNL     1      26.777  11.177  61.791  1.00  0.00     0.039 C 
ENDBRANCH   5   6
ENDBRANCH   4   5
ENDBRANCH   1   4
BRANCH   2  10
ATOM     10  C   UNL     1      31.511  11.159  61.633  1.00  0.00     0.183 C 
BRANCH  10  11
ATOM     11  O   UNL     1      32.865  11.126  61.274  1.00  0.00    -0.392 OA
ATOM     12  H   UNL     1      33.371  11.513  62.036  1.00  0.00     0.210 HD
ENDBRANCH  10  11
ENDBRANCH   2  10
TORSDOF 5
ENDMDL
MODEL 9
REMARK VINA RESULT:    -3.854      2.723      4.756
REMARK INTER + INTRA:          -5.369
REMARK INTER:                  -4.591
REMARK INTRA:                  -0.777
REMARK UNBOUND:                -0.501
REMARK SMILES CC(C)=CCCC(C)=CCO
REMARK SMILES IDX 7 1 9 2 8 3 6 4 5 5 4 6 1 7 2 8 3 9 10 10 11 11
REMARK H PARENT 11 12
REMARK Flexibility Score: inf
ROOT
ATOM      1  C   UNL     1      27.856  11.877  63.098  1.00  0.00    -0.075 C 
ATOM      2  C   UNL     1      26.939  11.793  62.109  1.00  0.00    -0.000 C 
ATOM      3  C   UNL     1      27.883  10.794  64.145  1.00  0.00     0.039 C 
ENDROOT
BRANCH   1   4
ATOM      4  C   UNL     1      28.881  12.991  63.172  1.00  0.00     0.034 C 
BRANCH   4   5
ATOM      5  C   UNL     1      30.252  12.500  62.692  1.00  0.00     0.032 C 
BRANCH   5   6
ATOM      6  C   UNL     1      30.479  12.867  61.246  1.00  0.00    -0.028 C 
ATOM      7  C   UNL     1      30.608  12.523  58.818  1.00  0.00     0.039 C 
ATOM      8  C   UNL     1      30.375  12.003  60.213  1.00  0.00    -0.080 C 
ATOM      9  C   UNL     1      30.050  10.541  60.417  1.00  0.00     0.039 C 
ENDBRANCH   5   6
ENDBRANCH   4   5
ENDBRANCH   1   4
BRANCH   2  10
ATOM     10  C   UNL     1      26.807  12.805  60.998  1.00  0.00     0.183 C 
BRANCH  10  11
ATOM     11  O   UNL     1      26.478  12.164  59.796  1.00  0.00    -0.392 OA
ATOM     12  H   UNL     1      26.906  11.268  59.823  1.00  0.00     0.210 HD
ENDBRANCH  10  11
ENDBRANCH   2  10
TORSDOF 5
ENDMDL
