MODEL 1
REMARK VINA RESULT:    -4.325      0.000      0.000
REMARK INTER + INTRA:         -13.245
REMARK INTER:                  -9.888
REMARK INTRA:                  -3.357
REMARK UNBOUND:                -3.357
REMARK SMILES CCCCCCCCCCCCCCCCCCCCCCCC(=O)[O-]
REMARK SMILES IDX 13 1 14 2 15 3 16 4 17 5 18 6 19 7 20 8 21 9 22 10 23 11
REMARK SMILES IDX 24 12 25 13 26 14 12 15 11 16 10 17 9 18 8 19 7 20 6 21 5 22
REMARK SMILES IDX 4 23 3 24 2 25 1 26
REMARK H PARENT
REMARK Flexibility Score: inf
ROOT
ATOM      1  C   UNL     1      -6.292   8.412  -5.087  1.00  0.00     0.000 C 
ENDROOT
BRANCH   1   2
ATOM      2  C   UNL     1      -5.622   7.031  -4.999  1.00  0.00     0.000 C 
BRANCH   2   3
ATOM      3  C   UNL     1      -5.303   6.425  -6.377  1.00  0.00     0.000 C 
BRANCH   3   4
ATOM      4  C   UNL     1      -3.859   6.637  -6.877  1.00  0.00     0.000 C 
BRANCH   4   5
ATOM      5  C   UNL     1      -3.684   7.747  -7.927  1.00  0.00     0.000 C 
BRANCH   5   6
ATOM      6  C   UNL     1      -4.848   7.815  -8.928  1.00  0.00     0.000 C 
BRANCH   6   7
ATOM      7  C   UNL     1      -5.631   9.127  -8.766  1.00  0.00     0.000 C 
BRANCH   7   8
ATOM      8  C   UNL     1      -7.142   8.899  -8.603  1.00  0.00     0.000 C 
BRANCH   8   9
ATOM      9  C   UNL     1      -7.619   7.604  -9.284  1.00  0.00     0.000 C 
BRANCH   9  10
ATOM     10  C   UNL     1      -8.974   7.110  -8.744  1.00  0.00     0.006 C 
BRANCH  10  11
ATOM     11  C   UNL     1      -8.980   6.787  -7.241  1.00  0.00     0.053 C 
BRANCH  11  12
ATOM     12  C   UNL     1      -8.621   5.359  -6.971  1.00  0.00     0.041 C 
ATOM     13  O   UNL     1      -8.609   4.922  -5.790  1.00  0.00    -0.550 OA
ATOM     14  O   UNL     1      -8.257   4.522  -8.020  1.00  0.00    -0.550 OA
ENDBRANCH  11  12
ENDBRANCH  10  11
ENDBRANCH   9  10
ENDBRANCH   8   9
ENDBRANCH   7   8
ENDBRANCH   6   7
ENDBRANCH   5   6
ENDBRANCH   4   5
ENDBRANCH   3   4
ENDBRANCH   2   3
ENDBRANCH   1   2
BRANCH   1  15
ATOM     15  C   UNL     1      -5.294   9.571  -4.913  1.00  0.00     0.000 C 
BRANCH  15  16
ATOM     16  C   UNL     1      -4.793   9.786  -3.473  1.00  0.00     0.000 C 
BRANCH  16  17
ATOM     17  C   UNL     1      -3.300   9.453  -3.306  1.00  0.00     0.000 C 
BRANCH  17  18
ATOM     18  C   UNL     1      -2.505   9.653  -4.607  1.00  0.00    -0.000 C 
BRANCH  18  19
ATOM     19  C   UNL     1      -1.561   8.475  -4.906  1.00  0.00    -0.000 C 
BRANCH  19  20
ATOM     20  C   UNL     1      -0.220   8.941  -5.514  1.00  0.00    -0.000 C 
BRANCH  20  21
ATOM     21  C   UNL     1      -0.363  10.102  -6.514  1.00  0.00    -0.000 C 
BRANCH  21  22
ATOM     22  C   UNL     1       0.493   9.915  -7.777  1.00  0.00    -0.000 C 
BRANCH  22  23
ATOM     23  C   UNL     1       1.283   8.597  -7.764  1.00  0.00    -0.000 C 
BRANCH  23  24
ATOM     24  C   UNL     1       2.449   8.599  -8.769  1.00  0.00    -0.000 C 
BRANCH  24  25
ATOM     25  C   UNL     1       3.449   7.460  -8.512  1.00  0.00    -0.003 C 
ATOM     26  C   UNL     1       3.084   6.619  -7.288  1.00  0.00     0.004 C 
ENDBRANCH  24  25
ENDBRANCH  23  24
ENDBRANCH  22  23
ENDBRANCH  21  22
ENDBRANCH  20  21
ENDBRANCH  19  20
ENDBRANCH  18  19
ENDBRANCH  17  18
ENDBRANCH  16  17
ENDBRANCH  15  16
ENDBRANCH   1  15
TORSDOF 22
ENDMDL
MODEL 2
REMARK VINA RESULT:    -3.757      5.573     10.474
REMARK INTER + INTRA:         -11.946
REMARK INTER:                 -10.394
REMARK INTRA:                  -1.551
REMARK UNBOUND:                -3.357
REMARK SMILES CCCCCCCCCCCCCCCCCCCCCCCC(=O)[O-]
REMARK SMILES IDX 13 1 14 2 15 3 16 4 17 5 18 6 19 7 20 8 21 9 22 10 23 11
REMARK SMILES IDX 24 12 25 13 26 14 12 15 11 16 10 17 9 18 8 19 7 20 6 21 5 22
REMARK SMILES IDX 4 23 3 24 2 25 1 26
REMARK H PARENT
REMARK Flexibility Score: inf
ROOT
ATOM      1  C   UNL     1      -1.334   9.159  -5.875  1.00  0.00     0.000 C 
ENDROOT
BRANCH   1   2
ATOM      2  C   UNL     1       0.081   8.702  -6.267  1.00  0.00     0.000 C 
BRANCH   2   3
ATOM      3  C   UNL     1       0.583   9.344  -7.573  1.00  0.00     0.000 C 
BRANCH   3   4
ATOM      4  C   UNL     1       1.809   8.664  -8.217  1.00  0.00     0.000 C 
BRANCH   4   5
ATOM      5  C   UNL     1       2.421   7.508  -7.407  1.00  0.00     0.000 C 
BRANCH   5   6
ATOM      6  C   UNL     1       3.539   6.774  -8.163  1.00  0.00     0.000 C 
BRANCH   6   7
ATOM      7  C   UNL     1       4.157   7.681  -9.238  1.00  0.00     0.000 C 
BRANCH   7   8
ATOM      8  C   UNL     1       5.458   7.104  -9.822  1.00  0.00     0.000 C 
BRANCH   8   9
ATOM      9  C   UNL     1       6.534   8.181 -10.042  1.00  0.00     0.000 C 
BRANCH   9  10
ATOM     10  C   UNL     1       7.964   7.643  -9.851  1.00  0.00     0.006 C 
BRANCH  10  11
ATOM     11  C   UNL     1       8.953   8.663  -9.263  1.00  0.00     0.053 C 
BRANCH  11  12
ATOM     12  C   UNL     1       9.513   8.210  -7.950  1.00  0.00     0.041 C 
ATOM     13  O   UNL     1       9.970   7.043  -7.826  1.00  0.00    -0.550 OA
ATOM     14  O   UNL     1       9.488   9.061  -6.851  1.00  0.00    -0.550 OA
ENDBRANCH  11  12
ENDBRANCH  10  11
ENDBRANCH   9  10
ENDBRANCH   8   9
ENDBRANCH   7   8
ENDBRANCH   6   7
ENDBRANCH   5   6
ENDBRANCH   4   5
ENDBRANCH   3   4
ENDBRANCH   2   3
ENDBRANCH   1   2
BRANCH   1  15
ATOM     15  C   UNL     1      -1.631   8.964  -4.378  1.00  0.00     0.000 C 
BRANCH  15  16
ATOM     16  C   UNL     1      -2.927   9.629  -3.880  1.00  0.00     0.000 C 
BRANCH  16  17
ATOM     17  C   UNL     1      -4.097   9.466  -4.865  1.00  0.00     0.000 C 
BRANCH  17  18
ATOM     18  C   UNL     1      -5.430   9.186  -4.152  1.00  0.00    -0.000 C 
BRANCH  18  19
ATOM     19  C   UNL     1      -6.460   8.511  -5.074  1.00  0.00    -0.000 C 
BRANCH  19  20
ATOM     20  C   UNL     1      -6.343   6.972  -5.055  1.00  0.00    -0.000 C 
BRANCH  20  21
ATOM     21  C   UNL     1      -7.568   6.249  -5.642  1.00  0.00    -0.000 C 
BRANCH  21  22
ATOM     22  C   UNL     1      -7.395   5.886  -7.126  1.00  0.00    -0.000 C 
BRANCH  22  23
ATOM     23  C   UNL     1      -5.919   5.806  -7.547  1.00  0.00    -0.000 C 
BRANCH  23  24
ATOM     24  C   UNL     1      -5.713   6.120  -9.039  1.00  0.00    -0.000 C 
BRANCH  24  25
ATOM     25  C   UNL     1      -4.625   7.180  -9.272  1.00  0.00    -0.003 C 
ATOM     26  C   UNL     1      -3.771   7.433  -8.029  1.00  0.00     0.004 C 
ENDBRANCH  24  25
ENDBRANCH  23  24
ENDBRANCH  22  23
ENDBRANCH  21  22
ENDBRANCH  20  21
ENDBRANCH  19  20
ENDBRANCH  18  19
ENDBRANCH  17  18
ENDBRANCH  16  17
ENDBRANCH  15  16
ENDBRANCH   1  15
TORSDOF 22
ENDMDL
MODEL 3
REMARK VINA RESULT:    -3.642      1.409      3.142
REMARK INTER + INTRA:         -11.684
REMARK INTER:                  -9.186
REMARK INTRA:                  -2.497
REMARK UNBOUND:                -3.357
REMARK SMILES CCCCCCCCCCCCCCCCCCCCCCCC(=O)[O-]
REMARK SMILES IDX 13 1 14 2 15 3 16 4 17 5 18 6 19 7 20 8 21 9 22 10 23 11
REMARK SMILES IDX 24 12 25 13 26 14 12 15 11 16 10 17 9 18 8 19 7 20 6 21 5 22
REMARK SMILES IDX 4 23 3 24 2 25 1 26
REMARK H PARENT
REMARK Flexibility Score: inf
ROOT
ATOM      1  C   UNL     1      -5.429   7.198  -7.591  1.00  0.00     0.000 C 
ENDROOT
BRANCH   1   2
ATOM      2  C   UNL     1      -5.806   8.140  -8.747  1.00  0.00     0.000 C 
BRANCH   2   3
ATOM      3  C   UNL     1      -7.318   8.169  -9.033  1.00  0.00     0.000 C 
BRANCH   3   4
ATOM      4  C   UNL     1      -7.954   9.573  -9.097  1.00  0.00     0.000 C 
BRANCH   4   5
ATOM      5  C   UNL     1      -9.304   9.717  -8.372  1.00  0.00     0.000 C 
BRANCH   5   6
ATOM      6  C   UNL     1      -9.583   8.566  -7.392  1.00  0.00     0.000 C 
BRANCH   6   7
ATOM      7  C   UNL     1      -9.312   9.004  -5.945  1.00  0.00     0.000 C 
BRANCH   7   8
ATOM      8  C   UNL     1      -9.117   7.813  -4.993  1.00  0.00     0.000 C 
BRANCH   8   9
ATOM      9  C   UNL     1      -8.146   6.761  -5.556  1.00  0.00     0.000 C 
BRANCH   9  10
ATOM     10  C   UNL     1      -8.735   5.339  -5.547  1.00  0.00     0.006 C 
BRANCH  10  11
ATOM     11  C   UNL     1      -9.690   5.039  -6.715  1.00  0.00     0.053 C 
BRANCH  11  12
ATOM     12  C   UNL     1      -9.057   4.156  -7.746  1.00  0.00     0.041 C 
ATOM     13  O   UNL     1      -8.301   4.650  -8.623  1.00  0.00    -0.550 OA
ATOM     14  O   UNL     1      -9.338   2.795  -7.764  1.00  0.00    -0.550 OA
ENDBRANCH  11  12
ENDBRANCH  10  11
ENDBRANCH   9  10
ENDBRANCH   8   9
ENDBRANCH   7   8
ENDBRANCH   6   7
ENDBRANCH   5   6
ENDBRANCH   4   5
ENDBRANCH   3   4
ENDBRANCH   2   3
ENDBRANCH   1   2
BRANCH   1  15
ATOM     15  C   UNL     1      -4.817   7.943  -6.391  1.00  0.00     0.000 C 
BRANCH  15  16
ATOM     16  C   UNL     1      -5.603   9.181  -5.924  1.00  0.00     0.000 C 
BRANCH  16  17
ATOM     17  C   UNL     1      -4.925   9.910  -4.751  1.00  0.00     0.000 C 
BRANCH  17  18
ATOM     18  C   UNL     1      -3.728   9.128  -4.187  1.00  0.00    -0.000 C 
BRANCH  18  19
ATOM     19  C   UNL     1      -2.752  10.027  -3.408  1.00  0.00    -0.000 C 
BRANCH  19  20
ATOM     20  C   UNL     1      -1.367  10.110  -4.086  1.00  0.00    -0.000 C 
BRANCH  20  21
ATOM     21  C   UNL     1      -1.057   8.922  -5.013  1.00  0.00    -0.000 C 
BRANCH  21  22
ATOM     22  C   UNL     1      -0.246   9.325  -6.255  1.00  0.00    -0.000 C 
BRANCH  22  23
ATOM     23  C   UNL     1       0.804   8.272  -6.643  1.00  0.00    -0.000 C 
BRANCH  23  24
ATOM     24  C   UNL     1       1.576   8.651  -7.919  1.00  0.00    -0.000 C 
BRANCH  24  25
ATOM     25  C   UNL     1       2.624   7.596  -8.308  1.00  0.00    -0.003 C 
ATOM     26  C   UNL     1       3.022   6.699  -7.134  1.00  0.00     0.004 C 
ENDBRANCH  24  25
ENDBRANCH  23  24
ENDBRANCH  22  23
ENDBRANCH  21  22
ENDBRANCH  20  21
ENDBRANCH  19  20
ENDBRANCH  18  19
ENDBRANCH  17  18
ENDBRANCH  16  17
ENDBRANCH  15  16
ENDBRANCH   1  15
TORSDOF 22
ENDMDL
MODEL 4
REMARK VINA RESULT:    -3.603      3.361      7.733
REMARK INTER + INTRA:         -11.594
REMARK INTER:                  -8.740
REMARK INTRA:                  -2.855
REMARK UNBOUND:                -3.357
REMARK SMILES CCCCCCCCCCCCCCCCCCCCCCCC(=O)[O-]
REMARK SMILES IDX 13 1 14 2 15 3 16 4 17 5 18 6 19 7 20 8 21 9 22 10 23 11
REMARK SMILES IDX 24 12 25 13 26 14 12 15 11 16 10 17 9 18 8 19 7 20 6 21 5 22
REMARK SMILES IDX 4 23 3 24 2 25 1 26
REMARK H PARENT
REMARK Flexibility Score: inf
ROOT
ATOM      1  C   UNL     1      -4.139   8.673  -4.218  1.00  0.00     0.000 C 
ENDROOT
BRANCH   1   2
ATOM      2  C   UNL     1      -3.017   9.320  -3.389  1.00  0.00     0.000 C 
BRANCH   2   3
ATOM      3  C   UNL     1      -1.734   9.571  -4.201  1.00  0.00     0.000 C 
BRANCH   3   4
ATOM      4  C   UNL     1      -1.369   8.472  -5.220  1.00  0.00     0.000 C 
BRANCH   4   5
ATOM      5  C   UNL     1      -0.098   8.737  -6.045  1.00  0.00     0.000 C 
BRANCH   5   6
ATOM      6  C   UNL     1      -0.188  10.018  -6.889  1.00  0.00     0.000 C 
BRANCH   6   7
ATOM      7  C   UNL     1       0.809   9.972  -8.058  1.00  0.00     0.000 C 
BRANCH   7   8
ATOM      8  C   UNL     1       0.367   9.013  -9.175  1.00  0.00     0.000 C 
BRANCH   8   9
ATOM      9  C   UNL     1       1.527   8.151  -9.704  1.00  0.00     0.000 C 
BRANCH   9  10
ATOM     10  C   UNL     1       2.903   8.641  -9.220  1.00  0.00     0.006 C 
BRANCH  10  11
ATOM     11  C   UNL     1       3.822   7.531  -8.684  1.00  0.00     0.053 C 
BRANCH  11  12
ATOM     12  C   UNL     1       3.106   6.620  -7.735  1.00  0.00     0.041 C 
ATOM     13  O   UNL     1       2.907   5.415  -8.045  1.00  0.00    -0.550 OA
ATOM     14  O   UNL     1       2.621   7.111  -6.529  1.00  0.00    -0.550 OA
ENDBRANCH  11  12
ENDBRANCH  10  11
ENDBRANCH   9  10
ENDBRANCH   8   9
ENDBRANCH   7   8
ENDBRANCH   6   7
ENDBRANCH   5   6
ENDBRANCH   4   5
ENDBRANCH   3   4
ENDBRANCH   2   3
ENDBRANCH   1   2
BRANCH   1  15
ATOM     15  C   UNL     1      -4.940   9.697  -5.041  1.00  0.00     0.000 C 
BRANCH  15  16
ATOM     16  C   UNL     1      -6.276   9.178  -5.602  1.00  0.00     0.000 C 
BRANCH  16  17
ATOM     17  C   UNL     1      -6.801   7.944  -4.848  1.00  0.00     0.000 C 
BRANCH  17  18
ATOM     18  C   UNL     1      -8.178   7.487  -5.356  1.00  0.00    -0.000 C 
BRANCH  18  19
ATOM     19  C   UNL     1      -8.394   7.816  -6.844  1.00  0.00    -0.000 C 
BRANCH  19  20
ATOM     20  C   UNL     1      -8.943   6.609  -7.635  1.00  0.00    -0.000 C 
BRANCH  20  21
ATOM     21  C   UNL     1      -7.847   5.702  -8.222  1.00  0.00    -0.000 C 
BRANCH  21  22
ATOM     22  C   UNL     1      -6.552   6.463  -8.553  1.00  0.00    -0.000 C 
BRANCH  22  23
ATOM     23  C   UNL     1      -5.432   5.534  -9.047  1.00  0.00    -0.000 C 
BRANCH  23  24
ATOM     24  C   UNL     1      -4.178   5.598  -8.157  1.00  0.00    -0.000 C 
BRANCH  24  25
ATOM     25  C   UNL     1      -4.040   6.946  -7.431  1.00  0.00    -0.003 C 
ATOM     26  C   UNL     1      -3.227   7.966  -8.229  1.00  0.00     0.004 C 
ENDBRANCH  24  25
ENDBRANCH  23  24
ENDBRANCH  22  23
ENDBRANCH  21  22
ENDBRANCH  20  21
ENDBRANCH  19  20
ENDBRANCH  18  19
ENDBRANCH  17  18
ENDBRANCH  16  17
ENDBRANCH  15  16
ENDBRANCH   1  15
TORSDOF 22
ENDMDL
MODEL 5
REMARK VINA RESULT:    -3.598      1.815      3.457
REMARK INTER + INTRA:         -11.582
REMARK INTER:                  -8.705
REMARK INTRA:                  -2.877
REMARK UNBOUND:                -3.357
REMARK SMILES CCCCCCCCCCCCCCCCCCCCCCCC(=O)[O-]
REMARK SMILES IDX 13 1 14 2 15 3 16 4 17 5 18 6 19 7 20 8 21 9 22 10 23 11
REMARK SMILES IDX 24 12 25 13 26 14 12 15 11 16 10 17 9 18 8 19 7 20 6 21 5 22
REMARK SMILES IDX 4 23 3 24 2 25 1 26
REMARK H PARENT
REMARK Flexibility Score: inf
ROOT
ATOM      1  C   UNL     1      -4.121   6.545  -7.541  1.00  0.00     0.000 C 
ENDROOT
BRANCH   1   2
ATOM      2  C   UNL     1      -4.977   7.615  -8.240  1.00  0.00     0.000 C 
BRANCH   2   3
ATOM      3  C   UNL     1      -5.954   7.026  -9.273  1.00  0.00     0.000 C 
BRANCH   3   4
ATOM      4  C   UNL     1      -7.392   7.584  -9.220  1.00  0.00     0.000 C 
BRANCH   4   5
ATOM      5  C   UNL     1      -8.454   6.615  -8.673  1.00  0.00     0.000 C 
BRANCH   5   6
ATOM      6  C   UNL     1      -7.845   5.355  -8.039  1.00  0.00     0.000 C 
BRANCH   6   7
ATOM      7  C   UNL     1      -8.675   4.897  -6.830  1.00  0.00     0.000 C 
BRANCH   7   8
ATOM      8  C   UNL     1      -8.687   5.934  -5.694  1.00  0.00     0.000 C 
BRANCH   8   9
ATOM      9  C   UNL     1      -7.299   6.548  -5.443  1.00  0.00     0.000 C 
BRANCH   9  10
ATOM     10  C   UNL     1      -7.373   7.973  -4.863  1.00  0.00     0.006 C 
BRANCH  10  11
ATOM     11  C   UNL     1      -7.507   9.083  -5.919  1.00  0.00     0.053 C 
BRANCH  11  12
ATOM     12  C   UNL     1      -8.938   9.433  -6.189  1.00  0.00     0.041 C 
ATOM     13  O   UNL     1      -9.240  10.125  -7.196  1.00  0.00    -0.550 OA
ATOM     14  O   UNL     1      -9.932   9.032  -5.303  1.00  0.00    -0.550 OA
ENDBRANCH  11  12
ENDBRANCH  10  11
ENDBRANCH   9  10
ENDBRANCH   8   9
ENDBRANCH   7   8
ENDBRANCH   6   7
ENDBRANCH   5   6
ENDBRANCH   4   5
ENDBRANCH   3   4
ENDBRANCH   2   3
ENDBRANCH   1   2
BRANCH   1  15
ATOM     15  C   UNL     1      -3.337   7.101  -6.339  1.00  0.00     0.000 C 
BRANCH  15  16
ATOM     16  C   UNL     1      -3.907   8.396  -5.734  1.00  0.00     0.000 C 
BRANCH  16  17
ATOM     17  C   UNL     1      -2.983   9.014  -4.671  1.00  0.00     0.000 C 
BRANCH  17  18
ATOM     18  C   UNL     1      -1.521   8.564  -4.830  1.00  0.00    -0.000 C 
BRANCH  18  19
ATOM     19  C   UNL     1      -0.603   9.703  -5.304  1.00  0.00    -0.000 C 
BRANCH  19  20
ATOM     20  C   UNL     1      -0.762   9.992  -6.813  1.00  0.00    -0.000 C 
BRANCH  20  21
ATOM     21  C   UNL     1       0.106   9.093  -7.711  1.00  0.00    -0.000 C 
BRANCH  21  22
ATOM     22  C   UNL     1       1.256   9.854  -8.391  1.00  0.00    -0.000 C 
BRANCH  22  23
ATOM     23  C   UNL     1       2.293   8.915  -9.025  1.00  0.00    -0.000 C 
BRANCH  23  24
ATOM     24  C   UNL     1       2.376   7.557  -8.306  1.00  0.00    -0.000 C 
BRANCH  24  25
ATOM     25  C   UNL     1       3.823   7.061  -8.148  1.00  0.00    -0.003 C 
ATOM     26  C   UNL     1       4.717   7.469  -9.320  1.00  0.00     0.004 C 
ENDBRANCH  24  25
ENDBRANCH  23  24
ENDBRANCH  22  23
ENDBRANCH  21  22
ENDBRANCH  20  21
ENDBRANCH  19  20
ENDBRANCH  18  19
ENDBRANCH  17  18
ENDBRANCH  16  17
ENDBRANCH  15  16
ENDBRANCH   1  15
TORSDOF 22
ENDMDL
MODEL 6
REMARK VINA RESULT:    -3.579      3.845      8.708
REMARK INTER + INTRA:         -11.539
REMARK INTER:                  -8.420
REMARK INTRA:                  -3.118
REMARK UNBOUND:                -3.357
REMARK SMILES CCCCCCCCCCCCCCCCCCCCCCCC(=O)[O-]
REMARK SMILES IDX 13 1 14 2 15 3 16 4 17 5 18 6 19 7 20 8 21 9 22 10 23 11
REMARK SMILES IDX 24 12 25 13 26 14 12 15 11 16 10 17 9 18 8 19 7 20 6 21 5 22
REMARK SMILES IDX 4 23 3 24 2 25 1 26
REMARK H PARENT
REMARK Flexibility Score: inf
ROOT
ATOM      1  C   UNL     1      -3.753   6.181  -6.720  1.00  0.00     0.000 C 
ENDROOT
BRANCH   1   2
ATOM      2  C   UNL     1      -4.305   7.229  -5.740  1.00  0.00     0.000 C 
BRANCH   2   3
ATOM      3  C   UNL     1      -3.507   8.544  -5.750  1.00  0.00     0.000 C 
BRANCH   3   4
ATOM      4  C   UNL     1      -2.519   8.729  -4.579  1.00  0.00     0.000 C 
BRANCH   4   5
ATOM      5  C   UNL     1      -1.030   8.666  -4.960  1.00  0.00     0.000 C 
BRANCH   5   6
ATOM      6  C   UNL     1      -0.800   8.633  -6.479  1.00  0.00     0.000 C 
BRANCH   6   7
ATOM      7  C   UNL     1       0.701   8.618  -6.804  1.00  0.00     0.000 C 
BRANCH   7   8
ATOM      8  C   UNL     1       1.069   9.580  -7.946  1.00  0.00     0.000 C 
BRANCH   8   9
ATOM      9  C   UNL     1       0.742   8.999  -9.333  1.00  0.00     0.000 C 
BRANCH   9  10
ATOM     10  C   UNL     1       1.753   7.931  -9.786  1.00  0.00     0.006 C 
BRANCH  10  11
ATOM     11  C   UNL     1       3.221   8.387  -9.747  1.00  0.00     0.053 C 
BRANCH  11  12
ATOM     12  C   UNL     1       4.069   7.485  -8.905  1.00  0.00     0.041 C 
ATOM     13  O   UNL     1       3.537   6.758  -8.025  1.00  0.00    -0.550 OA
ATOM     14  O   UNL     1       5.450   7.479  -9.062  1.00  0.00    -0.550 OA
ENDBRANCH  11  12
ENDBRANCH  10  11
ENDBRANCH   9  10
ENDBRANCH   8   9
ENDBRANCH   7   8
ENDBRANCH   6   7
ENDBRANCH   5   6
ENDBRANCH   4   5
ENDBRANCH   3   4
ENDBRANCH   2   3
ENDBRANCH   1   2
BRANCH   1  15
ATOM     15  C   UNL     1      -4.791   5.736  -7.766  1.00  0.00     0.000 C 
BRANCH  15  16
ATOM     16  C   UNL     1      -5.235   6.833  -8.749  1.00  0.00     0.000 C 
BRANCH  16  17
ATOM     17  C   UNL     1      -6.744   6.794  -9.045  1.00  0.00     0.000 C 
BRANCH  17  18
ATOM     18  C   UNL     1      -7.417   8.162  -8.846  1.00  0.00    -0.000 C 
BRANCH  18  19
ATOM     19  C   UNL     1      -6.532   9.143  -8.056  1.00  0.00    -0.000 C 
BRANCH  19  20
ATOM     20  C   UNL     1      -7.354  10.022  -7.088  1.00  0.00    -0.000 C 
BRANCH  20  21
ATOM     21  C   UNL     1      -6.993   9.817  -5.606  1.00  0.00    -0.000 C 
BRANCH  21  22
ATOM     22  C   UNL     1      -7.338   8.409  -5.094  1.00  0.00    -0.000 C 
BRANCH  22  23
ATOM     23  C   UNL     1      -8.848   8.205  -4.898  1.00  0.00    -0.000 C 
BRANCH  23  24
ATOM     24  C   UNL     1      -9.368   6.938  -5.601  1.00  0.00    -0.000 C 
BRANCH  24  25
ATOM     25  C   UNL     1      -8.293   5.845  -5.713  1.00  0.00    -0.003 C 
ATOM     26  C   UNL     1      -8.636   4.786  -6.762  1.00  0.00     0.004 C 
ENDBRANCH  24  25
ENDBRANCH  23  24
ENDBRANCH  22  23
ENDBRANCH  21  22
ENDBRANCH  20  21
ENDBRANCH  19  20
ENDBRANCH  18  19
ENDBRANCH  17  18
ENDBRANCH  16  17
ENDBRANCH  15  16
ENDBRANCH   1  15
TORSDOF 22
ENDMDL
MODEL 7
REMARK VINA RESULT:    -3.411      1.728      3.091
REMARK INTER + INTRA:         -11.156
REMARK INTER:                  -7.451
REMARK INTRA:                  -3.704
REMARK UNBOUND:                -3.357
REMARK SMILES CCCCCCCCCCCCCCCCCCCCCCCC(=O)[O-]
REMARK SMILES IDX 13 1 14 2 15 3 16 4 17 5 18 6 19 7 20 8 21 9 22 10 23 11
REMARK SMILES IDX 24 12 25 13 26 14 12 15 11 16 10 17 9 18 8 19 7 20 6 21 5 22
REMARK SMILES IDX 4 23 3 24 2 25 1 26
REMARK H PARENT
REMARK Flexibility Score: inf
ROOT
ATOM      1  C   UNL     1      -3.833   7.581  -7.584  1.00  0.00     0.000 C 
ENDROOT
BRANCH   1   2
ATOM      2  C   UNL     1      -4.395   9.012  -7.579  1.00  0.00     0.000 C 
BRANCH   2   3
ATOM      3  C   UNL     1      -5.564   9.206  -8.561  1.00  0.00     0.000 C 
BRANCH   3   4
ATOM      4  C   UNL     1      -6.705  10.117  -8.063  1.00  0.00     0.000 C 
BRANCH   4   5
ATOM      5  C   UNL     1      -8.124   9.554  -8.248  1.00  0.00     0.000 C 
BRANCH   5   6
ATOM      6  C   UNL     1      -8.262   8.676  -9.501  1.00  0.00     0.000 C 
BRANCH   6   7
ATOM      7  C   UNL     1      -9.479   7.745  -9.384  1.00  0.00     0.000 C 
BRANCH   7   8
ATOM      8  C   UNL     1      -9.216   6.540  -8.467  1.00  0.00     0.000 C 
BRANCH   8   9
ATOM      9  C   UNL     1      -7.843   5.894  -8.723  1.00  0.00     0.000 C 
BRANCH   9  10
ATOM     10  C   UNL     1      -6.969   5.832  -7.458  1.00  0.00     0.006 C 
BRANCH  10  11
ATOM     11  C   UNL     1      -7.624   6.427  -6.201  1.00  0.00     0.053 C 
BRANCH  11  12
ATOM     12  C   UNL     1      -6.609   6.906  -5.210  1.00  0.00     0.041 C 
ATOM     13  O   UNL     1      -5.786   6.097  -4.707  1.00  0.00    -0.550 OA
ATOM     14  O   UNL     1      -6.601   8.237  -4.810  1.00  0.00    -0.550 OA
ENDBRANCH  11  12
ENDBRANCH  10  11
ENDBRANCH   9  10
ENDBRANCH   8   9
ENDBRANCH   7   8
ENDBRANCH   6   7
ENDBRANCH   5   6
ENDBRANCH   4   5
ENDBRANCH   3   4
ENDBRANCH   2   3
ENDBRANCH   1   2
BRANCH   1  15
ATOM     15  C   UNL     1      -2.938   7.287  -6.367  1.00  0.00     0.000 C 
BRANCH  15  16
ATOM     16  C   UNL     1      -3.002   8.338  -5.244  1.00  0.00     0.000 C 
BRANCH  16  17
ATOM     17  C   UNL     1      -1.650   9.028  -4.997  1.00  0.00     0.000 C 
BRANCH  17  18
ATOM     18  C   UNL     1      -0.472   8.247  -5.602  1.00  0.00    -0.000 C 
BRANCH  18  19
ATOM     19  C   UNL     1       0.367   9.102  -6.567  1.00  0.00    -0.000 C 
BRANCH  19  20
ATOM     20  C   UNL     1      -0.498   9.780  -7.651  1.00  0.00    -0.000 C 
BRANCH  20  21
ATOM     21  C   UNL     1      -0.592   8.977  -8.961  1.00  0.00    -0.000 C 
BRANCH  21  22
ATOM     22  C   UNL     1       0.462   9.396  -9.999  1.00  0.00    -0.000 C 
BRANCH  22  23
ATOM     23  C   UNL     1       1.607   8.378 -10.122  1.00  0.00    -0.000 C 
BRANCH  23  24
ATOM     24  C   UNL     1       2.877   8.826  -9.378  1.00  0.00    -0.000 C 
BRANCH  24  25
ATOM     25  C   UNL     1       3.691   7.639  -8.837  1.00  0.00    -0.003 C 
ATOM     26  C   UNL     1       2.892   6.769  -7.866  1.00  0.00     0.004 C 
ENDBRANCH  24  25
ENDBRANCH  23  24
ENDBRANCH  22  23
ENDBRANCH  21  22
ENDBRANCH  20  21
ENDBRANCH  19  20
ENDBRANCH  18  19
ENDBRANCH  17  18
ENDBRANCH  16  17
ENDBRANCH  15  16
ENDBRANCH   1  15
TORSDOF 22
ENDMDL
MODEL 8
REMARK VINA RESULT:    -3.309      5.505     10.536
REMARK INTER + INTRA:         -10.921
REMARK INTER:                  -8.798
REMARK INTRA:                  -2.124
REMARK UNBOUND:                -3.357
REMARK SMILES CCCCCCCCCCCCCCCCCCCCCCCC(=O)[O-]
REMARK SMILES IDX 13 1 14 2 15 3 16 4 17 5 18 6 19 7 20 8 21 9 22 10 23 11
REMARK SMILES IDX 24 12 25 13 26 14 12 15 11 16 10 17 9 18 8 19 7 20 6 21 5 22
REMARK SMILES IDX 4 23 3 24 2 25 1 26
REMARK H PARENT
REMARK Flexibility Score: inf
ROOT
ATOM      1  C   UNL     1      -0.803   8.311  -5.334  1.00  0.00     0.000 C 
ENDROOT
BRANCH   1   2
ATOM      2  C   UNL     1      -0.046   9.407  -6.103  1.00  0.00     0.000 C 
BRANCH   2   3
ATOM      3  C   UNL     1      -0.402   9.450  -7.600  1.00  0.00     0.000 C 
BRANCH   3   4
ATOM      4  C   UNL     1       0.733   9.043  -8.563  1.00  0.00     0.000 C 
BRANCH   4   5
ATOM      5  C   UNL     1       2.006   8.506  -7.888  1.00  0.00     0.000 C 
BRANCH   5   6
ATOM      6  C   UNL     1       2.698   7.404  -8.706  1.00  0.00     0.000 C 
BRANCH   6   7
ATOM      7  C   UNL     1       3.712   8.010  -9.689  1.00  0.00     0.000 C 
BRANCH   7   8
ATOM      8  C   UNL     1       5.026   7.214  -9.748  1.00  0.00     0.000 C 
BRANCH   8   9
ATOM      9  C   UNL     1       6.231   8.093 -10.124  1.00  0.00     0.000 C 
BRANCH   9  10
ATOM     10  C   UNL     1       7.564   7.323 -10.094  1.00  0.00     0.006 C 
BRANCH  10  11
ATOM     11  C   UNL     1       8.808   8.211  -9.927  1.00  0.00     0.053 C 
BRANCH  11  12
ATOM     12  C   UNL     1       9.312   8.211  -8.517  1.00  0.00     0.041 C 
ATOM     13  O   UNL     1      10.059   7.281  -8.112  1.00  0.00    -0.550 OA
ATOM     14  O   UNL     1       8.922   9.214  -7.638  1.00  0.00    -0.550 OA
ENDBRANCH  11  12
ENDBRANCH  10  11
ENDBRANCH   9  10
ENDBRANCH   8   9
ENDBRANCH   7   8
ENDBRANCH   6   7
ENDBRANCH   5   6
ENDBRANCH   4   5
ENDBRANCH   3   4
ENDBRANCH   2   3
ENDBRANCH   1   2
BRANCH   1  15
ATOM     15  C   UNL     1      -1.711   8.877  -4.228  1.00  0.00     0.000 C 
BRANCH  15  16
ATOM     16  C   UNL     1      -2.655  10.008  -4.676  1.00  0.00     0.000 C 
BRANCH  16  17
ATOM     17  C   UNL     1      -4.123   9.557  -4.771  1.00  0.00     0.000 C 
BRANCH  17  18
ATOM     18  C   UNL     1      -4.446   8.893  -6.119  1.00  0.00    -0.000 C 
BRANCH  18  19
ATOM     19  C   UNL     1      -4.398   7.357  -6.045  1.00  0.00    -0.000 C 
BRANCH  19  20
ATOM     20  C   UNL     1      -4.211   6.710  -7.434  1.00  0.00    -0.000 C 
BRANCH  20  21
ATOM     21  C   UNL     1      -5.427   5.895  -7.908  1.00  0.00    -0.000 C 
BRANCH  21  22
ATOM     22  C   UNL     1      -6.065   6.458  -9.189  1.00  0.00    -0.000 C 
BRANCH  22  23
ATOM     23  C   UNL     1      -7.195   7.457  -8.895  1.00  0.00    -0.000 C 
BRANCH  23  24
ATOM     24  C   UNL     1      -7.984   7.098  -7.623  1.00  0.00    -0.000 C 
BRANCH  24  25
ATOM     25  C   UNL     1      -8.154   8.299  -6.678  1.00  0.00    -0.003 C 
ATOM     26  C   UNL     1      -7.921   7.933  -5.212  1.00  0.00     0.004 C 
ENDBRANCH  24  25
ENDBRANCH  23  24
ENDBRANCH  22  23
ENDBRANCH  21  22
ENDBRANCH  20  21
ENDBRANCH  19  20
ENDBRANCH  18  19
ENDBRANCH  17  18
ENDBRANCH  16  17
ENDBRANCH  15  16
ENDBRANCH   1  15
TORSDOF 22
ENDMDL
MODEL 9
REMARK VINA RESULT:    -3.290      1.684      6.568
REMARK INTER + INTRA:         -10.879
REMARK INTER:                  -7.943
REMARK INTRA:                  -2.936
REMARK UNBOUND:                -3.357
REMARK SMILES CCCCCCCCCCCCCCCCCCCCCCCC(=O)[O-]
REMARK SMILES IDX 13 1 14 2 15 3 16 4 17 5 18 6 19 7 20 8 21 9 22 10 23 11
REMARK SMILES IDX 24 12 25 13 26 14 12 15 11 16 10 17 9 18 8 19 7 20 6 21 5 22
REMARK SMILES IDX 4 23 3 24 2 25 1 26
REMARK H PARENT
REMARK Flexibility Score: inf
ROOT
ATOM      1  C   UNL     1       0.642   7.889  -5.621  1.00  0.00     0.000 C 
ENDROOT
BRANCH   1   2
ATOM      2  C   UNL     1       0.732   8.654  -6.951  1.00  0.00     0.000 C 
BRANCH   2   3
ATOM      3  C   UNL     1       1.943   8.239  -7.806  1.00  0.00     0.000 C 
BRANCH   3   4
ATOM      4  C   UNL     1       2.164   9.067  -9.089  1.00  0.00     0.000 C 
BRANCH   4   5
ATOM      5  C   UNL     1       0.954   9.897  -9.552  1.00  0.00     0.000 C 
BRANCH   5   6
ATOM      6  C   UNL     1      -0.180   9.033 -10.125  1.00  0.00     0.000 C 
BRANCH   6   7
ATOM      7  C   UNL     1      -1.549   9.664  -9.828  1.00  0.00     0.000 C 
BRANCH   7   8
ATOM      8  C   UNL     1      -2.666   8.617  -9.690  1.00  0.00     0.000 C 
BRANCH   8   9
ATOM      9  C   UNL     1      -3.819   9.099  -8.792  1.00  0.00     0.000 C 
BRANCH   9  10
ATOM     10  C   UNL     1      -4.972   8.083  -8.705  1.00  0.00     0.006 C 
BRANCH  10  11
ATOM     11  C   UNL     1      -4.648   6.822  -7.887  1.00  0.00     0.053 C 
BRANCH  11  12
ATOM     12  C   UNL     1      -5.016   5.568  -8.619  1.00  0.00     0.041 C 
ATOM     13  O   UNL     1      -6.211   5.172  -8.634  1.00  0.00    -0.550 OA
ATOM     14  O   UNL     1      -4.031   4.813  -9.245  1.00  0.00    -0.550 OA
ENDBRANCH  11  12
ENDBRANCH  10  11
ENDBRANCH   9  10
ENDBRANCH   8   9
ENDBRANCH   7   8
ENDBRANCH   6   7
ENDBRANCH   5   6
ENDBRANCH   4   5
ENDBRANCH   3   4
ENDBRANCH   2   3
ENDBRANCH   1   2
BRANCH   1  15
ATOM     15  C   UNL     1      -0.681   8.140  -4.876  1.00  0.00     0.000 C 
BRANCH  15  16
ATOM     16  C   UNL     1      -1.891   8.433  -5.781  1.00  0.00     0.000 C 
BRANCH  16  17
ATOM     17  C   UNL     1      -2.492   9.828  -5.540  1.00  0.00     0.000 C 
BRANCH  17  18
ATOM     18  C   UNL     1      -2.884  10.052  -4.070  1.00  0.00    -0.000 C 
BRANCH  18  19
ATOM     19  C   UNL     1      -4.375   9.773  -3.810  1.00  0.00    -0.000 C 
BRANCH  19  20
ATOM     20  C   UNL     1      -5.217   9.844  -5.103  1.00  0.00    -0.000 C 
BRANCH  20  21
ATOM     21  C   UNL     1      -6.560   9.098  -5.010  1.00  0.00    -0.000 C 
BRANCH  21  22
ATOM     22  C   UNL     1      -6.392   7.578  -4.850  1.00  0.00    -0.000 C 
BRANCH  22  23
ATOM     23  C   UNL     1      -7.474   6.782  -5.595  1.00  0.00    -0.000 C 
BRANCH  23  24
ATOM     24  C   UNL     1      -8.361   7.677  -6.479  1.00  0.00    -0.000 C 
BRANCH  24  25
ATOM     25  C   UNL     1      -9.077   6.887  -7.586  1.00  0.00    -0.003 C 
ATOM     26  C   UNL     1     -10.065   7.743  -8.378  1.00  0.00     0.004 C 
ENDBRANCH  24  25
ENDBRANCH  23  24
ENDBRANCH  22  23
ENDBRANCH  21  22
ENDBRANCH  20  21
ENDBRANCH  19  20
ENDBRANCH  18  19
ENDBRANCH  17  18
ENDBRANCH  16  17
ENDBRANCH  15  16
ENDBRANCH   1  15
TORSDOF 22
ENDMDL
