MODEL 1
REMARK VINA RESULT:    -4.716      0.000      0.000
REMARK INTER + INTRA:          -5.120
REMARK INTER:                  -4.992
REMARK INTRA:                  -0.128
REMARK UNBOUND:                -0.128
REMARK SMILES C=C(C)[C@@H]1CC=C(C)CC1
REMARK SMILES IDX 8 1 7 2 6 3 5 4 4 5 10 6 9 7 2 8 1 9 3 10
REMARK H PARENT
REMARK Flexibility Score: inf
ROOT
ATOM      1  C   UNL     1     -50.485 -49.593  22.273  1.00  0.00     0.039 C 
ATOM      2  C   UNL     1     -51.814 -48.950  21.988  1.00  0.00    -0.077 C 
ATOM      3  C   UNL     1     -52.218 -47.912  22.752  1.00  0.00    -0.027 C 
ATOM      4  C   UNL     1     -53.508 -47.169  22.512  1.00  0.00     0.035 C 
ATOM      5  C   UNL     1     -54.530 -48.013  21.730  1.00  0.00     0.018 C 
ATOM      6  C   UNL     1     -53.855 -48.641  20.502  1.00  0.00     0.013 C 
ATOM      7  C   UNL     1     -52.717 -49.571  20.939  1.00  0.00     0.031 C 
ENDROOT
BRANCH   5   8
ATOM      8  C   UNL     1     -55.755 -47.195  21.345  1.00  0.00    -0.077 C 
ATOM      9  C   UNL     1     -55.667 -45.875  21.103  1.00  0.00     0.008 C 
ATOM     10  C   UNL     1     -57.102 -47.861  21.223  1.00  0.00     0.039 C 
ENDBRANCH   5   8
TORSDOF 1
ENDMDL
MODEL 2
REMARK VINA RESULT:    -4.706      1.092      4.338
REMARK INTER + INTRA:          -5.109
REMARK INTER:                  -4.982
REMARK INTRA:                  -0.127
REMARK UNBOUND:                -0.128
REMARK SMILES C=C(C)[C@@H]1CC=C(C)CC1
REMARK SMILES IDX 8 1 7 2 6 3 5 4 4 5 10 6 9 7 2 8 1 9 3 10
REMARK H PARENT
REMARK Flexibility Score: inf
ROOT
ATOM      1  C   UNL     1     -57.125 -46.495  20.623  1.00  0.00     0.039 C 
ATOM      2  C   UNL     1     -55.864 -47.086  21.192  1.00  0.00    -0.077 C 
ATOM      3  C   UNL     1     -55.014 -46.286  21.871  1.00  0.00    -0.027 C 
ATOM      4  C   UNL     1     -53.752 -46.794  22.524  1.00  0.00     0.035 C 
ATOM      5  C   UNL     1     -53.260 -48.109  21.894  1.00  0.00     0.018 C 
ATOM      6  C   UNL     1     -54.428 -49.100  21.780  1.00  0.00     0.013 C 
ATOM      7  C   UNL     1     -55.523 -48.529  20.872  1.00  0.00     0.031 C 
ENDROOT
BRANCH   5   8
ATOM      8  C   UNL     1     -52.091 -48.699  22.670  1.00  0.00    -0.077 C 
ATOM      9  C   UNL     1     -52.021 -48.602  24.010  1.00  0.00     0.008 C 
ATOM     10  C   UNL     1     -50.982 -49.414  21.942  1.00  0.00     0.039 C 
ENDBRANCH   5   8
TORSDOF 1
ENDMDL
MODEL 3
REMARK VINA RESULT:    -4.687     11.834     15.301
REMARK INTER + INTRA:          -5.089
REMARK INTER:                  -4.963
REMARK INTRA:                  -0.126
REMARK UNBOUND:                -0.128
REMARK SMILES C=C(C)[C@@H]1CC=C(C)CC1
REMARK SMILES IDX 8 1 7 2 6 3 5 4 4 5 10 6 9 7 2 8 1 9 3 10
REMARK H PARENT
REMARK Flexibility Score: inf
ROOT
ATOM      1  C   UNL     1     -43.865 -49.745  27.198  1.00  0.00     0.039 C 
ATOM      2  C   UNL     1     -42.547 -49.180  27.651  1.00  0.00    -0.077 C 
ATOM      3  C   UNL     1     -41.999 -48.158  26.959  1.00  0.00    -0.027 C 
ATOM      4  C   UNL     1     -40.709 -47.489  27.364  1.00  0.00     0.035 C 
ATOM      5  C   UNL     1     -39.836 -48.396  28.249  1.00  0.00     0.018 C 
ATOM      6  C   UNL     1     -40.687 -48.998  29.377  1.00  0.00     0.013 C 
ATOM      7  C   UNL     1     -41.812 -49.860  28.791  1.00  0.00     0.031 C 
ENDROOT
BRANCH   5   8
ATOM      8  C   UNL     1     -38.624 -47.650  28.792  1.00  0.00    -0.077 C 
ATOM      9  C   UNL     1     -38.732 -46.402  29.281  1.00  0.00     0.008 C 
ATOM     10  C   UNL     1     -37.269 -48.309  28.794  1.00  0.00     0.039 C 
ENDBRANCH   5   8
TORSDOF 1
ENDMDL
MODEL 4
REMARK VINA RESULT:    -4.659      1.170      4.581
REMARK INTER + INTRA:          -5.059
REMARK INTER:                  -4.936
REMARK INTRA:                  -0.123
REMARK UNBOUND:                -0.128
REMARK SMILES C=C(C)[C@@H]1CC=C(C)CC1
REMARK SMILES IDX 8 1 7 2 6 3 5 4 4 5 10 6 9 7 2 8 1 9 3 10
REMARK H PARENT
REMARK Flexibility Score: inf
ROOT
ATOM      1  C   UNL     1     -56.749 -46.857  20.834  1.00  0.00     0.039 C 
ATOM      2  C   UNL     1     -55.437 -47.348  21.381  1.00  0.00    -0.077 C 
ATOM      3  C   UNL     1     -55.139 -48.662  21.288  1.00  0.00    -0.027 C 
ATOM      4  C   UNL     1     -53.828 -49.242  21.758  1.00  0.00     0.035 C 
ATOM      5  C   UNL     1     -53.142 -48.353  22.810  1.00  0.00     0.018 C 
ATOM      6  C   UNL     1     -53.118 -46.896  22.324  1.00  0.00     0.013 C 
ATOM      7  C   UNL     1     -54.549 -46.377  22.135  1.00  0.00     0.031 C 
ENDROOT
BRANCH   5   8
ATOM      8  C   UNL     1     -51.745 -48.859  23.146  1.00  0.00    -0.077 C 
ATOM      9  C   UNL     1     -51.320 -48.944  24.419  1.00  0.00     0.008 C 
ATOM     10  C   UNL     1     -50.808 -49.283  22.045  1.00  0.00     0.039 C 
ENDBRANCH   5   8
TORSDOF 1
ENDMDL
MODEL 5
REMARK VINA RESULT:    -4.653     13.356     15.989
REMARK INTER + INTRA:          -5.052
REMARK INTER:                  -4.928
REMARK INTRA:                  -0.124
REMARK UNBOUND:                -0.128
REMARK SMILES C=C(C)[C@@H]1CC=C(C)CC1
REMARK SMILES IDX 8 1 7 2 6 3 5 4 4 5 10 6 9 7 2 8 1 9 3 10
REMARK H PARENT
REMARK Flexibility Score: inf
ROOT
ATOM      1  C   UNL     1     -43.419 -50.435  29.406  1.00  0.00     0.039 C 
ATOM      2  C   UNL     1     -42.094 -49.734  29.286  1.00  0.00    -0.077 C 
ATOM      3  C   UNL     1     -41.307 -49.630  30.379  1.00  0.00    -0.027 C 
ATOM      4  C   UNL     1     -39.939 -48.994  30.348  1.00  0.00     0.035 C 
ATOM      5  C   UNL     1     -39.775 -48.023  29.166  1.00  0.00     0.018 C 
ATOM      6  C   UNL     1     -40.255 -48.694  27.871  1.00  0.00     0.013 C 
ATOM      7  C   UNL     1     -41.741 -49.053  27.977  1.00  0.00     0.031 C 
ENDROOT
BRANCH   5   8
ATOM      8  C   UNL     1     -38.342 -47.522  29.047  1.00  0.00    -0.077 C 
ATOM      9  C   UNL     1     -37.340 -48.348  28.695  1.00  0.00     0.008 C 
ATOM     10  C   UNL     1     -38.020 -46.076  29.319  1.00  0.00     0.039 C 
ENDBRANCH   5   8
TORSDOF 1
ENDMDL
MODEL 6
REMARK VINA RESULT:    -4.642      1.064      2.131
REMARK INTER + INTRA:          -5.041
REMARK INTER:                  -4.911
REMARK INTRA:                  -0.130
REMARK UNBOUND:                -0.128
REMARK SMILES C=C(C)[C@@H]1CC=C(C)CC1
REMARK SMILES IDX 8 1 7 2 6 3 5 4 4 5 10 6 9 7 2 8 1 9 3 10
REMARK H PARENT
REMARK Flexibility Score: inf
ROOT
ATOM      1  C   UNL     1     -50.588 -48.013  23.408  1.00  0.00     0.039 C 
ATOM      2  C   UNL     1     -51.974 -47.854  22.847  1.00  0.00    -0.077 C 
ATOM      3  C   UNL     1     -52.564 -48.912  22.250  1.00  0.00    -0.027 C 
ATOM      4  C   UNL     1     -53.970 -48.869  21.705  1.00  0.00     0.035 C 
ATOM      5  C   UNL     1     -54.430 -47.433  21.394  1.00  0.00     0.018 C 
ATOM      6  C   UNL     1     -54.123 -46.519  22.589  1.00  0.00     0.013 C 
ATOM      7  C   UNL     1     -52.613 -46.478  22.853  1.00  0.00     0.031 C 
ENDROOT
BRANCH   5   8
ATOM      8  C   UNL     1     -55.903 -47.387  21.010  1.00  0.00    -0.077 C 
ATOM      9  C   UNL     1     -56.658 -48.500  21.002  1.00  0.00     0.008 C 
ATOM     10  C   UNL     1     -56.546 -46.078  20.635  1.00  0.00     0.039 C 
ENDBRANCH   5   8
TORSDOF 1
ENDMDL
MODEL 7
REMARK VINA RESULT:    -4.546     11.538     14.369
REMARK INTER + INTRA:          -4.939
REMARK INTER:                  -4.814
REMARK INTRA:                  -0.126
REMARK UNBOUND:                -0.128
REMARK SMILES C=C(C)[C@@H]1CC=C(C)CC1
REMARK SMILES IDX 8 1 7 2 6 3 5 4 4 5 10 6 9 7 2 8 1 9 3 10
REMARK H PARENT
REMARK Flexibility Score: inf
ROOT
ATOM      1  C   UNL     1     -38.022 -46.567  29.242  1.00  0.00     0.039 C 
ATOM      2  C   UNL     1     -39.239 -47.190  28.615  1.00  0.00    -0.077 C 
ATOM      3  C   UNL     1     -39.285 -48.531  28.464  1.00  0.00    -0.027 C 
ATOM      4  C   UNL     1     -40.481 -49.254  27.896  1.00  0.00     0.035 C 
ATOM      5  C   UNL     1     -41.356 -48.335  27.026  1.00  0.00     0.018 C 
ATOM      6  C   UNL     1     -41.632 -47.021  27.771  1.00  0.00     0.013 C 
ATOM      7  C   UNL     1     -40.318 -46.284  28.052  1.00  0.00     0.031 C 
ENDROOT
BRANCH   5   8
ATOM      8  C   UNL     1     -42.646 -49.026  26.603  1.00  0.00    -0.077 C 
ATOM      9  C   UNL     1     -43.433 -49.648  27.499  1.00  0.00     0.008 C 
ATOM     10  C   UNL     1     -43.069 -49.020  25.157  1.00  0.00     0.039 C 
ENDBRANCH   5   8
TORSDOF 1
ENDMDL
MODEL 8
REMARK VINA RESULT:    -4.463     11.840     14.395
REMARK INTER + INTRA:          -4.852
REMARK INTER:                  -4.728
REMARK INTRA:                  -0.124
REMARK UNBOUND:                -0.128
REMARK SMILES C=C(C)[C@@H]1CC=C(C)CC1
REMARK SMILES IDX 8 1 7 2 6 3 5 4 4 5 10 6 9 7 2 8 1 9 3 10
REMARK H PARENT
REMARK Flexibility Score: inf
ROOT
ATOM      1  C   UNL     1     -38.077 -46.385  29.252  1.00  0.00     0.039 C 
ATOM      2  C   UNL     1     -39.240 -47.096  28.617  1.00  0.00    -0.077 C 
ATOM      3  C   UNL     1     -40.263 -46.367  28.122  1.00  0.00    -0.027 C 
ATOM      4  C   UNL     1     -41.447 -46.985  27.419  1.00  0.00     0.035 C 
ATOM      5  C   UNL     1     -41.648 -48.460  27.805  1.00  0.00     0.018 C 
ATOM      6  C   UNL     1     -40.313 -49.212  27.700  1.00  0.00     0.013 C 
ATOM      7  C   UNL     1     -39.288 -48.612  28.669  1.00  0.00     0.031 C 
ENDROOT
BRANCH   5   8
ATOM      8  C   UNL     1     -42.734 -49.117  26.963  1.00  0.00    -0.077 C 
ATOM      9  C   UNL     1     -43.617 -49.975  27.505  1.00  0.00     0.008 C 
ATOM     10  C   UNL     1     -42.841 -48.809  25.492  1.00  0.00     0.039 C 
ENDBRANCH   5   8
TORSDOF 1
ENDMDL
MODEL 9
REMARK VINA RESULT:    -4.459     13.099     13.999
REMARK INTER + INTRA:          -4.848
REMARK INTER:                  -4.723
REMARK INTRA:                  -0.124
REMARK UNBOUND:                -0.128
REMARK SMILES C=C(C)[C@@H]1CC=C(C)CC1
REMARK SMILES IDX 8 1 7 2 6 3 5 4 4 5 10 6 9 7 2 8 1 9 3 10
REMARK H PARENT
REMARK Flexibility Score: inf
ROOT
ATOM      1  C   UNL     1     -41.038 -49.232  29.343  1.00  0.00     0.039 C 
ATOM      2  C   UNL     1     -42.269 -49.657  30.095  1.00  0.00    -0.077 C 
ATOM      3  C   UNL     1     -42.170 -50.644  31.011  1.00  0.00    -0.027 C 
ATOM      4  C   UNL     1     -43.335 -51.104  31.853  1.00  0.00     0.035 C 
ATOM      5  C   UNL     1     -44.689 -50.763  31.207  1.00  0.00     0.018 C 
ATOM      6  C   UNL     1     -44.698 -49.294  30.758  1.00  0.00     0.013 C 
ATOM      7  C   UNL     1     -43.607 -49.054  29.708  1.00  0.00     0.031 C 
ENDROOT
BRANCH   5   8
ATOM      8  C   UNL     1     -45.850 -51.075  32.143  1.00  0.00    -0.077 C 
ATOM      9  C   UNL     1     -46.125 -52.336  32.520  1.00  0.00     0.008 C 
ATOM     10  C   UNL     1     -46.716 -49.960  32.672  1.00  0.00     0.039 C 
ENDBRANCH   5   8
TORSDOF 1
ENDMDL
