MODEL 1
REMARK VINA RESULT:    -4.499      0.000      0.000
REMARK INTER + INTRA:          -6.066
REMARK INTER:                  -5.815
REMARK INTRA:                  -0.251
REMARK UNBOUND:                -0.251
REMARK SMILES C=CC(=O)CCCCC
REMARK SMILES IDX 6 1 7 2 8 3 9 4 5 5 3 6 4 7 2 8 1 9
REMARK H PARENT
REMARK Flexibility Score: inf
ROOT
ATOM      1  C   UNL     1     -26.451  19.489 -33.134  1.00  0.00     0.008 C 
ENDROOT
BRANCH   1   2
ATOM      2  C   UNL     1     -27.918  19.949 -33.087  1.00  0.00     0.000 C 
BRANCH   2   3
ATOM      3  C   UNL     1     -28.155  21.248 -33.872  1.00  0.00    -0.003 C 
ATOM      4  C   UNL     1     -28.284  22.470 -32.964  1.00  0.00     0.004 C 
ENDBRANCH   2   3
ENDBRANCH   1   2
BRANCH   1   5
ATOM      5  C   UNL     1     -25.643  20.232 -34.207  1.00  0.00     0.080 C 
BRANCH   5   6
ATOM      6  C   UNL     1     -24.166  20.155 -33.947  1.00  0.00     0.155 C 
ATOM      7  O   UNL     1     -23.442  19.459 -34.711  1.00  0.00    -0.295 OA
BRANCH   6   8
ATOM      8  C   UNL     1     -23.568  20.912 -32.830  1.00  0.00     0.039 C 
ATOM      9  C   UNL     1     -23.106  20.319 -31.731  1.00  0.00     0.012 C 
ENDBRANCH   6   8
ENDBRANCH   5   6
ENDBRANCH   1   5
TORSDOF 5
ENDMDL
MODEL 2
REMARK VINA RESULT:    -4.453      1.261      1.944
REMARK INTER + INTRA:          -6.006
REMARK INTER:                  -5.827
REMARK INTRA:                  -0.179
REMARK UNBOUND:                -0.251
REMARK SMILES C=CC(=O)CCCCC
REMARK SMILES IDX 6 1 7 2 8 3 9 4 5 5 3 6 4 7 2 8 1 9
REMARK H PARENT
REMARK Flexibility Score: inf
ROOT
ATOM      1  C   UNL     1     -27.379  20.994 -34.201  1.00  0.00     0.008 C 
ENDROOT
BRANCH   1   2
ATOM      2  C   UNL     1     -28.667  21.103 -33.367  1.00  0.00     0.000 C 
BRANCH   2   3
ATOM      3  C   UNL     1     -29.061  19.769 -32.714  1.00  0.00    -0.003 C 
ATOM      4  C   UNL     1     -30.312  19.153 -33.339  1.00  0.00     0.004 C 
ENDBRANCH   2   3
ENDBRANCH   1   2
BRANCH   1   5
ATOM      5  C   UNL     1     -26.290  20.182 -33.486  1.00  0.00     0.080 C 
BRANCH   5   6
ATOM      6  C   UNL     1     -25.033  20.093 -34.303  1.00  0.00     0.155 C 
ATOM      7  O   UNL     1     -25.118  19.879 -35.543  1.00  0.00    -0.295 OA
BRANCH   6   8
ATOM      8  C   UNL     1     -23.716  20.287 -33.663  1.00  0.00     0.039 C 
ATOM      9  C   UNL     1     -23.543  21.085 -32.612  1.00  0.00     0.012 C 
ENDBRANCH   6   8
ENDBRANCH   5   6
ENDBRANCH   1   5
TORSDOF 5
ENDMDL
MODEL 3
REMARK VINA RESULT:    -4.385      1.705      4.237
REMARK INTER + INTRA:          -5.919
REMARK INTER:                  -5.578
REMARK INTRA:                  -0.340
REMARK UNBOUND:                -0.251
REMARK SMILES C=CC(=O)CCCCC
REMARK SMILES IDX 6 1 7 2 8 3 9 4 5 5 3 6 4 7 2 8 1 9
REMARK H PARENT
REMARK Flexibility Score: inf
ROOT
ATOM      1  C   UNL     1     -24.934  19.863 -34.142  1.00  0.00     0.008 C 
ENDROOT
BRANCH   1   2
ATOM      2  C   UNL     1     -23.993  20.664 -33.225  1.00  0.00     0.000 C 
BRANCH   2   3
ATOM      3  C   UNL     1     -23.518  19.850 -32.012  1.00  0.00    -0.003 C 
ATOM      4  C   UNL     1     -24.440  18.673 -31.693  1.00  0.00     0.004 C 
ENDBRANCH   2   3
ENDBRANCH   1   2
BRANCH   1   5
ATOM      5  C   UNL     1     -26.240  20.616 -34.434  1.00  0.00     0.080 C 
BRANCH   5   6
ATOM      6  C   UNL     1     -27.390  20.069 -33.637  1.00  0.00     0.155 C 
ATOM      7  O   UNL     1     -27.465  18.826 -33.438  1.00  0.00    -0.295 OA
BRANCH   6   8
ATOM      8  C   UNL     1     -28.401  20.983 -33.068  1.00  0.00     0.039 C 
ATOM      9  C   UNL     1     -28.224  22.302 -33.018  1.00  0.00     0.012 C 
ENDBRANCH   6   8
ENDBRANCH   5   6
ENDBRANCH   1   5
TORSDOF 5
ENDMDL
MODEL 4
REMARK VINA RESULT:    -4.356      1.551      1.720
REMARK INTER + INTRA:          -5.881
REMARK INTER:                  -5.679
REMARK INTRA:                  -0.202
REMARK UNBOUND:                -0.251
REMARK SMILES C=CC(=O)CCCCC
REMARK SMILES IDX 6 1 7 2 8 3 9 4 5 5 3 6 4 7 2 8 1 9
REMARK H PARENT
REMARK Flexibility Score: inf
ROOT
ATOM      1  C   UNL     1     -27.274  19.068 -32.741  1.00  0.00     0.008 C 
ENDROOT
BRANCH   1   2
ATOM      2  C   UNL     1     -28.375  19.882 -33.442  1.00  0.00     0.000 C 
BRANCH   2   3
ATOM      3  C   UNL     1     -27.871  21.242 -33.950  1.00  0.00    -0.003 C 
ATOM      4  C   UNL     1     -28.252  22.395 -33.022  1.00  0.00     0.004 C 
ENDBRANCH   2   3
ENDBRANCH   1   2
BRANCH   1   5
ATOM      5  C   UNL     1     -25.866  19.561 -33.106  1.00  0.00     0.080 C 
BRANCH   5   6
ATOM      6  C   UNL     1     -24.834  19.070 -32.132  1.00  0.00     0.155 C 
ATOM      7  O   UNL     1     -25.077  18.042 -31.442  1.00  0.00    -0.295 OA
BRANCH   6   8
ATOM      8  C   UNL     1     -23.536  19.765 -32.011  1.00  0.00     0.039 C 
ATOM      9  C   UNL     1     -23.282  20.916 -32.629  1.00  0.00     0.012 C 
ENDBRANCH   6   8
ENDBRANCH   5   6
ENDBRANCH   1   5
TORSDOF 5
ENDMDL
MODEL 5
REMARK VINA RESULT:    -4.346      1.834      4.592
REMARK INTER + INTRA:          -5.868
REMARK INTER:                  -5.668
REMARK INTRA:                  -0.200
REMARK UNBOUND:                -0.251
REMARK SMILES C=CC(=O)CCCCC
REMARK SMILES IDX 6 1 7 2 8 3 9 4 5 5 3 6 4 7 2 8 1 9
REMARK H PARENT
REMARK Flexibility Score: inf
ROOT
ATOM      1  C   UNL     1     -25.600  20.232 -34.620  1.00  0.00     0.008 C 
ENDROOT
BRANCH   1   2
ATOM      2  C   UNL     1     -24.166  19.991 -34.119  1.00  0.00     0.000 C 
BRANCH   2   3
ATOM      3  C   UNL     1     -23.778  20.932 -32.968  1.00  0.00    -0.003 C 
ATOM      4  C   UNL     1     -23.150  20.192 -31.788  1.00  0.00     0.004 C 
ENDBRANCH   2   3
ENDBRANCH   1   2
BRANCH   1   5
ATOM      5  C   UNL     1     -26.547  20.660 -33.489  1.00  0.00     0.080 C 
BRANCH   5   6
ATOM      6  C   UNL     1     -27.667  19.678 -33.298  1.00  0.00     0.155 C 
ATOM      7  O   UNL     1     -27.396  18.488 -32.980  1.00  0.00    -0.295 OA
BRANCH   6   8
ATOM      8  C   UNL     1     -29.070  20.113 -33.448  1.00  0.00     0.039 C 
ATOM      9  C   UNL     1     -30.088  19.254 -33.453  1.00  0.00     0.012 C 
ENDBRANCH   6   8
ENDBRANCH   5   6
ENDBRANCH   1   5
TORSDOF 5
ENDMDL
MODEL 6
REMARK VINA RESULT:    -3.938      7.955      8.899
REMARK INTER + INTRA:          -5.341
REMARK INTER:                  -4.896
REMARK INTRA:                  -0.445
REMARK UNBOUND:                -0.251
REMARK SMILES C=CC(=O)CCCCC
REMARK SMILES IDX 6 1 7 2 8 3 9 4 5 5 3 6 4 7 2 8 1 9
REMARK H PARENT
REMARK Flexibility Score: inf
ROOT
ATOM      1  C   UNL     1     -28.532  11.187 -31.243  1.00  0.00     0.008 C 
ENDROOT
BRANCH   1   2
ATOM      2  C   UNL     1     -29.500  11.015 -30.060  1.00  0.00     0.000 C 
BRANCH   2   3
ATOM      3  C   UNL     1     -29.975  12.359 -29.485  1.00  0.00    -0.003 C 
ATOM      4  C   UNL     1     -29.284  12.714 -28.170  1.00  0.00     0.004 C 
ENDBRANCH   2   3
ENDBRANCH   1   2
BRANCH   1   5
ATOM      5  C   UNL     1     -27.083  11.402 -30.782  1.00  0.00     0.080 C 
BRANCH   5   6
ATOM      6  C   UNL     1     -26.587  12.777 -31.124  1.00  0.00     0.155 C 
ATOM      7  O   UNL     1     -26.615  13.161 -32.326  1.00  0.00    -0.295 OA
BRANCH   6   8
ATOM      8  C   UNL     1     -26.103  13.679 -30.060  1.00  0.00     0.039 C 
ATOM      9  C   UNL     1     -26.360  14.986 -30.059  1.00  0.00     0.012 C 
ENDBRANCH   6   8
ENDBRANCH   5   6
ENDBRANCH   1   5
TORSDOF 5
ENDMDL
MODEL 7
REMARK VINA RESULT:    -3.930     11.326     12.762
REMARK INTER + INTRA:          -5.331
REMARK INTER:                  -4.761
REMARK INTRA:                  -0.570
REMARK UNBOUND:                -0.251
REMARK SMILES C=CC(=O)CCCCC
REMARK SMILES IDX 6 1 7 2 8 3 9 4 5 5 3 6 4 7 2 8 1 9
REMARK H PARENT
REMARK Flexibility Score: inf
ROOT
ATOM      1  C   UNL     1     -14.104  13.871 -32.186  1.00  0.00     0.008 C 
ENDROOT
BRANCH   1   2
ATOM      2  C   UNL     1     -13.950  15.376 -31.912  1.00  0.00     0.000 C 
BRANCH   2   3
ATOM      3  C   UNL     1     -13.616  15.677 -30.443  1.00  0.00    -0.003 C 
ATOM      4  C   UNL     1     -12.862  14.535 -29.764  1.00  0.00     0.004 C 
ENDBRANCH   2   3
ENDBRANCH   1   2
BRANCH   1   5
ATOM      5  C   UNL     1     -15.377  13.553 -32.985  1.00  0.00     0.080 C 
BRANCH   5   6
ATOM      6  C   UNL     1     -16.618  13.949 -32.237  1.00  0.00     0.155 C 
ATOM      7  O   UNL     1     -17.410  14.782 -32.757  1.00  0.00    -0.295 OA
BRANCH   6   8
ATOM      8  C   UNL     1     -16.919  13.345 -30.924  1.00  0.00     0.039 C 
ATOM      9  C   UNL     1     -16.924  14.053 -29.796  1.00  0.00     0.012 C 
ENDBRANCH   6   8
ENDBRANCH   5   6
ENDBRANCH   1   5
TORSDOF 5
ENDMDL
MODEL 8
REMARK VINA RESULT:    -3.896     11.064     12.537
REMARK INTER + INTRA:          -5.287
REMARK INTER:                  -4.877
REMARK INTRA:                  -0.410
REMARK UNBOUND:                -0.251
REMARK SMILES C=CC(=O)CCCCC
REMARK SMILES IDX 6 1 7 2 8 3 9 4 5 5 3 6 4 7 2 8 1 9
REMARK H PARENT
REMARK Flexibility Score: inf
ROOT
ATOM      1  C   UNL     1     -14.518  13.223 -31.594  1.00  0.00     0.008 C 
ENDROOT
BRANCH   1   2
ATOM      2  C   UNL     1     -13.348  14.218 -31.512  1.00  0.00     0.000 C 
BRANCH   2   3
ATOM      3  C   UNL     1     -13.508  15.225 -30.363  1.00  0.00    -0.003 C 
ATOM      4  C   UNL     1     -14.281  16.476 -30.779  1.00  0.00     0.004 C 
ENDBRANCH   2   3
ENDBRANCH   1   2
BRANCH   1   5
ATOM      5  C   UNL     1     -15.504  13.576 -32.717  1.00  0.00     0.080 C 
BRANCH   5   6
ATOM      6  C   UNL     1     -16.816  14.065 -32.174  1.00  0.00     0.155 C 
ATOM      7  O   UNL     1     -17.521  14.842 -32.875  1.00  0.00    -0.295 OA
BRANCH   6   8
ATOM      8  C   UNL     1     -17.288  13.612 -30.850  1.00  0.00     0.039 C 
ATOM      9  C   UNL     1     -18.231  12.683 -30.707  1.00  0.00     0.012 C 
ENDBRANCH   6   8
ENDBRANCH   5   6
ENDBRANCH   1   5
TORSDOF 5
ENDMDL
MODEL 9
REMARK VINA RESULT:    -3.829      8.681     10.018
REMARK INTER + INTRA:          -5.199
REMARK INTER:                  -4.719
REMARK INTRA:                  -0.480
REMARK UNBOUND:                -0.251
REMARK SMILES C=CC(=O)CCCCC
REMARK SMILES IDX 6 1 7 2 8 3 9 4 5 5 3 6 4 7 2 8 1 9
REMARK H PARENT
REMARK Flexibility Score: inf
ROOT
ATOM      1  C   UNL     1     -26.540  11.832 -30.300  1.00  0.00     0.008 C 
ENDROOT
BRANCH   1   2
ATOM      2  C   UNL     1     -25.216  12.324 -29.692  1.00  0.00     0.000 C 
BRANCH   2   3
ATOM      3  C   UNL     1     -25.010  13.836 -29.871  1.00  0.00    -0.003 C 
ATOM      4  C   UNL     1     -26.301  14.567 -30.238  1.00  0.00     0.004 C 
ENDBRANCH   2   3
ENDBRANCH   1   2
BRANCH   1   5
ATOM      5  C   UNL     1     -27.299  10.888 -29.356  1.00  0.00     0.080 C 
BRANCH   5   6
ATOM      6  C   UNL     1     -27.808  11.607 -28.139  1.00  0.00     0.155 C 
ATOM      7  O   UNL     1     -27.308  11.341 -27.012  1.00  0.00    -0.295 OA
BRANCH   6   8
ATOM      8  C   UNL     1     -28.858  12.637 -28.269  1.00  0.00     0.039 C 
ATOM      9  C   UNL     1     -29.885  12.508 -29.107  1.00  0.00     0.012 C 
ENDBRANCH   6   8
ENDBRANCH   5   6
ENDBRANCH   1   5
TORSDOF 5
ENDMDL
