MODEL 1
REMARK VINA RESULT:     7.442      0.000      0.000
REMARK INTER + INTRA:          16.519
REMARK INTER:                  15.707
REMARK INTRA:                   0.811
REMARK UNBOUND:                 0.811
REMARK SMILES CCC(=O)CCCCC[C@@H]1NC(=O)[C@H]2CCCCN2C(=O)[C@@H]([C@H](C)CC)NC(=O)[C@@H](Cc2cn(OC)c3ccccc23)NC1=O
REMARK SMILES IDX 9 1 10 2 44 3 43 4 45 6 30 7 28 8 27 9 29 11 22 12 23 14
REMARK SMILES IDX 24 15 25 16 26 17 31 18 32 19 33 20 42 21 34 22 37 23 41 24
REMARK SMILES IDX 38 25 40 26 39 27 35 28 36 29 11 30 12 31 13 33 14 34 19 35
REMARK SMILES IDX 15 36 18 37 16 38 17 39 20 40 21 41 8 43 7 44 6 45 5 46 3 47
REMARK SMILES IDX 4 48 2 49 1 50
REMARK H PARENT 43 5 27 10 11 32
REMARK Flexibility Score: 80.00
ROOT
ATOM      1  C   UNL     1      12.680   5.445  51.609  1.00  0.00     0.035 C 
ENDROOT
BRANCH   1   2
ATOM      2  C   UNL     1      11.911   5.004  52.871  1.00  0.00     0.171 C 
BRANCH   2   3
ATOM      3  C   UNL     1      12.824   4.733  54.027  1.00  0.00     0.243 C 
ATOM      4  N   UNL     1      12.423   3.795  55.033  1.00  0.00    -0.342 N 
ATOM      5  H   UNL     1      11.729   3.056  54.767  1.00  0.00     0.164 HD
ATOM      6  O   UNL     1      13.864   5.428  54.192  1.00  0.00    -0.273 OA
BRANCH   4   7
ATOM      7  C   UNL     1      12.566   4.118  56.449  1.00  0.00     0.175 C 
BRANCH   7   8
ATOM      8  C   UNL     1      11.364   4.906  56.913  1.00  0.00     0.243 C 
ATOM      9  N   UNL     1      10.721   5.859  56.048  1.00  0.00    -0.342 N 
ATOM     10  H   UNL     1      11.141   6.026  55.108  1.00  0.00     0.164 HD
ATOM     11  O   UNL     1      10.902   4.690  58.067  1.00  0.00    -0.273 OA
BRANCH   9  12
ATOM     12  C   UNL     1       9.382   6.385  56.346  1.00  0.00     0.174 CG0
ATOM     13  G   UNL     1       9.132   7.704  55.627  1.00  0.00     0.000 G0
BRANCH  12  14
ATOM     14  C   UNL     1       8.285   5.291  56.161  1.00  0.00     0.018 C 
ATOM     15  C   UNL     1       7.403   5.056  57.401  1.00  0.00     0.010 C 
BRANCH  14  16
ATOM     16  C   UNL     1       8.891   3.976  55.612  1.00  0.00     0.002 C 
ATOM     17  C   UNL     1       7.856   3.088  54.918  1.00  0.00     0.004 C 
ENDBRANCH  14  16
ENDBRANCH  12  14
ENDBRANCH   9  12
ENDBRANCH   7   8
BRANCH   7  18
ATOM     18  C   UNL     1      12.751   2.828  57.267  1.00  0.00     0.073 C 
BRANCH  18  19
ATOM     19  C   UNL     1      14.120   2.239  57.074  1.00  0.00    -0.016 A 
ATOM     20  C   UNL     1      14.974   2.485  56.011  1.00  0.00     0.134 A 
ATOM     21  C   UNL     1      14.831   1.448  57.955  1.00  0.00     0.006 A 
ATOM     22  N   UNL     1      16.162   1.871  56.207  1.00  0.00    -0.191 N 
ATOM     23  C   UNL     1      16.077   1.233  57.405  1.00  0.00     0.087 A 
ATOM     24  C   UNL     1      14.459   0.917  59.188  1.00  0.00     0.011 A 
ATOM     25  C   UNL     1      17.033   0.473  58.097  1.00  0.00     0.030 A 
ATOM     26  C   UNL     1      15.405   0.161  59.896  1.00  0.00     0.001 A 
ATOM     27  C   UNL     1      16.686  -0.058  59.354  1.00  0.00     0.002 A 
BRANCH  22  28
ATOM     28  O   UNL     1      17.198   1.964  55.290  1.00  0.00    -0.417 OA
ATOM     29  C   UNL     1      17.253   2.890  54.217  1.00  0.00     0.313 C 
ENDBRANCH  22  28
ENDBRANCH  18  19
ENDBRANCH   7  18
ENDBRANCH   4   7
ENDBRANCH   2   3
BRANCH   2  30
ATOM     30  N   UNL     1      10.959   6.035  53.279  1.00  0.00    -0.343 N 
ATOM     31  C   UNL     1      11.278   7.433  53.262  1.00  0.00     0.243 C 
ATOM     32  H   UNL     1       9.964   5.747  53.455  1.00  0.00     0.164 HD
ATOM     33  O   UNL     1      12.475   7.808  53.160  1.00  0.00    -0.273 OA
BRANCH  31  34
ATOM     34  C   UNL     1      10.188   8.442  53.486  1.00  0.00     0.174 C 
ATOM     35  N   UNL     1       9.031   7.841  54.190  1.00  0.00    -0.329 N 
ATOM     36  C   UNL     1       9.789   9.048  52.126  1.00  0.00     0.035 C 
ATOM     37  C   UNL     1       7.695   8.021  53.596  1.00  0.00     0.120 C 
ATOM     38  C   UNL     1       8.598  10.009  52.263  1.00  0.00     0.004 C 
ATOM     39  C   UNL     1       7.490   9.488  53.203  1.00  0.00     0.022 C 
BRANCH  35  40
ATOM     40  C   UNL     1       9.105   7.723  55.624  1.00  0.00     0.246 CG0
ATOM     41  O   UNL     1       9.001   8.772  56.318  1.00  0.00    -0.272 OA
ATOM     42  G   UNL     1       9.375   6.404  56.337  1.00  0.00     0.000 G0
ENDBRANCH  35  40
ENDBRANCH  31  34
ENDBRANCH   2  30
ENDBRANCH   1   2
BRANCH   1  43
ATOM     43  C   UNL     1      11.766   5.640  50.381  1.00  0.00     0.003 C 
BRANCH  43  44
ATOM     44  C   UNL     1      11.383   7.113  50.137  1.00  0.00     0.001 C 
BRANCH  44  45
ATOM     45  C   UNL     1      10.647   7.311  48.802  1.00  0.00     0.008 C 
BRANCH  45  46
ATOM     46  C   UNL     1      10.716   8.764  48.302  1.00  0.00     0.075 C 
BRANCH  46  47
ATOM     47  C   UNL     1      11.113   8.805  46.849  1.00  0.00     0.132 C 
ATOM     48  O   UNL     1      11.797   7.903  46.385  1.00  0.00    -0.300 OA
BRANCH  47  49
ATOM     49  C   UNL     1      10.683   9.938  45.953  1.00  0.00     0.072 C 
ATOM     50  C   UNL     1      11.496   9.936  44.665  1.00  0.00     0.012 C 
ENDBRANCH  47  49
ENDBRANCH  46  47
ENDBRANCH  45  46
ENDBRANCH  44  45
ENDBRANCH  43  44
ENDBRANCH   1  43
TORSDOF 12
ENDMDL
MODEL 2
REMARK VINA RESULT:     9.554      1.289      2.115
REMARK INTER + INTRA:          20.977
REMARK INTER:                  17.428
REMARK INTRA:                   3.550
REMARK UNBOUND:                 0.811
REMARK SMILES CCC(=O)CCCCC[C@@H]1NC(=O)[C@H]2CCCCN2C(=O)[C@@H]([C@H](C)CC)NC(=O)[C@@H](Cc2cn(OC)c3ccccc23)NC1=O
REMARK SMILES IDX 9 1 10 2 44 3 43 4 45 6 30 7 28 8 27 9 29 11 22 12 23 14
REMARK SMILES IDX 24 15 25 16 26 17 31 18 32 19 33 20 42 21 34 22 37 23 41 24
REMARK SMILES IDX 38 25 40 26 39 27 35 28 36 29 11 30 12 31 13 33 14 34 19 35
REMARK SMILES IDX 15 36 18 37 16 38 17 39 20 40 21 41 8 43 7 44 6 45 5 46 3 47
REMARK SMILES IDX 4 48 2 49 1 50
REMARK H PARENT 43 5 27 10 11 32
REMARK Flexibility Score: 80.00
ROOT
ATOM      1  C   UNL     1      12.203   4.818  51.537  1.00  0.00     0.035 C 
ENDROOT
BRANCH   1   2
ATOM      2  C   UNL     1      11.520   4.549  52.893  1.00  0.00     0.171 C 
BRANCH   2   3
ATOM      3  C   UNL     1      12.481   4.038  53.923  1.00  0.00     0.243 C 
ATOM      4  N   UNL     1      11.996   3.213  54.988  1.00  0.00    -0.342 N 
ATOM      5  H   UNL     1      11.110   2.675  54.830  1.00  0.00     0.164 HD
ATOM      6  O   UNL     1      13.675   4.448  53.937  1.00  0.00    -0.273 OA
BRANCH   4   7
ATOM      7  C   UNL     1      12.401   3.466  56.368  1.00  0.00     0.175 C 
BRANCH   7   8
ATOM      8  C   UNL     1      11.554   4.572  56.950  1.00  0.00     0.243 C 
ATOM      9  N   UNL     1      10.998   5.602  56.113  1.00  0.00    -0.342 N 
ATOM     10  H   UNL     1      11.239   5.589  55.099  1.00  0.00     0.164 HD
ATOM     11  O   UNL     1      11.307   4.562  58.187  1.00  0.00    -0.273 OA
BRANCH   9  12
ATOM     12  C   UNL     1       9.922   6.481  56.592  1.00  0.00     0.174 CG0
ATOM     13  G   UNL     1       9.890   7.790  55.813  1.00  0.00     0.000 G0
BRANCH  12  14
ATOM     14  C   UNL     1       8.565   5.718  56.696  1.00  0.00     0.018 C 
ATOM     15  C   UNL     1       7.794   5.967  58.005  1.00  0.00     0.010 C 
BRANCH  14  16
ATOM     16  C   UNL     1       8.745   4.210  56.395  1.00  0.00     0.002 C 
ATOM     17  C   UNL     1       8.741   3.897  54.898  1.00  0.00     0.004 C 
ENDBRANCH  14  16
ENDBRANCH  12  14
ENDBRANCH   9  12
ENDBRANCH   7   8
BRANCH   7  18
ATOM     18  C   UNL     1      12.293   2.171  57.193  1.00  0.00     0.073 C 
BRANCH  18  19
ATOM     19  C   UNL     1      13.640   1.696  57.660  1.00  0.00    -0.016 A 
ATOM     20  C   UNL     1      13.928   1.138  58.895  1.00  0.00     0.134 A 
ATOM     21  C   UNL     1      14.807   1.613  56.927  1.00  0.00     0.006 A 
ATOM     22  N   UNL     1      15.216   0.732  58.942  1.00  0.00    -0.191 N 
ATOM     23  C   UNL     1      15.760   1.022  57.729  1.00  0.00     0.087 A 
ATOM     24  C   UNL     1      15.079   2.015  55.620  1.00  0.00     0.011 A 
ATOM     25  C   UNL     1      17.052   0.786  57.235  1.00  0.00     0.030 A 
ATOM     26  C   UNL     1      16.364   1.779  55.109  1.00  0.00     0.001 A 
ATOM     27  C   UNL     1      17.344   1.166  55.911  1.00  0.00     0.002 A 
BRANCH  22  28
ATOM     28  O   UNL     1      15.758   0.133  60.069  1.00  0.00    -0.417 OA
ATOM     29  C   UNL     1      17.028  -0.496  60.123  1.00  0.00     0.313 C 
ENDBRANCH  22  28
ENDBRANCH  18  19
ENDBRANCH   7  18
ENDBRANCH   4   7
ENDBRANCH   2   3
BRANCH   2  30
ATOM     30  N   UNL     1      10.909   5.770  53.414  1.00  0.00    -0.343 N 
ATOM     31  C   UNL     1      11.409   7.078  53.103  1.00  0.00     0.243 C 
ATOM     32  H   UNL     1       9.989   5.688  53.914  1.00  0.00     0.164 HD
ATOM     33  O   UNL     1      12.554   7.214  52.599  1.00  0.00    -0.273 OA
BRANCH  31  34
ATOM     34  C   UNL     1      10.607   8.287  53.492  1.00  0.00     0.174 C 
ATOM     35  N   UNL     1       9.533   7.938  54.452  1.00  0.00    -0.329 N 
ATOM     36  C   UNL     1      10.050   8.944  52.213  1.00  0.00     0.035 C 
ATOM     37  C   UNL     1       8.162   8.374  54.138  1.00  0.00     0.120 C 
ATOM     38  C   UNL     1       9.124  10.125  52.541  1.00  0.00     0.004 C 
ATOM     39  C   UNL     1       8.164   9.847  53.717  1.00  0.00     0.022 C 
BRANCH  35  40
ATOM     40  C   UNL     1       9.888   7.825  55.844  1.00  0.00     0.246 CG0
ATOM     41  O   UNL     1      10.272   8.864  56.451  1.00  0.00    -0.272 OA
ATOM     42  G   UNL     1       9.892   6.501  56.597  1.00  0.00     0.000 G0
ENDBRANCH  35  40
ENDBRANCH  31  34
ENDBRANCH   2  30
ENDBRANCH   1   2
BRANCH   1  43
ATOM     43  C   UNL     1      11.198   5.092  50.398  1.00  0.00     0.003 C 
BRANCH  43  44
ATOM     44  C   UNL     1      10.814   6.579  50.273  1.00  0.00     0.001 C 
BRANCH  44  45
ATOM     45  C   UNL     1       9.791   6.824  49.151  1.00  0.00     0.008 C 
BRANCH  45  46
ATOM     46  C   UNL     1      10.461   7.073  47.789  1.00  0.00     0.075 C 
BRANCH  46  47
ATOM     47  C   UNL     1      10.637   8.550  47.548  1.00  0.00     0.132 C 
ATOM     48  O   UNL     1      10.647   8.977  46.402  1.00  0.00    -0.300 OA
BRANCH  47  49
ATOM     49  C   UNL     1      10.802   9.514  48.694  1.00  0.00     0.072 C 
ATOM     50  C   UNL     1       9.442   9.991  49.189  1.00  0.00     0.012 C 
ENDBRANCH  47  49
ENDBRANCH  46  47
ENDBRANCH  45  46
ENDBRANCH  44  45
ENDBRANCH  43  44
ENDBRANCH   1  43
TORSDOF 12
ENDMDL
