MODEL 1
REMARK VINA RESULT:    -3.333      0.000      0.000
REMARK INTER + INTRA:          -4.846
REMARK INTER:                  -4.502
REMARK INTRA:                  -0.344
REMARK UNBOUND:                -0.344
REMARK SMILES CCCCCCCC(=O)[O-]
REMARK SMILES IDX 5 1 6 2 7 3 8 4 9 5 10 6 4 7 3 8 2 9 1 10
REMARK H PARENT
REMARK Flexibility Score: inf
ROOT
ATOM      1  C   UNL     1     -95.894 148.640 239.320  1.00  0.00     0.000 C 
ENDROOT
BRANCH   1   2
ATOM      2  C   UNL     1     -95.483 149.002 240.756  1.00  0.00     0.006 C 
BRANCH   2   3
ATOM      3  C   UNL     1     -96.551 149.828 241.485  1.00  0.00     0.053 C 
BRANCH   3   4
ATOM      4  C   UNL     1     -97.296 148.973 242.461  1.00  0.00     0.041 C 
ATOM      5  O   UNL     1     -98.153 149.486 243.228  1.00  0.00    -0.550 OA
ATOM      6  O   UNL     1     -97.008 147.617 242.559  1.00  0.00    -0.550 OA
ENDBRANCH   3   4
ENDBRANCH   2   3
ENDBRANCH   1   2
BRANCH   1   7
ATOM      7  C   UNL     1     -94.693 148.237 238.445  1.00  0.00     0.000 C 
BRANCH   7   8
ATOM      8  C   UNL     1     -93.449 147.885 239.275  1.00  0.00    -0.000 C 
BRANCH   8   9
ATOM      9  C   UNL     1     -93.046 146.409 239.136  1.00  0.00    -0.003 C 
ATOM     10  C   UNL     1     -93.573 145.583 240.305  1.00  0.00     0.004 C 
ENDBRANCH   8   9
ENDBRANCH   7   8
ENDBRANCH   1   7
TORSDOF 6
ENDMDL
MODEL 2
REMARK VINA RESULT:    -3.320      2.739      4.988
REMARK INTER + INTRA:          -4.828
REMARK INTER:                  -4.455
REMARK INTRA:                  -0.374
REMARK UNBOUND:                -0.344
REMARK SMILES CCCCCCCC(=O)[O-]
REMARK SMILES IDX 5 1 6 2 7 3 8 4 9 5 10 6 4 7 3 8 2 9 1 10
REMARK H PARENT
REMARK Flexibility Score: inf
ROOT
ATOM      1  C   UNL     1     -95.358 148.696 238.328  1.00  0.00     0.000 C 
ENDROOT
BRANCH   1   2
ATOM      2  C   UNL     1     -93.931 148.295 238.737  1.00  0.00     0.006 C 
BRANCH   2   3
ATOM      3  C   UNL     1     -93.529 146.916 238.199  1.00  0.00     0.053 C 
BRANCH   3   4
ATOM      4  C   UNL     1     -92.755 146.158 239.231  1.00  0.00     0.041 C 
ATOM      5  O   UNL     1     -91.525 145.942 239.069  1.00  0.00    -0.550 OA
ATOM      6  O   UNL     1     -93.403 145.648 240.348  1.00  0.00    -0.550 OA
ENDBRANCH   3   4
ENDBRANCH   2   3
ENDBRANCH   1   2
BRANCH   1   7
ATOM      7  C   UNL     1     -96.415 148.248 239.352  1.00  0.00     0.000 C 
BRANCH   7   8
ATOM      8  C   UNL     1     -95.926 148.384 240.803  1.00  0.00    -0.000 C 
BRANCH   8   9
ATOM      9  C   UNL     1     -96.226 149.768 241.399  1.00  0.00    -0.003 C 
ATOM     10  C   UNL     1     -97.702 150.123 241.246  1.00  0.00     0.004 C 
ENDBRANCH   8   9
ENDBRANCH   7   8
ENDBRANCH   1   7
TORSDOF 6
ENDMDL
MODEL 3
REMARK VINA RESULT:    -3.319      2.068      3.213
REMARK INTER + INTRA:          -4.827
REMARK INTER:                  -4.543
REMARK INTRA:                  -0.284
REMARK UNBOUND:                -0.344
REMARK SMILES CCCCCCCC(=O)[O-]
REMARK SMILES IDX 5 1 6 2 7 3 8 4 9 5 10 6 4 7 3 8 2 9 1 10
REMARK H PARENT
REMARK Flexibility Score: inf
ROOT
ATOM      1  C   UNL     1     -93.470 146.532 239.035  1.00  0.00     0.000 C 
ENDROOT
BRANCH   1   2
ATOM      2  C   UNL     1     -93.542 147.996 239.497  1.00  0.00     0.006 C 
BRANCH   2   3
ATOM      3  C   UNL     1     -94.965 148.566 239.433  1.00  0.00     0.053 C 
BRANCH   3   4
ATOM      4  C   UNL     1     -95.546 148.672 240.808  1.00  0.00     0.041 C 
ATOM      5  O   UNL     1     -95.856 149.797 241.280  1.00  0.00    -0.550 OA
ATOM      6  O   UNL     1     -95.699 147.533 241.588  1.00  0.00    -0.550 OA
ENDBRANCH   3   4
ENDBRANCH   2   3
ENDBRANCH   1   2
BRANCH   1   7
ATOM      7  C   UNL     1     -92.024 146.030 238.881  1.00  0.00     0.000 C 
BRANCH   7   8
ATOM      8  C   UNL     1     -91.680 145.654 237.431  1.00  0.00    -0.000 C 
BRANCH   8   9
ATOM      9  C   UNL     1     -92.862 145.863 236.471  1.00  0.00    -0.003 C 
ATOM     10  C   UNL     1     -92.374 146.183 235.062  1.00  0.00     0.004 C 
ENDBRANCH   8   9
ENDBRANCH   7   8
ENDBRANCH   1   7
TORSDOF 6
ENDMDL
MODEL 4
REMARK VINA RESULT:    -3.273      2.706      5.230
REMARK INTER + INTRA:          -4.766
REMARK INTER:                  -4.552
REMARK INTRA:                  -0.214
REMARK UNBOUND:                -0.344
REMARK SMILES CCCCCCCC(=O)[O-]
REMARK SMILES IDX 5 1 6 2 7 3 8 4 9 5 10 6 4 7 3 8 2 9 1 10
REMARK H PARENT
REMARK Flexibility Score: inf
ROOT
ATOM      1  C   UNL     1     -95.810 148.802 240.329  1.00  0.00     0.000 C 
ENDROOT
BRANCH   1   2
ATOM      2  C   UNL     1     -94.398 148.227 240.523  1.00  0.00     0.006 C 
BRANCH   2   3
ATOM      3  C   UNL     1     -93.770 147.750 239.207  1.00  0.00     0.053 C 
BRANCH   3   4
ATOM      4  C   UNL     1     -93.097 146.427 239.399  1.00  0.00     0.041 C 
ATOM      5  O   UNL     1     -93.438 145.674 240.348  1.00  0.00    -0.550 OA
ATOM      6  O   UNL     1     -92.059 146.048 238.558  1.00  0.00    -0.550 OA
ENDBRANCH   3   4
ENDBRANCH   2   3
ENDBRANCH   1   2
BRANCH   1   7
ATOM      7  C   UNL     1     -96.194 149.809 241.428  1.00  0.00     0.000 C 
BRANCH   7   8
ATOM      8  C   UNL     1     -97.712 150.023 241.528  1.00  0.00    -0.000 C 
BRANCH   8   9
ATOM      9  C   UNL     1     -98.239 149.851 242.961  1.00  0.00    -0.003 C 
ATOM     10  C   UNL     1     -97.789 148.520 243.555  1.00  0.00     0.004 C 
ENDBRANCH   8   9
ENDBRANCH   7   8
ENDBRANCH   1   7
TORSDOF 6
ENDMDL
MODEL 5
REMARK VINA RESULT:    -3.250      1.160      1.921
REMARK INTER + INTRA:          -4.734
REMARK INTER:                  -4.532
REMARK INTRA:                  -0.201
REMARK UNBOUND:                -0.344
REMARK SMILES CCCCCCCC(=O)[O-]
REMARK SMILES IDX 5 1 6 2 7 3 8 4 9 5 10 6 4 7 3 8 2 9 1 10
REMARK H PARENT
REMARK Flexibility Score: inf
ROOT
ATOM      1  C   UNL     1     -94.756 148.520 238.611  1.00  0.00     0.000 C 
ENDROOT
BRANCH   1   2
ATOM      2  C   UNL     1     -95.985 148.628 239.528  1.00  0.00     0.006 C 
BRANCH   2   3
ATOM      3  C   UNL     1     -95.619 149.056 240.955  1.00  0.00     0.053 C 
BRANCH   3   4
ATOM      4  C   UNL     1     -96.855 149.352 241.745  1.00  0.00     0.041 C 
ATOM      5  O   UNL     1     -97.258 148.540 242.619  1.00  0.00    -0.550 OA
ATOM      6  O   UNL     1     -97.590 150.500 241.480  1.00  0.00    -0.550 OA
ENDBRANCH   3   4
ENDBRANCH   2   3
ENDBRANCH   1   2
BRANCH   1   7
ATOM      7  C   UNL     1     -93.540 147.902 239.323  1.00  0.00     0.000 C 
BRANCH   7   8
ATOM      8  C   UNL     1     -93.405 146.394 239.061  1.00  0.00    -0.000 C 
BRANCH   8   9
ATOM      9  C   UNL     1     -91.997 146.000 238.590  1.00  0.00    -0.003 C 
ATOM     10  C   UNL     1     -91.998 145.624 237.111  1.00  0.00     0.004 C 
ENDBRANCH   8   9
ENDBRANCH   7   8
ENDBRANCH   1   7
TORSDOF 6
ENDMDL
MODEL 6
REMARK VINA RESULT:    -3.237      1.372      2.279
REMARK INTER + INTRA:          -4.716
REMARK INTER:                  -4.303
REMARK INTRA:                  -0.413
REMARK UNBOUND:                -0.344
REMARK SMILES CCCCCCCC(=O)[O-]
REMARK SMILES IDX 5 1 6 2 7 3 8 4 9 5 10 6 4 7 3 8 2 9 1 10
REMARK H PARENT
REMARK Flexibility Score: inf
ROOT
ATOM      1  C   UNL     1     -94.608 147.357 241.107  1.00  0.00     0.000 C 
ENDROOT
BRANCH   1   2
ATOM      2  C   UNL     1     -96.036 147.886 241.313  1.00  0.00     0.006 C 
BRANCH   2   3
ATOM      3  C   UNL     1     -96.123 149.413 241.184  1.00  0.00     0.053 C 
BRANCH   3   4
ATOM      4  C   UNL     1     -97.433 149.908 241.713  1.00  0.00     0.041 C 
ATOM      5  O   UNL     1     -97.755 149.692 242.910  1.00  0.00    -0.550 OA
ATOM      6  O   UNL     1     -98.319 150.564 240.868  1.00  0.00    -0.550 OA
ENDBRANCH   3   4
ENDBRANCH   2   3
ENDBRANCH   1   2
BRANCH   1   7
ATOM      7  C   UNL     1     -93.855 148.106 239.993  1.00  0.00     0.000 C 
BRANCH   7   8
ATOM      8  C   UNL     1     -93.441 147.183 238.836  1.00  0.00    -0.000 C 
BRANCH   8   9
ATOM      9  C   UNL     1     -94.220 147.473 237.543  1.00  0.00    -0.003 C 
ATOM     10  C   UNL     1     -94.999 148.781 237.653  1.00  0.00     0.004 C 
ENDBRANCH   8   9
ENDBRANCH   7   8
ENDBRANCH   1   7
TORSDOF 6
ENDMDL
MODEL 7
REMARK VINA RESULT:    -3.217      3.578      5.526
REMARK INTER + INTRA:          -4.690
REMARK INTER:                  -4.463
REMARK INTRA:                  -0.227
REMARK UNBOUND:                -0.344
REMARK SMILES CCCCCCCC(=O)[O-]
REMARK SMILES IDX 5 1 6 2 7 3 8 4 9 5 10 6 4 7 3 8 2 9 1 10
REMARK H PARENT
REMARK Flexibility Score: inf
ROOT
ATOM      1  C   UNL     1     -95.517 148.654 239.254  1.00  0.00     0.000 C 
ENDROOT
BRANCH   1   2
ATOM      2  C   UNL     1     -94.216 148.304 238.514  1.00  0.00     0.006 C 
BRANCH   2   3
ATOM      3  C   UNL     1     -93.342 147.313 239.294  1.00  0.00     0.053 C 
BRANCH   3   4
ATOM      4  C   UNL     1     -92.675 146.355 238.358  1.00  0.00     0.041 C 
ATOM      5  O   UNL     1     -91.630 145.748 238.711  1.00  0.00    -0.550 OA
ATOM      6  O   UNL     1     -93.180 146.171 237.077  1.00  0.00    -0.550 OA
ENDBRANCH   3   4
ENDBRANCH   2   3
ENDBRANCH   1   2
BRANCH   1   7
ATOM      7  C   UNL     1     -95.298 148.878 240.760  1.00  0.00     0.000 C 
BRANCH   7   8
ATOM      8  C   UNL     1     -96.614 148.886 241.554  1.00  0.00    -0.000 C 
BRANCH   8   9
ATOM      9  C   UNL     1     -97.307 150.257 241.533  1.00  0.00    -0.003 C 
ATOM     10  C   UNL     1     -98.605 150.204 240.732  1.00  0.00     0.004 C 
ENDBRANCH   8   9
ENDBRANCH   7   8
ENDBRANCH   1   7
TORSDOF 6
ENDMDL
MODEL 8
REMARK VINA RESULT:    -3.183      2.229      3.038
REMARK INTER + INTRA:          -4.644
REMARK INTER:                  -4.167
REMARK INTRA:                  -0.477
REMARK UNBOUND:                -0.344
REMARK SMILES CCCCCCCC(=O)[O-]
REMARK SMILES IDX 5 1 6 2 7 3 8 4 9 5 10 6 4 7 3 8 2 9 1 10
REMARK H PARENT
REMARK Flexibility Score: inf
ROOT
ATOM      1  C   UNL     1     -94.954 148.285 238.196  1.00  0.00     0.000 C 
ENDROOT
BRANCH   1   2
ATOM      2  C   UNL     1     -93.851 148.378 239.262  1.00  0.00     0.006 C 
BRANCH   2   3
ATOM      3  C   UNL     1     -94.411 148.376 240.691  1.00  0.00     0.053 C 
BRANCH   3   4
ATOM      4  C   UNL     1     -94.641 146.973 241.159  1.00  0.00     0.041 C 
ATOM      5  O   UNL     1     -93.856 146.052 240.811  1.00  0.00    -0.550 OA
ATOM      6  O   UNL     1     -95.751 146.674 241.938  1.00  0.00    -0.550 OA
ENDBRANCH   3   4
ENDBRANCH   2   3
ENDBRANCH   1   2
BRANCH   1   7
ATOM      7  C   UNL     1     -94.503 147.512 236.944  1.00  0.00     0.000 C 
BRANCH   7   8
ATOM      8  C   UNL     1     -93.922 146.129 237.282  1.00  0.00    -0.000 C 
BRANCH   8   9
ATOM      9  C   UNL     1     -92.474 145.963 236.796  1.00  0.00    -0.003 C 
ATOM     10  C   UNL     1     -91.536 145.666 237.962  1.00  0.00     0.004 C 
ENDBRANCH   8   9
ENDBRANCH   7   8
ENDBRANCH   1   7
TORSDOF 6
ENDMDL
MODEL 9
REMARK VINA RESULT:    -3.146      2.974      4.658
REMARK INTER + INTRA:          -4.593
REMARK INTER:                  -4.121
REMARK INTRA:                  -0.472
REMARK UNBOUND:                -0.344
REMARK SMILES CCCCCCCC(=O)[O-]
REMARK SMILES IDX 5 1 6 2 7 3 8 4 9 5 10 6 4 7 3 8 2 9 1 10
REMARK H PARENT
REMARK Flexibility Score: inf
ROOT
ATOM      1  C   UNL     1     -95.320 148.688 239.243  1.00  0.00     0.000 C 
ENDROOT
BRANCH   1   2
ATOM      2  C   UNL     1     -93.902 148.317 238.779  1.00  0.00     0.006 C 
BRANCH   2   3
ATOM      3  C   UNL     1     -93.790 146.851 238.341  1.00  0.00     0.053 C 
BRANCH   3   4
ATOM      4  C   UNL     1     -92.869 146.103 239.252  1.00  0.00     0.041 C 
ATOM      5  O   UNL     1     -91.649 145.987 238.964  1.00  0.00    -0.550 OA
ATOM      6  O   UNL     1     -93.368 145.490 240.394  1.00  0.00    -0.550 OA
ENDBRANCH   3   4
ENDBRANCH   2   3
ENDBRANCH   1   2
BRANCH   1   7
ATOM      7  C   UNL     1     -95.382 149.021 240.744  1.00  0.00     0.000 C 
BRANCH   7   8
ATOM      8  C   UNL     1     -96.547 148.316 241.458  1.00  0.00    -0.000 C 
BRANCH   8   9
ATOM      9  C   UNL     1     -96.182 146.897 241.921  1.00  0.00    -0.003 C 
ATOM     10  C   UNL     1     -96.848 145.844 241.039  1.00  0.00     0.004 C 
ENDBRANCH   8   9
ENDBRANCH   7   8
ENDBRANCH   1   7
TORSDOF 6
ENDMDL
