MODEL 1
REMARK VINA RESULT:    -3.287      0.000      0.000
REMARK INTER + INTRA:          -4.945
REMARK INTER:                  -4.440
REMARK INTRA:                  -0.505
REMARK UNBOUND:                -0.505
REMARK SMILES CCCCCCCC(=O)[O-]
REMARK SMILES IDX 5 1 6 2 7 3 8 4 9 5 10 6 4 7 3 8 2 9 1 10
REMARK H PARENT
REMARK Flexibility Score: inf
ROOT
ATOM      1  C   UNL     1     178.932 172.999 188.523  1.00  0.00     0.000 C 
ENDROOT
BRANCH   1   2
ATOM      2  C   UNL     1     179.377 173.043 187.053  1.00  0.00     0.006 C 
BRANCH   2   3
ATOM      3  C   UNL     1     178.200 173.387 186.135  1.00  0.00     0.053 C 
BRANCH   3   4
ATOM      4  C   UNL     1     178.276 174.816 185.702  1.00  0.00     0.041 C 
ATOM      5  O   UNL     1     179.067 175.160 184.783  1.00  0.00    -0.550 OA
ATOM      6  O   UNL     1     177.509 175.780 186.345  1.00  0.00    -0.550 OA
ENDBRANCH   3   4
ENDBRANCH   2   3
ENDBRANCH   1   2
BRANCH   1   7
ATOM      7  C   UNL     1     179.076 174.358 189.233  1.00  0.00     0.000 C 
BRANCH   7   8
ATOM      8  C   UNL     1     177.813 174.846 189.972  1.00  0.00    -0.000 C 
BRANCH   8   9
ATOM      9  C   UNL     1     176.489 174.256 189.456  1.00  0.00    -0.003 C 
ATOM     10  C   UNL     1     175.778 173.388 190.494  1.00  0.00     0.004 C 
ENDBRANCH   8   9
ENDBRANCH   7   8
ENDBRANCH   1   7
TORSDOF 6
ENDMDL
MODEL 2
REMARK VINA RESULT:    -3.193     10.335     11.004
REMARK INTER + INTRA:          -4.817
REMARK INTER:                  -4.261
REMARK INTRA:                  -0.556
REMARK UNBOUND:                -0.505
REMARK SMILES CCCCCCCC(=O)[O-]
REMARK SMILES IDX 5 1 6 2 7 3 8 4 9 5 10 6 4 7 3 8 2 9 1 10
REMARK H PARENT
REMARK Flexibility Score: inf
ROOT
ATOM      1  C   UNL     1     176.323 165.049 188.644  1.00  0.00     0.000 C 
ENDROOT
BRANCH   1   2
ATOM      2  C   UNL     1     177.751 165.009 188.081  1.00  0.00     0.006 C 
BRANCH   2   3
ATOM      3  C   UNL     1     177.738 165.080 186.552  1.00  0.00     0.053 C 
BRANCH   3   4
ATOM      4  C   UNL     1     177.271 163.784 185.971  1.00  0.00     0.041 C 
ATOM      5  O   UNL     1     176.085 163.661 185.565  1.00  0.00    -0.550 OA
ATOM      6  O   UNL     1     178.130 162.693 185.923  1.00  0.00    -0.550 OA
ENDBRANCH   3   4
ENDBRANCH   2   3
ENDBRANCH   1   2
BRANCH   1   7
ATOM      7  C   UNL     1     176.063 163.956 189.697  1.00  0.00     0.000 C 
BRANCH   7   8
ATOM      8  C   UNL     1     177.113 162.826 189.740  1.00  0.00    -0.000 C 
BRANCH   8   9
ATOM      9  C   UNL     1     176.769 161.589 188.892  1.00  0.00    -0.003 C 
ATOM     10  C   UNL     1     175.333 161.606 188.369  1.00  0.00     0.004 C 
ENDBRANCH   8   9
ENDBRANCH   7   8
ENDBRANCH   1   7
TORSDOF 6
ENDMDL
MODEL 3
REMARK VINA RESULT:    -3.139     11.092     11.952
REMARK INTER + INTRA:          -4.744
REMARK INTER:                  -4.287
REMARK INTRA:                  -0.457
REMARK UNBOUND:                -0.505
REMARK SMILES CCCCCCCC(=O)[O-]
REMARK SMILES IDX 5 1 6 2 7 3 8 4 9 5 10 6 4 7 3 8 2 9 1 10
REMARK H PARENT
REMARK Flexibility Score: inf
ROOT
ATOM      1  C   UNL     1     176.727 163.147 188.074  1.00  0.00     0.000 C 
ENDROOT
BRANCH   1   2
ATOM      2  C   UNL     1     177.096 164.287 189.034  1.00  0.00     0.006 C 
BRANCH   2   3
ATOM      3  C   UNL     1     176.299 164.185 190.337  1.00  0.00     0.053 C 
BRANCH   3   4
ATOM      4  C   UNL     1     174.956 164.825 190.181  1.00  0.00     0.041 C 
ATOM      5  O   UNL     1     173.921 164.236 190.588  1.00  0.00    -0.550 OA
ATOM      6  O   UNL     1     174.842 166.053 189.541  1.00  0.00    -0.550 OA
ENDBRANCH   3   4
ENDBRANCH   2   3
ENDBRANCH   1   2
BRANCH   1   7
ATOM      7  C   UNL     1     176.799 161.759 188.735  1.00  0.00     0.000 C 
BRANCH   7   8
ATOM      8  C   UNL     1     175.623 160.816 188.408  1.00  0.00    -0.000 C 
BRANCH   8   9
ATOM      9  C   UNL     1     174.243 161.495 188.352  1.00  0.00    -0.003 C 
ATOM     10  C   UNL     1     173.101 160.558 188.746  1.00  0.00     0.004 C 
ENDBRANCH   8   9
ENDBRANCH   7   8
ENDBRANCH   1   7
TORSDOF 6
ENDMDL
MODEL 4
REMARK VINA RESULT:    -3.137      3.845      4.489
REMARK INTER + INTRA:          -4.742
REMARK INTER:                  -4.561
REMARK INTRA:                  -0.181
REMARK UNBOUND:                -0.505
REMARK SMILES CCCCCCCC(=O)[O-]
REMARK SMILES IDX 5 1 6 2 7 3 8 4 9 5 10 6 4 7 3 8 2 9 1 10
REMARK H PARENT
REMARK Flexibility Score: inf
ROOT
ATOM      1  C   UNL     1     175.470 176.095 187.784  1.00  0.00     0.000 C 
ENDROOT
BRANCH   1   2
ATOM      2  C   UNL     1     176.738 175.544 188.454  1.00  0.00     0.006 C 
BRANCH   2   3
ATOM      3  C   UNL     1     177.226 174.279 187.743  1.00  0.00     0.053 C 
BRANCH   3   4
ATOM      4  C   UNL     1     178.508 174.546 187.021  1.00  0.00     0.041 C 
ATOM      5  O   UNL     1     178.559 175.428 186.123  1.00  0.00    -0.550 OA
ATOM      6  O   UNL     1     179.636 173.787 187.304  1.00  0.00    -0.550 OA
ENDBRANCH   3   4
ENDBRANCH   2   3
ENDBRANCH   1   2
BRANCH   1   7
ATOM      7  C   UNL     1     175.586 177.586 187.417  1.00  0.00     0.000 C 
BRANCH   7   8
ATOM      8  C   UNL     1     174.261 178.375 187.460  1.00  0.00    -0.000 C 
BRANCH   8   9
ATOM      9  C   UNL     1     174.351 179.759 188.127  1.00  0.00    -0.003 C 
ATOM     10  C   UNL     1     173.208 180.023 189.107  1.00  0.00     0.004 C 
ENDBRANCH   8   9
ENDBRANCH   7   8
ENDBRANCH   1   7
TORSDOF 6
ENDMDL
MODEL 5
REMARK VINA RESULT:    -3.134      1.691      2.552
REMARK INTER + INTRA:          -4.737
REMARK INTER:                  -4.239
REMARK INTRA:                  -0.498
REMARK UNBOUND:                -0.505
REMARK SMILES CCCCCCCC(=O)[O-]
REMARK SMILES IDX 5 1 6 2 7 3 8 4 9 5 10 6 4 7 3 8 2 9 1 10
REMARK H PARENT
REMARK Flexibility Score: inf
ROOT
ATOM      1  C   UNL     1     177.122 172.106 188.391  1.00  0.00     0.000 C 
ENDROOT
BRANCH   1   2
ATOM      2  C   UNL     1     178.498 171.428 188.457  1.00  0.00     0.006 C 
BRANCH   2   3
ATOM      3  C   UNL     1     179.622 172.467 188.428  1.00  0.00     0.053 C 
BRANCH   3   4
ATOM      4  C   UNL     1     179.666 173.154 187.100  1.00  0.00     0.041 C 
ATOM      5  O   UNL     1     180.075 172.538 186.080  1.00  0.00    -0.550 OA
ATOM      6  O   UNL     1     179.302 174.490 186.996  1.00  0.00    -0.550 OA
ENDBRANCH   3   4
ENDBRANCH   2   3
ENDBRANCH   1   2
BRANCH   1   7
ATOM      7  C   UNL     1     176.472 172.280 189.776  1.00  0.00     0.000 C 
BRANCH   7   8
ATOM      8  C   UNL     1     176.050 173.722 190.124  1.00  0.00    -0.000 C 
BRANCH   8   9
ATOM      9  C   UNL     1     177.056 174.811 189.711  1.00  0.00    -0.003 C 
ATOM     10  C   UNL     1     176.512 175.743 188.628  1.00  0.00     0.004 C 
ENDBRANCH   8   9
ENDBRANCH   7   8
ENDBRANCH   1   7
TORSDOF 6
ENDMDL
MODEL 6
REMARK VINA RESULT:    -3.117     17.838     19.397
REMARK INTER + INTRA:          -4.714
REMARK INTER:                  -4.477
REMARK INTRA:                  -0.237
REMARK UNBOUND:                -0.505
REMARK SMILES CCCCCCCC(=O)[O-]
REMARK SMILES IDX 5 1 6 2 7 3 8 4 9 5 10 6 4 7 3 8 2 9 1 10
REMARK H PARENT
REMARK Flexibility Score: inf
ROOT
ATOM      1  C   UNL     1     164.343 161.343 188.530  1.00  0.00     0.000 C 
ENDROOT
BRANCH   1   2
ATOM      2  C   UNL     1     162.831 161.093 188.429  1.00  0.00     0.006 C 
BRANCH   2   3
ATOM      3  C   UNL     1     162.205 161.960 187.332  1.00  0.00     0.053 C 
BRANCH   3   4
ATOM      4  C   UNL     1     161.845 161.122 186.147  1.00  0.00     0.041 C 
ATOM      5  O   UNL     1     160.636 160.897 185.873  1.00  0.00    -0.550 OA
ATOM      6  O   UNL     1     162.844 160.549 185.371  1.00  0.00    -0.550 OA
ENDBRANCH   3   4
ENDBRANCH   2   3
ENDBRANCH   1   2
BRANCH   1   7
ATOM      7  C   UNL     1     165.085 160.227 189.289  1.00  0.00     0.000 C 
BRANCH   7   8
ATOM      8  C   UNL     1     166.348 160.681 190.049  1.00  0.00    -0.000 C 
BRANCH   8   9
ATOM      9  C   UNL     1     166.820 162.110 189.727  1.00  0.00    -0.003 C 
ATOM     10  C   UNL     1     166.745 163.047 190.933  1.00  0.00     0.004 C 
ENDBRANCH   8   9
ENDBRANCH   7   8
ENDBRANCH   1   7
TORSDOF 6
ENDMDL
MODEL 7
REMARK VINA RESULT:    -3.058     17.252     18.961
REMARK INTER + INTRA:          -4.635
REMARK INTER:                  -4.208
REMARK INTRA:                  -0.427
REMARK UNBOUND:                -0.505
REMARK SMILES CCCCCCCC(=O)[O-]
REMARK SMILES IDX 5 1 6 2 7 3 8 4 9 5 10 6 4 7 3 8 2 9 1 10
REMARK H PARENT
REMARK Flexibility Score: inf
ROOT
ATOM      1  C   UNL     1     163.267 161.055 187.322  1.00  0.00     0.000 C 
ENDROOT
BRANCH   1   2
ATOM      2  C   UNL     1     162.365 161.334 188.534  1.00  0.00     0.006 C 
BRANCH   2   3
ATOM      3  C   UNL     1     161.733 162.725 188.437  1.00  0.00     0.053 C 
BRANCH   3   4
ATOM      4  C   UNL     1     162.792 163.781 188.405  1.00  0.00     0.041 C 
ATOM      5  O   UNL     1     162.842 164.600 187.450  1.00  0.00    -0.550 OA
ATOM      6  O   UNL     1     163.754 163.831 189.405  1.00  0.00    -0.550 OA
ENDBRANCH   3   4
ENDBRANCH   2   3
ENDBRANCH   1   2
BRANCH   1   7
ATOM      7  C   UNL     1     164.580 160.348 187.702  1.00  0.00     0.000 C 
BRANCH   7   8
ATOM      8  C   UNL     1     164.886 160.304 189.214  1.00  0.00    -0.000 C 
BRANCH   8   9
ATOM      9  C   UNL     1     166.361 160.536 189.585  1.00  0.00    -0.003 C 
ATOM     10  C   UNL     1     166.606 161.904 190.222  1.00  0.00     0.004 C 
ENDBRANCH   8   9
ENDBRANCH   7   8
ENDBRANCH   1   7
TORSDOF 6
ENDMDL
MODEL 8
REMARK VINA RESULT:    -3.045     19.198     20.745
REMARK INTER + INTRA:          -4.617
REMARK INTER:                  -4.006
REMARK INTRA:                  -0.611
REMARK UNBOUND:                -0.505
REMARK SMILES CCCCCCCC(=O)[O-]
REMARK SMILES IDX 5 1 6 2 7 3 8 4 9 5 10 6 4 7 3 8 2 9 1 10
REMARK H PARENT
REMARK Flexibility Score: inf
ROOT
ATOM      1  C   UNL     1     159.973 161.491 187.897  1.00  0.00     0.000 C 
ENDROOT
BRANCH   1   2
ATOM      2  C   UNL     1     160.133 161.959 186.443  1.00  0.00     0.006 C 
BRANCH   2   3
ATOM      3  C   UNL     1     160.615 160.812 185.549  1.00  0.00     0.053 C 
BRANCH   3   4
ATOM      4  C   UNL     1     161.928 161.155 184.920  1.00  0.00     0.041 C 
ATOM      5  O   UNL     1     162.234 162.357 184.704  1.00  0.00    -0.550 OA
ATOM      6  O   UNL     1     162.795 160.143 184.527  1.00  0.00    -0.550 OA
ENDBRANCH   3   4
ENDBRANCH   2   3
ENDBRANCH   1   2
BRANCH   1   7
ATOM      7  C   UNL     1     160.930 162.209 188.866  1.00  0.00     0.000 C 
BRANCH   7   8
ATOM      8  C   UNL     1     162.043 163.037 188.192  1.00  0.00    -0.000 C 
BRANCH   8   9
ATOM      9  C   UNL     1     163.472 162.516 188.426  1.00  0.00    -0.003 C 
ATOM     10  C   UNL     1     163.585 160.999 188.271  1.00  0.00     0.004 C 
ENDBRANCH   8   9
ENDBRANCH   7   8
ENDBRANCH   1   7
TORSDOF 6
ENDMDL
MODEL 9
REMARK VINA RESULT:    -3.017      8.672     10.111
REMARK INTER + INTRA:          -4.580
REMARK INTER:                  -4.372
REMARK INTRA:                  -0.208
REMARK UNBOUND:                -0.505
REMARK SMILES CCCCCCCC(=O)[O-]
REMARK SMILES IDX 5 1 6 2 7 3 8 4 9 5 10 6 4 7 3 8 2 9 1 10
REMARK H PARENT
REMARK Flexibility Score: inf
ROOT
ATOM      1  C   UNL     1     170.527 178.541 188.142  1.00  0.00     0.000 C 
ENDROOT
BRANCH   1   2
ATOM      2  C   UNL     1     169.843 179.910 188.012  1.00  0.00     0.006 C 
BRANCH   2   3
ATOM      3  C   UNL     1     168.338 179.797 188.271  1.00  0.00     0.053 C 
BRANCH   3   4
ATOM      4  C   UNL     1     167.632 179.310 187.046  1.00  0.00     0.041 C 
ATOM      5  O   UNL     1     166.991 180.115 186.320  1.00  0.00    -0.550 OA
ATOM      6  O   UNL     1     167.639 177.956 186.731  1.00  0.00    -0.550 OA
ENDBRANCH   3   4
ENDBRANCH   2   3
ENDBRANCH   1   2
BRANCH   1   7
ATOM      7  C   UNL     1     171.893 178.618 188.847  1.00  0.00     0.000 C 
BRANCH   7   8
ATOM      8  C   UNL     1     172.536 180.019 188.876  1.00  0.00    -0.000 C 
BRANCH   8   9
ATOM      9  C   UNL     1     173.985 180.080 188.361  1.00  0.00    -0.003 C 
ATOM     10  C   UNL     1     174.074 180.119 186.835  1.00  0.00     0.004 C 
ENDBRANCH   8   9
ENDBRANCH   7   8
ENDBRANCH   1   7
TORSDOF 6
ENDMDL
