MODEL 1
REMARK VINA RESULT:    -6.611      0.000      0.000
REMARK INTER + INTRA:          -9.318
REMARK INTER:                  -8.929
REMARK INTRA:                  -0.389
REMARK UNBOUND:                -0.389
REMARK SMILES O=c1c(-c2ccc(O)cc2)coc2c([C@H]3O[C@@H](CO)[C@@H](O)[C@@H](O)[C@H]3O)c(O)ccc12
REMARK SMILES IDX 3 1 11 2 12 3 13 4 30 5 2 6 1 7 29 8 28 9 26 10 14 11 4 12
REMARK SMILES IDX 5 13 6 14 7 15 10 16 9 17 8 18 15 20 24 21 16 22 22 23 17 24
REMARK SMILES IDX 20 25 25 26 23 28 18 30 19 31 21 33 27 35
REMARK H PARENT 8 19 25 27 23 29 19 32 21 34 27 36
REMARK Flexibility Score: inf
ROOT
ATOM      1  C   UNL     1      26.508   0.150  36.486  1.00  0.00     0.065 A 
ATOM      2  C   UNL     1      26.584  -0.352  37.828  1.00  0.00     0.208 A 
ATOM      3  O   UNL     1      26.644   0.478  38.853  1.00  0.00    -0.463 OA
ATOM      4  C   UNL     1      26.854   1.791  38.648  1.00  0.00     0.147 A 
ATOM      5  C   UNL     1      27.269   2.254  37.388  1.00  0.00     0.066 A 
ATOM      6  C   UNL     1      27.106   1.416  36.287  1.00  0.00     0.200 A 
ATOM      7  O   UNL     1      27.485   1.769  35.146  1.00  0.00    -0.288 OA
ATOM      8  C   UNL     1      27.945   3.498  37.338  1.00  0.00     0.020 A 
ATOM      9  C   UNL     1      28.516   3.936  38.532  1.00  0.00     0.047 A 
ATOM     10  C   UNL     1      27.896   3.551  39.730  1.00  0.00     0.125 A 
ATOM     11  C   UNL     1      26.760   2.721  39.691  1.00  0.00     0.069 A 
ENDROOT
BRANCH   1  12
ATOM     12  C   UNL     1      25.259  -0.200  35.675  1.00  0.00    -0.011 A 
ATOM     13  C   UNL     1      25.278  -1.273  34.748  1.00  0.00     0.013 A 
ATOM     14  C   UNL     1      24.116  -1.925  34.404  1.00  0.00     0.047 A 
ATOM     15  C   UNL     1      22.904  -1.522  34.979  1.00  0.00     0.115 A 
ATOM     16  C   UNL     1      24.005   0.272  36.088  1.00  0.00     0.013 A 
ATOM     17  C   UNL     1      22.844  -0.376  35.753  1.00  0.00     0.047 A 
BRANCH  15  18
ATOM     18  O   UNL     1      21.727  -2.222  34.705  1.00  0.00    -0.508 OA
ATOM     19  H   UNL     1      21.692  -2.923  33.962  1.00  0.00     0.293 HD
ENDBRANCH  15  18
ENDBRANCH   1  12
BRANCH  11  20
ATOM     20  C   UNL     1      25.401   3.461  39.680  1.00  0.00     0.188 C 
ATOM     21  C   UNL     1      25.280   4.940  40.170  1.00  0.00     0.179 C 
ATOM     22  O   UNL     1      24.330   2.582  40.090  1.00  0.00    -0.362 OA
ATOM     23  C   UNL     1      24.797   5.090  41.621  1.00  0.00     0.177 C 
ATOM     24  C   UNL     1      23.854   2.702  41.424  1.00  0.00     0.176 C 
ATOM     25  C   UNL     1      23.592   4.164  41.882  1.00  0.00     0.177 C 
BRANCH  21  26
ATOM     26  O   UNL     1      26.492   5.604  40.042  1.00  0.00    -0.387 OA
ATOM     27  H   UNL     1      27.098   5.230  40.744  1.00  0.00     0.211 HD
ENDBRANCH  21  26
BRANCH  23  28
ATOM     28  O   UNL     1      25.843   4.803  42.542  1.00  0.00    -0.387 OA
ATOM     29  H   UNL     1      26.703   5.109  42.140  1.00  0.00     0.211 HD
ENDBRANCH  23  28
BRANCH  24  30
ATOM     30  C   UNL     1      24.651   1.808  42.407  1.00  0.00     0.191 C 
BRANCH  30  31
ATOM     31  O   UNL     1      23.809   0.951  43.167  1.00  0.00    -0.394 OA
ATOM     32  H   UNL     1      24.271   0.797  44.049  1.00  0.00     0.210 HD
ENDBRANCH  30  31
ENDBRANCH  24  30
BRANCH  25  33
ATOM     33  O   UNL     1      23.189   4.143  43.238  1.00  0.00    -0.388 OA
ATOM     34  H   UNL     1      22.230   3.949  43.244  1.00  0.00     0.211 HD
ENDBRANCH  25  33
ENDBRANCH  11  20
BRANCH  10  35
ATOM     35  O   UNL     1      28.424   3.996  40.936  1.00  0.00    -0.507 OA
ATOM     36  H   UNL     1      28.403   4.955  41.236  1.00  0.00     0.293 HD
ENDBRANCH  10  35
TORSDOF 9
ENDMDL
MODEL 2
REMARK VINA RESULT:    -6.495      2.734      5.728
REMARK INTER + INTRA:          -9.162
REMARK INTER:                  -8.370
REMARK INTRA:                  -0.792
REMARK UNBOUND:                -0.389
REMARK SMILES O=c1c(-c2ccc(O)cc2)coc2c([C@H]3O[C@@H](CO)[C@@H](O)[C@@H](O)[C@H]3O)c(O)ccc12
REMARK SMILES IDX 3 1 11 2 12 3 13 4 30 5 2 6 1 7 29 8 28 9 26 10 14 11 4 12
REMARK SMILES IDX 5 13 6 14 7 15 10 16 9 17 8 18 15 20 24 21 16 22 22 23 17 24
REMARK SMILES IDX 20 25 25 26 23 28 18 30 19 31 21 33 27 35
REMARK H PARENT 8 19 25 27 23 29 19 32 21 34 27 36
REMARK Flexibility Score: inf
ROOT
ATOM      1  C   UNL     1      25.602  -1.757  33.917  1.00  0.00     0.065 A 
ATOM      2  C   UNL     1      26.004  -0.404  33.654  1.00  0.00     0.208 A 
ATOM      3  O   UNL     1      25.355   0.607  34.200  1.00  0.00    -0.463 OA
ATOM      4  C   UNL     1      24.184   0.398  34.829  1.00  0.00     0.147 A 
ATOM      5  C   UNL     1      23.515  -0.830  34.691  1.00  0.00     0.066 A 
ATOM      6  C   UNL     1      24.230  -1.926  34.214  1.00  0.00     0.200 A 
ATOM      7  O   UNL     1      23.674  -3.036  34.045  1.00  0.00    -0.288 OA
ATOM      8  C   UNL     1      22.117  -0.842  34.926  1.00  0.00     0.020 A 
ATOM      9  C   UNL     1      21.468   0.388  34.844  1.00  0.00     0.047 A 
ATOM     10  C   UNL     1      22.201   1.535  35.187  1.00  0.00     0.125 A 
ATOM     11  C   UNL     1      23.552   1.412  35.560  1.00  0.00     0.069 A 
ENDROOT
BRANCH   1  12
ATOM     12  C   UNL     1      26.615  -2.667  34.614  1.00  0.00    -0.011 A 
ATOM     13  C   UNL     1      27.167  -3.785  33.937  1.00  0.00     0.013 A 
ATOM     14  C   UNL     1      28.392  -4.293  34.302  1.00  0.00     0.047 A 
ATOM     15  C   UNL     1      29.099  -3.696  35.353  1.00  0.00     0.115 A 
ATOM     16  C   UNL     1      27.282  -2.216  35.763  1.00  0.00     0.013 A 
ATOM     17  C   UNL     1      28.505  -2.715  36.128  1.00  0.00     0.047 A 
BRANCH  15  18
ATOM     18  O   UNL     1      30.379  -4.145  35.686  1.00  0.00    -0.508 OA
ATOM     19  H   UNL     1      31.093  -4.281  34.968  1.00  0.00     0.293 HD
ENDBRANCH  15  18
ENDBRANCH   1  12
BRANCH  11  20
ATOM     20  C   UNL     1      23.808   1.270  37.080  1.00  0.00     0.188 C 
ATOM     21  C   UNL     1      23.599   2.475  38.052  1.00  0.00     0.179 C 
ATOM     22  O   UNL     1      24.979   0.463  37.334  1.00  0.00    -0.362 OA
ATOM     23  C   UNL     1      24.886   3.239  38.402  1.00  0.00     0.177 C 
ATOM     24  C   UNL     1      26.184   1.138  37.669  1.00  0.00     0.176 C 
ATOM     25  C   UNL     1      26.018   2.248  38.744  1.00  0.00     0.177 C 
BRANCH  21  26
ATOM     26  O   UNL     1      22.683   3.379  37.531  1.00  0.00    -0.387 OA
ATOM     27  H   UNL     1      22.524   3.109  36.581  1.00  0.00     0.211 HD
ENDBRANCH  21  26
BRANCH  23  28
ATOM     28  O   UNL     1      25.285   4.088  37.332  1.00  0.00    -0.387 OA
ATOM     29  H   UNL     1      24.929   3.705  36.483  1.00  0.00     0.211 HD
ENDBRANCH  23  28
BRANCH  24  30
ATOM     30  C   UNL     1      27.005   1.517  36.412  1.00  0.00     0.191 C 
BRANCH  30  31
ATOM     31  O   UNL     1      28.404   1.356  36.606  1.00  0.00    -0.394 OA
ATOM     32  H   UNL     1      28.718   0.691  35.918  1.00  0.00     0.210 HD
ENDBRANCH  30  31
ENDBRANCH  24  30
BRANCH  25  33
ATOM     33  O   UNL     1      27.271   2.879  38.933  1.00  0.00    -0.388 OA
ATOM     34  H   UNL     1      27.422   3.445  38.149  1.00  0.00     0.211 HD
ENDBRANCH  25  33
ENDBRANCH  11  20
BRANCH  10  35
ATOM     35  O   UNL     1      21.573   2.774  35.144  1.00  0.00    -0.507 OA
ATOM     36  H   UNL     1      22.010   3.633  35.428  1.00  0.00     0.293 HD
ENDBRANCH  10  35
TORSDOF 9
ENDMDL
MODEL 3
REMARK VINA RESULT:    -6.183      3.531      7.151
REMARK INTER + INTRA:          -8.740
REMARK INTER:                  -8.508
REMARK INTRA:                  -0.232
REMARK UNBOUND:                -0.389
REMARK SMILES O=c1c(-c2ccc(O)cc2)coc2c([C@H]3O[C@@H](CO)[C@@H](O)[C@@H](O)[C@H]3O)c(O)ccc12
REMARK SMILES IDX 3 1 11 2 12 3 13 4 30 5 2 6 1 7 29 8 28 9 26 10 14 11 4 12
REMARK SMILES IDX 5 13 6 14 7 15 10 16 9 17 8 18 15 20 24 21 16 22 22 23 17 24
REMARK SMILES IDX 20 25 25 26 23 28 18 30 19 31 21 33 27 35
REMARK H PARENT 8 19 25 27 23 29 19 32 21 34 27 36
REMARK Flexibility Score: inf
ROOT
ATOM      1  C   UNL     1      29.660   3.121  34.453  1.00  0.00     0.065 A 
ATOM      2  C   UNL     1      30.027   1.736  34.529  1.00  0.00     0.208 A 
ATOM      3  O   UNL     1      29.207   0.852  35.065  1.00  0.00    -0.463 OA
ATOM      4  C   UNL     1      28.118   1.264  35.740  1.00  0.00     0.147 A 
ATOM      5  C   UNL     1      27.979   2.613  36.106  1.00  0.00     0.066 A 
ATOM      6  C   UNL     1      28.772   3.560  35.462  1.00  0.00     0.200 A 
ATOM      7  O   UNL     1      28.708   4.773  35.770  1.00  0.00    -0.288 OA
ATOM      8  C   UNL     1      27.129   2.910  37.200  1.00  0.00     0.020 A 
ATOM      9  C   UNL     1      26.858   1.857  38.072  1.00  0.00     0.047 A 
ATOM     10  C   UNL     1      26.847   0.558  37.540  1.00  0.00     0.125 A 
ATOM     11  C   UNL     1      27.141   0.361  36.179  1.00  0.00     0.069 A 
ENDROOT
BRANCH   1  12
ATOM     12  C   UNL     1      29.541   3.740  33.059  1.00  0.00    -0.011 A 
ATOM     13  C   UNL     1      30.692   3.930  32.252  1.00  0.00     0.013 A 
ATOM     14  C   UNL     1      30.588   3.987  30.881  1.00  0.00     0.047 A 
ATOM     15  C   UNL     1      29.329   3.855  30.281  1.00  0.00     0.115 A 
ATOM     16  C   UNL     1      28.293   3.785  32.421  1.00  0.00     0.013 A 
ATOM     17  C   UNL     1      28.183   3.836  31.055  1.00  0.00     0.047 A 
BRANCH  15  18
ATOM     18  O   UNL     1      29.212   3.829  28.889  1.00  0.00    -0.508 OA
ATOM     19  H   UNL     1      28.300   3.907  28.436  1.00  0.00     0.293 HD
ENDBRANCH  15  18
ENDBRANCH   1  12
BRANCH  11  20
ATOM     20  C   UNL     1      25.915   0.337  35.234  1.00  0.00     0.188 C 
ATOM     21  C   UNL     1      24.464   0.181  35.795  1.00  0.00     0.179 C 
ATOM     22  O   UNL     1      26.201  -0.414  34.034  1.00  0.00    -0.362 OA
ATOM     23  C   UNL     1      23.916  -1.254  35.746  1.00  0.00     0.177 C 
ATOM     24  C   UNL     1      25.700  -1.742  33.954  1.00  0.00     0.176 C 
ATOM     25  C   UNL     1      24.211  -1.892  34.373  1.00  0.00     0.177 C 
BRANCH  21  26
ATOM     26  O   UNL     1      24.389   0.633  37.105  1.00  0.00    -0.387 OA
ATOM     27  H   UNL     1      25.296   0.503  37.505  1.00  0.00     0.211 HD
ENDBRANCH  21  26
BRANCH  23  28
ATOM     28  O   UNL     1      24.473  -2.051  36.785  1.00  0.00    -0.387 OA
ATOM     29  H   UNL     1      24.934  -2.829  36.366  1.00  0.00     0.211 HD
ENDBRANCH  23  28
BRANCH  24  30
ATOM     30  C   UNL     1      26.689  -2.772  34.554  1.00  0.00     0.191 C 
BRANCH  30  31
ATOM     31  O   UNL     1      27.335  -3.551  33.556  1.00  0.00    -0.394 OA
ATOM     32  H   UNL     1      27.117  -4.514  33.752  1.00  0.00     0.210 HD
ENDBRANCH  30  31
ENDBRANCH  24  30
BRANCH  25  33
ATOM     33  O   UNL     1      23.864  -3.262  34.310  1.00  0.00    -0.388 OA
ATOM     34  H   UNL     1      23.558  -3.433  33.396  1.00  0.00     0.211 HD
ENDBRANCH  25  33
ENDBRANCH  11  20
BRANCH  10  35
ATOM     35  O   UNL     1      26.550  -0.510  38.378  1.00  0.00    -0.507 OA
ATOM     36  H   UNL     1      26.799  -0.544  39.351  1.00  0.00     0.293 HD
ENDBRANCH  10  35
TORSDOF 9
ENDMDL
MODEL 4
REMARK VINA RESULT:    -6.144      1.578      6.750
REMARK INTER + INTRA:          -8.688
REMARK INTER:                  -8.182
REMARK INTRA:                  -0.505
REMARK UNBOUND:                -0.389
REMARK SMILES O=c1c(-c2ccc(O)cc2)coc2c([C@H]3O[C@@H](CO)[C@@H](O)[C@@H](O)[C@H]3O)c(O)ccc12
REMARK SMILES IDX 3 1 11 2 12 3 13 4 30 5 2 6 1 7 29 8 28 9 26 10 14 11 4 12
REMARK SMILES IDX 5 13 6 14 7 15 10 16 9 17 8 18 15 20 24 21 16 22 22 23 17 24
REMARK SMILES IDX 20 25 25 26 23 28 18 30 19 31 21 33 27 35
REMARK H PARENT 8 19 25 27 23 29 19 32 21 34 27 36
REMARK Flexibility Score: inf
ROOT
ATOM      1  C   UNL     1      25.042   4.163  39.275  1.00  0.00     0.065 A 
ATOM      2  C   UNL     1      24.501   4.075  37.949  1.00  0.00     0.208 A 
ATOM      3  O   UNL     1      25.079   3.315  37.038  1.00  0.00    -0.463 OA
ATOM      4  C   UNL     1      26.295   2.787  37.269  1.00  0.00     0.147 A 
ATOM      5  C   UNL     1      27.069   3.241  38.350  1.00  0.00     0.066 A 
ATOM      6  C   UNL     1      26.438   3.953  39.367  1.00  0.00     0.200 A 
ATOM      7  O   UNL     1      27.087   4.405  40.338  1.00  0.00    -0.288 OA
ATOM      8  C   UNL     1      28.472   3.055  38.273  1.00  0.00     0.020 A 
ATOM      9  C   UNL     1      28.997   2.849  36.998  1.00  0.00     0.047 A 
ATOM     10  C   UNL     1      28.177   2.215  36.051  1.00  0.00     0.125 A 
ATOM     11  C   UNL     1      26.865   1.847  36.401  1.00  0.00     0.069 A 
ENDROOT
BRANCH   1  12
ATOM     12  C   UNL     1      24.158   3.685  40.428  1.00  0.00    -0.011 A 
ATOM     13  C   UNL     1      24.524   2.550  41.196  1.00  0.00     0.013 A 
ATOM     14  C   UNL     1      24.074   2.400  42.488  1.00  0.00     0.047 A 
ATOM     15  C   UNL     1      23.246   3.383  43.046  1.00  0.00     0.115 A 
ATOM     16  C   UNL     1      23.195   4.547  40.972  1.00  0.00     0.013 A 
ATOM     17  C   UNL     1      22.747   4.407  42.260  1.00  0.00     0.047 A 
BRANCH  15  18
ATOM     18  O   UNL     1      22.845   3.291  44.381  1.00  0.00    -0.508 OA
ATOM     19  H   UNL     1      23.531   3.184  45.131  1.00  0.00     0.293 HD
ENDBRANCH  15  18
ENDBRANCH   1  12
BRANCH  11  20
ATOM     20  C   UNL     1      26.703   0.403  36.933  1.00  0.00     0.188 C 
ATOM     21  C   UNL     1      27.361  -0.809  36.197  1.00  0.00     0.179 C 
ATOM     22  O   UNL     1      25.362   0.178  37.422  1.00  0.00    -0.362 OA
ATOM     23  C   UNL     1      26.413  -1.570  35.256  1.00  0.00     0.177 C 
ATOM     24  C   UNL     1      24.464  -0.530  36.579  1.00  0.00     0.176 C 
ATOM     25  C   UNL     1      25.058  -1.821  35.949  1.00  0.00     0.177 C 
BRANCH  21  26
ATOM     26  O   UNL     1      28.469  -0.403  35.467  1.00  0.00    -0.387 OA
ATOM     27  H   UNL     1      28.628  -1.106  34.774  1.00  0.00     0.211 HD
ENDBRANCH  21  26
BRANCH  23  28
ATOM     28  O   UNL     1      26.216  -0.856  34.041  1.00  0.00    -0.387 OA
ATOM     29  H   UNL     1      27.109  -0.696  33.627  1.00  0.00     0.211 HD
ENDBRANCH  23  28
BRANCH  24  30
ATOM     30  C   UNL     1      23.704   0.416  35.616  1.00  0.00     0.191 C 
BRANCH  30  31
ATOM     31  O   UNL     1      22.449  -0.114  35.209  1.00  0.00    -0.394 OA
ATOM     32  H   UNL     1      22.597  -1.089  35.007  1.00  0.00     0.210 HD
ENDBRANCH  30  31
ENDBRANCH  24  30
BRANCH  25  33
ATOM     33  O   UNL     1      24.089  -2.387  35.088  1.00  0.00    -0.388 OA
ATOM     34  H   UNL     1      24.530  -3.118  34.610  1.00  0.00     0.211 HD
ENDBRANCH  25  33
ENDBRANCH  11  20
BRANCH  10  35
ATOM     35  O   UNL     1      28.681   1.969  34.780  1.00  0.00    -0.507 OA
ATOM     36  H   UNL     1      29.656   1.821  34.584  1.00  0.00     0.293 HD
ENDBRANCH  10  35
TORSDOF 9
ENDMDL
MODEL 5
REMARK VINA RESULT:    -5.996      4.608      6.514
REMARK INTER + INTRA:          -8.487
REMARK INTER:                  -7.696
REMARK INTRA:                  -0.792
REMARK UNBOUND:                -0.389
REMARK SMILES O=c1c(-c2ccc(O)cc2)coc2c([C@H]3O[C@@H](CO)[C@@H](O)[C@@H](O)[C@H]3O)c(O)ccc12
REMARK SMILES IDX 3 1 11 2 12 3 13 4 30 5 2 6 1 7 29 8 28 9 26 10 14 11 4 12
REMARK SMILES IDX 5 13 6 14 7 15 10 16 9 17 8 18 15 20 24 21 16 22 22 23 17 24
REMARK SMILES IDX 20 25 25 26 23 28 18 30 19 31 21 33 27 35
REMARK H PARENT 8 19 25 27 23 29 19 32 21 34 27 36
REMARK Flexibility Score: inf
ROOT
ATOM      1  C   UNL     1      23.738   2.724  31.464  1.00  0.00     0.065 A 
ATOM      2  C   UNL     1      24.397   1.462  31.280  1.00  0.00     0.208 A 
ATOM      3  O   UNL     1      25.419   1.121  32.041  1.00  0.00    -0.463 OA
ATOM      4  C   UNL     1      25.993   2.031  32.849  1.00  0.00     0.147 A 
ATOM      5  C   UNL     1      25.694   3.396  32.704  1.00  0.00     0.066 A 
ATOM      6  C   UNL     1      24.554   3.753  31.988  1.00  0.00     0.200 A 
ATOM      7  O   UNL     1      24.257   4.957  31.805  1.00  0.00    -0.288 OA
ATOM      8  C   UNL     1      26.645   4.329  33.188  1.00  0.00     0.020 A 
ATOM      9  C   UNL     1      27.943   3.852  33.360  1.00  0.00     0.047 A 
ATOM     10  C   UNL     1      28.100   2.496  33.684  1.00  0.00     0.125 A 
ATOM     11  C   UNL     1      26.967   1.668  33.788  1.00  0.00     0.069 A 
ENDROOT
BRANCH   1  12
ATOM     12  C   UNL     1      22.261   2.694  31.861  1.00  0.00    -0.011 A 
ATOM     13  C   UNL     1      21.250   2.577  30.873  1.00  0.00     0.013 A 
ATOM     14  C   UNL     1      20.019   2.048  31.185  1.00  0.00     0.047 A 
ATOM     15  C   UNL     1      19.767   1.619  32.495  1.00  0.00     0.115 A 
ATOM     16  C   UNL     1      21.901   2.410  33.187  1.00  0.00     0.013 A 
ATOM     17  C   UNL     1      20.678   1.877  33.503  1.00  0.00     0.047 A 
BRANCH  15  18
ATOM     18  O   UNL     1      18.554   1.005  32.813  1.00  0.00    -0.508 OA
ATOM     19  H   UNL     1      17.963   1.364  33.566  1.00  0.00     0.293 HD
ENDBRANCH  15  18
ENDBRANCH   1  12
BRANCH  11  20
ATOM     20  C   UNL     1      26.372   1.538  35.211  1.00  0.00     0.188 C 
ATOM     21  C   UNL     1      27.156   0.815  36.353  1.00  0.00     0.179 C 
ATOM     22  O   UNL     1      24.956   1.256  35.156  1.00  0.00    -0.362 OA
ATOM     23  C   UNL     1      26.746  -0.649  36.576  1.00  0.00     0.177 C 
ATOM     24  C   UNL     1      24.543  -0.087  35.366  1.00  0.00     0.176 C 
ATOM     25  C   UNL     1      25.209  -0.778  36.589  1.00  0.00     0.177 C 
BRANCH  21  26
ATOM     26  O   UNL     1      28.524   0.855  36.117  1.00  0.00    -0.387 OA
ATOM     27  H   UNL     1      28.886  -0.038  36.385  1.00  0.00     0.211 HD
ENDBRANCH  21  26
BRANCH  23  28
ATOM     28  O   UNL     1      27.299  -1.495  35.574  1.00  0.00    -0.387 OA
ATOM     29  H   UNL     1      27.622  -2.329  36.015  1.00  0.00     0.211 HD
ENDBRANCH  23  28
BRANCH  24  30
ATOM     30  C   UNL     1      24.519  -0.900  34.048  1.00  0.00     0.191 C 
BRANCH  30  31
ATOM     31  O   UNL     1      23.731  -2.078  34.149  1.00  0.00    -0.394 OA
ATOM     32  H   UNL     1      24.014  -2.546  34.994  1.00  0.00     0.210 HD
ENDBRANCH  30  31
ENDBRANCH  24  30
BRANCH  25  33
ATOM     33  O   UNL     1      24.763  -2.120  36.643  1.00  0.00    -0.388 OA
ATOM     34  H   UNL     1      24.053  -2.153  37.316  1.00  0.00     0.211 HD
ENDBRANCH  25  33
ENDBRANCH  11  20
BRANCH  10  35
ATOM     35  O   UNL     1      29.380   1.997  33.891  1.00  0.00    -0.507 OA
ATOM     36  H   UNL     1      29.593   1.247  34.526  1.00  0.00     0.293 HD
ENDBRANCH  10  35
TORSDOF 9
ENDMDL
MODEL 6
REMARK VINA RESULT:    -5.930      4.881      7.885
REMARK INTER + INTRA:          -8.398
REMARK INTER:                  -7.617
REMARK INTRA:                  -0.782
REMARK UNBOUND:                -0.389
REMARK SMILES O=c1c(-c2ccc(O)cc2)coc2c([C@H]3O[C@@H](CO)[C@@H](O)[C@@H](O)[C@H]3O)c(O)ccc12
REMARK SMILES IDX 3 1 11 2 12 3 13 4 30 5 2 6 1 7 29 8 28 9 26 10 14 11 4 12
REMARK SMILES IDX 5 13 6 14 7 15 10 16 9 17 8 18 15 20 24 21 16 22 22 23 17 24
REMARK SMILES IDX 20 25 25 26 23 28 18 30 19 31 21 33 27 35
REMARK H PARENT 8 19 25 27 23 29 19 32 21 34 27 36
REMARK Flexibility Score: inf
ROOT
ATOM      1  C   UNL     1      22.232   4.549  32.832  1.00  0.00     0.065 A 
ATOM      2  C   UNL     1      23.596   4.406  33.257  1.00  0.00     0.208 A 
ATOM      3  O   UNL     1      23.926   3.502  34.159  1.00  0.00    -0.463 OA
ATOM      4  C   UNL     1      22.969   2.855  34.849  1.00  0.00     0.147 A 
ATOM      5  C   UNL     1      21.640   3.308  34.813  1.00  0.00     0.066 A 
ATOM      6  C   UNL     1      21.264   4.181  33.795  1.00  0.00     0.200 A 
ATOM      7  O   UNL     1      20.099   4.637  33.733  1.00  0.00    -0.288 OA
ATOM      8  C   UNL     1      20.796   2.947  35.892  1.00  0.00     0.020 A 
ATOM      9  C   UNL     1      21.434   2.564  37.071  1.00  0.00     0.047 A 
ATOM     10  C   UNL     1      22.692   1.950  36.961  1.00  0.00     0.125 A 
ATOM     11  C   UNL     1      23.273   1.777  35.692  1.00  0.00     0.069 A 
ENDROOT
BRANCH   1  12
ATOM     12  C   UNL     1      21.926   4.288  31.356  1.00  0.00    -0.011 A 
ATOM     13  C   UNL     1      21.792   5.366  30.444  1.00  0.00     0.013 A 
ATOM     14  C   UNL     1      22.027   5.185  29.101  1.00  0.00     0.047 A 
ATOM     15  C   UNL     1      22.404   3.918  28.634  1.00  0.00     0.115 A 
ATOM     16  C   UNL     1      22.137   3.010  30.816  1.00  0.00     0.013 A 
ATOM     17  C   UNL     1      22.378   2.824  29.479  1.00  0.00     0.047 A 
BRANCH  15  18
ATOM     18  O   UNL     1      22.725   3.732  27.287  1.00  0.00    -0.508 OA
ATOM     19  H   UNL     1      23.461   3.081  27.006  1.00  0.00     0.293 HD
ENDBRANCH  15  18
ENDBRANCH   1  12
BRANCH  11  20
ATOM     20  C   UNL     1      22.984   0.417  35.011  1.00  0.00     0.188 C 
ATOM     21  C   UNL     1      23.170  -0.929  35.783  1.00  0.00     0.179 C 
ATOM     22  O   UNL     1      23.442   0.416  33.641  1.00  0.00    -0.362 OA
ATOM     23  C   UNL     1      24.509  -1.634  35.515  1.00  0.00     0.177 C 
ATOM     24  C   UNL     1      24.673  -0.235  33.359  1.00  0.00     0.176 C 
ATOM     25  C   UNL     1      24.817  -1.642  34.004  1.00  0.00     0.177 C 
BRANCH  21  26
ATOM     26  O   UNL     1      23.042  -0.737  37.152  1.00  0.00    -0.387 OA
ATOM     27  H   UNL     1      23.056   0.251  37.304  1.00  0.00     0.211 HD
ENDBRANCH  21  26
BRANCH  23  28
ATOM     28  O   UNL     1      25.570  -1.005  36.227  1.00  0.00    -0.387 OA
ATOM     29  H   UNL     1      25.316  -0.054  36.384  1.00  0.00     0.211 HD
ENDBRANCH  23  28
BRANCH  24  30
ATOM     30  C   UNL     1      25.883   0.719  33.518  1.00  0.00     0.191 C 
BRANCH  30  31
ATOM     31  O   UNL     1      25.866   1.782  32.574  1.00  0.00    -0.394 OA
ATOM     32  H   UNL     1      26.707   2.315  32.720  1.00  0.00     0.210 HD
ENDBRANCH  30  31
ENDBRANCH  24  30
BRANCH  25  33
ATOM     33  O   UNL     1      26.104  -2.145  33.700  1.00  0.00    -0.388 OA
ATOM     34  H   UNL     1      26.738  -1.420  33.878  1.00  0.00     0.211 HD
ENDBRANCH  25  33
ENDBRANCH  11  20
BRANCH  10  35
ATOM     35  O   UNL     1      23.340   1.530  38.116  1.00  0.00    -0.507 OA
ATOM     36  H   UNL     1      24.139   0.921  38.119  1.00  0.00     0.293 HD
ENDBRANCH  10  35
TORSDOF 9
ENDMDL
MODEL 7
REMARK VINA RESULT:    -5.913      1.995      7.074
REMARK INTER + INTRA:          -8.376
REMARK INTER:                  -7.990
REMARK INTRA:                  -0.386
REMARK UNBOUND:                -0.389
REMARK SMILES O=c1c(-c2ccc(O)cc2)coc2c([C@H]3O[C@@H](CO)[C@@H](O)[C@@H](O)[C@H]3O)c(O)ccc12
REMARK SMILES IDX 3 1 11 2 12 3 13 4 30 5 2 6 1 7 29 8 28 9 26 10 14 11 4 12
REMARK SMILES IDX 5 13 6 14 7 15 10 16 9 17 8 18 15 20 24 21 16 22 22 23 17 24
REMARK SMILES IDX 20 25 25 26 23 28 18 30 19 31 21 33 27 35
REMARK H PARENT 8 19 25 27 23 29 19 32 21 34 27 36
REMARK Flexibility Score: inf
ROOT
ATOM      1  C   UNL     1      24.253   4.496  39.015  1.00  0.00     0.065 A 
ATOM      2  C   UNL     1      23.120   4.032  38.267  1.00  0.00     0.208 A 
ATOM      3  O   UNL     1      23.284   3.251  37.216  1.00  0.00    -0.463 OA
ATOM      4  C   UNL     1      24.513   3.057  36.703  1.00  0.00     0.147 A 
ATOM      5  C   UNL     1      25.584   3.873  37.104  1.00  0.00     0.066 A 
ATOM      6  C   UNL     1      25.450   4.618  38.274  1.00  0.00     0.200 A 
ATOM      7  O   UNL     1      26.364   5.383  38.660  1.00  0.00    -0.288 OA
ATOM      8  C   UNL     1      26.687   3.985  36.221  1.00  0.00     0.020 A 
ATOM      9  C   UNL     1      26.446   3.651  34.890  1.00  0.00     0.047 A 
ATOM     10  C   UNL     1      25.467   2.679  34.630  1.00  0.00     0.125 A 
ATOM     11  C   UNL     1      24.748   2.111  35.698  1.00  0.00     0.069 A 
ENDROOT
BRANCH   1  12
ATOM     12  C   UNL     1      24.346   4.074  40.483  1.00  0.00    -0.011 A 
ATOM     13  C   UNL     1      23.381   4.516  41.424  1.00  0.00     0.013 A 
ATOM     14  C   UNL     1      23.129   3.791  42.566  1.00  0.00     0.047 A 
ATOM     15  C   UNL     1      23.835   2.603  42.796  1.00  0.00     0.115 A 
ATOM     16  C   UNL     1      25.141   2.976  40.843  1.00  0.00     0.013 A 
ATOM     17  C   UNL     1      24.891   2.246  41.977  1.00  0.00     0.047 A 
BRANCH  15  18
ATOM     18  O   UNL     1      23.537   1.811  43.907  1.00  0.00    -0.508 OA
ATOM     19  H   UNL     1      22.618   1.378  44.015  1.00  0.00     0.293 HD
ENDBRANCH  15  18
ENDBRANCH   1  12
BRANCH  11  20
ATOM     20  C   UNL     1      25.341   0.800  36.269  1.00  0.00     0.188 C 
ATOM     21  C   UNL     1      26.426  -0.006  35.487  1.00  0.00     0.179 C 
ATOM     22  O   UNL     1      24.317   0.005  36.908  1.00  0.00    -0.362 OA
ATOM     23  C   UNL     1      25.875  -1.186  34.670  1.00  0.00     0.177 C 
ATOM     24  C   UNL     1      23.792  -1.098  36.182  1.00  0.00     0.176 C 
ATOM     25  C   UNL     1      24.869  -1.996  35.514  1.00  0.00     0.177 C 
BRANCH  21  26
ATOM     26  O   UNL     1      27.138   0.823  34.631  1.00  0.00    -0.387 OA
ATOM     27  H   UNL     1      28.095   0.774  34.917  1.00  0.00     0.211 HD
ENDBRANCH  21  26
BRANCH  23  28
ATOM     28  O   UNL     1      25.254  -0.734  33.471  1.00  0.00    -0.387 OA
ATOM     29  H   UNL     1      24.796  -1.511  33.047  1.00  0.00     0.211 HD
ENDBRANCH  23  28
BRANCH  24  30
ATOM     30  C   UNL     1      22.591  -0.689  35.293  1.00  0.00     0.191 C 
BRANCH  30  31
ATOM     31  O   UNL     1      21.777  -1.797  34.933  1.00  0.00    -0.394 OA
ATOM     32  H   UNL     1      22.388  -2.594  34.856  1.00  0.00     0.210 HD
ENDBRANCH  30  31
ENDBRANCH  24  30
BRANCH  25  33
ATOM     33  O   UNL     1      24.213  -3.010  34.775  1.00  0.00    -0.388 OA
ATOM     34  H   UNL     1      24.554  -2.957  33.860  1.00  0.00     0.211 HD
ENDBRANCH  25  33
ENDBRANCH  11  20
BRANCH  10  35
ATOM     35  O   UNL     1      25.224   2.302  33.314  1.00  0.00    -0.507 OA
ATOM     36  H   UNL     1      24.323   2.021  32.970  1.00  0.00     0.293 HD
ENDBRANCH  10  35
TORSDOF 9
ENDMDL
MODEL 8
REMARK VINA RESULT:    -5.825      2.522      4.149
REMARK INTER + INTRA:          -8.257
REMARK INTER:                  -7.847
REMARK INTRA:                  -0.410
REMARK UNBOUND:                -0.389
REMARK SMILES O=c1c(-c2ccc(O)cc2)coc2c([C@H]3O[C@@H](CO)[C@@H](O)[C@@H](O)[C@H]3O)c(O)ccc12
REMARK SMILES IDX 3 1 11 2 12 3 13 4 30 5 2 6 1 7 29 8 28 9 26 10 14 11 4 12
REMARK SMILES IDX 5 13 6 14 7 15 10 16 9 17 8 18 15 20 24 21 16 22 22 23 17 24
REMARK SMILES IDX 20 25 25 26 23 28 18 30 19 31 21 33 27 35
REMARK H PARENT 8 19 25 27 23 29 19 32 21 34 27 36
REMARK Flexibility Score: inf
ROOT
ATOM      1  C   UNL     1      24.090   1.299  34.960  1.00  0.00     0.065 A 
ATOM      2  C   UNL     1      25.012   2.338  35.322  1.00  0.00     0.208 A 
ATOM      3  O   UNL     1      24.766   3.123  36.354  1.00  0.00    -0.463 OA
ATOM      4  C   UNL     1      23.557   3.107  36.943  1.00  0.00     0.147 A 
ATOM      5  C   UNL     1      22.474   2.463  36.322  1.00  0.00     0.066 A 
ATOM      6  C   UNL     1      22.741   1.552  35.302  1.00  0.00     0.200 A 
ATOM      7  O   UNL     1      21.811   0.971  34.696  1.00  0.00    -0.288 OA
ATOM      8  C   UNL     1      21.169   2.879  36.685  1.00  0.00     0.020 A 
ATOM      9  C   UNL     1      21.066   4.138  37.272  1.00  0.00     0.047 A 
ATOM     10  C   UNL     1      22.157   4.597  38.027  1.00  0.00     0.125 A 
ATOM     11  C   UNL     1      23.312   3.801  38.135  1.00  0.00     0.069 A 
ENDROOT
BRANCH   1  12
ATOM     12  C   UNL     1      24.597  -0.142  35.019  1.00  0.00    -0.011 A 
ATOM     13  C   UNL     1      24.555  -0.971  33.868  1.00  0.00     0.013 A 
ATOM     14  C   UNL     1      25.424  -2.028  33.731  1.00  0.00     0.047 A 
ATOM     15  C   UNL     1      26.360  -2.285  34.741  1.00  0.00     0.115 A 
ATOM     16  C   UNL     1      25.433  -0.544  36.071  1.00  0.00     0.013 A 
ATOM     17  C   UNL     1      26.306  -1.594  35.938  1.00  0.00     0.047 A 
BRANCH  15  18
ATOM     18  O   UNL     1      27.304  -3.303  34.584  1.00  0.00    -0.508 OA
ATOM     19  H   UNL     1      27.322  -4.106  35.216  1.00  0.00     0.293 HD
ENDBRANCH  15  18
ENDBRANCH   1  12
BRANCH  11  20
ATOM     20  C   UNL     1      23.355   2.862  39.365  1.00  0.00     0.188 C 
ATOM     21  C   UNL     1      22.540   3.186  40.659  1.00  0.00     0.179 C 
ATOM     22  O   UNL     1      24.691   2.356  39.583  1.00  0.00    -0.362 OA
ATOM     23  C   UNL     1      23.354   3.873  41.767  1.00  0.00     0.177 C 
ATOM     24  C   UNL     1      25.466   2.965  40.606  1.00  0.00     0.176 C 
ATOM     25  C   UNL     1      24.712   3.164  41.950  1.00  0.00     0.177 C 
BRANCH  21  26
ATOM     26  O   UNL     1      21.441   3.982  40.366  1.00  0.00    -0.387 OA
ATOM     27  H   UNL     1      21.152   3.740  39.440  1.00  0.00     0.211 HD
ENDBRANCH  21  26
BRANCH  23  28
ATOM     28  O   UNL     1      23.558   5.251  41.473  1.00  0.00    -0.387 OA
ATOM     29  H   UNL     1      24.505   5.370  41.186  1.00  0.00     0.211 HD
ENDBRANCH  23  28
BRANCH  24  30
ATOM     30  C   UNL     1      26.266   4.183  40.081  1.00  0.00     0.191 C 
BRANCH  30  31
ATOM     31  O   UNL     1      27.526   4.325  40.723  1.00  0.00    -0.394 OA
ATOM     32  H   UNL     1      27.352   4.764  41.611  1.00  0.00     0.210 HD
ENDBRANCH  30  31
ENDBRANCH  24  30
BRANCH  25  33
ATOM     33  O   UNL     1      25.572   3.834  42.852  1.00  0.00    -0.388 OA
ATOM     34  H   UNL     1      25.000   4.265  43.519  1.00  0.00     0.211 HD
ENDBRANCH  25  33
ENDBRANCH  11  20
BRANCH  10  35
ATOM     35  O   UNL     1      22.072   5.836  38.649  1.00  0.00    -0.507 OA
ATOM     36  H   UNL     1      21.624   6.638  38.241  1.00  0.00     0.293 HD
ENDBRANCH  10  35
TORSDOF 9
ENDMDL
MODEL 9
REMARK VINA RESULT:    -5.768      2.326      4.584
REMARK INTER + INTRA:          -8.180
REMARK INTER:                  -7.422
REMARK INTRA:                  -0.758
REMARK UNBOUND:                -0.389
REMARK SMILES O=c1c(-c2ccc(O)cc2)coc2c([C@H]3O[C@@H](CO)[C@@H](O)[C@@H](O)[C@H]3O)c(O)ccc12
REMARK SMILES IDX 3 1 11 2 12 3 13 4 30 5 2 6 1 7 29 8 28 9 26 10 14 11 4 12
REMARK SMILES IDX 5 13 6 14 7 15 10 16 9 17 8 18 15 20 24 21 16 22 22 23 17 24
REMARK SMILES IDX 20 25 25 26 23 28 18 30 19 31 21 33 27 35
REMARK H PARENT 8 19 25 27 23 29 19 32 21 34 27 36
REMARK Flexibility Score: inf
ROOT
ATOM      1  C   UNL     1      24.258   0.297  34.510  1.00  0.00     0.065 A 
ATOM      2  C   UNL     1      25.069   1.481  34.465  1.00  0.00     0.208 A 
ATOM      3  O   UNL     1      24.923   2.429  35.371  1.00  0.00    -0.463 OA
ATOM      4  C   UNL     1      23.874   2.403  36.214  1.00  0.00     0.147 A 
ATOM      5  C   UNL     1      22.796   1.534  35.977  1.00  0.00     0.066 A 
ATOM      6  C   UNL     1      22.984   0.468  35.100  1.00  0.00     0.200 A 
ATOM      7  O   UNL     1      22.048  -0.321  34.833  1.00  0.00    -0.288 OA
ATOM      8  C   UNL     1      21.545   1.872  36.549  1.00  0.00     0.020 A 
ATOM      9  C   UNL     1      21.375   3.206  36.914  1.00  0.00     0.047 A 
ATOM     10  C   UNL     1      22.516   3.923  37.309  1.00  0.00     0.125 A 
ATOM     11  C   UNL     1      23.774   3.295  37.290  1.00  0.00     0.069 A 
ENDROOT
BRANCH   1  12
ATOM     12  C   UNL     1      24.976  -1.039  34.704  1.00  0.00    -0.011 A 
ATOM     13  C   UNL     1      24.847  -2.075  33.743  1.00  0.00     0.013 A 
ATOM     14  C   UNL     1      25.824  -3.034  33.607  1.00  0.00     0.047 A 
ATOM     15  C   UNL     1      26.957  -2.983  34.430  1.00  0.00     0.115 A 
ATOM     16  C   UNL     1      26.041  -1.132  35.612  1.00  0.00     0.013 A 
ATOM     17  C   UNL     1      27.021  -2.083  35.479  1.00  0.00     0.047 A 
BRANCH  15  18
ATOM     18  O   UNL     1      27.996  -3.899  34.254  1.00  0.00    -0.508 OA
ATOM     19  H   UNL     1      28.174  -4.633  34.943  1.00  0.00     0.293 HD
ENDBRANCH  15  18
ENDBRANCH   1  12
BRANCH  11  20
ATOM     20  C   UNL     1      24.205   2.636  38.623  1.00  0.00     0.188 C 
ATOM     21  C   UNL     1      24.586   3.502  39.867  1.00  0.00     0.179 C 
ATOM     22  O   UNL     1      25.048   1.487  38.384  1.00  0.00    -0.362 OA
ATOM     23  C   UNL     1      26.097   3.718  40.051  1.00  0.00     0.177 C 
ATOM     24  C   UNL     1      26.449   1.652  38.553  1.00  0.00     0.176 C 
ATOM     25  C   UNL     1      26.854   2.388  39.861  1.00  0.00     0.177 C 
BRANCH  21  26
ATOM     26  O   UNL     1      23.970   4.744  39.814  1.00  0.00    -0.387 OA
ATOM     27  H   UNL     1      23.060   4.595  39.427  1.00  0.00     0.211 HD
ENDBRANCH  21  26
BRANCH  23  28
ATOM     28  O   UNL     1      26.589   4.695  39.140  1.00  0.00    -0.387 OA
ATOM     29  H   UNL     1      27.346   5.173  39.578  1.00  0.00     0.211 HD
ENDBRANCH  23  28
BRANCH  24  30
ATOM     30  C   UNL     1      27.138   2.136  37.253  1.00  0.00     0.191 C 
BRANCH  30  31
ATOM     31  O   UNL     1      28.295   1.375  36.934  1.00  0.00    -0.394 OA
ATOM     32  H   UNL     1      28.382   0.667  37.644  1.00  0.00     0.210 HD
ENDBRANCH  30  31
ENDBRANCH  24  30
BRANCH  25  33
ATOM     33  O   UNL     1      28.261   2.542  39.871  1.00  0.00    -0.388 OA
ATOM     34  H   UNL     1      28.493   3.059  39.073  1.00  0.00     0.211 HD
ENDBRANCH  25  33
ENDBRANCH  11  20
BRANCH  10  35
ATOM     35  O   UNL     1      22.375   5.247  37.707  1.00  0.00    -0.507 OA
ATOM     36  H   UNL     1      21.900   5.532  38.546  1.00  0.00     0.293 HD
ENDBRANCH  10  35
TORSDOF 9
ENDMDL
