MODEL 1
REMARK VINA RESULT:    -5.906      0.000      0.000
REMARK INTER + INTRA:          -6.653
REMARK INTER:                  -6.424
REMARK INTRA:                  -0.229
REMARK UNBOUND:                -0.229
REMARK SMILES CC(C)c1cc2c(cc1O)[C@@]1(C)CCCC(C)(C)[C@H]1CC2=O
REMARK SMILES IDX 4 1 9 2 8 3 7 4 6 5 5 6 21 7 22 8 20 9 19 10 11 11 13 12
REMARK SMILES IDX 14 13 15 14 16 15 17 16 18 17 12 18 2 19 1 20 3 21 10 22
REMARK H PARENT 10 23
REMARK Flexibility Score: inf
ROOT
ATOM      1  C   UNL     1      37.982 -37.601  -8.158  1.00  0.00    -0.003 A 
ATOM      2  C   UNL     1      37.807 -39.006  -8.045  1.00  0.00     0.119 A 
ATOM      3  C   UNL     1      38.346 -39.687  -6.950  1.00  0.00     0.051 A 
ATOM      4  C   UNL     1      39.078 -39.031  -5.935  1.00  0.00    -0.027 A 
ATOM      5  C   UNL     1      39.224 -37.637  -6.041  1.00  0.00     0.022 A 
ATOM      6  C   UNL     1      38.683 -36.941  -7.134  1.00  0.00     0.020 A 
ATOM      7  C   UNL     1      39.974 -36.908  -5.021  1.00  0.00     0.163 C 
ATOM      8  O   UNL     1      39.852 -35.658  -4.894  1.00  0.00    -0.294 OA
ATOM      9  C   UNL     1      40.956 -37.644  -4.191  1.00  0.00     0.086 C 
ATOM     10  C   UNL     1      40.354 -38.946  -3.604  1.00  0.00     0.013 C 
ATOM     11  C   UNL     1      39.563 -39.826  -4.690  1.00  0.00    -0.003 C 
ATOM     12  C   UNL     1      40.433 -41.043  -5.165  1.00  0.00     0.012 C 
ATOM     13  C   UNL     1      41.927 -40.738  -5.169  1.00  0.00     0.001 C 
ATOM     14  C   UNL     1      42.473 -40.451  -3.760  1.00  0.00     0.007 C 
ATOM     15  C   UNL     1      41.461 -39.754  -2.794  1.00  0.00    -0.031 C 
ATOM     16  C   UNL     1      42.259 -38.819  -1.840  1.00  0.00     0.011 C 
ATOM     17  C   UNL     1      40.811 -40.815  -1.864  1.00  0.00     0.011 C 
ATOM     18  C   UNL     1      38.266 -40.368  -4.023  1.00  0.00     0.017 C 
ENDROOT
BRANCH   1  19
ATOM     19  C   UNL     1      37.464 -36.754  -9.319  1.00  0.00     0.017 C 
ATOM     20  C   UNL     1      36.244 -35.898  -8.946  1.00  0.00     0.012 C 
ATOM     21  C   UNL     1      38.574 -35.953 -10.012  1.00  0.00     0.012 C 
ENDBRANCH   1  19
BRANCH   2  22
ATOM     22  O   UNL     1      37.106 -39.777  -8.974  1.00  0.00    -0.508 OA
ATOM     23  H   UNL     1      36.587 -40.612  -8.760  1.00  0.00     0.293 HD
ENDBRANCH   2  22
TORSDOF 2
ENDMDL
MODEL 2
REMARK VINA RESULT:    -5.600      4.154      6.920
REMARK INTER + INTRA:          -6.320
REMARK INTER:                  -6.078
REMARK INTRA:                  -0.242
REMARK UNBOUND:                -0.229
REMARK SMILES CC(C)c1cc2c(cc1O)[C@@]1(C)CCCC(C)(C)[C@H]1CC2=O
REMARK SMILES IDX 4 1 9 2 8 3 7 4 6 5 5 6 21 7 22 8 20 9 19 10 11 11 13 12
REMARK SMILES IDX 14 13 15 14 16 15 17 16 18 17 12 18 2 19 1 20 3 21 10 22
REMARK H PARENT 10 23
REMARK Flexibility Score: inf
ROOT
ATOM      1  C   UNL     1      42.590 -39.829  -3.856  1.00  0.00    -0.003 A 
ATOM      2  C   UNL     1      42.223 -38.460  -3.757  1.00  0.00     0.119 A 
ATOM      3  C   UNL     1      42.235 -37.826  -2.511  1.00  0.00     0.051 A 
ATOM      4  C   UNL     1      42.594 -38.500  -1.321  1.00  0.00    -0.027 A 
ATOM      5  C   UNL     1      42.980 -39.847  -1.432  1.00  0.00     0.022 A 
ATOM      6  C   UNL     1      42.977 -40.493  -2.679  1.00  0.00     0.020 A 
ATOM      7  C   UNL     1      43.358 -40.592  -0.235  1.00  0.00     0.163 C 
ATOM      8  O   UNL     1      44.014 -41.667  -0.318  1.00  0.00    -0.294 OA
ATOM      9  C   UNL     1      42.881 -40.117   1.085  1.00  0.00     0.086 C 
ATOM     10  C   UNL     1      43.137 -38.600   1.279  1.00  0.00     0.013 C 
ATOM     11  C   UNL     1      42.688 -37.714   0.017  1.00  0.00    -0.003 C 
ATOM     12  C   UNL     1      41.316 -37.002   0.292  1.00  0.00     0.012 C 
ATOM     13  C   UNL     1      40.395 -37.819   1.193  1.00  0.00     0.001 C 
ATOM     14  C   UNL     1      40.973 -38.014   2.603  1.00  0.00     0.007 C 
ATOM     15  C   UNL     1      42.532 -38.107   2.667  1.00  0.00    -0.031 C 
ATOM     16  C   UNL     1      42.919 -39.071   3.826  1.00  0.00     0.011 C 
ATOM     17  C   UNL     1      43.123 -36.731   3.077  1.00  0.00     0.011 C 
ATOM     18  C   UNL     1      43.777 -36.628  -0.225  1.00  0.00     0.017 C 
ENDROOT
BRANCH   1  19
ATOM     19  C   UNL     1      42.589 -40.634  -5.154  1.00  0.00     0.017 C 
ATOM     20  C   UNL     1      43.718 -41.674  -5.221  1.00  0.00     0.012 C 
ATOM     21  C   UNL     1      41.210 -41.218  -5.491  1.00  0.00     0.012 C 
ENDBRANCH   1  19
BRANCH   2  22
ATOM     22  O   UNL     1      41.849 -37.676  -4.850  1.00  0.00    -0.508 OA
ATOM     23  H   UNL     1      42.137 -37.833  -5.801  1.00  0.00     0.293 HD
ENDBRANCH   2  22
TORSDOF 2
ENDMDL
MODEL 3
REMARK VINA RESULT:    -5.421      2.421      6.598
REMARK INTER + INTRA:          -6.126
REMARK INTER:                  -5.885
REMARK INTRA:                  -0.240
REMARK UNBOUND:                -0.229
REMARK SMILES CC(C)c1cc2c(cc1O)[C@@]1(C)CCCC(C)(C)[C@H]1CC2=O
REMARK SMILES IDX 4 1 9 2 8 3 7 4 6 5 5 6 21 7 22 8 20 9 19 10 11 11 13 12
REMARK SMILES IDX 14 13 15 14 16 15 17 16 18 17 12 18 2 19 1 20 3 21 10 22
REMARK H PARENT 10 23
REMARK Flexibility Score: inf
ROOT
ATOM      1  C   UNL     1      40.667 -40.177  -0.583  1.00  0.00    -0.003 A 
ATOM      2  C   UNL     1      39.957 -41.265  -1.157  1.00  0.00     0.119 A 
ATOM      3  C   UNL     1      39.479 -41.168  -2.467  1.00  0.00     0.051 A 
ATOM      4  C   UNL     1      39.666 -40.012  -3.258  1.00  0.00    -0.027 A 
ATOM      5  C   UNL     1      40.392 -38.950  -2.691  1.00  0.00     0.022 A 
ATOM      6  C   UNL     1      40.882 -39.038  -1.378  1.00  0.00     0.020 A 
ATOM      7  C   UNL     1      40.612 -37.730  -3.463  1.00  0.00     0.163 C 
ATOM      8  O   UNL     1      41.514 -36.910  -3.137  1.00  0.00    -0.294 OA
ATOM      9  C   UNL     1      39.699 -37.419  -4.587  1.00  0.00     0.086 C 
ATOM     10  C   UNL     1      39.506 -38.636  -5.528  1.00  0.00     0.013 C 
ATOM     11  C   UNL     1      39.202 -40.004  -4.742  1.00  0.00    -0.003 C 
ATOM     12  C   UNL     1      37.673 -40.357  -4.804  1.00  0.00     0.012 C 
ATOM     13  C   UNL     1      36.781 -39.120  -4.839  1.00  0.00     0.001 C 
ATOM     14  C   UNL     1      36.994 -38.277  -6.107  1.00  0.00     0.007 C 
ATOM     15  C   UNL     1      38.452 -38.295  -6.670  1.00  0.00    -0.031 C 
ATOM     16  C   UNL     1      38.745 -36.909  -7.314  1.00  0.00     0.011 C 
ATOM     17  C   UNL     1      38.548 -39.309  -7.842  1.00  0.00     0.011 C 
ATOM     18  C   UNL     1      40.007 -41.146  -5.426  1.00  0.00     0.017 C 
ENDROOT
BRANCH   1  19
ATOM     19  C   UNL     1      41.213 -40.156   0.845  1.00  0.00     0.017 C 
ATOM     20  C   UNL     1      42.556 -40.886   0.989  1.00  0.00     0.012 C 
ATOM     21  C   UNL     1      41.222 -38.748   1.456  1.00  0.00     0.012 C 
ENDBRANCH   1  19
BRANCH   2  22
ATOM     22  O   UNL     1      39.703 -42.465  -0.489  1.00  0.00    -0.508 OA
ATOM     23  H   UNL     1      38.803 -42.761  -0.153  1.00  0.00     0.293 HD
ENDBRANCH   2  22
TORSDOF 2
ENDMDL
MODEL 4
REMARK VINA RESULT:    -5.365      1.966      2.505
REMARK INTER + INTRA:          -6.065
REMARK INTER:                  -5.862
REMARK INTRA:                  -0.203
REMARK UNBOUND:                -0.229
REMARK SMILES CC(C)c1cc2c(cc1O)[C@@]1(C)CCCC(C)(C)[C@H]1CC2=O
REMARK SMILES IDX 4 1 9 2 8 3 7 4 6 5 5 6 21 7 22 8 20 9 19 10 11 11 13 12
REMARK SMILES IDX 14 13 15 14 16 15 17 16 18 17 12 18 2 19 1 20 3 21 10 22
REMARK H PARENT 10 23
REMARK Flexibility Score: inf
ROOT
ATOM      1  C   UNL     1      37.156 -38.378  -7.561  1.00  0.00    -0.003 A 
ATOM      2  C   UNL     1      38.279 -39.237  -7.693  1.00  0.00     0.119 A 
ATOM      3  C   UNL     1      38.918 -39.727  -6.550  1.00  0.00     0.051 A 
ATOM      4  C   UNL     1      38.494 -39.391  -5.243  1.00  0.00    -0.027 A 
ATOM      5  C   UNL     1      37.366 -38.561  -5.122  1.00  0.00     0.022 A 
ATOM      6  C   UNL     1      36.713 -38.068  -6.263  1.00  0.00     0.020 A 
ATOM      7  C   UNL     1      36.887 -38.181  -3.796  1.00  0.00     0.163 C 
ATOM      8  O   UNL     1      35.720 -37.730  -3.632  1.00  0.00    -0.294 OA
ATOM      9  C   UNL     1      37.824 -38.245  -2.650  1.00  0.00     0.086 C 
ATOM     10  C   UNL     1      38.576 -39.600  -2.594  1.00  0.00     0.013 C 
ATOM     11  C   UNL     1      39.180 -40.049  -4.013  1.00  0.00    -0.003 C 
ATOM     12  C   UNL     1      40.724 -39.772  -4.077  1.00  0.00     0.012 C 
ATOM     13  C   UNL     1      41.140 -38.549  -3.267  1.00  0.00     0.001 C 
ATOM     14  C   UNL     1      40.882 -38.723  -1.762  1.00  0.00     0.007 C 
ATOM     15  C   UNL     1      39.636 -39.598  -1.407  1.00  0.00    -0.031 C 
ATOM     16  C   UNL     1      39.012 -39.051  -0.092  1.00  0.00     0.011 C 
ATOM     17  C   UNL     1      40.093 -41.042  -1.063  1.00  0.00     0.011 C 
ATOM     18  C   UNL     1      38.938 -41.577  -4.181  1.00  0.00     0.017 C 
ENDROOT
BRANCH   1  19
ATOM     19  C   UNL     1      36.394 -37.761  -8.733  1.00  0.00     0.017 C 
ATOM     20  C   UNL     1      35.565 -38.786  -9.521  1.00  0.00     0.012 C 
ATOM     21  C   UNL     1      35.592 -36.516  -8.331  1.00  0.00     0.012 C 
ENDBRANCH   1  19
BRANCH   2  22
ATOM     22  O   UNL     1      38.801 -39.649  -8.921  1.00  0.00    -0.508 OA
ATOM     23  H   UNL     1      38.367 -40.311  -9.541  1.00  0.00     0.293 HD
ENDBRANCH   2  22
TORSDOF 2
ENDMDL
MODEL 5
REMARK VINA RESULT:    -5.274      2.875      7.268
REMARK INTER + INTRA:          -5.966
REMARK INTER:                  -5.734
REMARK INTRA:                  -0.233
REMARK UNBOUND:                -0.229
REMARK SMILES CC(C)c1cc2c(cc1O)[C@@]1(C)CCCC(C)(C)[C@H]1CC2=O
REMARK SMILES IDX 4 1 9 2 8 3 7 4 6 5 5 6 21 7 22 8 20 9 19 10 11 11 13 12
REMARK SMILES IDX 14 13 15 14 16 15 17 16 18 17 12 18 2 19 1 20 3 21 10 22
REMARK H PARENT 10 23
REMARK Flexibility Score: inf
ROOT
ATOM      1  C   UNL     1      41.416 -41.021   0.079  1.00  0.00    -0.003 A 
ATOM      2  C   UNL     1      42.421 -40.858  -0.911  1.00  0.00     0.119 A 
ATOM      3  C   UNL     1      42.099 -40.270  -2.138  1.00  0.00     0.051 A 
ATOM      4  C   UNL     1      40.791 -39.832  -2.448  1.00  0.00    -0.027 A 
ATOM      5  C   UNL     1      39.808 -39.975  -1.453  1.00  0.00     0.022 A 
ATOM      6  C   UNL     1      40.121 -40.558  -0.215  1.00  0.00     0.020 A 
ATOM      7  C   UNL     1      38.440 -39.541  -1.721  1.00  0.00     0.163 C 
ATOM      8  O   UNL     1      37.625 -39.342  -0.777  1.00  0.00    -0.294 OA
ATOM      9  C   UNL     1      37.987 -39.424  -3.126  1.00  0.00     0.086 C 
ATOM     10  C   UNL     1      38.995 -38.625  -3.992  1.00  0.00     0.013 C 
ATOM     11  C   UNL     1      40.518 -39.094  -3.788  1.00  0.00    -0.003 C 
ATOM     12  C   UNL     1      40.989 -40.001  -4.980  1.00  0.00     0.012 C 
ATOM     13  C   UNL     1      39.859 -40.840  -5.568  1.00  0.00     0.001 C 
ATOM     14  C   UNL     1      38.756 -39.980  -6.203  1.00  0.00     0.007 C 
ATOM     15  C   UNL     1      38.522 -38.598  -5.512  1.00  0.00    -0.031 C 
ATOM     16  C   UNL     1      37.012 -38.241  -5.627  1.00  0.00     0.011 C 
ATOM     17  C   UNL     1      39.257 -37.484  -6.307  1.00  0.00     0.011 C 
ATOM     18  C   UNL     1      41.414 -37.822  -3.742  1.00  0.00     0.017 C 
ENDROOT
BRANCH   1  19
ATOM     19  C   UNL     1      41.641 -41.671   1.444  1.00  0.00     0.017 C 
ATOM     20  C   UNL     1      41.127 -40.817   2.612  1.00  0.00     0.012 C 
ATOM     21  C   UNL     1      41.152 -43.125   1.498  1.00  0.00     0.012 C 
ENDBRANCH   1  19
BRANCH   2  22
ATOM     22  O   UNL     1      43.752 -41.244  -0.736  1.00  0.00    -0.508 OA
ATOM     23  H   UNL     1      44.552 -40.674  -0.948  1.00  0.00     0.293 HD
ENDBRANCH   2  22
TORSDOF 2
ENDMDL
MODEL 6
REMARK VINA RESULT:    -5.250      2.156      3.449
REMARK INTER + INTRA:          -5.940
REMARK INTER:                  -5.837
REMARK INTRA:                  -0.103
REMARK UNBOUND:                -0.229
REMARK SMILES CC(C)c1cc2c(cc1O)[C@@]1(C)CCCC(C)(C)[C@H]1CC2=O
REMARK SMILES IDX 4 1 9 2 8 3 7 4 6 5 5 6 21 7 22 8 20 9 19 10 11 11 13 12
REMARK SMILES IDX 14 13 15 14 16 15 17 16 18 17 12 18 2 19 1 20 3 21 10 22
REMARK H PARENT 10 23
REMARK Flexibility Score: inf
ROOT
ATOM      1  C   UNL     1      40.200 -35.324  -9.262  1.00  0.00    -0.003 A 
ATOM      2  C   UNL     1      39.235 -36.259  -9.721  1.00  0.00     0.119 A 
ATOM      3  C   UNL     1      38.562 -37.071  -8.802  1.00  0.00     0.051 A 
ATOM      4  C   UNL     1      38.811 -37.008  -7.412  1.00  0.00    -0.027 A 
ATOM      5  C   UNL     1      39.749 -36.062  -6.964  1.00  0.00     0.022 A 
ATOM      6  C   UNL     1      40.426 -35.237  -7.878  1.00  0.00     0.020 A 
ATOM      7  C   UNL     1      40.046 -35.956  -5.539  1.00  0.00     0.163 C 
ATOM      8  O   UNL     1      40.610 -34.929  -5.067  1.00  0.00    -0.294 OA
ATOM      9  C   UNL     1      39.760 -37.113  -4.659  1.00  0.00     0.086 C 
ATOM     10  C   UNL     1      38.329 -37.667  -4.882  1.00  0.00     0.013 C 
ATOM     11  C   UNL     1      37.958 -37.863  -6.432  1.00  0.00    -0.003 C 
ATOM     12  C   UNL     1      38.061 -39.373  -6.846  1.00  0.00     0.012 C 
ATOM     13  C   UNL     1      39.141 -40.126  -6.076  1.00  0.00     0.001 C 
ATOM     14  C   UNL     1      38.847 -40.199  -4.569  1.00  0.00     0.007 C 
ATOM     15  C   UNL     1      38.089 -38.962  -3.988  1.00  0.00    -0.031 C 
ATOM     16  C   UNL     1      38.570 -38.736  -2.525  1.00  0.00     0.011 C 
ATOM     17  C   UNL     1      36.575 -39.285  -3.866  1.00  0.00     0.011 C 
ATOM     18  C   UNL     1      36.493 -37.383  -6.644  1.00  0.00     0.017 C 
ENDROOT
BRANCH   1  19
ATOM     19  C   UNL     1      41.015 -34.404 -10.170  1.00  0.00     0.017 C 
ATOM     20  C   UNL     1      41.932 -35.168 -11.138  1.00  0.00     0.012 C 
ATOM     21  C   UNL     1      40.154 -33.341 -10.866  1.00  0.00     0.012 C 
ENDBRANCH   1  19
BRANCH   2  22
ATOM     22  O   UNL     1      38.891 -36.424 -11.064  1.00  0.00    -0.508 OA
ATOM     23  H   UNL     1      39.291 -37.107 -11.685  1.00  0.00     0.293 HD
ENDBRANCH   2  22
TORSDOF 2
ENDMDL
MODEL 7
REMARK VINA RESULT:    -5.147      2.334      3.935
REMARK INTER + INTRA:          -5.827
REMARK INTER:                  -5.650
REMARK INTRA:                  -0.177
REMARK UNBOUND:                -0.229
REMARK SMILES CC(C)c1cc2c(cc1O)[C@@]1(C)CCCC(C)(C)[C@H]1CC2=O
REMARK SMILES IDX 4 1 9 2 8 3 7 4 6 5 5 6 21 7 22 8 20 9 19 10 11 11 13 12
REMARK SMILES IDX 14 13 15 14 16 15 17 16 18 17 12 18 2 19 1 20 3 21 10 22
REMARK H PARENT 10 23
REMARK Flexibility Score: inf
ROOT
ATOM      1  C   UNL     1      38.208 -39.379  -5.217  1.00  0.00    -0.003 A 
ATOM      2  C   UNL     1      37.361 -39.374  -4.077  1.00  0.00     0.119 A 
ATOM      3  C   UNL     1      37.912 -39.519  -2.800  1.00  0.00     0.051 A 
ATOM      4  C   UNL     1      39.300 -39.683  -2.589  1.00  0.00    -0.027 A 
ATOM      5  C   UNL     1      40.134 -39.661  -3.721  1.00  0.00     0.022 A 
ATOM      6  C   UNL     1      39.592 -39.510  -5.007  1.00  0.00     0.020 A 
ATOM      7  C   UNL     1      41.576 -39.829  -3.561  1.00  0.00     0.163 C 
ATOM      8  O   UNL     1      42.375 -39.491  -4.478  1.00  0.00    -0.294 OA
ATOM      9  C   UNL     1      42.089 -40.490  -2.339  1.00  0.00     0.086 C 
ATOM     10  C   UNL     1      41.460 -39.893  -1.053  1.00  0.00     0.013 C 
ATOM     11  C   UNL     1      39.864 -39.736  -1.141  1.00  0.00    -0.003 C 
ATOM     12  C   UNL     1      39.143 -40.886  -0.352  1.00  0.00     0.012 C 
ATOM     13  C   UNL     1      39.922 -42.197  -0.373  1.00  0.00     0.001 C 
ATOM     14  C   UNL     1      41.280 -42.087   0.338  1.00  0.00     0.007 C 
ATOM     15  C   UNL     1      41.965 -40.686   0.232  1.00  0.00    -0.031 C 
ATOM     16  C   UNL     1      43.506 -40.894   0.198  1.00  0.00     0.011 C 
ATOM     17  C   UNL     1      41.699 -39.875   1.530  1.00  0.00     0.011 C 
ATOM     18  C   UNL     1      39.475 -38.371  -0.503  1.00  0.00     0.017 C 
ENDROOT
BRANCH   1  19
ATOM     19  C   UNL     1      37.720 -39.255  -6.659  1.00  0.00     0.017 C 
ATOM     20  C   UNL     1      37.122 -37.876  -6.978  1.00  0.00     0.012 C 
ATOM     21  C   UNL     1      38.769 -39.709  -7.683  1.00  0.00     0.012 C 
ENDBRANCH   1  19
BRANCH   2  22
ATOM     22  O   UNL     1      35.974 -39.219  -4.141  1.00  0.00    -0.508 OA
ATOM     23  H   UNL     1      35.459 -38.452  -3.745  1.00  0.00     0.293 HD
ENDBRANCH   2  22
TORSDOF 2
ENDMDL
MODEL 8
REMARK VINA RESULT:    -5.110      1.902      6.144
REMARK INTER + INTRA:          -5.788
REMARK INTER:                  -5.546
REMARK INTRA:                  -0.242
REMARK UNBOUND:                -0.229
REMARK SMILES CC(C)c1cc2c(cc1O)[C@@]1(C)CCCC(C)(C)[C@H]1CC2=O
REMARK SMILES IDX 4 1 9 2 8 3 7 4 6 5 5 6 21 7 22 8 20 9 19 10 11 11 13 12
REMARK SMILES IDX 14 13 15 14 16 15 17 16 18 17 12 18 2 19 1 20 3 21 10 22
REMARK H PARENT 10 23
REMARK Flexibility Score: inf
ROOT
ATOM      1  C   UNL     1      40.376 -39.984  -3.223  1.00  0.00    -0.003 A 
ATOM      2  C   UNL     1      39.287 -40.656  -3.837  1.00  0.00     0.119 A 
ATOM      3  C   UNL     1      38.630 -40.069  -4.922  1.00  0.00     0.051 A 
ATOM      4  C   UNL     1      39.002 -38.807  -5.439  1.00  0.00    -0.027 A 
ATOM      5  C   UNL     1      40.097 -38.160  -4.842  1.00  0.00     0.022 A 
ATOM      6  C   UNL     1      40.768 -38.743  -3.755  1.00  0.00     0.020 A 
ATOM      7  C   UNL     1      40.523 -36.853  -5.335  1.00  0.00     0.163 C 
ATOM      8  O   UNL     1      41.669 -36.399  -5.066  1.00  0.00    -0.294 OA
ATOM      9  C   UNL     1      39.554 -36.020  -6.085  1.00  0.00     0.086 C 
ATOM     10  C   UNL     1      38.846 -36.825  -7.205  1.00  0.00     0.013 C 
ATOM     11  C   UNL     1      38.300 -38.253  -6.712  1.00  0.00    -0.003 C 
ATOM     12  C   UNL     1      36.751 -38.206  -6.465  1.00  0.00     0.012 C 
ATOM     13  C   UNL     1      36.270 -36.842  -5.981  1.00  0.00     0.001 C 
ATOM     14  C   UNL     1      36.488 -35.736  -7.026  1.00  0.00     0.007 C 
ATOM     15  C   UNL     1      37.750 -35.925  -7.928  1.00  0.00    -0.031 C 
ATOM     16  C   UNL     1      38.316 -34.520  -8.281  1.00  0.00     0.011 C 
ATOM     17  C   UNL     1      37.331 -36.541  -9.291  1.00  0.00     0.011 C 
ATOM     18  C   UNL     1      38.598 -39.297  -7.827  1.00  0.00     0.017 C 
ENDROOT
BRANCH   1  19
ATOM     19  C   UNL     1      41.152 -40.512  -2.017  1.00  0.00     0.017 C 
ATOM     20  C   UNL     1      42.651 -40.181  -2.072  1.00  0.00     0.012 C 
ATOM     21  C   UNL     1      40.500 -40.139  -0.680  1.00  0.00     0.012 C 
ENDBRANCH   1  19
BRANCH   2  22
ATOM     22  O   UNL     1      38.817 -41.906  -3.428  1.00  0.00    -0.508 OA
ATOM     23  H   UNL     1      39.006 -42.777  -3.894  1.00  0.00     0.293 HD
ENDBRANCH   2  22
TORSDOF 2
ENDMDL
MODEL 9
REMARK VINA RESULT:    -5.063      2.235      3.774
REMARK INTER + INTRA:          -5.736
REMARK INTER:                  -5.494
REMARK INTRA:                  -0.243
REMARK UNBOUND:                -0.229
REMARK SMILES CC(C)c1cc2c(cc1O)[C@@]1(C)CCCC(C)(C)[C@H]1CC2=O
REMARK SMILES IDX 4 1 9 2 8 3 7 4 6 5 5 6 21 7 22 8 20 9 19 10 11 11 13 12
REMARK SMILES IDX 14 13 15 14 16 15 17 16 18 17 12 18 2 19 1 20 3 21 10 22
REMARK H PARENT 10 23
REMARK Flexibility Score: inf
ROOT
ATOM      1  C   UNL     1      35.417 -35.792  -6.934  1.00  0.00    -0.003 A 
ATOM      2  C   UNL     1      35.265 -35.917  -5.527  1.00  0.00     0.119 A 
ATOM      3  C   UNL     1      36.126 -36.751  -4.807  1.00  0.00     0.051 A 
ATOM      4  C   UNL     1      37.153 -37.497  -5.428  1.00  0.00    -0.027 A 
ATOM      5  C   UNL     1      37.313 -37.348  -6.817  1.00  0.00     0.022 A 
ATOM      6  C   UNL     1      36.458 -36.508  -7.550  1.00  0.00     0.020 A 
ATOM      7  C   UNL     1      38.357 -38.097  -7.510  1.00  0.00     0.163 C 
ATOM      8  O   UNL     1      38.747 -37.755  -8.660  1.00  0.00    -0.294 OA
ATOM      9  C   UNL     1      38.893 -39.327  -6.882  1.00  0.00     0.086 C 
ATOM     10  C   UNL     1      39.276 -39.097  -5.397  1.00  0.00     0.013 C 
ATOM     11  C   UNL     1      38.142 -38.326  -4.561  1.00  0.00    -0.003 C 
ATOM     12  C   UNL     1      37.327 -39.328  -3.668  1.00  0.00     0.012 C 
ATOM     13  C   UNL     1      37.199 -40.712  -4.296  1.00  0.00     0.001 C 
ATOM     14  C   UNL     1      38.557 -41.415  -4.453  1.00  0.00     0.007 C 
ATOM     15  C   UNL     1      39.762 -40.459  -4.731  1.00  0.00    -0.031 C 
ATOM     16  C   UNL     1      40.778 -41.203  -5.645  1.00  0.00     0.011 C 
ATOM     17  C   UNL     1      40.533 -40.191  -3.410  1.00  0.00     0.011 C 
ATOM     18  C   UNL     1      38.842 -37.288  -3.637  1.00  0.00     0.017 C 
ENDROOT
BRANCH   1  19
ATOM     19  C   UNL     1      34.524 -34.934  -7.829  1.00  0.00     0.017 C 
ATOM     20  C   UNL     1      35.270 -34.336  -9.031  1.00  0.00     0.012 C 
ATOM     21  C   UNL     1      33.219 -35.641  -8.218  1.00  0.00     0.012 C 
ENDBRANCH   1  19
BRANCH   2  22
ATOM     22  O   UNL     1      34.295 -35.237  -4.788  1.00  0.00    -0.508 OA
ATOM     23  H   UNL     1      33.412 -34.918  -5.147  1.00  0.00     0.293 HD
ENDBRANCH   2  22
TORSDOF 2
ENDMDL
