MODEL 1
REMARK VINA RESULT:     0.000      0.000      0.000
REMARK INTER + INTRA:          -3.714
REMARK INTER:                   0.000
REMARK INTRA:                  -3.714
REMARK UNBOUND:                -3.714
REMARK SMILES CCCCCCCCC=CCCCCCCCC(=O)[O-]
REMARK SMILES IDX 10 1 9 2 11 3 12 4 13 5 14 6 15 7 16 8 17 9 18 10 19 11
REMARK SMILES IDX 20 12 8 13 7 14 6 15 5 16 4 17 3 18 2 19 1 20
REMARK H PARENT
REMARK Flexibility Score: inf
ROOT
ATOM      1  C   UNL     1       5.053  -5.964  -7.311  1.00  0.00    -0.031 C 
ATOM      2  C   UNL     1       4.858  -6.806  -6.284  1.00  0.00    -0.031 C 
ENDROOT
BRANCH   1   3
ATOM      3  C   UNL     1       5.473  -6.462  -8.666  1.00  0.00     0.027 C 
BRANCH   3   4
ATOM      4  C   UNL     1       4.908  -5.573  -9.782  1.00  0.00     0.004 C 
BRANCH   4   5
ATOM      5  C   UNL     1       4.259  -4.284  -9.250  1.00  0.00     0.000 C 
BRANCH   5   6
ATOM      6  C   UNL     1       2.762  -4.154  -9.602  1.00  0.00     0.000 C 
BRANCH   6   7
ATOM      7  C   UNL     1       1.857  -4.376  -8.378  1.00  0.00     0.000 C 
BRANCH   7   8
ATOM      8  C   UNL     1       0.936  -5.600  -8.531  1.00  0.00     0.006 C 
BRANCH   8   9
ATOM      9  C   UNL     1       1.441  -6.863  -7.816  1.00  0.00     0.053 C 
BRANCH   9  10
ATOM     10  C   UNL     1       2.072  -7.833  -8.767  1.00  0.00     0.041 C 
ATOM     11  O   UNL     1       2.708  -8.827  -8.327  1.00  0.00    -0.550 OA
ATOM     12  O   UNL     1       1.987  -7.620 -10.137  1.00  0.00    -0.550 OA
ENDBRANCH   9  10
ENDBRANCH   8   9
ENDBRANCH   7   8
ENDBRANCH   6   7
ENDBRANCH   5   6
ENDBRANCH   4   5
ENDBRANCH   3   4
ENDBRANCH   1   3
BRANCH   2  13
ATOM     13  C   UNL     1       4.420  -6.311  -4.931  1.00  0.00     0.027 C 
BRANCH  13  14
ATOM     14  C   UNL     1       3.328  -5.234  -5.029  1.00  0.00     0.004 C 
BRANCH  14  15
ATOM     15  C   UNL     1       3.832  -3.857  -4.564  1.00  0.00     0.000 C 
BRANCH  15  16
ATOM     16  C   UNL     1       3.821  -2.811  -5.690  1.00  0.00     0.000 C 
BRANCH  16  17
ATOM     17  C   UNL     1       5.238  -2.420  -6.144  1.00  0.00    -0.000 C 
BRANCH  17  18
ATOM     18  C   UNL     1       6.334  -3.046  -5.265  1.00  0.00    -0.000 C 
BRANCH  18  19
ATOM     19  C   UNL     1       7.523  -3.571  -6.084  1.00  0.00    -0.003 C 
ATOM     20  C   UNL     1       7.417  -3.139  -7.543  1.00  0.00     0.004 C 
ENDBRANCH  18  19
ENDBRANCH  17  18
ENDBRANCH  16  17
ENDBRANCH  15  16
ENDBRANCH  14  15
ENDBRANCH  13  14
ENDBRANCH   2  13
TORSDOF 15
ENDMDL
MODEL 2
REMARK VINA RESULT:     0.005      6.695      9.113
REMARK INTER + INTRA:          -3.705
REMARK INTER:                   0.000
REMARK INTRA:                  -3.705
REMARK UNBOUND:                -3.714
REMARK SMILES CCCCCCCCC=CCCCCCCCC(=O)[O-]
REMARK SMILES IDX 10 1 9 2 11 3 12 4 13 5 14 6 15 7 16 8 17 9 18 10 19 11
REMARK SMILES IDX 20 12 8 13 7 14 6 15 5 16 4 17 3 18 2 19 1 20
REMARK H PARENT
REMARK Flexibility Score: inf
ROOT
ATOM      1  C   UNL     1      -2.185  -7.876 -10.566  1.00  0.00    -0.031 C 
ATOM      2  C   UNL     1      -1.436  -7.204  -9.678  1.00  0.00    -0.031 C 
ENDROOT
BRANCH   1   3
ATOM      3  C   UNL     1      -2.243  -9.378 -10.569  1.00  0.00     0.027 C 
BRANCH   3   4
ATOM      4  C   UNL     1      -3.658  -9.877 -10.894  1.00  0.00     0.004 C 
BRANCH   4   5
ATOM      5  C   UNL     1      -4.603  -8.748 -11.340  1.00  0.00     0.000 C 
BRANCH   5   6
ATOM      6  C   UNL     1      -5.851  -8.597 -10.444  1.00  0.00     0.000 C 
BRANCH   6   7
ATOM      7  C   UNL     1      -5.766  -7.358  -9.535  1.00  0.00     0.000 C 
BRANCH   7   8
ATOM      8  C   UNL     1      -5.721  -7.717  -8.039  1.00  0.00     0.006 C 
BRANCH   8   9
ATOM      9  C   UNL     1      -4.314  -7.674  -7.423  1.00  0.00     0.053 C 
BRANCH   9  10
ATOM     10  C   UNL     1      -3.742  -9.045  -7.229  1.00  0.00     0.041 C 
ATOM     11  O   UNL     1      -2.535  -9.187  -6.903  1.00  0.00    -0.550 OA
ATOM     12  O   UNL     1      -4.535 -10.165  -7.442  1.00  0.00    -0.550 OA
ENDBRANCH   9  10
ENDBRANCH   8   9
ENDBRANCH   7   8
ENDBRANCH   6   7
ENDBRANCH   5   6
ENDBRANCH   4   5
ENDBRANCH   3   4
ENDBRANCH   1   3
BRANCH   2  13
ATOM     13  C   UNL     1      -1.390  -5.699  -9.663  1.00  0.00     0.027 C 
BRANCH  13  14
ATOM     14  C   UNL     1      -2.793  -5.073  -9.674  1.00  0.00     0.004 C 
BRANCH  14  15
ATOM     15  C   UNL     1      -3.076  -4.314 -10.983  1.00  0.00     0.000 C 
BRANCH  15  16
ATOM     16  C   UNL     1      -4.204  -4.955 -11.807  1.00  0.00     0.000 C 
BRANCH  16  17
ATOM     17  C   UNL     1      -3.695  -5.570 -13.123  1.00  0.00    -0.000 C 
BRANCH  17  18
ATOM     18  C   UNL     1      -2.195  -5.320 -13.350  1.00  0.00    -0.000 C 
BRANCH  18  19
ATOM     19  C   UNL     1      -1.461  -6.560 -13.881  1.00  0.00    -0.003 C 
ATOM     20  C   UNL     1      -2.446  -7.667 -14.241  1.00  0.00     0.004 C 
ENDBRANCH  18  19
ENDBRANCH  17  18
ENDBRANCH  16  17
ENDBRANCH  15  16
ENDBRANCH  14  15
ENDBRANCH  13  14
ENDBRANCH   2  13
TORSDOF 15
ENDMDL
MODEL 3
REMARK VINA RESULT:     0.013      7.948     10.952
REMARK INTER + INTRA:          -3.690
REMARK INTER:                   0.000
REMARK INTRA:                  -3.690
REMARK UNBOUND:                -3.714
REMARK SMILES CCCCCCCCC=CCCCCCCCC(=O)[O-]
REMARK SMILES IDX 10 1 9 2 11 3 12 4 13 5 14 6 15 7 16 8 17 9 18 10 19 11
REMARK SMILES IDX 20 12 8 13 7 14 6 15 5 16 4 17 3 18 2 19 1 20
REMARK H PARENT
REMARK Flexibility Score: inf
ROOT
ATOM      1  C   UNL     1      -4.677  -0.913  -9.646  1.00  0.00    -0.031 C 
ATOM      2  C   UNL     1      -4.924  -2.058 -10.301  1.00  0.00    -0.031 C 
ENDROOT
BRANCH   1   3
ATOM      3  C   UNL     1      -4.795  -0.822  -8.150  1.00  0.00     0.027 C 
BRANCH   3   4
ATOM      4  C   UNL     1      -4.038   0.399  -7.608  1.00  0.00     0.004 C 
BRANCH   4   5
ATOM      5  C   UNL     1      -3.610   1.377  -8.715  1.00  0.00     0.000 C 
BRANCH   5   6
ATOM      6  C   UNL     1      -2.082   1.573  -8.810  1.00  0.00     0.000 C 
BRANCH   6   7
ATOM      7  C   UNL     1      -1.490   0.917 -10.070  1.00  0.00     0.000 C 
BRANCH   7   8
ATOM      8  C   UNL     1      -0.468  -0.186  -9.744  1.00  0.00     0.006 C 
BRANCH   8   9
ATOM      9  C   UNL     1      -1.029  -1.614  -9.835  1.00  0.00     0.053 C 
BRANCH   9  10
ATOM     10  C   UNL     1      -1.376  -2.168  -8.487  1.00  0.00     0.041 C 
ATOM     11  O   UNL     1      -0.991  -1.580  -7.443  1.00  0.00    -0.550 OA
ATOM     12  O   UNL     1      -2.095  -3.352  -8.385  1.00  0.00    -0.550 OA
ENDBRANCH   9  10
ENDBRANCH   8   9
ENDBRANCH   7   8
ENDBRANCH   6   7
ENDBRANCH   5   6
ENDBRANCH   4   5
ENDBRANCH   3   4
ENDBRANCH   1   3
BRANCH   2  13
ATOM     13  C   UNL     1      -4.789  -2.156 -11.798  1.00  0.00     0.027 C 
BRANCH  13  14
ATOM     14  C   UNL     1      -3.724  -1.196 -12.351  1.00  0.00     0.004 C 
BRANCH  14  15
ATOM     15  C   UNL     1      -4.344  -0.076 -13.204  1.00  0.00     0.000 C 
BRANCH  15  16
ATOM     16  C   UNL     1      -4.129   1.319 -12.597  1.00  0.00     0.000 C 
BRANCH  16  17
ATOM     17  C   UNL     1      -5.417   1.902 -11.988  1.00  0.00    -0.000 C 
BRANCH  17  18
ATOM     18  C   UNL     1      -6.661   1.064 -12.327  1.00  0.00    -0.000 C 
BRANCH  18  19
ATOM     19  C   UNL     1      -7.540   0.783 -11.099  1.00  0.00    -0.003 C 
ATOM     20  C   UNL     1      -7.192   1.724  -9.950  1.00  0.00     0.004 C 
ENDBRANCH  18  19
ENDBRANCH  17  18
ENDBRANCH  16  17
ENDBRANCH  15  16
ENDBRANCH  14  15
ENDBRANCH  13  14
ENDBRANCH   2  13
TORSDOF 15
ENDMDL
MODEL 4
REMARK VINA RESULT:     0.014      5.895      8.650
REMARK INTER + INTRA:          -3.687
REMARK INTER:                   0.000
REMARK INTRA:                  -3.687
REMARK UNBOUND:                -3.714
REMARK SMILES CCCCCCCCC=CCCCCCCCC(=O)[O-]
REMARK SMILES IDX 10 1 9 2 11 3 12 4 13 5 14 6 15 7 16 8 17 9 18 10 19 11
REMARK SMILES IDX 20 12 8 13 7 14 6 15 5 16 4 17 3 18 2 19 1 20
REMARK H PARENT
REMARK Flexibility Score: inf
ROOT
ATOM      1  C   UNL     1      -0.719   0.115  -9.854  1.00  0.00    -0.031 C 
ATOM      2  C   UNL     1      -1.192   1.245 -10.401  1.00  0.00    -0.031 C 
ENDROOT
BRANCH   1   3
ATOM      3  C   UNL     1       0.618   0.072  -9.169  1.00  0.00     0.027 C 
BRANCH   3   4
ATOM      4  C   UNL     1       1.013  -1.368  -8.814  1.00  0.00     0.004 C 
BRANCH   4   5
ATOM      5  C   UNL     1      -0.179  -2.341  -8.849  1.00  0.00     0.000 C 
BRANCH   5   6
ATOM      6  C   UNL     1      -0.005  -3.496  -9.858  1.00  0.00     0.000 C 
BRANCH   6   7
ATOM      7  C   UNL     1      -0.941  -3.352 -11.071  1.00  0.00     0.000 C 
BRANCH   7   8
ATOM      8  C   UNL     1      -0.177  -3.234 -12.402  1.00  0.00     0.006 C 
BRANCH   8   9
ATOM      9  C   UNL     1      -0.043  -1.795 -12.927  1.00  0.00     0.053 C 
BRANCH   9  10
ATOM     10  C   UNL     1       1.291  -1.199 -12.597  1.00  0.00     0.041 C 
ATOM     11  O   UNL     1       2.226  -1.932 -12.178  1.00  0.00    -0.550 OA
ATOM     12  O   UNL     1       1.491   0.170 -12.717  1.00  0.00    -0.550 OA
ENDBRANCH   9  10
ENDBRANCH   8   9
ENDBRANCH   7   8
ENDBRANCH   6   7
ENDBRANCH   5   6
ENDBRANCH   4   5
ENDBRANCH   3   4
ENDBRANCH   1   3
BRANCH   2  13
ATOM     13  C   UNL     1      -2.539   1.294 -11.072  1.00  0.00     0.027 C 
BRANCH  13  14
ATOM     14  C   UNL     1      -3.060  -0.104 -11.438  1.00  0.00     0.004 C 
BRANCH  14  15
ATOM     15  C   UNL     1      -4.247  -0.526 -10.556  1.00  0.00     0.000 C 
BRANCH  15  16
ATOM     16  C   UNL     1      -3.933  -1.755  -9.688  1.00  0.00     0.000 C 
BRANCH  16  17
ATOM     17  C   UNL     1      -3.735  -1.393  -8.205  1.00  0.00    -0.000 C 
BRANCH  17  18
ATOM     18  C   UNL     1      -4.161   0.050  -7.888  1.00  0.00    -0.000 C 
BRANCH  18  19
ATOM     19  C   UNL     1      -3.083   0.832  -7.123  1.00  0.00    -0.003 C 
ATOM     20  C   UNL     1      -2.093  -0.115  -6.450  1.00  0.00     0.004 C 
ENDBRANCH  18  19
ENDBRANCH  17  18
ENDBRANCH  16  17
ENDBRANCH  15  16
ENDBRANCH  14  15
ENDBRANCH  13  14
ENDBRANCH   2  13
TORSDOF 15
ENDMDL
MODEL 5
REMARK VINA RESULT:     0.019      4.478      6.950
REMARK INTER + INTRA:          -3.679
REMARK INTER:                   0.000
REMARK INTRA:                  -3.679
REMARK UNBOUND:                -3.714
REMARK SMILES CCCCCCCCC=CCCCCCCCC(=O)[O-]
REMARK SMILES IDX 10 1 9 2 11 3 12 4 13 5 14 6 15 7 16 8 17 9 18 10 19 11
REMARK SMILES IDX 20 12 8 13 7 14 6 15 5 16 4 17 3 18 2 19 1 20
REMARK H PARENT
REMARK Flexibility Score: inf
ROOT
ATOM      1  C   UNL     1       0.747  -1.775  -8.808  1.00  0.00    -0.031 C 
ATOM      2  C   UNL     1       1.700  -1.634  -9.742  1.00  0.00    -0.031 C 
ENDROOT
BRANCH   1   3
ATOM      3  C   UNL     1      -0.675  -2.095  -9.176  1.00  0.00     0.027 C 
BRANCH   3   4
ATOM      4  C   UNL     1      -0.781  -3.486  -9.816  1.00  0.00     0.004 C 
BRANCH   4   5
ATOM      5  C   UNL     1      -1.217  -3.434 -11.291  1.00  0.00     0.000 C 
BRANCH   5   6
ATOM      6  C   UNL     1      -0.075  -3.742 -12.283  1.00  0.00     0.000 C 
BRANCH   6   7
ATOM      7  C   UNL     1       0.222  -2.553 -13.213  1.00  0.00     0.000 C 
BRANCH   7   8
ATOM      8  C   UNL     1      -0.674  -1.334 -12.928  1.00  0.00     0.006 C 
BRANCH   8   9
ATOM      9  C   UNL     1       0.099  -0.040 -12.626  1.00  0.00     0.053 C 
BRANCH   9  10
ATOM     10  C   UNL     1      -0.543   0.755 -11.530  1.00  0.00     0.041 C 
ATOM     11  O   UNL     1       0.166   1.438 -10.745  1.00  0.00    -0.550 OA
ATOM     12  O   UNL     1      -1.921   0.714 -11.356  1.00  0.00    -0.550 OA
ENDBRANCH   9  10
ENDBRANCH   8   9
ENDBRANCH   7   8
ENDBRANCH   6   7
ENDBRANCH   5   6
ENDBRANCH   4   5
ENDBRANCH   3   4
ENDBRANCH   1   3
BRANCH   2  13
ATOM     13  C   UNL     1       3.128  -1.331  -9.373  1.00  0.00     0.027 C 
BRANCH  13  14
ATOM     14  C   UNL     1       4.132  -2.009 -10.318  1.00  0.00     0.004 C 
BRANCH  14  15
ATOM     15  C   UNL     1       3.457  -2.533 -11.597  1.00  0.00     0.000 C 
BRANCH  15  16
ATOM     16  C   UNL     1       3.685  -4.037 -11.814  1.00  0.00     0.000 C 
BRANCH  16  17
ATOM     17  C   UNL     1       3.773  -4.817 -10.491  1.00  0.00    -0.000 C 
BRANCH  17  18
ATOM     18  C   UNL     1       2.412  -5.375 -10.043  1.00  0.00    -0.000 C 
BRANCH  18  19
ATOM     19  C   UNL     1       2.185  -5.240  -8.530  1.00  0.00    -0.003 C 
ATOM     20  C   UNL     1       3.435  -4.711  -7.833  1.00  0.00     0.004 C 
ENDBRANCH  18  19
ENDBRANCH  17  18
ENDBRANCH  16  17
ENDBRANCH  15  16
ENDBRANCH  14  15
ENDBRANCH  13  14
ENDBRANCH   2  13
TORSDOF 15
ENDMDL
MODEL 6
REMARK VINA RESULT:     0.022      5.599      8.606
REMARK INTER + INTRA:          -3.673
REMARK INTER:                   0.000
REMARK INTRA:                  -3.673
REMARK UNBOUND:                -3.714
REMARK SMILES CCCCCCCCC=CCCCCCCCC(=O)[O-]
REMARK SMILES IDX 10 1 9 2 11 3 12 4 13 5 14 6 15 7 16 8 17 9 18 10 19 11
REMARK SMILES IDX 20 12 8 13 7 14 6 15 5 16 4 17 3 18 2 19 1 20
REMARK H PARENT
REMARK Flexibility Score: inf
ROOT
ATOM      1  C   UNL     1      -0.425  -7.435 -10.731  1.00  0.00    -0.031 C 
ATOM      2  C   UNL     1      -1.311  -6.897  -9.879  1.00  0.00    -0.031 C 
ENDROOT
BRANCH   1   3
ATOM      3  C   UNL     1       0.920  -7.920 -10.267  1.00  0.00     0.027 C 
BRANCH   3   4
ATOM      4  C   UNL     1       1.764  -8.424 -11.445  1.00  0.00     0.004 C 
BRANCH   4   5
ATOM      5  C   UNL     1       0.946  -8.597 -12.736  1.00  0.00     0.000 C 
BRANCH   5   6
ATOM      6  C   UNL     1       1.470  -7.751 -13.917  1.00  0.00     0.000 C 
BRANCH   6   7
ATOM      7  C   UNL     1       0.367  -6.876 -14.537  1.00  0.00     0.000 C 
BRANCH   7   8
ATOM      8  C   UNL     1       0.240  -5.503 -13.853  1.00  0.00     0.006 C 
BRANCH   8   9
ATOM      9  C   UNL     1       1.564  -4.945 -13.307  1.00  0.00     0.053 C 
BRANCH   9  10
ATOM     10  C   UNL     1       1.463  -4.575 -11.859  1.00  0.00     0.041 C 
ATOM     11  O   UNL     1       0.416  -4.036 -11.415  1.00  0.00    -0.550 OA
ATOM     12  O   UNL     1       2.540  -4.793 -11.008  1.00  0.00    -0.550 OA
ENDBRANCH   9  10
ENDBRANCH   8   9
ENDBRANCH   7   8
ENDBRANCH   6   7
ENDBRANCH   5   6
ENDBRANCH   4   5
ENDBRANCH   3   4
ENDBRANCH   1   3
BRANCH   2  13
ATOM     13  C   UNL     1      -2.665  -6.427 -10.340  1.00  0.00     0.027 C 
BRANCH  13  14
ATOM     14  C   UNL     1      -2.742  -6.277 -11.866  1.00  0.00     0.004 C 
BRANCH  14  15
ATOM     15  C   UNL     1      -3.638  -7.351 -12.508  1.00  0.00     0.000 C 
BRANCH  15  16
ATOM     16  C   UNL     1      -2.865  -8.277 -13.460  1.00  0.00     0.000 C 
BRANCH  16  17
ATOM     17  C   UNL     1      -2.606  -9.665 -12.851  1.00  0.00    -0.000 C 
BRANCH  17  18
ATOM     18  C   UNL     1      -3.430  -9.913 -11.576  1.00  0.00    -0.000 C 
BRANCH  18  19
ATOM     19  C   UNL     1      -2.575 -10.427 -10.408  1.00  0.00    -0.003 C 
ATOM     20  C   UNL     1      -1.276 -11.050 -10.912  1.00  0.00     0.004 C 
ENDBRANCH  18  19
ENDBRANCH  17  18
ENDBRANCH  16  17
ENDBRANCH  15  16
ENDBRANCH  14  15
ENDBRANCH  13  14
ENDBRANCH   2  13
TORSDOF 15
ENDMDL
MODEL 7
REMARK VINA RESULT:     0.034      8.688     11.265
REMARK INTER + INTRA:          -3.651
REMARK INTER:                   0.000
REMARK INTRA:                  -3.651
REMARK UNBOUND:                -3.714
REMARK SMILES CCCCCCCCC=CCCCCCCCC(=O)[O-]
REMARK SMILES IDX 10 1 9 2 11 3 12 4 13 5 14 6 15 7 16 8 17 9 18 10 19 11
REMARK SMILES IDX 20 12 8 13 7 14 6 15 5 16 4 17 3 18 2 19 1 20
REMARK H PARENT
REMARK Flexibility Score: inf
ROOT
ATOM      1  C   UNL     1      -4.564  -9.327 -10.278  1.00  0.00    -0.031 C 
ATOM      2  C   UNL     1      -4.658  -9.177 -11.609  1.00  0.00    -0.031 C 
ENDROOT
BRANCH   1   3
ATOM      3  C   UNL     1      -4.991  -8.241  -9.332  1.00  0.00     0.027 C 
BRANCH   3   4
ATOM      4  C   UNL     1      -4.691  -6.852  -9.911  1.00  0.00     0.004 C 
BRANCH   4   5
ATOM      5  C   UNL     1      -5.964  -6.065 -10.266  1.00  0.00     0.000 C 
BRANCH   5   6
ATOM      6  C   UNL     1      -6.071  -5.706 -11.764  1.00  0.00     0.000 C 
BRANCH   6   7
ATOM      7  C   UNL     1      -7.297  -6.355 -12.430  1.00  0.00     0.000 C 
BRANCH   7   8
ATOM      8  C   UNL     1      -8.040  -7.325 -11.495  1.00  0.00     0.006 C 
BRANCH   8   9
ATOM      9  C   UNL     1      -8.271  -8.723 -12.090  1.00  0.00     0.053 C 
BRANCH   9  10
ATOM     10  C   UNL     1      -8.172  -9.799 -11.052  1.00  0.00     0.041 C 
ATOM     11  O   UNL     1      -7.917 -10.984 -11.392  1.00  0.00    -0.550 OA
ATOM     12  O   UNL     1      -8.395  -9.499  -9.714  1.00  0.00    -0.550 OA
ENDBRANCH   9  10
ENDBRANCH   8   9
ENDBRANCH   7   8
ENDBRANCH   6   7
ENDBRANCH   5   6
ENDBRANCH   4   5
ENDBRANCH   3   4
ENDBRANCH   1   3
BRANCH   2  13
ATOM     13  C   UNL     1      -4.247 -10.271 -12.558  1.00  0.00     0.027 C 
BRANCH  13  14
ATOM     14  C   UNL     1      -4.159  -9.781 -14.011  1.00  0.00     0.004 C 
BRANCH  14  15
ATOM     15  C   UNL     1      -5.051  -8.553 -14.261  1.00  0.00     0.000 C 
BRANCH  15  16
ATOM     16  C   UNL     1      -4.270  -7.361 -14.837  1.00  0.00     0.000 C 
BRANCH  16  17
ATOM     17  C   UNL     1      -2.826  -7.292 -14.310  1.00  0.00    -0.000 C 
BRANCH  17  18
ATOM     18  C   UNL     1      -2.685  -6.359 -13.095  1.00  0.00    -0.000 C 
BRANCH  18  19
ATOM     19  C   UNL     1      -1.709  -6.902 -12.041  1.00  0.00    -0.003 C 
ATOM     20  C   UNL     1      -1.102  -8.228 -12.487  1.00  0.00     0.004 C 
ENDBRANCH  18  19
ENDBRANCH  17  18
ENDBRANCH  16  17
ENDBRANCH  15  16
ENDBRANCH  14  15
ENDBRANCH  13  14
ENDBRANCH   2  13
TORSDOF 15
ENDMDL
MODEL 8
REMARK VINA RESULT:     0.036      8.243     10.463
REMARK INTER + INTRA:          -3.646
REMARK INTER:                   0.000
REMARK INTRA:                  -3.646
REMARK UNBOUND:                -3.714
REMARK SMILES CCCCCCCCC=CCCCCCCCC(=O)[O-]
REMARK SMILES IDX 10 1 9 2 11 3 12 4 13 5 14 6 15 7 16 8 17 9 18 10 19 11
REMARK SMILES IDX 20 12 8 13 7 14 6 15 5 16 4 17 3 18 2 19 1 20
REMARK H PARENT
REMARK Flexibility Score: inf
ROOT
ATOM      1  C   UNL     1      -6.545  -3.799  -5.785  1.00  0.00    -0.031 C 
ATOM      2  C   UNL     1      -7.297  -4.823  -5.353  1.00  0.00    -0.031 C 
ENDROOT
BRANCH   1   3
ATOM      3  C   UNL     1      -6.007  -3.757  -7.188  1.00  0.00     0.027 C 
BRANCH   3   4
ATOM      4  C   UNL     1      -4.559  -3.246  -7.211  1.00  0.00     0.004 C 
BRANCH   4   5
ATOM      5  C   UNL     1      -3.876  -3.324  -5.834  1.00  0.00     0.000 C 
BRANCH   5   6
ATOM      6  C   UNL     1      -2.969  -4.560  -5.663  1.00  0.00     0.000 C 
BRANCH   6   7
ATOM      7  C   UNL     1      -3.436  -5.468  -4.512  1.00  0.00     0.000 C 
BRANCH   7   8
ATOM      8  C   UNL     1      -4.133  -6.748  -5.008  1.00  0.00     0.006 C 
BRANCH   8   9
ATOM      9  C   UNL     1      -4.021  -6.982  -6.523  1.00  0.00     0.053 C 
BRANCH   9  10
ATOM     10  C   UNL     1      -5.323  -7.419  -7.122  1.00  0.00     0.041 C 
ATOM     11  O   UNL     1      -5.599  -7.128  -8.315  1.00  0.00    -0.550 OA
ATOM     12  O   UNL     1      -6.244  -8.116  -6.351  1.00  0.00    -0.550 OA
ENDBRANCH   9  10
ENDBRANCH   8   9
ENDBRANCH   7   8
ENDBRANCH   6   7
ENDBRANCH   5   6
ENDBRANCH   4   5
ENDBRANCH   3   4
ENDBRANCH   1   3
BRANCH   2  13
ATOM     13  C   UNL     1      -7.852  -4.859  -3.953  1.00  0.00     0.027 C 
BRANCH  13  14
ATOM     14  C   UNL     1      -6.755  -5.041  -2.894  1.00  0.00     0.004 C 
BRANCH  14  15
ATOM     15  C   UNL     1      -6.559  -3.775  -2.042  1.00  0.00     0.000 C 
BRANCH  15  16
ATOM     16  C   UNL     1      -5.230  -3.062  -2.337  1.00  0.00     0.000 C 
BRANCH  16  17
ATOM     17  C   UNL     1      -5.434  -1.647  -2.904  1.00  0.00    -0.000 C 
BRANCH  17  18
ATOM     18  C   UNL     1      -6.920  -1.278  -3.050  1.00  0.00    -0.000 C 
BRANCH  18  19
ATOM     19  C   UNL     1      -7.220  -0.532  -4.359  1.00  0.00    -0.003 C 
ATOM     20  C   UNL     1      -5.935  -0.221  -5.119  1.00  0.00     0.004 C 
ENDBRANCH  18  19
ENDBRANCH  17  18
ENDBRANCH  16  17
ENDBRANCH  15  16
ENDBRANCH  14  15
ENDBRANCH  13  14
ENDBRANCH   2  13
TORSDOF 15
ENDMDL
MODEL 9
REMARK VINA RESULT:     0.037      8.734     11.239
REMARK INTER + INTRA:          -3.645
REMARK INTER:                   0.000
REMARK INTRA:                  -3.645
REMARK UNBOUND:                -3.714
REMARK SMILES CCCCCCCCC=CCCCCCCCC(=O)[O-]
REMARK SMILES IDX 10 1 9 2 11 3 12 4 13 5 14 6 15 7 16 8 17 9 18 10 19 11
REMARK SMILES IDX 20 12 8 13 7 14 6 15 5 16 4 17 3 18 2 19 1 20
REMARK H PARENT
REMARK Flexibility Score: inf
ROOT
ATOM      1  C   UNL     1      -6.957  -4.342  -9.641  1.00  0.00    -0.031 C 
ATOM      2  C   UNL     1      -5.936  -4.979 -10.235  1.00  0.00    -0.031 C 
ENDROOT
BRANCH   1   3
ATOM      3  C   UNL     1      -7.976  -5.082  -8.821  1.00  0.00     0.027 C 
BRANCH   3   4
ATOM      4  C   UNL     1      -8.357  -4.288  -7.564  1.00  0.00     0.004 C 
BRANCH   4   5
ATOM      5  C   UNL     1      -7.312  -3.224  -7.188  1.00  0.00     0.000 C 
BRANCH   5   6
ATOM      6  C   UNL     1      -6.335  -3.681  -6.083  1.00  0.00     0.000 C 
BRANCH   6   7
ATOM      7  C   UNL     1      -4.873  -3.675  -6.562  1.00  0.00     0.000 C 
BRANCH   7   8
ATOM      8  C   UNL     1      -4.338  -5.086  -6.863  1.00  0.00     0.006 C 
BRANCH   8   9
ATOM      9  C   UNL     1      -5.253  -6.224  -6.381  1.00  0.00     0.053 C 
BRANCH   9  10
ATOM     10  C   UNL     1      -5.365  -7.322  -7.394  1.00  0.00     0.041 C 
ATOM     11  O   UNL     1      -6.417  -8.009  -7.469  1.00  0.00    -0.550 OA
ATOM     12  O   UNL     1      -4.294  -7.610  -8.230  1.00  0.00    -0.550 OA
ENDBRANCH   9  10
ENDBRANCH   8   9
ENDBRANCH   7   8
ENDBRANCH   6   7
ENDBRANCH   5   6
ENDBRANCH   4   5
ENDBRANCH   3   4
ENDBRANCH   1   3
BRANCH   2  13
ATOM     13  C   UNL     1      -4.904  -4.237 -11.042  1.00  0.00     0.027 C 
BRANCH  13  14
ATOM     14  C   UNL     1      -4.020  -3.333 -10.170  1.00  0.00     0.004 C 
BRANCH  14  15
ATOM     15  C   UNL     1      -4.277  -1.841 -10.438  1.00  0.00     0.000 C 
BRANCH  15  16
ATOM     16  C   UNL     1      -4.975  -1.139  -9.262  1.00  0.00     0.000 C 
BRANCH  16  17
ATOM     17  C   UNL     1      -6.367  -0.602  -9.639  1.00  0.00    -0.000 C 
BRANCH  17  18
ATOM     18  C   UNL     1      -6.737  -0.897 -11.103  1.00  0.00    -0.000 C 
BRANCH  18  19
ATOM     19  C   UNL     1      -8.200  -1.335 -11.267  1.00  0.00    -0.003 C 
ATOM     20  C   UNL     1      -8.957  -1.225  -9.948  1.00  0.00     0.004 C 
ENDBRANCH  18  19
ENDBRANCH  17  18
ENDBRANCH  16  17
ENDBRANCH  15  16
ENDBRANCH  14  15
ENDBRANCH  13  14
ENDBRANCH   2  13
TORSDOF 15
ENDMDL
