MODEL 1
REMARK VINA RESULT:    -3.623      0.000      0.000
REMARK INTER + INTRA:         -15.192
REMARK INTER:                  -9.552
REMARK INTRA:                  -5.639
REMARK UNBOUND:                -5.639
REMARK SMILES CCCCCCCCCCCCCCCCCCCCCCCCCCCCCC(=O)[O-]
REMARK SMILES IDX 16 1 17 2 18 3 19 4 20 5 21 6 22 7 23 8 24 9 25 10 26 11
REMARK SMILES IDX 27 12 28 13 29 14 30 15 31 16 32 17 15 18 14 19 13 20 12 21
REMARK SMILES IDX 11 22 10 23 9 24 8 25 7 26 6 27 5 28 4 29 3 30 2 31 1 32
REMARK H PARENT
REMARK Flexibility Score: inf
ROOT
ATOM      1  C   UNL     1     -22.135   2.934  21.917  1.00  0.00     0.000 C 
ENDROOT
BRANCH   1   2
ATOM      2  C   UNL     1     -22.740   1.518  22.001  1.00  0.00     0.000 C 
BRANCH   2   3
ATOM      3  C   UNL     1     -21.849   0.393  21.441  1.00  0.00     0.000 C 
BRANCH   3   4
ATOM      4  C   UNL     1     -22.506  -1.002  21.411  1.00  0.00     0.000 C 
BRANCH   4   5
ATOM      5  C   UNL     1     -21.845  -2.053  22.322  1.00  0.00     0.000 C 
BRANCH   5   6
ATOM      6  C   UNL     1     -22.690  -2.493  23.533  1.00  0.00     0.000 C 
BRANCH   6   7
ATOM      7  C   UNL     1     -23.834  -1.517  23.887  1.00  0.00     0.000 C 
BRANCH   7   8
ATOM      8  C   UNL     1     -23.496  -0.623  25.092  1.00  0.00     0.000 C 
BRANCH   8   9
ATOM      9  C   UNL     1     -22.147  -0.977  25.739  1.00  0.00     0.000 C 
BRANCH   9  10
ATOM     10  C   UNL     1     -21.272   0.263  25.998  1.00  0.00     0.000 C 
BRANCH  10  11
ATOM     11  C   UNL     1     -20.553   0.746  24.728  1.00  0.00     0.000 C 
BRANCH  11  12
ATOM     12  C   UNL     1     -19.210   0.028  24.502  1.00  0.00     0.000 C 
BRANCH  12  13
ATOM     13  C   UNL     1     -18.220   0.866  23.673  1.00  0.00     0.006 C 
BRANCH  13  14
ATOM     14  C   UNL     1     -17.048   0.060  23.089  1.00  0.00     0.053 C 
BRANCH  14  15
ATOM     15  C   UNL     1     -17.278  -0.310  21.656  1.00  0.00     0.041 C 
ATOM     16  O   UNL     1     -16.801  -1.380  21.193  1.00  0.00    -0.550 OA
ATOM     17  O   UNL     1     -18.046   0.511  20.841  1.00  0.00    -0.550 OA
ENDBRANCH  14  15
ENDBRANCH  13  14
ENDBRANCH  12  13
ENDBRANCH  11  12
ENDBRANCH  10  11
ENDBRANCH   9  10
ENDBRANCH   8   9
ENDBRANCH   7   8
ENDBRANCH   6   7
ENDBRANCH   5   6
ENDBRANCH   4   5
ENDBRANCH   3   4
ENDBRANCH   2   3
ENDBRANCH   1   2
BRANCH   1  18
ATOM     18  C   UNL     1     -20.630   2.977  21.595  1.00  0.00     0.000 C 
BRANCH  18  19
ATOM     19  C   UNL     1     -20.177   4.342  21.046  1.00  0.00     0.000 C 
BRANCH  19  20
ATOM     20  C   UNL     1     -21.310   5.101  20.340  1.00  0.00     0.000 C 
BRANCH  20  21
ATOM     21  C   UNL     1     -20.871   6.489  19.840  1.00  0.00     0.000 C 
BRANCH  21  22
ATOM     22  C   UNL     1     -21.809   7.611  20.311  1.00  0.00     0.000 C 
BRANCH  22  23
ATOM     23  C   UNL     1     -22.022   7.602  21.835  1.00  0.00     0.000 C 
BRANCH  23  24
ATOM     24  C   UNL     1     -23.479   7.307  22.228  1.00  0.00    -0.000 C 
BRANCH  24  25
ATOM     25  C   UNL     1     -23.699   5.951  22.928  1.00  0.00    -0.000 C 
BRANCH  25  26
ATOM     26  C   UNL     1     -25.088   5.806  23.584  1.00  0.00    -0.000 C 
BRANCH  26  27
ATOM     27  C   UNL     1     -25.031   5.034  24.916  1.00  0.00    -0.000 C 
BRANCH  27  28
ATOM     28  C   UNL     1     -24.640   3.560  24.727  1.00  0.00    -0.000 C 
BRANCH  28  29
ATOM     29  C   UNL     1     -23.528   3.117  25.694  1.00  0.00    -0.000 C 
BRANCH  29  30
ATOM     30  C   UNL     1     -22.550   4.252  26.039  1.00  0.00    -0.000 C 
BRANCH  30  31
ATOM     31  C   UNL     1     -21.212   4.167  25.274  1.00  0.00    -0.003 C 
ATOM     32  C   UNL     1     -20.708   5.539  24.825  1.00  0.00     0.004 C 
ENDBRANCH  30  31
ENDBRANCH  29  30
ENDBRANCH  28  29
ENDBRANCH  27  28
ENDBRANCH  26  27
ENDBRANCH  25  26
ENDBRANCH  24  25
ENDBRANCH  23  24
ENDBRANCH  22  23
ENDBRANCH  21  22
ENDBRANCH  20  21
ENDBRANCH  19  20
ENDBRANCH  18  19
ENDBRANCH   1  18
TORSDOF 28
ENDMDL
MODEL 2
REMARK VINA RESULT:    -3.614      1.853      6.625
REMARK INTER + INTRA:         -15.169
REMARK INTER:                  -9.025
REMARK INTRA:                  -6.144
REMARK UNBOUND:                -5.639
REMARK SMILES CCCCCCCCCCCCCCCCCCCCCCCCCCCCCC(=O)[O-]
REMARK SMILES IDX 16 1 17 2 18 3 19 4 20 5 21 6 22 7 23 8 24 9 25 10 26 11
REMARK SMILES IDX 27 12 28 13 29 14 30 15 31 16 32 17 15 18 14 19 13 20 12 21
REMARK SMILES IDX 11 22 10 23 9 24 8 25 7 26 6 27 5 28 4 29 3 30 2 31 1 32
REMARK H PARENT
REMARK Flexibility Score: inf
ROOT
ATOM      1  C   UNL     1     -19.943   4.550  20.714  1.00  0.00     0.000 C 
ENDROOT
BRANCH   1   2
ATOM      2  C   UNL     1     -19.855   6.019  20.253  1.00  0.00     0.000 C 
BRANCH   2   3
ATOM      3  C   UNL     1     -21.128   6.571  19.583  1.00  0.00     0.000 C 
BRANCH   3   4
ATOM      4  C   UNL     1     -21.793   7.750  20.322  1.00  0.00     0.000 C 
BRANCH   4   5
ATOM      5  C   UNL     1     -21.456   7.851  21.821  1.00  0.00     0.000 C 
BRANCH   5   6
ATOM      6  C   UNL     1     -22.358   7.018  22.752  1.00  0.00     0.000 C 
BRANCH   6   7
ATOM      7  C   UNL     1     -23.770   6.753  22.184  1.00  0.00     0.000 C 
BRANCH   7   8
ATOM      8  C   UNL     1     -24.738   6.197  23.243  1.00  0.00     0.000 C 
BRANCH   8   9
ATOM      9  C   UNL     1     -24.249   4.880  23.866  1.00  0.00     0.000 C 
BRANCH   9  10
ATOM     10  C   UNL     1     -24.520   4.806  25.380  1.00  0.00     0.000 C 
BRANCH  10  11
ATOM     11  C   UNL     1     -23.223   4.788  26.205  1.00  0.00     0.000 C 
BRANCH  11  12
ATOM     12  C   UNL     1     -21.981   4.491  25.344  1.00  0.00     0.000 C 
BRANCH  12  13
ATOM     13  C   UNL     1     -20.735   5.262  25.812  1.00  0.00     0.006 C 
BRANCH  13  14
ATOM     14  C   UNL     1     -19.405   4.546  25.522  1.00  0.00     0.053 C 
BRANCH  14  15
ATOM     15  C   UNL     1     -18.792   4.999  24.233  1.00  0.00     0.041 C 
ATOM     16  O   UNL     1     -19.063   6.138  23.768  1.00  0.00    -0.550 OA
ATOM     17  O   UNL     1     -17.897   4.177  23.562  1.00  0.00    -0.550 OA
ENDBRANCH  14  15
ENDBRANCH  13  14
ENDBRANCH  12  13
ENDBRANCH  11  12
ENDBRANCH  10  11
ENDBRANCH   9  10
ENDBRANCH   8   9
ENDBRANCH   7   8
ENDBRANCH   6   7
ENDBRANCH   5   6
ENDBRANCH   4   5
ENDBRANCH   3   4
ENDBRANCH   2   3
ENDBRANCH   1   2
BRANCH   1  18
ATOM     18  C   UNL     1     -21.367   4.052  21.026  1.00  0.00     0.000 C 
BRANCH  18  19
ATOM     19  C   UNL     1     -21.405   3.046  22.189  1.00  0.00     0.000 C 
BRANCH  19  20
ATOM     20  C   UNL     1     -21.193   1.597  21.726  1.00  0.00     0.000 C 
BRANCH  20  21
ATOM     21  C   UNL     1     -22.452   0.730  21.900  1.00  0.00     0.000 C 
BRANCH  21  22
ATOM     22  C   UNL     1     -23.601   1.487  22.585  1.00  0.00     0.000 C 
BRANCH  22  23
ATOM     23  C   UNL     1     -24.154   0.738  23.809  1.00  0.00     0.000 C 
BRANCH  23  24
ATOM     24  C   UNL     1     -23.490   1.179  25.124  1.00  0.00    -0.000 C 
BRANCH  24  25
ATOM     25  C   UNL     1     -22.275   0.333  25.551  1.00  0.00    -0.000 C 
BRANCH  25  26
ATOM     26  C   UNL     1     -20.979   1.151  25.738  1.00  0.00    -0.000 C 
BRANCH  26  27
ATOM     27  C   UNL     1     -19.781   0.531  24.994  1.00  0.00    -0.000 C 
BRANCH  27  28
ATOM     28  C   UNL     1     -19.960  -0.973  24.737  1.00  0.00    -0.000 C 
BRANCH  28  29
ATOM     29  C   UNL     1     -19.611  -1.370  23.293  1.00  0.00    -0.000 C 
BRANCH  29  30
ATOM     30  C   UNL     1     -20.273  -2.689  22.860  1.00  0.00    -0.000 C 
BRANCH  30  31
ATOM     31  C   UNL     1     -21.761  -2.535  22.477  1.00  0.00    -0.003 C 
ATOM     32  C   UNL     1     -22.698  -2.841  23.645  1.00  0.00     0.004 C 
ENDBRANCH  30  31
ENDBRANCH  29  30
ENDBRANCH  28  29
ENDBRANCH  27  28
ENDBRANCH  26  27
ENDBRANCH  25  26
ENDBRANCH  24  25
ENDBRANCH  23  24
ENDBRANCH  22  23
ENDBRANCH  21  22
ENDBRANCH  20  21
ENDBRANCH  19  20
ENDBRANCH  18  19
ENDBRANCH   1  18
TORSDOF 28
ENDMDL
MODEL 3
REMARK VINA RESULT:    -3.586      1.907      6.698
REMARK INTER + INTRA:         -15.096
REMARK INTER:                  -9.766
REMARK INTRA:                  -5.330
REMARK UNBOUND:                -5.639
REMARK SMILES CCCCCCCCCCCCCCCCCCCCCCCCCCCCCC(=O)[O-]
REMARK SMILES IDX 16 1 17 2 18 3 19 4 20 5 21 6 22 7 23 8 24 9 25 10 26 11
REMARK SMILES IDX 27 12 28 13 29 14 30 15 31 16 32 17 15 18 14 19 13 20 12 21
REMARK SMILES IDX 11 22 10 23 9 24 8 25 7 26 6 27 5 28 4 29 3 30 2 31 1 32
REMARK H PARENT
REMARK Flexibility Score: inf
ROOT
ATOM      1  C   UNL     1     -24.939   5.505  24.112  1.00  0.00     0.000 C 
ENDROOT
BRANCH   1   2
ATOM      2  C   UNL     1     -23.727   5.525  23.160  1.00  0.00     0.000 C 
BRANCH   2   3
ATOM      3  C   UNL     1     -23.645   6.753  22.233  1.00  0.00     0.000 C 
BRANCH   3   4
ATOM      4  C   UNL     1     -22.294   7.497  22.256  1.00  0.00     0.000 C 
BRANCH   4   5
ATOM      5  C   UNL     1     -21.801   7.992  20.884  1.00  0.00     0.000 C 
BRANCH   5   6
ATOM      6  C   UNL     1     -21.398   6.883  19.894  1.00  0.00     0.000 C 
BRANCH   6   7
ATOM      7  C   UNL     1     -20.462   5.812  20.499  1.00  0.00     0.000 C 
BRANCH   7   8
ATOM      8  C   UNL     1     -21.135   4.433  20.607  1.00  0.00     0.000 C 
BRANCH   8   9
ATOM      9  C   UNL     1     -20.203   3.356  21.185  1.00  0.00     0.000 C 
BRANCH   9  10
ATOM     10  C   UNL     1     -20.959   2.307  22.022  1.00  0.00     0.000 C 
BRANCH  10  11
ATOM     11  C   UNL     1     -22.480   2.381  21.816  1.00  0.00     0.000 C 
BRANCH  11  12
ATOM     12  C   UNL     1     -23.223   1.216  22.493  1.00  0.00     0.000 C 
BRANCH  12  13
ATOM     13  C   UNL     1     -22.295   0.039  22.840  1.00  0.00     0.006 C 
BRANCH  13  14
ATOM     14  C   UNL     1     -22.576  -1.243  22.038  1.00  0.00     0.053 C 
BRANCH  14  15
ATOM     15  C   UNL     1     -21.812  -1.280  20.751  1.00  0.00     0.041 C 
ATOM     16  O   UNL     1     -20.605  -0.922  20.720  1.00  0.00    -0.550 OA
ATOM     17  O   UNL     1     -22.422  -1.742  19.593  1.00  0.00    -0.550 OA
ENDBRANCH  14  15
ENDBRANCH  13  14
ENDBRANCH  12  13
ENDBRANCH  11  12
ENDBRANCH  10  11
ENDBRANCH   9  10
ENDBRANCH   8   9
ENDBRANCH   7   8
ENDBRANCH   6   7
ENDBRANCH   5   6
ENDBRANCH   4   5
ENDBRANCH   3   4
ENDBRANCH   2   3
ENDBRANCH   1   2
BRANCH   1  18
ATOM     18  C   UNL     1     -24.731   4.704  25.411  1.00  0.00     0.000 C 
BRANCH  18  19
ATOM     19  C   UNL     1     -24.293   3.251  25.152  1.00  0.00     0.000 C 
BRANCH  19  20
ATOM     20  C   UNL     1     -23.378   2.702  26.256  1.00  0.00     0.000 C 
BRANCH  20  21
ATOM     21  C   UNL     1     -22.189   3.633  26.556  1.00  0.00     0.000 C 
BRANCH  21  22
ATOM     22  C   UNL     1     -21.298   3.869  25.326  1.00  0.00     0.000 C 
BRANCH  22  23
ATOM     23  C   UNL     1     -20.899   5.345  25.161  1.00  0.00     0.000 C 
BRANCH  23  24
ATOM     24  C   UNL     1     -19.763   5.541  24.142  1.00  0.00    -0.000 C 
BRANCH  24  25
ATOM     25  C   UNL     1     -18.434   4.858  24.515  1.00  0.00    -0.000 C 
BRANCH  25  26
ATOM     26  C   UNL     1     -17.844   3.984  23.388  1.00  0.00    -0.000 C 
BRANCH  26  27
ATOM     27  C   UNL     1     -16.505   4.532  22.859  1.00  0.00    -0.000 C 
BRANCH  27  28
ATOM     28  C   UNL     1     -16.256   4.162  21.388  1.00  0.00    -0.000 C 
BRANCH  28  29
ATOM     29  C   UNL     1     -15.918   2.674  21.203  1.00  0.00    -0.000 C 
BRANCH  29  30
ATOM     30  C   UNL     1     -16.921   1.943  20.296  1.00  0.00    -0.000 C 
BRANCH  30  31
ATOM     31  C   UNL     1     -17.247   0.509  20.767  1.00  0.00    -0.003 C 
ATOM     32  C   UNL     1     -17.631   0.454  22.246  1.00  0.00     0.004 C 
ENDBRANCH  30  31
ENDBRANCH  29  30
ENDBRANCH  28  29
ENDBRANCH  27  28
ENDBRANCH  26  27
ENDBRANCH  25  26
ENDBRANCH  24  25
ENDBRANCH  23  24
ENDBRANCH  22  23
ENDBRANCH  21  22
ENDBRANCH  20  21
ENDBRANCH  19  20
ENDBRANCH  18  19
ENDBRANCH   1  18
TORSDOF 28
ENDMDL
MODEL 4
REMARK VINA RESULT:    -3.567      1.500      6.242
REMARK INTER + INTRA:         -15.044
REMARK INTER:                  -9.573
REMARK INTRA:                  -5.472
REMARK UNBOUND:                -5.639
REMARK SMILES CCCCCCCCCCCCCCCCCCCCCCCCCCCCCC(=O)[O-]
REMARK SMILES IDX 16 1 17 2 18 3 19 4 20 5 21 6 22 7 23 8 24 9 25 10 26 11
REMARK SMILES IDX 27 12 28 13 29 14 30 15 31 16 32 17 15 18 14 19 13 20 12 21
REMARK SMILES IDX 11 22 10 23 9 24 8 25 7 26 6 27 5 28 4 29 3 30 2 31 1 32
REMARK H PARENT
REMARK Flexibility Score: inf
ROOT
ATOM      1  C   UNL     1     -25.117   5.666  23.750  1.00  0.00     0.000 C 
ENDROOT
BRANCH   1   2
ATOM      2  C   UNL     1     -23.850   5.704  22.871  1.00  0.00     0.000 C 
BRANCH   2   3
ATOM      3  C   UNL     1     -23.489   7.091  22.306  1.00  0.00     0.000 C 
BRANCH   3   4
ATOM      4  C   UNL     1     -22.044   7.552  22.586  1.00  0.00     0.000 C 
BRANCH   4   5
ATOM      5  C   UNL     1     -21.249   7.991  21.342  1.00  0.00     0.000 C 
BRANCH   5   6
ATOM      6  C   UNL     1     -21.799   7.475  19.998  1.00  0.00     0.000 C 
BRANCH   6   7
ATOM      7  C   UNL     1     -21.381   6.025  19.666  1.00  0.00     0.000 C 
BRANCH   7   8
ATOM      8  C   UNL     1     -20.027   5.643  20.289  1.00  0.00     0.000 C 
BRANCH   8   9
ATOM      9  C   UNL     1     -20.166   4.662  21.464  1.00  0.00     0.000 C 
BRANCH   9  10
ATOM     10  C   UNL     1     -21.166   3.528  21.174  1.00  0.00     0.000 C 
BRANCH  10  11
ATOM     11  C   UNL     1     -20.518   2.138  21.273  1.00  0.00     0.000 C 
BRANCH  11  12
ATOM     12  C   UNL     1     -18.981   2.199  21.211  1.00  0.00     0.000 C 
BRANCH  12  13
ATOM     13  C   UNL     1     -18.315   0.901  21.699  1.00  0.00     0.006 C 
BRANCH  13  14
ATOM     14  C   UNL     1     -19.042   0.222  22.873  1.00  0.00     0.053 C 
BRANCH  14  15
ATOM     15  C   UNL     1     -18.166   0.099  24.081  1.00  0.00     0.041 C 
ATOM     16  O   UNL     1     -17.029   0.642  24.098  1.00  0.00    -0.550 OA
ATOM     17  O   UNL     1     -18.617  -0.587  25.200  1.00  0.00    -0.550 OA
ENDBRANCH  14  15
ENDBRANCH  13  14
ENDBRANCH  12  13
ENDBRANCH  11  12
ENDBRANCH  10  11
ENDBRANCH   9  10
ENDBRANCH   8   9
ENDBRANCH   7   8
ENDBRANCH   6   7
ENDBRANCH   5   6
ENDBRANCH   4   5
ENDBRANCH   3   4
ENDBRANCH   2   3
ENDBRANCH   1   2
BRANCH   1  18
ATOM     18  C   UNL     1     -25.120   4.571  24.834  1.00  0.00     0.000 C 
BRANCH  18  19
ATOM     19  C   UNL     1     -24.783   5.117  26.232  1.00  0.00     0.000 C 
BRANCH  19  20
ATOM     20  C   UNL     1     -23.543   4.450  26.845  1.00  0.00     0.000 C 
BRANCH  20  21
ATOM     21  C   UNL     1     -22.445   5.465  27.211  1.00  0.00     0.000 C 
BRANCH  21  22
ATOM     22  C   UNL     1     -21.100   5.148  26.538  1.00  0.00     0.000 C 
BRANCH  22  23
ATOM     23  C   UNL     1     -21.270   4.576  25.120  1.00  0.00     0.000 C 
BRANCH  23  24
ATOM     24  C   UNL     1     -20.453   3.293  24.897  1.00  0.00    -0.000 C 
BRANCH  24  25
ATOM     25  C   UNL     1     -21.238   1.982  25.098  1.00  0.00    -0.000 C 
BRANCH  25  26
ATOM     26  C   UNL     1     -22.517   1.883  24.240  1.00  0.00    -0.000 C 
BRANCH  26  27
ATOM     27  C   UNL     1     -23.663   1.162  24.974  1.00  0.00    -0.000 C 
BRANCH  27  28
ATOM     28  C   UNL     1     -24.004  -0.198  24.344  1.00  0.00    -0.000 C 
BRANCH  28  29
ATOM     29  C   UNL     1     -23.225  -0.458  23.044  1.00  0.00    -0.000 C 
BRANCH  29  30
ATOM     30  C   UNL     1     -22.630  -1.875  22.980  1.00  0.00    -0.000 C 
BRANCH  30  31
ATOM     31  C   UNL     1     -21.631  -2.071  21.819  1.00  0.00    -0.003 C 
ATOM     32  C   UNL     1     -21.977  -1.214  20.601  1.00  0.00     0.004 C 
ENDBRANCH  30  31
ENDBRANCH  29  30
ENDBRANCH  28  29
ENDBRANCH  27  28
ENDBRANCH  26  27
ENDBRANCH  25  26
ENDBRANCH  24  25
ENDBRANCH  23  24
ENDBRANCH  22  23
ENDBRANCH  21  22
ENDBRANCH  20  21
ENDBRANCH  19  20
ENDBRANCH  18  19
ENDBRANCH   1  18
TORSDOF 28
ENDMDL
MODEL 5
REMARK VINA RESULT:    -3.529      2.202      6.060
REMARK INTER + INTRA:         -14.945
REMARK INTER:                  -8.771
REMARK INTRA:                  -6.173
REMARK UNBOUND:                -5.639
REMARK SMILES CCCCCCCCCCCCCCCCCCCCCCCCCCCCCC(=O)[O-]
REMARK SMILES IDX 16 1 17 2 18 3 19 4 20 5 21 6 22 7 23 8 24 9 25 10 26 11
REMARK SMILES IDX 27 12 28 13 29 14 30 15 31 16 32 17 15 18 14 19 13 20 12 21
REMARK SMILES IDX 11 22 10 23 9 24 8 25 7 26 6 27 5 28 4 29 3 30 2 31 1 32
REMARK H PARENT
REMARK Flexibility Score: inf
ROOT
ATOM      1  C   UNL     1     -19.797   5.953  22.373  1.00  0.00     0.000 C 
ENDROOT
BRANCH   1   2
ATOM      2  C   UNL     1     -20.948   6.617  23.156  1.00  0.00     0.000 C 
BRANCH   2   3
ATOM      3  C   UNL     1     -21.690   7.737  22.401  1.00  0.00     0.000 C 
BRANCH   3   4
ATOM      4  C   UNL     1     -23.130   7.388  21.973  1.00  0.00     0.000 C 
BRANCH   4   5
ATOM      5  C   UNL     1     -23.667   6.054  22.523  1.00  0.00     0.000 C 
BRANCH   5   6
ATOM      6  C   UNL     1     -24.992   6.154  23.304  1.00  0.00     0.000 C 
BRANCH   6   7
ATOM      7  C   UNL     1     -25.125   5.122  24.446  1.00  0.00     0.000 C 
BRANCH   7   8
ATOM      8  C   UNL     1     -23.773   4.786  25.100  1.00  0.00     0.000 C 
BRANCH   8   9
ATOM      9  C   UNL     1     -23.831   4.801  26.635  1.00  0.00     0.000 C 
BRANCH   9  10
ATOM     10  C   UNL     1     -22.476   5.155  27.275  1.00  0.00     0.000 C 
BRANCH  10  11
ATOM     11  C   UNL     1     -21.289   4.791  26.370  1.00  0.00     0.000 C 
BRANCH  11  12
ATOM     12  C   UNL     1     -20.373   3.726  27.000  1.00  0.00     0.000 C 
BRANCH  12  13
ATOM     13  C   UNL     1     -19.731   2.799  25.953  1.00  0.00     0.006 C 
BRANCH  13  14
ATOM     14  C   UNL     1     -18.806   3.519  24.956  1.00  0.00     0.053 C 
BRANCH  14  15
ATOM     15  C   UNL     1     -17.587   4.078  25.623  1.00  0.00     0.041 C 
ATOM     16  O   UNL     1     -16.851   3.334  26.324  1.00  0.00    -0.550 OA
ATOM     17  O   UNL     1     -17.246   5.412  25.443  1.00  0.00    -0.550 OA
ENDBRANCH  14  15
ENDBRANCH  13  14
ENDBRANCH  12  13
ENDBRANCH  11  12
ENDBRANCH  10  11
ENDBRANCH   9  10
ENDBRANCH   8   9
ENDBRANCH   7   8
ENDBRANCH   6   7
ENDBRANCH   5   6
ENDBRANCH   4   5
ENDBRANCH   3   4
ENDBRANCH   2   3
ENDBRANCH   1   2
BRANCH   1  18
ATOM     18  C   UNL     1     -20.116   5.632  20.900  1.00  0.00     0.000 C 
BRANCH  18  19
ATOM     19  C   UNL     1     -21.002   4.384  20.741  1.00  0.00     0.000 C 
BRANCH  19  20
ATOM     20  C   UNL     1     -20.555   3.221  21.639  1.00  0.00     0.000 C 
BRANCH  20  21
ATOM     21  C   UNL     1     -21.584   2.890  22.734  1.00  0.00     0.000 C 
BRANCH  21  22
ATOM     22  C   UNL     1     -22.935   2.438  22.158  1.00  0.00     0.000 C 
BRANCH  22  23
ATOM     23  C   UNL     1     -23.808   1.713  23.197  1.00  0.00     0.000 C 
BRANCH  23  24
ATOM     24  C   UNL     1     -23.020   1.308  24.454  1.00  0.00    -0.000 C 
BRANCH  24  25
ATOM     25  C   UNL     1     -22.784  -0.206  24.611  1.00  0.00    -0.000 C 
BRANCH  25  26
ATOM     26  C   UNL     1     -23.329  -1.048  23.437  1.00  0.00    -0.000 C 
BRANCH  26  27
ATOM     27  C   UNL     1     -22.332  -2.126  22.975  1.00  0.00    -0.000 C 
BRANCH  27  28
ATOM     28  C   UNL     1     -21.841  -1.899  21.536  1.00  0.00    -0.000 C 
BRANCH  28  29
ATOM     29  C   UNL     1     -21.149  -0.537  21.357  1.00  0.00    -0.000 C 
BRANCH  29  30
ATOM     30  C   UNL     1     -19.670  -0.668  20.958  1.00  0.00    -0.000 C 
BRANCH  30  31
ATOM     31  C   UNL     1     -18.698  -0.038  21.979  1.00  0.00    -0.003 C 
ATOM     32  C   UNL     1     -19.312   0.073  23.375  1.00  0.00     0.004 C 
ENDBRANCH  30  31
ENDBRANCH  29  30
ENDBRANCH  28  29
ENDBRANCH  27  28
ENDBRANCH  26  27
ENDBRANCH  25  26
ENDBRANCH  24  25
ENDBRANCH  23  24
ENDBRANCH  22  23
ENDBRANCH  21  22
ENDBRANCH  20  21
ENDBRANCH  19  20
ENDBRANCH  18  19
ENDBRANCH   1  18
TORSDOF 28
ENDMDL
MODEL 6
REMARK VINA RESULT:    -3.518      3.354      5.947
REMARK INTER + INTRA:         -14.916
REMARK INTER:                  -9.273
REMARK INTRA:                  -5.644
REMARK UNBOUND:                -5.639
REMARK SMILES CCCCCCCCCCCCCCCCCCCCCCCCCCCCCC(=O)[O-]
REMARK SMILES IDX 16 1 17 2 18 3 19 4 20 5 21 6 22 7 23 8 24 9 25 10 26 11
REMARK SMILES IDX 27 12 28 13 29 14 30 15 31 16 32 17 15 18 14 19 13 20 12 21
REMARK SMILES IDX 11 22 10 23 9 24 8 25 7 26 6 27 5 28 4 29 3 30 2 31 1 32
REMARK H PARENT
REMARK Flexibility Score: inf
ROOT
ATOM      1  C   UNL     1     -23.791   0.726  23.840  1.00  0.00     0.000 C 
ENDROOT
BRANCH   1   2
ATOM      2  C   UNL     1     -23.647   1.702  22.655  1.00  0.00     0.000 C 
BRANCH   2   3
ATOM      3  C   UNL     1     -22.446   1.432  21.729  1.00  0.00     0.000 C 
BRANCH   3   4
ATOM      4  C   UNL     1     -21.936  -0.024  21.732  1.00  0.00     0.000 C 
BRANCH   4   5
ATOM      5  C   UNL     1     -20.409  -0.179  21.607  1.00  0.00     0.000 C 
BRANCH   5   6
ATOM      6  C   UNL     1     -19.691  -0.645  22.889  1.00  0.00     0.000 C 
BRANCH   6   7
ATOM      7  C   UNL     1     -20.166   0.077  24.170  1.00  0.00     0.000 C 
BRANCH   7   8
ATOM      8  C   UNL     1     -19.664   1.529  24.251  1.00  0.00     0.000 C 
BRANCH   8   9
ATOM      9  C   UNL     1     -20.544   2.417  25.145  1.00  0.00     0.000 C 
BRANCH   9  10
ATOM     10  C   UNL     1     -21.208   3.567  24.366  1.00  0.00     0.000 C 
BRANCH  10  11
ATOM     11  C   UNL     1     -20.524   4.918  24.624  1.00  0.00     0.000 C 
BRANCH  11  12
ATOM     12  C   UNL     1     -20.224   5.151  26.116  1.00  0.00     0.000 C 
BRANCH  12  13
ATOM     13  C   UNL     1     -21.494   5.153  26.985  1.00  0.00     0.006 C 
BRANCH  13  14
ATOM     14  C   UNL     1     -21.299   5.764  28.383  1.00  0.00     0.053 C 
BRANCH  14  15
ATOM     15  C   UNL     1     -22.600   5.951  29.101  1.00  0.00     0.041 C 
ATOM     16  O   UNL     1     -23.513   6.649  28.586  1.00  0.00    -0.550 OA
ATOM     17  O   UNL     1     -22.816   5.328  30.323  1.00  0.00    -0.550 OA
ENDBRANCH  14  15
ENDBRANCH  13  14
ENDBRANCH  12  13
ENDBRANCH  11  12
ENDBRANCH  10  11
ENDBRANCH   9  10
ENDBRANCH   8   9
ENDBRANCH   7   8
ENDBRANCH   6   7
ENDBRANCH   5   6
ENDBRANCH   4   5
ENDBRANCH   3   4
ENDBRANCH   2   3
ENDBRANCH   1   2
BRANCH   1  18
ATOM     18  C   UNL     1     -24.473   1.318  25.088  1.00  0.00     0.000 C 
BRANCH  18  19
ATOM     19  C   UNL     1     -25.102   2.698  24.825  1.00  0.00     0.000 C 
BRANCH  19  20
ATOM     20  C   UNL     1     -24.707   3.740  25.881  1.00  0.00     0.000 C 
BRANCH  20  21
ATOM     21  C   UNL     1     -24.546   5.151  25.289  1.00  0.00     0.000 C 
BRANCH  21  22
ATOM     22  C   UNL     1     -24.983   5.228  23.818  1.00  0.00     0.000 C 
BRANCH  22  23
ATOM     23  C   UNL     1     -23.807   5.501  22.866  1.00  0.00     0.000 C 
BRANCH  23  24
ATOM     24  C   UNL     1     -23.607   6.999  22.584  1.00  0.00    -0.000 C 
BRANCH  24  25
ATOM     25  C   UNL     1     -22.213   7.377  22.046  1.00  0.00    -0.000 C 
BRANCH  25  26
ATOM     26  C   UNL     1     -22.153   7.511  20.509  1.00  0.00    -0.000 C 
BRANCH  26  27
ATOM     27  C   UNL     1     -21.078   6.604  19.882  1.00  0.00    -0.000 C 
BRANCH  27  28
ATOM     28  C   UNL     1     -21.088   5.184  20.469  1.00  0.00    -0.000 C 
BRANCH  28  29
ATOM     29  C   UNL     1     -19.702   4.743  20.970  1.00  0.00    -0.000 C 
BRANCH  29  30
ATOM     30  C   UNL     1     -19.488   3.223  20.869  1.00  0.00    -0.000 C 
BRANCH  30  31
ATOM     31  C   UNL     1     -18.045   2.829  20.483  1.00  0.00    -0.003 C 
ATOM     32  C   UNL     1     -17.281   2.203  21.650  1.00  0.00     0.004 C 
ENDBRANCH  30  31
ENDBRANCH  29  30
ENDBRANCH  28  29
ENDBRANCH  27  28
ENDBRANCH  26  27
ENDBRANCH  25  26
ENDBRANCH  24  25
ENDBRANCH  23  24
ENDBRANCH  22  23
ENDBRANCH  21  22
ENDBRANCH  20  21
ENDBRANCH  19  20
ENDBRANCH  18  19
ENDBRANCH   1  18
TORSDOF 28
ENDMDL
MODEL 7
REMARK VINA RESULT:    -3.480      1.810      6.540
REMARK INTER + INTRA:         -14.816
REMARK INTER:                  -8.927
REMARK INTRA:                  -5.890
REMARK UNBOUND:                -5.639
REMARK SMILES CCCCCCCCCCCCCCCCCCCCCCCCCCCCCC(=O)[O-]
REMARK SMILES IDX 16 1 17 2 18 3 19 4 20 5 21 6 22 7 23 8 24 9 25 10 26 11
REMARK SMILES IDX 27 12 28 13 29 14 30 15 31 16 32 17 15 18 14 19 13 20 12 21
REMARK SMILES IDX 11 22 10 23 9 24 8 25 7 26 6 27 5 28 4 29 3 30 2 31 1 32
REMARK H PARENT
REMARK Flexibility Score: inf
ROOT
ATOM      1  C   UNL     1     -20.667   3.557  25.572  1.00  0.00     0.000 C 
ENDROOT
BRANCH   1   2
ATOM      2  C   UNL     1     -21.491   4.839  25.339  1.00  0.00     0.000 C 
BRANCH   2   3
ATOM      3  C   UNL     1     -22.900   4.831  25.962  1.00  0.00     0.000 C 
BRANCH   3   4
ATOM      4  C   UNL     1     -24.060   4.922  24.950  1.00  0.00     0.000 C 
BRANCH   4   5
ATOM      5  C   UNL     1     -23.629   5.090  23.481  1.00  0.00     0.000 C 
BRANCH   5   6
ATOM      6  C   UNL     1     -24.237   6.307  22.756  1.00  0.00     0.000 C 
BRANCH   6   7
ATOM      7  C   UNL     1     -23.187   7.308  22.225  1.00  0.00     0.000 C 
BRANCH   7   8
ATOM      8  C   UNL     1     -21.776   6.699  22.148  1.00  0.00     0.000 C 
BRANCH   8   9
ATOM      9  C   UNL     1     -21.137   6.843  20.758  1.00  0.00     0.000 C 
BRANCH   9  10
ATOM     10  C   UNL     1     -21.016   5.497  20.020  1.00  0.00     0.000 C 
BRANCH  10  11
ATOM     11  C   UNL     1     -21.335   4.301  20.931  1.00  0.00     0.000 C 
BRANCH  11  12
ATOM     12  C   UNL     1     -20.194   3.267  20.966  1.00  0.00     0.000 C 
BRANCH  12  13
ATOM     13  C   UNL     1     -18.800   3.917  20.924  1.00  0.00     0.006 C 
BRANCH  13  14
ATOM     14  C   UNL     1     -17.678   2.972  20.463  1.00  0.00     0.053 C 
BRANCH  14  15
ATOM     15  C   UNL     1     -16.325   3.602  20.589  1.00  0.00     0.041 C 
ATOM     16  O   UNL     1     -16.110   4.744  20.103  1.00  0.00    -0.550 OA
ATOM     17  O   UNL     1     -15.312   2.942  21.271  1.00  0.00    -0.550 OA
ENDBRANCH  14  15
ENDBRANCH  13  14
ENDBRANCH  12  13
ENDBRANCH  11  12
ENDBRANCH  10  11
ENDBRANCH   9  10
ENDBRANCH   8   9
ENDBRANCH   7   8
ENDBRANCH   6   7
ENDBRANCH   5   6
ENDBRANCH   4   5
ENDBRANCH   3   4
ENDBRANCH   2   3
ENDBRANCH   1   2
BRANCH   1  18
ATOM     18  C   UNL     1     -20.796   2.493  24.466  1.00  0.00     0.000 C 
BRANCH  18  19
ATOM     19  C   UNL     1     -20.206   1.132  24.876  1.00  0.00     0.000 C 
BRANCH  19  20
ATOM     20  C   UNL     1     -19.312   0.522  23.786  1.00  0.00     0.000 C 
BRANCH  20  21
ATOM     21  C   UNL     1     -19.456  -1.008  23.691  1.00  0.00     0.000 C 
BRANCH  21  22
ATOM     22  C   UNL     1     -20.665  -1.537  24.478  1.00  0.00     0.000 C 
BRANCH  22  23
ATOM     23  C   UNL     1     -21.612  -2.381  23.607  1.00  0.00     0.000 C 
BRANCH  23  24
ATOM     24  C   UNL     1     -21.389  -2.158  22.102  1.00  0.00    -0.000 C 
BRANCH  24  25
ATOM     25  C   UNL     1     -22.412  -1.222  21.428  1.00  0.00    -0.000 C 
BRANCH  25  26
ATOM     26  C   UNL     1     -22.024   0.271  21.486  1.00  0.00    -0.000 C 
BRANCH  26  27
ATOM     27  C   UNL     1     -23.137   1.143  22.096  1.00  0.00    -0.000 C 
BRANCH  27  28
ATOM     28  C   UNL     1     -23.683   0.567  23.412  1.00  0.00    -0.000 C 
BRANCH  28  29
ATOM     29  C   UNL     1     -24.691   1.508  24.094  1.00  0.00    -0.000 C 
BRANCH  29  30
ATOM     30  C   UNL     1     -24.880   1.197  25.588  1.00  0.00    -0.000 C 
BRANCH  30  31
ATOM     31  C   UNL     1     -23.622   0.601  26.257  1.00  0.00    -0.003 C 
ATOM     32  C   UNL     1     -23.106   1.468  27.406  1.00  0.00     0.004 C 
ENDBRANCH  30  31
ENDBRANCH  29  30
ENDBRANCH  28  29
ENDBRANCH  27  28
ENDBRANCH  26  27
ENDBRANCH  25  26
ENDBRANCH  24  25
ENDBRANCH  23  24
ENDBRANCH  22  23
ENDBRANCH  21  22
ENDBRANCH  20  21
ENDBRANCH  19  20
ENDBRANCH  18  19
ENDBRANCH   1  18
TORSDOF 28
ENDMDL
MODEL 8
REMARK VINA RESULT:    -3.463      1.663      4.097
REMARK INTER + INTRA:         -14.772
REMARK INTER:                  -9.210
REMARK INTRA:                  -5.563
REMARK UNBOUND:                -5.639
REMARK SMILES CCCCCCCCCCCCCCCCCCCCCCCCCCCCCC(=O)[O-]
REMARK SMILES IDX 16 1 17 2 18 3 19 4 20 5 21 6 22 7 23 8 24 9 25 10 26 11
REMARK SMILES IDX 27 12 28 13 29 14 30 15 31 16 32 17 15 18 14 19 13 20 12 21
REMARK SMILES IDX 11 22 10 23 9 24 8 25 7 26 6 27 5 28 4 29 3 30 2 31 1 32
REMARK H PARENT
REMARK Flexibility Score: inf
ROOT
ATOM      1  C   UNL     1     -22.841   7.108  22.468  1.00  0.00     0.000 C 
ENDROOT
BRANCH   1   2
ATOM      2  C   UNL     1     -23.809   5.908  22.476  1.00  0.00     0.000 C 
BRANCH   2   3
ATOM      3  C   UNL     1     -24.755   5.840  23.691  1.00  0.00     0.000 C 
BRANCH   3   4
ATOM      4  C   UNL     1     -24.802   4.473  24.403  1.00  0.00     0.000 C 
BRANCH   4   5
ATOM      5  C   UNL     1     -23.936   3.375  23.760  1.00  0.00     0.000 C 
BRANCH   5   6
ATOM      6  C   UNL     1     -23.771   2.094  24.601  1.00  0.00     0.000 C 
BRANCH   6   7
ATOM      7  C   UNL     1     -22.631   1.170  24.118  1.00  0.00     0.000 C 
BRANCH   7   8
ATOM      8  C   UNL     1     -22.756   0.809  22.627  1.00  0.00     0.000 C 
BRANCH   8   9
ATOM      9  C   UNL     1     -22.763  -0.707  22.377  1.00  0.00     0.000 C 
BRANCH   9  10
ATOM     10  C   UNL     1     -22.176  -1.084  21.005  1.00  0.00     0.000 C 
BRANCH  10  11
ATOM     11  C   UNL     1     -20.654  -0.881  20.945  1.00  0.00     0.000 C 
BRANCH  11  12
ATOM     12  C   UNL     1     -19.921  -1.580  22.104  1.00  0.00     0.000 C 
BRANCH  12  13
ATOM     13  C   UNL     1     -18.391  -1.442  22.010  1.00  0.00     0.006 C 
BRANCH  13  14
ATOM     14  C   UNL     1     -17.913  -0.463  20.925  1.00  0.00     0.053 C 
BRANCH  14  15
ATOM     15  C   UNL     1     -16.545   0.074  21.216  1.00  0.00     0.041 C 
ATOM     16  O   UNL     1     -15.825  -0.469  22.095  1.00  0.00    -0.550 OA
ATOM     17  O   UNL     1     -16.053   1.152  20.492  1.00  0.00    -0.550 OA
ENDBRANCH  14  15
ENDBRANCH  13  14
ENDBRANCH  12  13
ENDBRANCH  11  12
ENDBRANCH  10  11
ENDBRANCH   9  10
ENDBRANCH   8   9
ENDBRANCH   7   8
ENDBRANCH   6   7
ENDBRANCH   5   6
ENDBRANCH   4   5
ENDBRANCH   3   4
ENDBRANCH   2   3
ENDBRANCH   1   2
BRANCH   1  18
ATOM     18  C   UNL     1     -22.059   7.301  21.156  1.00  0.00     0.000 C 
BRANCH  18  19
ATOM     19  C   UNL     1     -20.784   6.441  21.090  1.00  0.00     0.000 C 
BRANCH  19  20
ATOM     20  C   UNL     1     -20.959   5.189  20.218  1.00  0.00     0.000 C 
BRANCH  20  21
ATOM     21  C   UNL     1     -21.224   3.921  21.050  1.00  0.00     0.000 C 
BRANCH  21  22
ATOM     22  C   UNL     1     -20.053   2.926  20.999  1.00  0.00     0.000 C 
BRANCH  22  23
ATOM     23  C   UNL     1     -19.549   2.536  22.398  1.00  0.00     0.000 C 
BRANCH  23  24
ATOM     24  C   UNL     1     -19.259   3.757  23.287  1.00  0.00    -0.000 C 
BRANCH  24  25
ATOM     25  C   UNL     1     -20.196   3.913  24.500  1.00  0.00    -0.000 C 
BRANCH  25  26
ATOM     26  C   UNL     1     -20.722   5.350  24.702  1.00  0.00    -0.000 C 
BRANCH  26  27
ATOM     27  C   UNL     1     -21.617   5.478  25.949  1.00  0.00    -0.000 C 
BRANCH  27  28
ATOM     28  C   UNL     1     -21.703   4.170  26.751  1.00  0.00    -0.000 C 
BRANCH  28  29
ATOM     29  C   UNL     1     -22.959   4.102  27.636  1.00  0.00    -0.000 C 
BRANCH  29  30
ATOM     30  C   UNL     1     -23.607   5.479  27.858  1.00  0.00    -0.000 C 
BRANCH  30  31
ATOM     31  C   UNL     1     -23.340   6.067  29.260  1.00  0.00    -0.003 C 
ATOM     32  C   UNL     1     -22.040   6.870  29.318  1.00  0.00     0.004 C 
ENDBRANCH  30  31
ENDBRANCH  29  30
ENDBRANCH  28  29
ENDBRANCH  27  28
ENDBRANCH  26  27
ENDBRANCH  25  26
ENDBRANCH  24  25
ENDBRANCH  23  24
ENDBRANCH  22  23
ENDBRANCH  21  22
ENDBRANCH  20  21
ENDBRANCH  19  20
ENDBRANCH  18  19
ENDBRANCH   1  18
TORSDOF 28
ENDMDL
MODEL 9
REMARK VINA RESULT:    -3.433      3.873      7.418
REMARK INTER + INTRA:         -14.691
REMARK INTER:                  -9.268
REMARK INTRA:                  -5.423
REMARK UNBOUND:                -5.639
REMARK SMILES CCCCCCCCCCCCCCCCCCCCCCCCCCCCCC(=O)[O-]
REMARK SMILES IDX 16 1 17 2 18 3 19 4 20 5 21 6 22 7 23 8 24 9 25 10 26 11
REMARK SMILES IDX 27 12 28 13 29 14 30 15 31 16 32 17 15 18 14 19 13 20 12 21
REMARK SMILES IDX 11 22 10 23 9 24 8 25 7 26 6 27 5 28 4 29 3 30 2 31 1 32
REMARK H PARENT
REMARK Flexibility Score: inf
ROOT
ATOM      1  C   UNL     1     -20.748   4.134  21.206  1.00  0.00     0.000 C 
ENDROOT
BRANCH   1   2
ATOM      2  C   UNL     1     -20.645   5.636  20.872  1.00  0.00     0.000 C 
BRANCH   2   3
ATOM      3  C   UNL     1     -20.261   6.544  22.056  1.00  0.00     0.000 C 
BRANCH   3   4
ATOM      4  C   UNL     1     -21.450   7.057  22.894  1.00  0.00     0.000 C 
BRANCH   4   5
ATOM      5  C   UNL     1     -22.716   7.397  22.087  1.00  0.00     0.000 C 
BRANCH   5   6
ATOM      6  C   UNL     1     -23.988   6.640  22.513  1.00  0.00     0.000 C 
BRANCH   6   7
ATOM      7  C   UNL     1     -23.709   5.342  23.304  1.00  0.00     0.000 C 
BRANCH   7   8
ATOM      8  C   UNL     1     -24.740   5.097  24.419  1.00  0.00     0.000 C 
BRANCH   8   9
ATOM      9  C   UNL     1     -24.112   4.521  25.699  1.00  0.00     0.000 C 
BRANCH   9  10
ATOM     10  C   UNL     1     -22.574   4.579  25.680  1.00  0.00     0.000 C 
BRANCH  10  11
ATOM     11  C   UNL     1     -22.003   5.324  26.897  1.00  0.00     0.000 C 
BRANCH  11  12
ATOM     12  C   UNL     1     -22.877   5.158  28.153  1.00  0.00     0.000 C 
BRANCH  12  13
ATOM     13  C   UNL     1     -23.355   6.504  28.727  1.00  0.00     0.006 C 
BRANCH  13  14
ATOM     14  C   UNL     1     -22.536   7.003  29.929  1.00  0.00     0.053 C 
BRANCH  14  15
ATOM     15  C   UNL     1     -22.879   6.268  31.187  1.00  0.00     0.041 C 
ATOM     16  O   UNL     1     -24.022   5.760  31.333  1.00  0.00    -0.550 OA
ATOM     17  O   UNL     1     -21.926   6.115  32.185  1.00  0.00    -0.550 OA
ENDBRANCH  14  15
ENDBRANCH  13  14
ENDBRANCH  12  13
ENDBRANCH  11  12
ENDBRANCH  10  11
ENDBRANCH   9  10
ENDBRANCH   8   9
ENDBRANCH   7   8
ENDBRANCH   6   7
ENDBRANCH   5   6
ENDBRANCH   4   5
ENDBRANCH   3   4
ENDBRANCH   2   3
ENDBRANCH   1   2
BRANCH   1  18
ATOM     18  C   UNL     1     -20.344   3.761  22.645  1.00  0.00     0.000 C 
BRANCH  18  19
ATOM     19  C   UNL     1     -19.379   2.564  22.701  1.00  0.00     0.000 C 
BRANCH  19  20
ATOM     20  C   UNL     1     -19.106   1.958  21.316  1.00  0.00     0.000 C 
BRANCH  20  21
ATOM     21  C   UNL     1     -18.985   0.424  21.354  1.00  0.00     0.000 C 
BRANCH  21  22
ATOM     22  C   UNL     1     -19.201  -0.150  22.764  1.00  0.00     0.000 C 
BRANCH  22  23
ATOM     23  C   UNL     1     -20.217  -1.305  22.781  1.00  0.00     0.000 C 
BRANCH  23  24
ATOM     24  C   UNL     1     -21.211  -1.238  21.610  1.00  0.00    -0.000 C 
BRANCH  24  25
ATOM     25  C   UNL     1     -22.565  -0.583  21.946  1.00  0.00    -0.000 C 
BRANCH  25  26
ATOM     26  C   UNL     1     -22.627   0.925  21.620  1.00  0.00    -0.000 C 
BRANCH  26  27
ATOM     27  C   UNL     1     -23.399   1.725  22.686  1.00  0.00    -0.000 C 
BRANCH  27  28
ATOM     28  C   UNL     1     -23.132   1.220  24.112  1.00  0.00    -0.000 C 
BRANCH  28  29
ATOM     29  C   UNL     1     -24.418   0.781  24.833  1.00  0.00    -0.000 C 
BRANCH  29  30
ATOM     30  C   UNL     1     -24.276   0.794  26.365  1.00  0.00    -0.000 C 
BRANCH  30  31
ATOM     31  C   UNL     1     -22.835   1.063  26.848  1.00  0.00    -0.003 C 
ATOM     32  C   UNL     1     -22.786   1.535  28.302  1.00  0.00     0.004 C 
ENDBRANCH  30  31
ENDBRANCH  29  30
ENDBRANCH  28  29
ENDBRANCH  27  28
ENDBRANCH  26  27
ENDBRANCH  25  26
ENDBRANCH  24  25
ENDBRANCH  23  24
ENDBRANCH  22  23
ENDBRANCH  21  22
ENDBRANCH  20  21
ENDBRANCH  19  20
ENDBRANCH  18  19
ENDBRANCH   1  18
TORSDOF 28
ENDMDL
