MODEL 1
REMARK VINA RESULT:    -3.257      0.000      0.000
REMARK INTER + INTRA:          -3.352
REMARK INTER:                  -3.352
REMARK INTRA:                   0.000
REMARK UNBOUND:                 0.000
REMARK SMILES Cc1ccccc1O
REMARK SMILES IDX 1 1 2 2 3 3 4 4 5 5 6 6 7 7 8 8
REMARK H PARENT 8 9
REMARK Flexibility Score: inf
ROOT
ATOM      1  C   UNL     1      -7.367   8.072  -3.761  1.00  0.00     0.048 C 
ATOM      2  C   UNL     1      -6.328   6.987  -3.790  1.00  0.00    -0.009 A 
ATOM      3  C   UNL     1      -5.003   7.264  -3.413  1.00  0.00     0.007 A 
ATOM      4  C   UNL     1      -4.036   6.254  -3.441  1.00  0.00     0.001 A 
ATOM      5  C   UNL     1      -4.383   4.963  -3.843  1.00  0.00     0.004 A 
ATOM      6  C   UNL     1      -5.698   4.678  -4.221  1.00  0.00     0.046 A 
ATOM      7  C   UNL     1      -6.674   5.684  -4.196  1.00  0.00     0.118 A 
ENDROOT
BRANCH   7   8
ATOM      8  O   UNL     1      -7.986   5.395  -4.573  1.00  0.00    -0.508 OA
ATOM      9  H   UNL     1      -8.495   5.987  -5.220  1.00  0.00     0.293 HD
ENDBRANCH   7   8
TORSDOF 1
ENDMDL
MODEL 2
REMARK VINA RESULT:    -3.248      1.715      2.745
REMARK INTER + INTRA:          -3.343
REMARK INTER:                  -3.343
REMARK INTRA:                   0.000
REMARK UNBOUND:                 0.000
REMARK SMILES Cc1ccccc1O
REMARK SMILES IDX 1 1 2 2 3 3 4 4 5 5 6 6 7 7 8 8
REMARK H PARENT 8 9
REMARK Flexibility Score: inf
ROOT
ATOM      1  C   UNL     1      -3.808   7.596  -3.224  1.00  0.00     0.048 C 
ATOM      2  C   UNL     1      -5.053   6.889  -3.679  1.00  0.00    -0.009 A 
ATOM      3  C   UNL     1      -6.208   7.623  -4.001  1.00  0.00     0.007 A 
ATOM      4  C   UNL     1      -7.366   6.965  -4.425  1.00  0.00     0.001 A 
ATOM      5  C   UNL     1      -7.382   5.573  -4.530  1.00  0.00     0.004 A 
ATOM      6  C   UNL     1      -6.239   4.834  -4.212  1.00  0.00     0.046 A 
ATOM      7  C   UNL     1      -5.073   5.485  -3.786  1.00  0.00     0.118 A 
ENDROOT
BRANCH   7   8
ATOM      8  O   UNL     1      -3.934   4.744  -3.469  1.00  0.00    -0.508 OA
ATOM      9  H   UNL     1      -3.821   4.308  -2.561  1.00  0.00     0.293 HD
ENDBRANCH   7   8
TORSDOF 1
ENDMDL
MODEL 3
REMARK VINA RESULT:    -3.233      2.044      3.494
REMARK INTER + INTRA:          -3.328
REMARK INTER:                  -3.328
REMARK INTRA:                   0.000
REMARK UNBOUND:                 0.000
REMARK SMILES Cc1ccccc1O
REMARK SMILES IDX 1 1 2 2 3 3 4 4 5 5 6 6 7 7 8 8
REMARK H PARENT 8 9
REMARK Flexibility Score: inf
ROOT
ATOM      1  C   UNL     1      -8.124   5.782  -5.299  1.00  0.00     0.048 C 
ATOM      2  C   UNL     1      -7.779   6.883  -4.338  1.00  0.00    -0.009 A 
ATOM      3  C   UNL     1      -8.723   7.877  -4.030  1.00  0.00     0.007 A 
ATOM      4  C   UNL     1      -8.401   8.902  -3.136  1.00  0.00     0.001 A 
ATOM      5  C   UNL     1      -7.138   8.944  -2.542  1.00  0.00     0.004 A 
ATOM      6  C   UNL     1      -6.192   7.960  -2.843  1.00  0.00     0.046 A 
ATOM      7  C   UNL     1      -6.506   6.928  -3.739  1.00  0.00     0.118 A 
ENDROOT
BRANCH   7   8
ATOM      8  O   UNL     1      -5.559   5.948  -4.036  1.00  0.00    -0.508 OA
ATOM      9  H   UNL     1      -4.574   6.172  -4.126  1.00  0.00     0.293 HD
ENDBRANCH   7   8
TORSDOF 1
ENDMDL
MODEL 4
REMARK VINA RESULT:    -3.230      1.312      3.381
REMARK INTER + INTRA:          -3.325
REMARK INTER:                  -3.325
REMARK INTRA:                   0.000
REMARK UNBOUND:                 0.000
REMARK SMILES Cc1ccccc1O
REMARK SMILES IDX 1 1 2 2 3 3 4 4 5 5 6 6 7 7 8 8
REMARK H PARENT 8 9
REMARK Flexibility Score: inf
ROOT
ATOM      1  C   UNL     1      -5.309   6.447  -3.748  1.00  0.00     0.048 C 
ATOM      2  C   UNL     1      -6.566   7.251  -3.577  1.00  0.00    -0.009 A 
ATOM      3  C   UNL     1      -6.579   8.377  -2.735  1.00  0.00     0.007 A 
ATOM      4  C   UNL     1      -7.749   9.125  -2.576  1.00  0.00     0.001 A 
ATOM      5  C   UNL     1      -8.913   8.758  -3.252  1.00  0.00     0.004 A 
ATOM      6  C   UNL     1      -8.911   7.639  -4.091  1.00  0.00     0.046 A 
ATOM      7  C   UNL     1      -7.743   6.883  -4.257  1.00  0.00     0.118 A 
ENDROOT
BRANCH   7   8
ATOM      8  O   UNL     1      -7.745   5.768  -5.095  1.00  0.00    -0.508 OA
ATOM      9  H   UNL     1      -7.680   5.861  -6.103  1.00  0.00     0.293 HD
ENDBRANCH   7   8
TORSDOF 1
ENDMDL
MODEL 5
REMARK VINA RESULT:    -3.221      1.050      2.688
REMARK INTER + INTRA:          -3.316
REMARK INTER:                  -3.316
REMARK INTRA:                   0.000
REMARK UNBOUND:                 0.000
REMARK SMILES Cc1ccccc1O
REMARK SMILES IDX 1 1 2 2 3 3 4 4 5 5 6 6 7 7 8 8
REMARK H PARENT 8 9
REMARK Flexibility Score: inf
ROOT
ATOM      1  C   UNL     1      -4.764   3.459  -4.598  1.00  0.00     0.048 C 
ATOM      2  C   UNL     1      -4.655   4.864  -4.076  1.00  0.00    -0.009 A 
ATOM      3  C   UNL     1      -3.436   5.334  -3.556  1.00  0.00     0.007 A 
ATOM      4  C   UNL     1      -3.335   6.641  -3.070  1.00  0.00     0.001 A 
ATOM      5  C   UNL     1      -4.445   7.488  -3.099  1.00  0.00     0.004 A 
ATOM      6  C   UNL     1      -5.661   7.029  -3.614  1.00  0.00     0.046 A 
ATOM      7  C   UNL     1      -5.772   5.720  -4.103  1.00  0.00     0.118 A 
ENDROOT
BRANCH   7   8
ATOM      8  O   UNL     1      -6.987   5.266  -4.616  1.00  0.00    -0.508 OA
ATOM      9  H   UNL     1      -7.269   4.296  -4.534  1.00  0.00     0.293 HD
ENDBRANCH   7   8
TORSDOF 1
ENDMDL
MODEL 6
REMARK VINA RESULT:    -3.221      1.326      2.291
REMARK INTER + INTRA:          -3.315
REMARK INTER:                  -3.315
REMARK INTRA:                   0.000
REMARK UNBOUND:                 0.000
REMARK SMILES Cc1ccccc1O
REMARK SMILES IDX 1 1 2 2 3 3 4 4 5 5 6 6 7 7 8 8
REMARK H PARENT 8 9
REMARK Flexibility Score: inf
ROOT
ATOM      1  C   UNL     1      -8.397   5.747  -5.027  1.00  0.00     0.048 C 
ATOM      2  C   UNL     1      -7.039   5.975  -4.427  1.00  0.00    -0.009 A 
ATOM      3  C   UNL     1      -6.124   4.913  -4.321  1.00  0.00     0.007 A 
ATOM      4  C   UNL     1      -4.860   5.126  -3.762  1.00  0.00     0.001 A 
ATOM      5  C   UNL     1      -4.499   6.396  -3.307  1.00  0.00     0.004 A 
ATOM      6  C   UNL     1      -5.403   7.457  -3.408  1.00  0.00     0.046 A 
ATOM      7  C   UNL     1      -6.672   7.254  -3.967  1.00  0.00     0.118 A 
ENDROOT
BRANCH   7   8
ATOM      8  O   UNL     1      -7.571   8.316  -4.067  1.00  0.00    -0.508 OA
ATOM      9  H   UNL     1      -7.253   9.272  -4.182  1.00  0.00     0.293 HD
ENDBRANCH   7   8
TORSDOF 1
ENDMDL
MODEL 7
REMARK VINA RESULT:    -3.183      2.208      2.929
REMARK INTER + INTRA:          -3.276
REMARK INTER:                  -3.276
REMARK INTRA:                   0.000
REMARK UNBOUND:                 0.000
REMARK SMILES Cc1ccccc1O
REMARK SMILES IDX 1 1 2 2 3 3 4 4 5 5 6 6 7 7 8 8
REMARK H PARENT 8 9
REMARK Flexibility Score: inf
ROOT
ATOM      1  C   UNL     1      -9.006   9.119  -3.752  1.00  0.00     0.048 C 
ATOM      2  C   UNL     1      -7.838   8.230  -3.432  1.00  0.00    -0.009 A 
ATOM      3  C   UNL     1      -7.094   7.636  -4.466  1.00  0.00     0.007 A 
ATOM      4  C   UNL     1      -6.008   6.809  -4.167  1.00  0.00     0.001 A 
ATOM      5  C   UNL     1      -5.654   6.569  -2.837  1.00  0.00     0.004 A 
ATOM      6  C   UNL     1      -6.388   7.155  -1.802  1.00  0.00     0.046 A 
ATOM      7  C   UNL     1      -7.480   7.986  -2.092  1.00  0.00     0.118 A 
ENDROOT
BRANCH   7   8
ATOM      8  O   UNL     1      -8.209   8.569  -1.056  1.00  0.00    -0.508 OA
ATOM      9  H   UNL     1      -9.074   8.160  -0.720  1.00  0.00     0.293 HD
ENDBRANCH   7   8
TORSDOF 1
ENDMDL
MODEL 8
REMARK VINA RESULT:    -3.153      2.202      3.406
REMARK INTER + INTRA:          -3.245
REMARK INTER:                  -3.245
REMARK INTRA:                   0.000
REMARK UNBOUND:                 0.000
REMARK SMILES Cc1ccccc1O
REMARK SMILES IDX 1 1 2 2 3 3 4 4 5 5 6 6 7 7 8 8
REMARK H PARENT 8 9
REMARK Flexibility Score: inf
ROOT
ATOM      1  C   UNL     1      -8.188   5.747  -5.298  1.00  0.00     0.048 C 
ATOM      2  C   UNL     1      -7.882   6.845  -4.320  1.00  0.00    -0.009 A 
ATOM      3  C   UNL     1      -6.556   7.095  -3.926  1.00  0.00     0.007 A 
ATOM      4  C   UNL     1      -6.272   8.117  -3.016  1.00  0.00     0.001 A 
ATOM      5  C   UNL     1      -7.305   8.897  -2.493  1.00  0.00     0.004 A 
ATOM      6  C   UNL     1      -8.626   8.656  -2.878  1.00  0.00     0.046 A 
ATOM      7  C   UNL     1      -8.921   7.633  -3.790  1.00  0.00     0.118 A 
ENDROOT
BRANCH   7   8
ATOM      8  O   UNL     1     -10.242   7.397  -4.173  1.00  0.00    -0.508 OA
ATOM      9  H   UNL     1     -10.531   7.445  -5.143  1.00  0.00     0.293 HD
ENDBRANCH   7   8
TORSDOF 1
ENDMDL
MODEL 9
REMARK VINA RESULT:    -1.123      2.081      2.883
REMARK INTER + INTRA:          -1.155
REMARK INTER:                  -1.155
REMARK INTRA:                   0.000
REMARK UNBOUND:                 0.000
REMARK SMILES Cc1ccccc1O
REMARK SMILES IDX 1 1 2 2 3 3 4 4 5 5 6 6 7 7 8 8
REMARK H PARENT 8 9
REMARK Flexibility Score: inf
ROOT
ATOM      1  C   UNL     1      -8.456   9.124  -1.290  1.00  0.00     0.048 C 
ATOM      2  C   UNL     1      -7.686   8.327  -2.304  1.00  0.00    -0.009 A 
ATOM      3  C   UNL     1      -6.586   7.548  -1.907  1.00  0.00     0.007 A 
ATOM      4  C   UNL     1      -5.870   6.806  -2.851  1.00  0.00     0.001 A 
ATOM      5  C   UNL     1      -6.244   6.836  -4.196  1.00  0.00     0.004 A 
ATOM      6  C   UNL     1      -7.336   7.609  -4.601  1.00  0.00     0.046 A 
ATOM      7  C   UNL     1      -8.061   8.355  -3.661  1.00  0.00     0.118 A 
ENDROOT
BRANCH   7   8
ATOM      8  O   UNL     1      -9.150   9.125  -4.069  1.00  0.00    -0.508 OA
ATOM      9  H   UNL     1      -9.174  10.129  -3.928  1.00  0.00     0.293 HD
ENDBRANCH   7   8
TORSDOF 1
ENDMDL
