MODEL 1
REMARK VINA RESULT:    -4.902      0.000      0.000
REMARK INTER + INTRA:          -5.385
REMARK INTER:                  -5.332
REMARK INTRA:                  -0.053
REMARK UNBOUND:                -0.053
REMARK SMILES CCc1cccc(O)c1
REMARK SMILES IDX 3 1 9 2 7 3 6 4 5 5 4 6 2 7 1 8 8 9
REMARK H PARENT 8 10
REMARK Flexibility Score: inf
ROOT
ATOM      1  C   UNL     1      14.614  43.528   4.384  1.00  0.00    -0.045 A 
ATOM      2  C   UNL     1      13.821  43.334   3.242  1.00  0.00     0.049 A 
ATOM      3  C   UNL     1      12.607  42.638   3.332  1.00  0.00     0.115 A 
ATOM      4  C   UNL     1      12.182  42.142   4.568  1.00  0.00     0.046 A 
ATOM      5  C   UNL     1      12.960  42.343   5.711  1.00  0.00     0.004 A 
ATOM      6  C   UNL     1      14.170  43.037   5.623  1.00  0.00     0.004 A 
ENDROOT
BRANCH   1   7
ATOM      7  C   UNL     1      15.901  44.305   4.293  1.00  0.00     0.032 C 
ATOM      8  C   UNL     1      17.101  43.366   4.322  1.00  0.00     0.009 C 
ENDBRANCH   1   7
BRANCH   3   9
ATOM      9  O   UNL     1      11.818  42.436   2.202  1.00  0.00    -0.508 OA
ATOM     10  H   UNL     1      11.965  41.643   1.588  1.00  0.00     0.293 HD
ENDBRANCH   3   9
TORSDOF 2
ENDMDL
MODEL 2
REMARK VINA RESULT:    -4.759      3.234      4.642
REMARK INTER + INTRA:          -5.230
REMARK INTER:                  -5.180
REMARK INTRA:                  -0.050
REMARK UNBOUND:                -0.053
REMARK SMILES CCc1cccc(O)c1
REMARK SMILES IDX 3 1 9 2 7 3 6 4 5 5 4 6 2 7 1 8 8 9
REMARK H PARENT 8 10
REMARK Flexibility Score: inf
ROOT
ATOM      1  C   UNL     1      15.694  44.420   4.984  1.00  0.00    -0.045 A 
ATOM      2  C   UNL     1      15.259  45.046   6.163  1.00  0.00     0.049 A 
ATOM      3  C   UNL     1      16.012  44.939   7.341  1.00  0.00     0.115 A 
ATOM      4  C   UNL     1      17.206  44.212   7.338  1.00  0.00     0.046 A 
ATOM      5  C   UNL     1      17.651  43.598   6.164  1.00  0.00     0.004 A 
ATOM      6  C   UNL     1      16.901  43.704   4.989  1.00  0.00     0.004 A 
ENDROOT
BRANCH   1   7
ATOM      7  C   UNL     1      14.902  44.564   3.711  1.00  0.00     0.032 C 
ATOM      8  C   UNL     1      13.923  43.407   3.551  1.00  0.00     0.009 C 
ENDBRANCH   1   7
BRANCH   3   9
ATOM      9  O   UNL     1      15.584  45.552   8.516  1.00  0.00    -0.508 OA
ATOM     10  H   UNL     1      14.710  46.065   8.559  1.00  0.00     0.293 HD
ENDBRANCH   3   9
TORSDOF 2
ENDMDL
MODEL 3
REMARK VINA RESULT:    -4.759      3.965      4.981
REMARK INTER + INTRA:          -5.230
REMARK INTER:                  -5.159
REMARK INTRA:                  -0.070
REMARK UNBOUND:                -0.053
REMARK SMILES CCc1cccc(O)c1
REMARK SMILES IDX 3 1 9 2 7 3 6 4 5 5 4 6 2 7 1 8 8 9
REMARK H PARENT 8 10
REMARK Flexibility Score: inf
ROOT
ATOM      1  C   UNL     1      16.538  43.193   5.993  1.00  0.00    -0.045 A 
ATOM      2  C   UNL     1      17.532  43.545   6.920  1.00  0.00     0.049 A 
ATOM      3  C   UNL     1      17.319  43.356   8.293  1.00  0.00     0.115 A 
ATOM      4  C   UNL     1      16.113  42.806   8.740  1.00  0.00     0.046 A 
ATOM      5  C   UNL     1      15.125  42.442   7.821  1.00  0.00     0.004 A 
ATOM      6  C   UNL     1      15.337  42.629   6.452  1.00  0.00     0.004 A 
ENDROOT
BRANCH   1   7
ATOM      7  C   UNL     1      16.781  43.365   4.517  1.00  0.00     0.032 C 
ATOM      8  C   UNL     1      15.490  43.738   3.798  1.00  0.00     0.009 C 
ENDBRANCH   1   7
BRANCH   3   9
ATOM      9  O   UNL     1      18.298  43.708   9.219  1.00  0.00    -0.508 OA
ATOM     10  H   UNL     1      18.058  44.119  10.114  1.00  0.00     0.293 HD
ENDBRANCH   3   9
TORSDOF 2
ENDMDL
MODEL 4
REMARK VINA RESULT:    -4.669      2.320      3.695
REMARK INTER + INTRA:          -5.132
REMARK INTER:                  -5.082
REMARK INTRA:                  -0.050
REMARK UNBOUND:                -0.053
REMARK SMILES CCc1cccc(O)c1
REMARK SMILES IDX 3 1 9 2 7 3 6 4 5 5 4 6 2 7 1 8 8 9
REMARK H PARENT 8 10
REMARK Flexibility Score: inf
ROOT
ATOM      1  C   UNL     1      14.163  43.452   4.540  1.00  0.00    -0.045 A 
ATOM      2  C   UNL     1      15.385  43.607   3.866  1.00  0.00     0.049 A 
ATOM      3  C   UNL     1      16.597  43.398   4.539  1.00  0.00     0.115 A 
ATOM      4  C   UNL     1      16.588  43.025   5.887  1.00  0.00     0.046 A 
ATOM      5  C   UNL     1      15.374  42.856   6.560  1.00  0.00     0.004 A 
ATOM      6  C   UNL     1      14.166  43.064   5.890  1.00  0.00     0.004 A 
ENDROOT
BRANCH   1   7
ATOM      7  C   UNL     1      12.862  43.644   3.808  1.00  0.00     0.032 C 
ATOM      8  C   UNL     1      12.618  42.500   2.831  1.00  0.00     0.009 C 
ENDBRANCH   1   7
BRANCH   3   9
ATOM      9  O   UNL     1      17.813  43.556   3.879  1.00  0.00    -0.508 OA
ATOM     10  H   UNL     1      17.901  43.386   2.883  1.00  0.00     0.293 HD
ENDBRANCH   3   9
TORSDOF 2
ENDMDL
MODEL 5
REMARK VINA RESULT:    -4.627      3.849      4.420
REMARK INTER + INTRA:          -5.086
REMARK INTER:                  -5.036
REMARK INTRA:                  -0.050
REMARK UNBOUND:                -0.053
REMARK SMILES CCc1cccc(O)c1
REMARK SMILES IDX 3 1 9 2 7 3 6 4 5 5 4 6 2 7 1 8 8 9
REMARK H PARENT 8 10
REMARK Flexibility Score: inf
ROOT
ATOM      1  C   UNL     1      14.019  45.808   4.825  1.00  0.00    -0.045 A 
ATOM      2  C   UNL     1      14.379  45.517   6.151  1.00  0.00     0.049 A 
ATOM      3  C   UNL     1      13.599  45.989   7.217  1.00  0.00     0.115 A 
ATOM      4  C   UNL     1      12.452  46.745   6.956  1.00  0.00     0.046 A 
ATOM      5  C   UNL     1      12.081  47.026   5.638  1.00  0.00     0.004 A 
ATOM      6  C   UNL     1      12.858  46.557   4.575  1.00  0.00     0.004 A 
ENDROOT
BRANCH   1   7
ATOM      7  C   UNL     1      14.838  45.273   3.681  1.00  0.00     0.032 C 
ATOM      8  C   UNL     1      14.691  43.760   3.572  1.00  0.00     0.009 C 
ENDBRANCH   1   7
BRANCH   3   9
ATOM      9  O   UNL     1      13.953  45.710   8.534  1.00  0.00    -0.508 OA
ATOM     10  H   UNL     1      14.830  46.033   8.927  1.00  0.00     0.293 HD
ENDBRANCH   3   9
TORSDOF 2
ENDMDL
MODEL 6
REMARK VINA RESULT:    -4.604      3.178      4.419
REMARK INTER + INTRA:          -5.061
REMARK INTER:                  -4.996
REMARK INTRA:                  -0.065
REMARK UNBOUND:                -0.053
REMARK SMILES CCc1cccc(O)c1
REMARK SMILES IDX 3 1 9 2 7 3 6 4 5 5 4 6 2 7 1 8 8 9
REMARK H PARENT 8 10
REMARK Flexibility Score: inf
ROOT
ATOM      1  C   UNL     1      15.301  44.199   4.583  1.00  0.00    -0.045 A 
ATOM      2  C   UNL     1      16.530  43.732   5.075  1.00  0.00     0.049 A 
ATOM      3  C   UNL     1      17.021  44.193   6.305  1.00  0.00     0.115 A 
ATOM      4  C   UNL     1      16.278  45.115   7.048  1.00  0.00     0.046 A 
ATOM      5  C   UNL     1      15.048  45.574   6.569  1.00  0.00     0.004 A 
ATOM      6  C   UNL     1      14.558  45.116   5.344  1.00  0.00     0.004 A 
ENDROOT
BRANCH   1   7
ATOM      7  C   UNL     1      14.758  43.679   3.278  1.00  0.00     0.032 C 
ATOM      8  C   UNL     1      13.404  43.011   3.485  1.00  0.00     0.009 C 
ENDBRANCH   1   7
BRANCH   3   9
ATOM      9  O   UNL     1      18.242  43.738   6.797  1.00  0.00    -0.508 OA
ATOM     10  H   UNL     1      19.030  44.365   6.921  1.00  0.00     0.293 HD
ENDBRANCH   3   9
TORSDOF 2
ENDMDL
MODEL 7
REMARK VINA RESULT:    -4.575      2.291      3.144
REMARK INTER + INTRA:          -5.030
REMARK INTER:                  -4.978
REMARK INTRA:                  -0.052
REMARK UNBOUND:                -0.053
REMARK SMILES CCc1cccc(O)c1
REMARK SMILES IDX 3 1 9 2 7 3 6 4 5 5 4 6 2 7 1 8 8 9
REMARK H PARENT 8 10
REMARK Flexibility Score: inf
ROOT
ATOM      1  C   UNL     1      13.677  45.513   4.582  1.00  0.00    -0.045 A 
ATOM      2  C   UNL     1      12.556  44.679   4.440  1.00  0.00     0.049 A 
ATOM      3  C   UNL     1      12.673  43.441   3.791  1.00  0.00     0.115 A 
ATOM      4  C   UNL     1      13.914  43.033   3.292  1.00  0.00     0.046 A 
ATOM      5  C   UNL     1      15.035  43.853   3.442  1.00  0.00     0.004 A 
ATOM      6  C   UNL     1      14.921  45.087   4.088  1.00  0.00     0.004 A 
ENDROOT
BRANCH   1   7
ATOM      7  C   UNL     1      13.559  46.827   5.308  1.00  0.00     0.032 C 
ATOM      8  C   UNL     1      12.251  46.897   6.088  1.00  0.00     0.009 C 
ENDBRANCH   1   7
BRANCH   3   9
ATOM      9  O   UNL     1      11.565  42.611   3.641  1.00  0.00    -0.508 OA
ATOM     10  H   UNL     1      11.080  42.223   4.442  1.00  0.00     0.293 HD
ENDBRANCH   3   9
TORSDOF 2
ENDMDL
MODEL 8
REMARK VINA RESULT:    -4.556      3.506      4.785
REMARK INTER + INTRA:          -5.009
REMARK INTER:                  -4.934
REMARK INTRA:                  -0.075
REMARK UNBOUND:                -0.053
REMARK SMILES CCc1cccc(O)c1
REMARK SMILES IDX 3 1 9 2 7 3 6 4 5 5 4 6 2 7 1 8 8 9
REMARK H PARENT 8 10
REMARK Flexibility Score: inf
ROOT
ATOM      1  C   UNL     1      15.232  43.338   6.062  1.00  0.00    -0.045 A 
ATOM      2  C   UNL     1      14.801  43.329   7.398  1.00  0.00     0.049 A 
ATOM      3  C   UNL     1      15.734  43.357   8.444  1.00  0.00     0.115 A 
ATOM      4  C   UNL     1      17.102  43.402   8.153  1.00  0.00     0.046 A 
ATOM      5  C   UNL     1      17.536  43.423   6.825  1.00  0.00     0.004 A 
ATOM      6  C   UNL     1      16.607  43.396   5.782  1.00  0.00     0.004 A 
ENDROOT
BRANCH   1   7
ATOM      7  C   UNL     1      14.228  43.342   4.939  1.00  0.00     0.032 C 
ATOM      8  C   UNL     1      14.872  43.812   3.641  1.00  0.00     0.009 C 
ENDBRANCH   1   7
BRANCH   3   9
ATOM      9  O   UNL     1      15.314  43.342   9.772  1.00  0.00    -0.508 OA
ATOM     10  H   UNL     1      14.818  42.549  10.162  1.00  0.00     0.293 HD
ENDBRANCH   3   9
TORSDOF 2
ENDMDL
MODEL 9
REMARK VINA RESULT:    -4.537      2.490      4.124
REMARK INTER + INTRA:          -4.988
REMARK INTER:                  -4.930
REMARK INTRA:                  -0.058
REMARK UNBOUND:                -0.053
REMARK SMILES CCc1cccc(O)c1
REMARK SMILES IDX 3 1 9 2 7 3 6 4 5 5 4 6 2 7 1 8 8 9
REMARK H PARENT 8 10
REMARK Flexibility Score: inf
ROOT
ATOM      1  C   UNL     1      14.274  43.401   4.445  1.00  0.00    -0.045 A 
ATOM      2  C   UNL     1      14.455  43.068   5.797  1.00  0.00     0.049 A 
ATOM      3  C   UNL     1      15.747  42.930   6.326  1.00  0.00     0.115 A 
ATOM      4  C   UNL     1      16.859  43.136   5.503  1.00  0.00     0.046 A 
ATOM      5  C   UNL     1      16.685  43.480   4.160  1.00  0.00     0.004 A 
ATOM      6  C   UNL     1      15.398  43.618   3.632  1.00  0.00     0.004 A 
ENDROOT
BRANCH   1   7
ATOM      7  C   UNL     1      12.887  43.581   3.886  1.00  0.00     0.032 C 
ATOM      8  C   UNL     1      12.578  42.505   2.853  1.00  0.00     0.009 C 
ENDBRANCH   1   7
BRANCH   3   9
ATOM      9  O   UNL     1      15.935  42.594   7.664  1.00  0.00    -0.508 OA
ATOM     10  H   UNL     1      16.532  43.145   8.270  1.00  0.00     0.293 HD
ENDBRANCH   3   9
TORSDOF 2
ENDMDL
