MODEL 1
REMARK VINA RESULT:    -3.688      0.000      0.000
REMARK INTER + INTRA:          -6.162
REMARK INTER:                  -5.629
REMARK INTRA:                  -0.533
REMARK UNBOUND:                -0.533
REMARK SMILES CC1=CCC[C@H](C)C(=O)C[C@H](C(C)C)C(=O)C1
REMARK SMILES IDX 8 1 9 2 6 3 7 4 5 5 4 6 3 7 2 8 1 9 10 11 11 12 15 13 16 14
REMARK SMILES IDX 17 15 12 17 13 18 14 19
REMARK H PARENT
REMARK Flexibility Score: 70.00
ROOT
ATOM      1  C   UNL     1       9.331  20.451 -21.198  1.00  0.00     0.136 C 
ATOM      2  O   UNL     1       9.281  21.673 -21.179  1.00  0.00    -0.299 OA
ENDROOT
BRANCH   1   3
ATOM      3  C   UNL     1       8.355  19.686 -22.070  1.00  0.00     0.053 C 
ATOM      4  C   UNL     1       6.937  20.253 -21.927  1.00  0.00     0.016 C 
BRANCH   3   5
ATOM      5  C   UNL     1       8.837  19.728 -23.546  1.00  0.00     0.015 C 
BRANCH   5   6
ATOM      6  C   UNL     1       9.397  18.399 -24.087  1.00  0.00     0.028 C 
BRANCH   6   7
ATOM      7  C   UNL     1      10.902  18.333 -24.266  1.00  0.00    -0.028 C 
ATOM      8  C   UNL     1      11.784  17.701 -23.456  1.00  0.00    -0.070 CG0
ATOM      9  C   UNL     1      13.254  17.826 -23.773  1.00  0.00     0.039 C 
ATOM     10  G   UNL     1      11.372  16.822 -22.291  1.00  0.00     0.000 G0
ENDBRANCH   6   7
ENDBRANCH   5   6
ENDBRANCH   3   5
ENDBRANCH   1   3
BRANCH   1  11
ATOM     11  C   UNL     1      10.371  19.751 -20.348  1.00  0.00     0.087 C 
BRANCH  11  12
ATOM     12  C   UNL     1      10.215  18.205 -20.307  1.00  0.00     0.066 C 
BRANCH  12  13
ATOM     13  C   UNL     1      11.415  17.483 -20.920  1.00  0.00     0.140 C 
ATOM     14  O   UNL     1      12.455  17.423 -20.280  1.00  0.00    -0.299 OA
BRANCH  13  15
ATOM     15  C   UNL     1      11.386  16.807 -22.282  1.00  0.00     0.106 CG0
ATOM     16  G   UNL     1      11.788  17.704 -23.436  1.00  0.00     0.000 G0
ENDBRANCH  13  15
ENDBRANCH  12  13
BRANCH  12  17
ATOM     17  C   UNL     1       9.894  17.639 -18.888  1.00  0.00    -0.006 C 
ATOM     18  C   UNL     1      10.259  18.582 -17.729  1.00  0.00     0.008 C 
ATOM     19  C   UNL     1       8.425  17.205 -18.766  1.00  0.00     0.008 C 
ENDBRANCH  12  17
ENDBRANCH  11  12
ENDBRANCH   1  11
TORSDOF 1
ENDMDL
MODEL 2
REMARK VINA RESULT:    -3.667     13.206     14.895
REMARK INTER + INTRA:          -6.130
REMARK INTER:                  -6.113
REMARK INTRA:                  -0.017
REMARK UNBOUND:                -0.533
REMARK SMILES CC1=CCC[C@H](C)C(=O)C[C@H](C(C)C)C(=O)C1
REMARK SMILES IDX 8 1 9 2 6 3 7 4 5 5 4 6 3 7 2 8 1 9 10 11 11 12 15 13 16 14
REMARK SMILES IDX 17 15 12 17 13 18 14 19
REMARK H PARENT
REMARK Flexibility Score: 70.00
ROOT
ATOM      1  C   UNL     1      19.462  10.701 -25.636  1.00  0.00     0.136 C 
ATOM      2  O   UNL     1      18.493  11.446 -25.624  1.00  0.00    -0.299 OA
ENDROOT
BRANCH   1   3
ATOM      3  C   UNL     1      20.782  11.214 -26.180  1.00  0.00     0.053 C 
ATOM      4  C   UNL     1      20.825  12.748 -26.143  1.00  0.00     0.016 C 
BRANCH   3   5
ATOM      5  C   UNL     1      21.952  10.594 -25.368  1.00  0.00     0.015 C 
BRANCH   5   6
ATOM      6  C   UNL     1      22.607   9.357 -26.011  1.00  0.00     0.028 C 
BRANCH   6   7
ATOM      7  C   UNL     1      22.550   9.283 -27.525  1.00  0.00    -0.028 C 
ATOM      8  C   UNL     1      21.744   8.483 -28.263  1.00  0.00    -0.070 CG0
ATOM      9  C   UNL     1      21.903   8.507 -29.763  1.00  0.00     0.039 C 
ATOM     10  G   UNL     1      20.650   7.618 -27.670  1.00  0.00     0.000 G0
ENDBRANCH   6   7
ENDBRANCH   5   6
ENDBRANCH   3   5
ENDBRANCH   1   3
BRANCH   1  11
ATOM     11  C   UNL     1      19.305   9.291 -25.105  1.00  0.00     0.087 C 
BRANCH  11  12
ATOM     12  C   UNL     1      18.606   8.318 -26.097  1.00  0.00     0.066 C 
BRANCH  12  13
ATOM     13  C   UNL     1      19.312   8.264 -27.452  1.00  0.00     0.140 C 
ATOM     14  O   UNL     1      18.785   8.806 -28.412  1.00  0.00    -0.299 OA
BRANCH  13  15
ATOM     15  C   UNL     1      20.658   7.591 -27.673  1.00  0.00     0.106 CG0
ATOM     16  G   UNL     1      21.724   8.497 -28.256  1.00  0.00     0.000 G0
ENDBRANCH  13  15
ENDBRANCH  12  13
BRANCH  12  17
ATOM     17  C   UNL     1      18.391   6.881 -25.527  1.00  0.00    -0.006 C 
ATOM     18  C   UNL     1      17.743   6.839 -24.132  1.00  0.00     0.008 C 
ATOM     19  C   UNL     1      17.597   5.995 -26.499  1.00  0.00     0.008 C 
ENDBRANCH  12  17
ENDBRANCH  11  12
ENDBRANCH   1  11
TORSDOF 1
ENDMDL
MODEL 3
REMARK VINA RESULT:    -3.602      2.141      4.987
REMARK INTER + INTRA:          -6.030
REMARK INTER:                  -5.566
REMARK INTRA:                  -0.464
REMARK UNBOUND:                -0.533
REMARK SMILES CC1=CCC[C@H](C)C(=O)C[C@H](C(C)C)C(=O)C1
REMARK SMILES IDX 8 1 9 2 6 3 7 4 5 5 4 6 3 7 2 8 1 9 10 11 11 12 15 13 16 14
REMARK SMILES IDX 17 15 12 17 13 18 14 19
REMARK H PARENT
REMARK Flexibility Score: 70.00
ROOT
ATOM      1  C   UNL     1      12.145  18.602 -21.072  1.00  0.00     0.136 C 
ATOM      2  O   UNL     1      12.186  19.776 -20.733  1.00  0.00    -0.299 OA
ENDROOT
BRANCH   1   3
ATOM      3  C   UNL     1      12.183  17.525 -20.005  1.00  0.00     0.053 C 
ATOM      4  C   UNL     1      13.597  17.382 -19.427  1.00  0.00     0.016 C 
BRANCH   3   5
ATOM      5  C   UNL     1      11.147  17.857 -18.897  1.00  0.00     0.015 C 
BRANCH   5   6
ATOM      6  C   UNL     1       9.740  17.274 -19.125  1.00  0.00     0.028 C 
BRANCH   6   7
ATOM      7  C   UNL     1       8.705  18.228 -19.689  1.00  0.00    -0.028 C 
ATOM      8  C   UNL     1       8.228  18.242 -20.957  1.00  0.00    -0.070 CG0
ATOM      9  C   UNL     1       7.256  19.332 -21.336  1.00  0.00     0.039 C 
ATOM     10  G   UNL     1       8.566  17.188 -21.993  1.00  0.00     0.000 G0
ENDBRANCH   6   7
ENDBRANCH   5   6
ENDBRANCH   3   5
ENDBRANCH   1   3
BRANCH   1  11
ATOM     11  C   UNL     1      12.057  18.271 -22.548  1.00  0.00     0.087 C 
BRANCH  11  12
ATOM     12  C   UNL     1      11.088  17.100 -22.874  1.00  0.00     0.066 C 
BRANCH  12  13
ATOM     13  C   UNL     1       9.637  17.564 -23.000  1.00  0.00     0.140 C 
ATOM     14  O   UNL     1       9.323  18.259 -23.955  1.00  0.00    -0.299 OA
BRANCH  13  15
ATOM     15  C   UNL     1       8.544  17.188 -22.012  1.00  0.00     0.106 CG0
ATOM     16  G   UNL     1       8.246  18.250 -20.972  1.00  0.00     0.000 G0
ENDBRANCH  13  15
ENDBRANCH  12  13
BRANCH  12  17
ATOM     17  C   UNL     1      11.511  16.259 -24.120  1.00  0.00    -0.006 C 
ATOM     18  C   UNL     1      12.589  16.918 -24.998  1.00  0.00     0.008 C 
ATOM     19  C   UNL     1      11.952  14.840 -23.726  1.00  0.00     0.008 C 
ENDBRANCH  12  17
ENDBRANCH  11  12
ENDBRANCH   1  11
TORSDOF 1
ENDMDL
MODEL 4
REMARK VINA RESULT:    -3.567      4.030      6.394
REMARK INTER + INTRA:          -5.978
REMARK INTER:                  -5.649
REMARK INTRA:                  -0.329
REMARK UNBOUND:                -0.533
REMARK SMILES CC1=CCC[C@H](C)C(=O)C[C@H](C(C)C)C(=O)C1
REMARK SMILES IDX 8 1 9 2 6 3 7 4 5 5 4 6 3 7 2 8 1 9 10 11 11 12 15 13 16 14
REMARK SMILES IDX 17 15 12 17 13 18 14 19
REMARK H PARENT
REMARK Flexibility Score: 70.00
ROOT
ATOM      1  C   UNL     1       8.246  22.959 -22.286  1.00  0.00     0.136 C 
ATOM      2  O   UNL     1       8.205  24.111 -21.877  1.00  0.00    -0.299 OA
ENDROOT
BRANCH   1   3
ATOM      3  C   UNL     1       9.570  22.220 -22.278  1.00  0.00     0.053 C 
ATOM      4  C   UNL     1       9.478  20.948 -21.425  1.00  0.00     0.016 C 
BRANCH   3   5
ATOM      5  C   UNL     1       9.989  21.895 -23.738  1.00  0.00     0.015 C 
BRANCH   5   6
ATOM      6  C   UNL     1       9.557  20.506 -24.246  1.00  0.00     0.028 C 
BRANCH   6   7
ATOM      7  C   UNL     1       9.086  20.439 -25.686  1.00  0.00    -0.028 C 
ATOM      8  C   UNL     1       7.802  20.375 -26.112  1.00  0.00    -0.070 CG0
ATOM      9  C   UNL     1       7.553  20.232 -27.593  1.00  0.00     0.039 C 
ATOM     10  G   UNL     1       6.604  20.505 -25.191  1.00  0.00     0.000 G0
ENDBRANCH   6   7
ENDBRANCH   5   6
ENDBRANCH   3   5
ENDBRANCH   1   3
BRANCH   1  11
ATOM     11  C   UNL     1       6.968  22.316 -22.783  1.00  0.00     0.087 C 
BRANCH  11  12
ATOM     12  C   UNL     1       6.412  22.947 -24.091  1.00  0.00     0.066 C 
BRANCH  12  13
ATOM     13  C   UNL     1       5.981  21.891 -25.109  1.00  0.00     0.140 C 
ATOM     14  O   UNL     1       5.113  22.176 -25.920  1.00  0.00    -0.299 OA
BRANCH  13  15
ATOM     15  C   UNL     1       6.591  20.501 -25.189  1.00  0.00     0.106 CG0
ATOM     16  G   UNL     1       7.783  20.392 -26.119  1.00  0.00     0.000 G0
ENDBRANCH  13  15
ENDBRANCH  12  13
BRANCH  12  17
ATOM     17  C   UNL     1       5.272  23.987 -23.855  1.00  0.00    -0.006 C 
ATOM     18  C   UNL     1       4.540  23.836 -22.510  1.00  0.00     0.008 C 
ATOM     19  C   UNL     1       5.774  25.430 -24.018  1.00  0.00     0.008 C 
ENDBRANCH  12  17
ENDBRANCH  11  12
ENDBRANCH   1  11
TORSDOF 1
ENDMDL
MODEL 5
REMARK VINA RESULT:    -3.516      3.215      4.669
REMARK INTER + INTRA:          -5.898
REMARK INTER:                  -5.690
REMARK INTRA:                  -0.209
REMARK UNBOUND:                -0.533
REMARK SMILES CC1=CCC[C@H](C)C(=O)C[C@H](C(C)C)C(=O)C1
REMARK SMILES IDX 8 1 9 2 6 3 7 4 5 5 4 6 3 7 2 8 1 9 10 11 11 12 15 13 16 14
REMARK SMILES IDX 17 15 12 17 13 18 14 19
REMARK H PARENT
REMARK Flexibility Score: 70.00
ROOT
ATOM      1  C   UNL     1       7.289  21.849 -22.345  1.00  0.00     0.136 C 
ATOM      2  O   UNL     1       6.616  20.841 -22.502  1.00  0.00    -0.299 OA
ENDROOT
BRANCH   1   3
ATOM      3  C   UNL     1       6.637  23.207 -22.522  1.00  0.00     0.053 C 
ATOM      4  C   UNL     1       7.682  24.327 -22.431  1.00  0.00     0.016 C 
BRANCH   3   5
ATOM      5  C   UNL     1       5.881  23.245 -23.879  1.00  0.00     0.015 C 
BRANCH   5   6
ATOM      6  C   UNL     1       6.780  23.394 -25.121  1.00  0.00     0.028 C 
BRANCH   6   7
ATOM      7  C   UNL     1       7.159  22.107 -25.829  1.00  0.00    -0.028 C 
ATOM      8  C   UNL     1       8.369  21.500 -25.805  1.00  0.00    -0.070 CG0
ATOM      9  C   UNL     1       8.558  20.263 -26.649  1.00  0.00     0.039 C 
ATOM     10  G   UNL     1       9.519  21.956 -24.930  1.00  0.00     0.000 G0
ENDBRANCH   6   7
ENDBRANCH   5   6
ENDBRANCH   3   5
ENDBRANCH   1   3
BRANCH   1  11
ATOM     11  C   UNL     1       8.751  21.700 -21.978  1.00  0.00     0.087 C 
BRANCH  11  12
ATOM     12  C   UNL     1       9.458  20.506 -22.679  1.00  0.00     0.066 C 
BRANCH  12  13
ATOM     13  C   UNL     1      10.101  20.909 -24.006  1.00  0.00     0.140 C 
ATOM     14  O   UNL     1      11.123  20.340 -24.362  1.00  0.00    -0.299 OA
BRANCH  13  15
ATOM     15  C   UNL     1       9.527  21.969 -24.932  1.00  0.00     0.106 CG0
ATOM     16  G   UNL     1       8.388  21.486 -25.809  1.00  0.00     0.000 G0
ENDBRANCH  13  15
ENDBRANCH  12  13
BRANCH  12  17
ATOM     17  C   UNL     1      10.485  19.759 -21.771  1.00  0.00    -0.006 C 
ATOM     18  C   UNL     1      10.924  20.545 -20.524  1.00  0.00     0.008 C 
ATOM     19  C   UNL     1       9.975  18.368 -21.359  1.00  0.00     0.008 C 
ENDBRANCH  12  17
ENDBRANCH  11  12
ENDBRANCH   1  11
TORSDOF 1
ENDMDL
MODEL 6
REMARK VINA RESULT:    -3.485      2.110      4.305
REMARK INTER + INTRA:          -5.852
REMARK INTER:                  -5.260
REMARK INTRA:                  -0.593
REMARK UNBOUND:                -0.533
REMARK SMILES CC1=CCC[C@H](C)C(=O)C[C@H](C(C)C)C(=O)C1
REMARK SMILES IDX 8 1 9 2 6 3 7 4 5 5 4 6 3 7 2 8 1 9 10 11 11 12 15 13 16 14
REMARK SMILES IDX 17 15 12 17 13 18 14 19
REMARK H PARENT
REMARK Flexibility Score: 70.00
ROOT
ATOM      1  C   UNL     1      10.896  17.500 -20.862  1.00  0.00     0.136 C 
ATOM      2  O   UNL     1      11.480  17.200 -19.830  1.00  0.00    -0.299 OA
ENDROOT
BRANCH   1   3
ATOM      3  C   UNL     1       9.517  18.123 -20.775  1.00  0.00     0.053 C 
ATOM      4  C   UNL     1       8.589  17.272 -19.898  1.00  0.00     0.016 C 
BRANCH   3   5
ATOM      5  C   UNL     1       9.638  19.573 -20.231  1.00  0.00     0.015 C 
BRANCH   5   6
ATOM      6  C   UNL     1      10.268  20.584 -21.208  1.00  0.00     0.028 C 
BRANCH   6   7
ATOM      7  C   UNL     1       9.499  20.842 -22.489  1.00  0.00    -0.028 C 
ATOM      8  C   UNL     1       9.904  20.542 -23.746  1.00  0.00    -0.070 CG0
ATOM      9  C   UNL     1       9.018  20.958 -24.895  1.00  0.00     0.039 C 
ATOM     10  G   UNL     1      11.162  19.755 -24.058  1.00  0.00     0.000 G0
ENDBRANCH   6   7
ENDBRANCH   5   6
ENDBRANCH   3   5
ENDBRANCH   1   3
BRANCH   1  11
ATOM     11  C   UNL     1      11.578  17.237 -22.189  1.00  0.00     0.087 C 
BRANCH  11  12
ATOM     12  C   UNL     1      10.605  17.194 -23.400  1.00  0.00     0.066 C 
BRANCH  12  13
ATOM     13  C   UNL     1      10.911  18.282 -24.430  1.00  0.00     0.140 C 
ATOM     14  O   UNL     1      10.932  17.981 -25.615  1.00  0.00    -0.299 OA
BRANCH  13  15
ATOM     15  C   UNL     1      11.169  19.736 -24.068  1.00  0.00     0.106 CG0
ATOM     16  G   UNL     1       9.920  20.534 -23.749  1.00  0.00     0.000 G0
ENDBRANCH  13  15
ENDBRANCH  12  13
BRANCH  12  17
ATOM     17  C   UNL     1      10.509  15.794 -24.085  1.00  0.00    -0.006 C 
ATOM     18  C   UNL     1      11.774  14.930 -23.947  1.00  0.00     0.008 C 
ATOM     19  C   UNL     1       9.282  15.006 -23.601  1.00  0.00     0.008 C 
ENDBRANCH  12  17
ENDBRANCH  11  12
ENDBRANCH   1  11
TORSDOF 1
ENDMDL
MODEL 7
REMARK VINA RESULT:    -3.412      1.764      3.873
REMARK INTER + INTRA:          -5.740
REMARK INTER:                  -5.373
REMARK INTRA:                  -0.367
REMARK UNBOUND:                -0.533
REMARK SMILES CC1=CCC[C@H](C)C(=O)C[C@H](C(C)C)C(=O)C1
REMARK SMILES IDX 8 1 9 2 6 3 7 4 5 5 4 6 3 7 2 8 1 9 10 11 11 12 15 13 16 14
REMARK SMILES IDX 17 15 12 17 13 18 14 19
REMARK H PARENT
REMARK Flexibility Score: 70.00
ROOT
ATOM      1  C   UNL     1       8.814  17.918 -19.616  1.00  0.00     0.136 C 
ATOM      2  O   UNL     1       8.295  16.982 -19.024  1.00  0.00    -0.299 OA
ENDROOT
BRANCH   1   3
ATOM      3  C   UNL     1      10.114  18.495 -19.089  1.00  0.00     0.053 C 
ATOM      4  C   UNL     1      10.023  18.750 -17.579  1.00  0.00     0.016 C 
BRANCH   3   5
ATOM      5  C   UNL     1      11.284  17.533 -19.433  1.00  0.00     0.015 C 
BRANCH   5   6
ATOM      6  C   UNL     1      12.215  18.017 -20.560  1.00  0.00     0.028 C 
BRANCH   6   7
ATOM      7  C   UNL     1      12.306  17.124 -21.782  1.00  0.00    -0.028 C 
ATOM      8  C   UNL     1      11.740  17.351 -22.991  1.00  0.00    -0.070 CG0
ATOM      9  C   UNL     1      11.887  16.290 -24.054  1.00  0.00     0.039 C 
ATOM     10  G   UNL     1      11.027  18.639 -23.355  1.00  0.00     0.000 G0
ENDBRANCH   6   7
ENDBRANCH   5   6
ENDBRANCH   3   5
ENDBRANCH   1   3
BRANCH   1  11
ATOM     11  C   UNL     1       8.136  18.463 -20.856  1.00  0.00     0.087 C 
BRANCH  11  12
ATOM     12  C   UNL     1       9.044  19.386 -21.717  1.00  0.00     0.066 C 
BRANCH  12  13
ATOM     13  C   UNL     1       9.560  18.685 -22.974  1.00  0.00     0.140 C 
ATOM     14  O   UNL     1       8.755  18.142 -23.717  1.00  0.00    -0.299 OA
BRANCH  13  15
ATOM     15  C   UNL     1      11.027  18.643 -23.372  1.00  0.00     0.106 CG0
ATOM     16  G   UNL     1      11.745  17.364 -22.990  1.00  0.00     0.000 G0
ENDBRANCH  13  15
ENDBRANCH  12  13
BRANCH  12  17
ATOM     17  C   UNL     1       8.390  20.757 -22.078  1.00  0.00    -0.006 C 
ATOM     18  C   UNL     1       6.852  20.761 -22.036  1.00  0.00     0.008 C 
ATOM     19  C   UNL     1       8.939  21.897 -21.205  1.00  0.00     0.008 C 
ENDBRANCH  12  17
ENDBRANCH  11  12
ENDBRANCH   1  11
TORSDOF 1
ENDMDL
MODEL 8
REMARK VINA RESULT:    -3.374      1.839      4.547
REMARK INTER + INTRA:          -5.683
REMARK INTER:                  -5.391
REMARK INTRA:                  -0.291
REMARK UNBOUND:                -0.533
REMARK SMILES CC1=CCC[C@H](C)C(=O)C[C@H](C(C)C)C(=O)C1
REMARK SMILES IDX 8 1 9 2 6 3 7 4 5 5 4 6 3 7 2 8 1 9 10 11 11 12 15 13 16 14
REMARK SMILES IDX 17 15 12 17 13 18 14 19
REMARK H PARENT
REMARK Flexibility Score: 70.00
ROOT
ATOM      1  C   UNL     1      11.594  17.866 -20.740  1.00  0.00     0.136 C 
ATOM      2  O   UNL     1      12.324  17.107 -20.119  1.00  0.00    -0.299 OA
ENDROOT
BRANCH   1   3
ATOM      3  C   UNL     1      10.233  18.214 -20.167  1.00  0.00     0.053 C 
ATOM      4  C   UNL     1      10.038  17.559 -18.793  1.00  0.00     0.016 C 
BRANCH   3   5
ATOM      5  C   UNL     1      10.085  19.758 -20.087  1.00  0.00     0.015 C 
BRANCH   5   6
ATOM      6  C   UNL     1       9.176  20.382 -21.162  1.00  0.00     0.028 C 
BRANCH   6   7
ATOM      7  C   UNL     1       8.392  19.408 -22.020  1.00  0.00    -0.028 C 
ATOM      8  C   UNL     1       8.694  19.022 -23.283  1.00  0.00    -0.070 CG0
ATOM      9  C   UNL     1       7.732  18.100 -23.991  1.00  0.00     0.039 C 
ATOM     10  G   UNL     1       9.974  19.410 -23.996  1.00  0.00     0.000 G0
ENDBRANCH   6   7
ENDBRANCH   5   6
ENDBRANCH   3   5
ENDBRANCH   1   3
BRANCH   1  11
ATOM     11  C   UNL     1      12.079  18.430 -22.059  1.00  0.00     0.087 C 
BRANCH  11  12
ATOM     12  C   UNL     1      11.774  17.522 -23.284  1.00  0.00     0.066 C 
BRANCH  12  13
ATOM     13  C   UNL     1      10.897  18.222 -24.322  1.00  0.00     0.140 C 
ATOM     14  O   UNL     1      10.905  17.810 -25.473  1.00  0.00    -0.299 OA
BRANCH  13  15
ATOM     15  C   UNL     1       9.988  19.398 -24.001  1.00  0.00     0.106 CG0
ATOM     16  G   UNL     1       8.704  19.022 -23.289  1.00  0.00     0.000 G0
ENDBRANCH  13  15
ENDBRANCH  12  13
BRANCH  12  17
ATOM     17  C   UNL     1      13.047  16.915 -23.953  1.00  0.00    -0.006 C 
ATOM     18  C   UNL     1      14.371  17.303 -23.274  1.00  0.00     0.008 C 
ATOM     19  C   UNL     1      12.951  15.385 -24.075  1.00  0.00     0.008 C 
ENDBRANCH  12  17
ENDBRANCH  11  12
ENDBRANCH   1  11
TORSDOF 1
ENDMDL
MODEL 9
REMARK VINA RESULT:    -3.302      1.842      4.241
REMARK INTER + INTRA:          -5.573
REMARK INTER:                  -5.288
REMARK INTRA:                  -0.285
REMARK UNBOUND:                -0.533
REMARK SMILES CC1=CCC[C@H](C)C(=O)C[C@H](C(C)C)C(=O)C1
REMARK SMILES IDX 8 1 9 2 6 3 7 4 5 5 4 6 3 7 2 8 1 9 10 11 11 12 15 13 16 14
REMARK SMILES IDX 17 15 12 17 13 18 14 19
REMARK H PARENT
REMARK Flexibility Score: 70.00
ROOT
ATOM      1  C   UNL     1       8.068  20.550 -23.116  1.00  0.00     0.136 C 
ATOM      2  O   UNL     1       6.979  21.101 -23.202  1.00  0.00    -0.299 OA
ENDROOT
BRANCH   1   3
ATOM      3  C   UNL     1       9.317  21.400 -22.986  1.00  0.00     0.053 C 
ATOM      4  C   UNL     1       9.141  22.740 -23.714  1.00  0.00     0.016 C 
BRANCH   3   5
ATOM      5  C   UNL     1       9.646  21.610 -21.483  1.00  0.00     0.015 C 
BRANCH   5   6
ATOM      6  C   UNL     1      10.767  20.709 -20.930  1.00  0.00     0.028 C 
BRANCH   6   7
ATOM      7  C   UNL     1      10.374  19.769 -19.806  1.00  0.00    -0.028 C 
ATOM      8  C   UNL     1      10.350  18.416 -19.858  1.00  0.00    -0.070 CG0
ATOM      9  C   UNL     1       9.849  17.669 -18.646  1.00  0.00     0.039 C 
ATOM     10  G   UNL     1      10.859  17.612 -21.038  1.00  0.00     0.000 G0
ENDBRANCH   6   7
ENDBRANCH   5   6
ENDBRANCH   3   5
ENDBRANCH   1   3
BRANCH   1  11
ATOM     11  C   UNL     1       8.123  19.036 -23.141  1.00  0.00     0.087 C 
BRANCH  11  12
ATOM     12  C   UNL     1       9.564  18.460 -23.237  1.00  0.00     0.066 C 
BRANCH  12  13
ATOM     13  C   UNL     1       9.844  17.414 -22.158  1.00  0.00     0.140 C 
ATOM     14  O   UNL     1       9.240  16.352 -22.197  1.00  0.00    -0.299 OA
BRANCH  13  15
ATOM     15  C   UNL     1      10.859  17.606 -21.042  1.00  0.00     0.106 CG0
ATOM     16  G   UNL     1      10.346  18.402 -19.858  1.00  0.00     0.000 G0
ENDBRANCH  13  15
ENDBRANCH  12  13
BRANCH  12  17
ATOM     17  C   UNL     1       9.931  17.910 -24.651  1.00  0.00    -0.006 C 
ATOM     18  C   UNL     1       9.488  18.807 -25.819  1.00  0.00     0.008 C 
ATOM     19  C   UNL     1      11.432  17.600 -24.769  1.00  0.00     0.008 C 
ENDBRANCH  12  17
ENDBRANCH  11  12
ENDBRANCH   1  11
TORSDOF 1
ENDMDL
