MODEL 1
REMARK VINA RESULT:    -5.420      0.000      0.000
REMARK INTER + INTRA:          -6.094
REMARK INTER:                  -5.895
REMARK INTRA:                  -0.199
REMARK UNBOUND:                -0.199
REMARK SMILES Cc1ccc(C(C)C)c(O)c1
REMARK SMILES IDX 1 1 2 2 11 3 9 4 5 5 4 6 3 7 10 8 6 10 7 11 8 12
REMARK H PARENT 10 9
REMARK Flexibility Score: inf
ROOT
ATOM      1  C   UNL     1      44.328  21.179  64.292  1.00  0.00     0.044 C 
ATOM      2  C   UNL     1      43.023  21.672  63.738  1.00  0.00    -0.047 A 
ATOM      3  C   UNL     1      42.534  22.934  64.101  1.00  0.00     0.049 A 
ATOM      4  C   UNL     1      41.334  23.418  63.559  1.00  0.00     0.119 A 
ATOM      5  C   UNL     1      40.612  22.637  62.630  1.00  0.00    -0.004 A 
ATOM      6  C   UNL     1      41.124  21.379  62.257  1.00  0.00     0.008 A 
ATOM      7  C   UNL     1      42.320  20.906  62.802  1.00  0.00     0.004 A 
ENDROOT
BRANCH   4   8
ATOM      8  O   UNL     1      40.864  24.673  63.946  1.00  0.00    -0.508 OA
ATOM      9  H   UNL     1      40.234  25.210  63.362  1.00  0.00     0.293 HD
ENDBRANCH   4   8
BRANCH   5  10
ATOM     10  C   UNL     1      39.308  23.140  62.028  1.00  0.00     0.017 C 
ATOM     11  C   UNL     1      38.100  22.421  62.642  1.00  0.00     0.012 C 
ATOM     12  C   UNL     1      39.314  23.000  60.501  1.00  0.00     0.012 C 
ENDBRANCH   5  10
TORSDOF 2
ENDMDL
MODEL 2
REMARK VINA RESULT:    -5.032      9.517     11.855
REMARK INTER + INTRA:          -5.672
REMARK INTER:                  -5.493
REMARK INTRA:                  -0.180
REMARK UNBOUND:                -0.199
REMARK SMILES Cc1ccc(C(C)C)c(O)c1
REMARK SMILES IDX 1 1 2 2 11 3 9 4 5 5 4 6 3 7 10 8 6 10 7 11 8 12
REMARK H PARENT 10 9
REMARK Flexibility Score: inf
ROOT
ATOM      1  C   UNL     1      49.506  19.889  64.267  1.00  0.00     0.044 C 
ATOM      2  C   UNL     1      50.415  19.505  63.136  1.00  0.00    -0.047 A 
ATOM      3  C   UNL     1      50.315  18.236  62.551  1.00  0.00     0.049 A 
ATOM      4  C   UNL     1      51.135  17.881  61.468  1.00  0.00     0.119 A 
ATOM      5  C   UNL     1      52.064  18.811  60.951  1.00  0.00    -0.004 A 
ATOM      6  C   UNL     1      52.140  20.092  61.535  1.00  0.00     0.008 A 
ATOM      7  C   UNL     1      51.320  20.435  62.612  1.00  0.00     0.004 A 
ENDROOT
BRANCH   4   8
ATOM      8  O   UNL     1      51.022  16.608  60.911  1.00  0.00    -0.508 OA
ATOM      9  H   UNL     1      50.742  15.807  61.464  1.00  0.00     0.293 HD
ENDBRANCH   4   8
BRANCH   5  10
ATOM     10  C   UNL     1      52.963  18.451  59.778  1.00  0.00     0.017 C 
ATOM     11  C   UNL     1      54.230  17.728  60.253  1.00  0.00     0.012 C 
ATOM     12  C   UNL     1      53.316  19.694  58.951  1.00  0.00     0.012 C 
ENDBRANCH   5  10
TORSDOF 2
ENDMDL
MODEL 3
REMARK VINA RESULT:    -5.001     12.326     14.079
REMARK INTER + INTRA:          -5.639
REMARK INTER:                  -5.442
REMARK INTRA:                  -0.197
REMARK UNBOUND:                -0.199
REMARK SMILES Cc1ccc(C(C)C)c(O)c1
REMARK SMILES IDX 1 1 2 2 11 3 9 4 5 5 4 6 3 7 10 8 6 10 7 11 8 12
REMARK H PARENT 10 9
REMARK Flexibility Score: inf
ROOT
ATOM      1  C   UNL     1      53.313  17.899  54.207  1.00  0.00     0.044 C 
ATOM      2  C   UNL     1      53.270  19.050  55.169  1.00  0.00    -0.047 A 
ATOM      3  C   UNL     1      52.448  20.155  54.912  1.00  0.00     0.049 A 
ATOM      4  C   UNL     1      52.373  21.218  55.825  1.00  0.00     0.119 A 
ATOM      5  C   UNL     1      53.122  21.177  57.021  1.00  0.00    -0.004 A 
ATOM      6  C   UNL     1      53.930  20.051  57.278  1.00  0.00     0.008 A 
ATOM      7  C   UNL     1      53.998  18.997  56.363  1.00  0.00     0.004 A 
ENDROOT
BRANCH   4   8
ATOM      8  O   UNL     1      51.554  22.310  55.540  1.00  0.00    -0.508 OA
ATOM      9  H   UNL     1      50.545  22.256  55.620  1.00  0.00     0.293 HD
ENDBRANCH   4   8
BRANCH   5  10
ATOM     10  C   UNL     1      53.058  22.317  58.027  1.00  0.00     0.017 C 
ATOM     11  C   UNL     1      54.394  23.067  58.100  1.00  0.00     0.012 C 
ATOM     12  C   UNL     1      52.635  21.809  59.411  1.00  0.00     0.012 C 
ENDBRANCH   5  10
TORSDOF 2
ENDMDL
MODEL 4
REMARK VINA RESULT:    -4.965     12.196     12.999
REMARK INTER + INTRA:          -5.599
REMARK INTER:                  -5.399
REMARK INTRA:                  -0.200
REMARK UNBOUND:                -0.199
REMARK SMILES Cc1ccc(C(C)C)c(O)c1
REMARK SMILES IDX 1 1 2 2 11 3 9 4 5 5 4 6 3 7 10 8 6 10 7 11 8 12
REMARK H PARENT 10 9
REMARK Flexibility Score: inf
ROOT
ATOM      1  C   UNL     1      53.495  16.548  60.901  1.00  0.00     0.044 C 
ATOM      2  C   UNL     1      53.352  17.912  60.293  1.00  0.00    -0.047 A 
ATOM      3  C   UNL     1      52.877  18.982  61.063  1.00  0.00     0.049 A 
ATOM      4  C   UNL     1      52.777  20.270  60.513  1.00  0.00     0.119 A 
ATOM      5  C   UNL     1      53.167  20.499  59.175  1.00  0.00    -0.004 A 
ATOM      6  C   UNL     1      53.663  19.419  58.417  1.00  0.00     0.008 A 
ATOM      7  C   UNL     1      53.759  18.142  58.974  1.00  0.00     0.004 A 
ENDROOT
BRANCH   4   8
ATOM      8  O   UNL     1      52.291  21.315  61.298  1.00  0.00    -0.508 OA
ATOM      9  H   UNL     1      52.903  22.030  61.672  1.00  0.00     0.293 HD
ENDBRANCH   4   8
BRANCH   5  10
ATOM     10  C   UNL     1      53.068  21.886  58.556  1.00  0.00     0.017 C 
ATOM     11  C   UNL     1      52.583  21.810  57.102  1.00  0.00     0.012 C 
ATOM     12  C   UNL     1      54.405  22.631  58.652  1.00  0.00     0.012 C 
ENDBRANCH   5  10
TORSDOF 2
ENDMDL
MODEL 5
REMARK VINA RESULT:    -4.918     12.643     13.694
REMARK INTER + INTRA:          -5.548
REMARK INTER:                  -5.352
REMARK INTRA:                  -0.196
REMARK UNBOUND:                -0.199
REMARK SMILES Cc1ccc(C(C)C)c(O)c1
REMARK SMILES IDX 1 1 2 2 11 3 9 4 5 5 4 6 3 7 10 8 6 10 7 11 8 12
REMARK H PARENT 10 9
REMARK Flexibility Score: inf
ROOT
ATOM      1  C   UNL     1      53.579  16.640  60.506  1.00  0.00     0.044 C 
ATOM      2  C   UNL     1      53.560  17.937  59.752  1.00  0.00    -0.047 A 
ATOM      3  C   UNL     1      53.973  17.982  58.414  1.00  0.00     0.049 A 
ATOM      4  C   UNL     1      53.923  19.183  57.690  1.00  0.00     0.119 A 
ATOM      5  C   UNL     1      53.442  20.360  58.305  1.00  0.00    -0.004 A 
ATOM      6  C   UNL     1      53.011  20.298  59.645  1.00  0.00     0.008 A 
ATOM      7  C   UNL     1      53.064  19.098  60.357  1.00  0.00     0.004 A 
ENDROOT
BRANCH   4   8
ATOM      8  O   UNL     1      54.350  19.201  56.362  1.00  0.00    -0.508 OA
ATOM      9  H   UNL     1      55.333  19.199  56.118  1.00  0.00     0.293 HD
ENDBRANCH   4   8
BRANCH   5  10
ATOM     10  C   UNL     1      53.378  21.674  57.542  1.00  0.00     0.017 C 
ATOM     11  C   UNL     1      54.269  22.739  58.195  1.00  0.00     0.012 C 
ATOM     12  C   UNL     1      51.932  22.169  57.414  1.00  0.00     0.012 C 
ENDBRANCH   5  10
TORSDOF 2
ENDMDL
MODEL 6
REMARK VINA RESULT:    -4.890      1.704      2.459
REMARK INTER + INTRA:          -5.518
REMARK INTER:                  -5.321
REMARK INTRA:                  -0.196
REMARK UNBOUND:                -0.199
REMARK SMILES Cc1ccc(C(C)C)c(O)c1
REMARK SMILES IDX 1 1 2 2 11 3 9 4 5 5 4 6 3 7 10 8 6 10 7 11 8 12
REMARK H PARENT 10 9
REMARK Flexibility Score: inf
ROOT
ATOM      1  C   UNL     1      43.961  21.473  64.579  1.00  0.00     0.044 C 
ATOM      2  C   UNL     1      42.748  21.766  63.747  1.00  0.00    -0.047 A 
ATOM      3  C   UNL     1      42.358  20.882  62.733  1.00  0.00     0.049 A 
ATOM      4  C   UNL     1      41.202  21.129  61.974  1.00  0.00     0.119 A 
ATOM      5  C   UNL     1      40.414  22.271  62.238  1.00  0.00    -0.004 A 
ATOM      6  C   UNL     1      40.805  23.141  63.275  1.00  0.00     0.008 A 
ATOM      7  C   UNL     1      41.956  22.887  64.024  1.00  0.00     0.004 A 
ENDROOT
BRANCH   4   8
ATOM      8  O   UNL     1      40.843  20.238  60.963  1.00  0.00    -0.508 OA
ATOM      9  H   UNL     1      41.483  19.988  60.219  1.00  0.00     0.293 HD
ENDBRANCH   4   8
BRANCH   5  10
ATOM     10  C   UNL     1      39.158  22.560  61.430  1.00  0.00     0.017 C 
ATOM     11  C   UNL     1      39.264  23.907  60.705  1.00  0.00     0.012 C 
ATOM     12  C   UNL     1      37.907  22.509  62.317  1.00  0.00     0.012 C 
ENDBRANCH   5  10
TORSDOF 2
ENDMDL
MODEL 7
REMARK VINA RESULT:    -4.865     11.417     12.865
REMARK INTER + INTRA:          -5.490
REMARK INTER:                  -5.298
REMARK INTRA:                  -0.193
REMARK UNBOUND:                -0.199
REMARK SMILES Cc1ccc(C(C)C)c(O)c1
REMARK SMILES IDX 1 1 2 2 11 3 9 4 5 5 4 6 3 7 10 8 6 10 7 11 8 12
REMARK H PARENT 10 9
REMARK Flexibility Score: inf
ROOT
ATOM      1  C   UNL     1      54.030  22.923  57.912  1.00  0.00     0.044 C 
ATOM      2  C   UNL     1      53.670  21.712  58.722  1.00  0.00    -0.047 A 
ATOM      3  C   UNL     1      52.982  21.852  59.934  1.00  0.00     0.049 A 
ATOM      4  C   UNL     1      52.609  20.723  60.679  1.00  0.00     0.119 A 
ATOM      5  C   UNL     1      52.916  19.429  60.203  1.00  0.00    -0.004 A 
ATOM      6  C   UNL     1      53.591  19.300  58.972  1.00  0.00     0.008 A 
ATOM      7  C   UNL     1      53.958  20.430  58.238  1.00  0.00     0.004 A 
ENDROOT
BRANCH   4   8
ATOM      8  O   UNL     1      51.933  20.891  61.887  1.00  0.00    -0.508 OA
ATOM      9  H   UNL     1      51.029  20.467  62.056  1.00  0.00     0.293 HD
ENDBRANCH   4   8
BRANCH   5  10
ATOM     10  C   UNL     1      52.523  18.189  60.992  1.00  0.00     0.017 C 
ATOM     11  C   UNL     1      53.549  17.065  60.807  1.00  0.00     0.012 C 
ATOM     12  C   UNL     1      51.114  17.716  60.612  1.00  0.00     0.012 C 
ENDBRANCH   5  10
TORSDOF 2
ENDMDL
MODEL 8
REMARK VINA RESULT:    -4.842     13.261     13.866
REMARK INTER + INTRA:          -5.465
REMARK INTER:                  -5.265
REMARK INTRA:                  -0.200
REMARK UNBOUND:                -0.199
REMARK SMILES Cc1ccc(C(C)C)c(O)c1
REMARK SMILES IDX 1 1 2 2 11 3 9 4 5 5 4 6 3 7 10 8 6 10 7 11 8 12
REMARK H PARENT 10 9
REMARK Flexibility Score: inf
ROOT
ATOM      1  C   UNL     1      54.000  22.605  59.270  1.00  0.00     0.044 C 
ATOM      2  C   UNL     1      53.583  21.758  58.104  1.00  0.00    -0.047 A 
ATOM      3  C   UNL     1      52.831  22.315  57.061  1.00  0.00     0.049 A 
ATOM      4  C   UNL     1      52.468  21.540  55.948  1.00  0.00     0.119 A 
ATOM      5  C   UNL     1      52.871  20.189  55.866  1.00  0.00    -0.004 A 
ATOM      6  C   UNL     1      53.644  19.646  56.912  1.00  0.00     0.008 A 
ATOM      7  C   UNL     1      54.000  20.425  58.015  1.00  0.00     0.004 A 
ENDROOT
BRANCH   4   8
ATOM      8  O   UNL     1      51.710  22.116  54.929  1.00  0.00    -0.508 OA
ATOM      9  H   UNL     1      51.614  23.120  54.839  1.00  0.00     0.293 HD
ENDBRANCH   4   8
BRANCH   5  10
ATOM     10  C   UNL     1      52.490  19.328  54.671  1.00  0.00     0.017 C 
ATOM     11  C   UNL     1      51.215  18.522  54.951  1.00  0.00     0.012 C 
ATOM     12  C   UNL     1      53.646  18.406  54.263  1.00  0.00     0.012 C 
ENDBRANCH   5  10
TORSDOF 2
ENDMDL
MODEL 9
REMARK VINA RESULT:    -4.834     12.003     13.626
REMARK INTER + INTRA:          -5.456
REMARK INTER:                  -5.260
REMARK INTRA:                  -0.196
REMARK UNBOUND:                -0.199
REMARK SMILES Cc1ccc(C(C)C)c(O)c1
REMARK SMILES IDX 1 1 2 2 11 3 9 4 5 5 4 6 3 7 10 8 6 10 7 11 8 12
REMARK H PARENT 10 9
REMARK Flexibility Score: inf
ROOT
ATOM      1  C   UNL     1      54.341  23.016  57.930  1.00  0.00     0.044 C 
ATOM      2  C   UNL     1      53.872  21.659  58.366  1.00  0.00    -0.047 A 
ATOM      3  C   UNL     1      54.235  20.519  57.637  1.00  0.00     0.049 A 
ATOM      4  C   UNL     1      53.831  19.242  58.059  1.00  0.00     0.119 A 
ATOM      5  C   UNL     1      53.062  19.096  59.235  1.00  0.00    -0.004 A 
ATOM      6  C   UNL     1      52.720  20.249  59.970  1.00  0.00     0.008 A 
ATOM      7  C   UNL     1      53.127  21.515  59.542  1.00  0.00     0.004 A 
ENDROOT
BRANCH   4   8
ATOM      8  O   UNL     1      54.198  18.125  57.310  1.00  0.00    -0.508 OA
ATOM      9  H   UNL     1      54.697  17.346  57.722  1.00  0.00     0.293 HD
ENDBRANCH   4   8
BRANCH   5  10
ATOM     10  C   UNL     1      52.613  17.724  59.713  1.00  0.00     0.017 C 
ATOM     11  C   UNL     1      51.229  17.792  60.372  1.00  0.00     0.012 C 
ATOM     12  C   UNL     1      53.646  17.104  60.662  1.00  0.00     0.012 C 
ENDBRANCH   5  10
TORSDOF 2
ENDMDL
