MODEL 1
REMARK VINA RESULT:    -3.281      0.000      0.000
REMARK INTER + INTRA:          -7.596
REMARK INTER:                  -5.967
REMARK INTRA:                  -1.629
REMARK UNBOUND:                -1.629
REMARK SMILES CCCCCCCCCCCCCCCC(=O)[O-]
REMARK SMILES IDX 9 1 10 2 11 3 12 4 13 5 14 6 15 7 16 8 17 9 18 10 8 11 7 12
REMARK SMILES IDX 6 13 5 14 4 15 3 16 2 17 1 18
REMARK H PARENT
REMARK Flexibility Score: inf
ROOT
ATOM      1  C   UNL     1      -8.974  -6.091  -1.145  1.00  0.00     0.000 C 
ENDROOT
BRANCH   1   2
ATOM      2  C   UNL     1      -9.540  -7.060  -2.196  1.00  0.00     0.000 C 
BRANCH   2   3
ATOM      3  C   UNL     1      -9.377  -6.538  -3.633  1.00  0.00     0.000 C 
BRANCH   3   4
ATOM      4  C   UNL     1      -9.207  -7.668  -4.658  1.00  0.00     0.000 C 
BRANCH   4   5
ATOM      5  C   UNL     1      -8.433  -8.847  -4.049  1.00  0.00     0.000 C 
BRANCH   5   6
ATOM      6  C   UNL     1      -6.938  -8.836  -4.419  1.00  0.00     0.006 C 
BRANCH   6   7
ATOM      7  C   UNL     1      -6.029  -8.195  -3.357  1.00  0.00     0.053 C 
BRANCH   7   8
ATOM      8  C   UNL     1      -5.322  -6.983  -3.880  1.00  0.00     0.041 C 
ATOM      9  O   UNL     1      -5.858  -5.847  -3.785  1.00  0.00    -0.550 OA
ATOM     10  O   UNL     1      -4.057  -7.102  -4.442  1.00  0.00    -0.550 OA
ENDBRANCH   7   8
ENDBRANCH   6   7
ENDBRANCH   5   6
ENDBRANCH   4   5
ENDBRANCH   3   4
ENDBRANCH   2   3
ENDBRANCH   1   2
BRANCH   1  11
ATOM     11  C   UNL     1      -8.121  -6.842  -0.113  1.00  0.00     0.000 C 
BRANCH  11  12
ATOM     12  C   UNL     1      -8.154  -8.367  -0.308  1.00  0.00    -0.000 C 
BRANCH  12  13
ATOM     13  C   UNL     1      -8.341  -9.128   1.016  1.00  0.00    -0.000 C 
BRANCH  13  14
ATOM     14  C   UNL     1      -8.057  -8.250   2.246  1.00  0.00    -0.000 C 
BRANCH  14  15
ATOM     15  C   UNL     1      -9.220  -8.248   3.255  1.00  0.00    -0.000 C 
BRANCH  15  16
ATOM     16  C   UNL     1     -10.068  -6.970   3.174  1.00  0.00    -0.000 C 
BRANCH  16  17
ATOM     17  C   UNL     1      -9.967  -6.113   4.444  1.00  0.00    -0.003 C 
ATOM     18  C   UNL     1      -9.005  -6.735   5.452  1.00  0.00     0.004 C 
ENDBRANCH  16  17
ENDBRANCH  15  16
ENDBRANCH  14  15
ENDBRANCH  13  14
ENDBRANCH  12  13
ENDBRANCH  11  12
ENDBRANCH   1  11
TORSDOF 14
ENDMDL
MODEL 2
REMARK VINA RESULT:    -3.249     11.087     15.023
REMARK INTER + INTRA:          -7.537
REMARK INTER:                  -5.481
REMARK INTRA:                  -2.056
REMARK UNBOUND:                -1.629
REMARK SMILES CCCCCCCCCCCCCCCC(=O)[O-]
REMARK SMILES IDX 9 1 10 2 11 3 12 4 13 5 14 6 15 7 16 8 17 9 18 10 8 11 7 12
REMARK SMILES IDX 6 13 5 14 4 15 3 16 2 17 1 18
REMARK H PARENT
REMARK Flexibility Score: inf
ROOT
ATOM      1  C   UNL     1       4.680  -1.997  -7.097  1.00  0.00     0.000 C 
ENDROOT
BRANCH   1   2
ATOM      2  C   UNL     1       4.893  -2.694  -5.744  1.00  0.00     0.000 C 
BRANCH   2   3
ATOM      3  C   UNL     1       3.786  -3.711  -5.419  1.00  0.00     0.000 C 
BRANCH   3   4
ATOM      4  C   UNL     1       3.024  -3.365  -4.132  1.00  0.00     0.000 C 
BRANCH   4   5
ATOM      5  C   UNL     1       1.509  -3.346  -4.383  1.00  0.00     0.000 C 
BRANCH   5   6
ATOM      6  C   UNL     1       1.003  -1.980  -4.884  1.00  0.00     0.006 C 
BRANCH   6   7
ATOM      7  C   UNL     1      -0.156  -2.066  -5.891  1.00  0.00     0.053 C 
BRANCH   7   8
ATOM      8  C   UNL     1      -1.482  -2.208  -5.210  1.00  0.00     0.041 C 
ATOM      9  O   UNL     1      -1.985  -1.232  -4.592  1.00  0.00    -0.550 OA
ATOM     10  O   UNL     1      -2.179  -3.407  -5.286  1.00  0.00    -0.550 OA
ENDBRANCH   7   8
ENDBRANCH   6   7
ENDBRANCH   5   6
ENDBRANCH   4   5
ENDBRANCH   3   4
ENDBRANCH   2   3
ENDBRANCH   1   2
BRANCH   1  11
ATOM     11  C   UNL     1       3.716  -0.810  -6.955  1.00  0.00     0.000 C 
BRANCH  11  12
ATOM     12  C   UNL     1       4.365   0.532  -7.329  1.00  0.00    -0.000 C 
BRANCH  12  13
ATOM     13  C   UNL     1       5.884   0.413  -7.549  1.00  0.00    -0.000 C 
BRANCH  13  14
ATOM     14  C   UNL     1       6.687   1.347  -6.630  1.00  0.00    -0.000 C 
BRANCH  14  15
ATOM     15  C   UNL     1       7.763   0.602  -5.818  1.00  0.00    -0.000 C 
BRANCH  15  16
ATOM     16  C   UNL     1       7.218   0.037  -4.498  1.00  0.00    -0.000 C 
BRANCH  16  17
ATOM     17  C   UNL     1       6.166   0.951  -3.854  1.00  0.00    -0.003 C 
ATOM     18  C   UNL     1       4.932   0.158  -3.432  1.00  0.00     0.004 C 
ENDBRANCH  16  17
ENDBRANCH  15  16
ENDBRANCH  14  15
ENDBRANCH  13  14
ENDBRANCH  12  13
ENDBRANCH  11  12
ENDBRANCH   1  11
TORSDOF 14
ENDMDL
MODEL 3
REMARK VINA RESULT:    -3.244     11.699     15.196
REMARK INTER + INTRA:          -7.529
REMARK INTER:                  -6.368
REMARK INTRA:                  -1.161
REMARK UNBOUND:                -1.629
REMARK SMILES CCCCCCCCCCCCCCCC(=O)[O-]
REMARK SMILES IDX 9 1 10 2 11 3 12 4 13 5 14 6 15 7 16 8 17 9 18 10 8 11 7 12
REMARK SMILES IDX 6 13 5 14 4 15 3 16 2 17 1 18
REMARK H PARENT
REMARK Flexibility Score: inf
ROOT
ATOM      1  C   UNL     1       5.338  -1.186  -7.636  1.00  0.00     0.000 C 
ENDROOT
BRANCH   1   2
ATOM      2  C   UNL     1       5.192   0.327  -7.411  1.00  0.00     0.000 C 
BRANCH   2   3
ATOM      3  C   UNL     1       6.524   1.005  -7.053  1.00  0.00     0.000 C 
BRANCH   3   4
ATOM      4  C   UNL     1       7.647  -0.005  -6.776  1.00  0.00     0.000 C 
BRANCH   4   5
ATOM      5  C   UNL     1       8.298   0.261  -5.410  1.00  0.00     0.000 C 
BRANCH   5   6
ATOM      6  C   UNL     1       7.546   1.323  -4.587  1.00  0.00     0.006 C 
BRANCH   6   7
ATOM      7  C   UNL     1       6.707   0.750  -3.432  1.00  0.00     0.053 C 
BRANCH   7   8
ATOM      8  C   UNL     1       5.237   0.886  -3.684  1.00  0.00     0.041 C 
ATOM      9  O   UNL     1       4.547  -0.128  -3.973  1.00  0.00    -0.550 OA
ATOM     10  O   UNL     1       4.622   2.126  -3.568  1.00  0.00    -0.550 OA
ENDBRANCH   7   8
ENDBRANCH   6   7
ENDBRANCH   5   6
ENDBRANCH   4   5
ENDBRANCH   3   4
ENDBRANCH   2   3
ENDBRANCH   1   2
BRANCH   1  11
ATOM     11  C   UNL     1       4.107  -1.938  -7.111  1.00  0.00     0.000 C 
BRANCH  11  12
ATOM     12  C   UNL     1       2.863  -1.041  -7.000  1.00  0.00    -0.000 C 
BRANCH  12  13
ATOM     13  C   UNL     1       1.617  -1.814  -6.531  1.00  0.00    -0.000 C 
BRANCH  13  14
ATOM     14  C   UNL     1       1.500  -1.869  -4.999  1.00  0.00    -0.000 C 
BRANCH  14  15
ATOM     15  C   UNL     1       0.055  -1.670  -4.506  1.00  0.00    -0.000 C 
BRANCH  15  16
ATOM     16  C   UNL     1      -0.963  -2.476  -5.327  1.00  0.00    -0.000 C 
BRANCH  16  17
ATOM     17  C   UNL     1      -2.384  -1.899  -5.235  1.00  0.00    -0.003 C 
ATOM     18  C   UNL     1      -3.396  -2.985  -4.879  1.00  0.00     0.004 C 
ENDBRANCH  16  17
ENDBRANCH  15  16
ENDBRANCH  14  15
ENDBRANCH  13  14
ENDBRANCH  12  13
ENDBRANCH  11  12
ENDBRANCH   1  11
TORSDOF 14
ENDMDL
MODEL 4
REMARK VINA RESULT:    -3.234     10.795     13.420
REMARK INTER + INTRA:          -7.509
REMARK INTER:                  -5.477
REMARK INTRA:                  -2.032
REMARK UNBOUND:                -1.629
REMARK SMILES CCCCCCCCCCCCCCCC(=O)[O-]
REMARK SMILES IDX 9 1 10 2 11 3 12 4 13 5 14 6 15 7 16 8 17 9 18 10 8 11 7 12
REMARK SMILES IDX 6 13 5 14 4 15 3 16 2 17 1 18
REMARK H PARENT
REMARK Flexibility Score: inf
ROOT
ATOM      1  C   UNL     1      -9.052   0.528  11.046  1.00  0.00     0.000 C 
ENDROOT
BRANCH   1   2
ATOM      2  C   UNL     1      -9.814  -0.609  11.746  1.00  0.00     0.000 C 
BRANCH   2   3
ATOM      3  C   UNL     1      -9.286  -2.001  11.362  1.00  0.00     0.000 C 
BRANCH   3   4
ATOM      4  C   UNL     1      -9.239  -2.218   9.843  1.00  0.00     0.000 C 
BRANCH   4   5
ATOM      5  C   UNL     1      -7.788  -2.345   9.353  1.00  0.00     0.000 C 
BRANCH   5   6
ATOM      6  C   UNL     1      -7.538  -1.602   8.027  1.00  0.00     0.006 C 
BRANCH   6   7
ATOM      7  C   UNL     1      -8.798  -0.977   7.405  1.00  0.00     0.053 C 
BRANCH   7   8
ATOM      8  C   UNL     1      -8.516   0.355   6.782  1.00  0.00     0.041 C 
ATOM      9  O   UNL     1      -8.894   0.596   5.605  1.00  0.00    -0.550 OA
ATOM     10  O   UNL     1      -7.864   1.341   7.511  1.00  0.00    -0.550 OA
ENDBRANCH   7   8
ENDBRANCH   6   7
ENDBRANCH   5   6
ENDBRANCH   4   5
ENDBRANCH   3   4
ENDBRANCH   2   3
ENDBRANCH   1   2
BRANCH   1  11
ATOM     11  C   UNL     1      -8.234   1.342  12.059  1.00  0.00     0.000 C 
BRANCH  11  12
ATOM     12  C   UNL     1      -6.726   1.057  11.974  1.00  0.00    -0.000 C 
BRANCH  12  13
ATOM     13  C   UNL     1      -6.230   0.929  10.522  1.00  0.00    -0.000 C 
BRANCH  13  14
ATOM     14  C   UNL     1      -4.710   0.723  10.435  1.00  0.00    -0.000 C 
BRANCH  14  15
ATOM     15  C   UNL     1      -4.305  -0.242   9.305  1.00  0.00    -0.000 C 
BRANCH  15  16
ATOM     16  C   UNL     1      -4.263   0.444   7.931  1.00  0.00    -0.000 C 
BRANCH  16  17
ATOM     17  C   UNL     1      -4.165  -0.560   6.774  1.00  0.00    -0.003 C 
ATOM     18  C   UNL     1      -5.024  -0.121   5.590  1.00  0.00     0.004 C 
ENDBRANCH  16  17
ENDBRANCH  15  16
ENDBRANCH  14  15
ENDBRANCH  13  14
ENDBRANCH  12  13
ENDBRANCH  11  12
ENDBRANCH   1  11
TORSDOF 14
ENDMDL
MODEL 5
REMARK VINA RESULT:    -3.227     16.875     18.513
REMARK INTER + INTRA:          -7.497
REMARK INTER:                  -6.744
REMARK INTRA:                  -0.753
REMARK UNBOUND:                -1.629
REMARK SMILES CCCCCCCCCCCCCCCC(=O)[O-]
REMARK SMILES IDX 9 1 10 2 11 3 12 4 13 5 14 6 15 7 16 8 17 9 18 10 8 11 7 12
REMARK SMILES IDX 6 13 5 14 4 15 3 16 2 17 1 18
REMARK H PARENT
REMARK Flexibility Score: inf
ROOT
ATOM      1  C   UNL     1       1.414  10.123   6.875  1.00  0.00     0.000 C 
ENDROOT
BRANCH   1   2
ATOM      2  C   UNL     1       0.089  10.103   6.098  1.00  0.00     0.000 C 
BRANCH   2   3
ATOM      3  C   UNL     1       0.251   9.574   4.663  1.00  0.00     0.000 C 
BRANCH   3   4
ATOM      4  C   UNL     1      -0.667   8.380   4.364  1.00  0.00     0.000 C 
BRANCH   4   5
ATOM      5  C   UNL     1      -2.144   8.801   4.409  1.00  0.00     0.000 C 
BRANCH   5   6
ATOM      6  C   UNL     1      -3.014   8.035   3.394  1.00  0.00     0.006 C 
BRANCH   6   7
ATOM      7  C   UNL     1      -4.509   7.990   3.752  1.00  0.00     0.053 C 
BRANCH   7   8
ATOM      8  C   UNL     1      -5.347   8.738   2.761  1.00  0.00     0.041 C 
ATOM      9  O   UNL     1      -6.327   9.426   3.153  1.00  0.00    -0.550 OA
ATOM     10  O   UNL     1      -5.026   8.704   1.411  1.00  0.00    -0.550 OA
ENDBRANCH   7   8
ENDBRANCH   6   7
ENDBRANCH   5   6
ENDBRANCH   4   5
ENDBRANCH   3   4
ENDBRANCH   2   3
ENDBRANCH   1   2
BRANCH   1  11
ATOM     11  C   UNL     1       2.506   9.355   6.116  1.00  0.00     0.000 C 
BRANCH  11  12
ATOM     12  C   UNL     1       2.596   7.879   6.536  1.00  0.00    -0.000 C 
BRANCH  12  13
ATOM     13  C   UNL     1       2.935   6.949   5.357  1.00  0.00    -0.000 C 
BRANCH  13  14
ATOM     14  C   UNL     1       3.229   5.509   5.808  1.00  0.00    -0.000 C 
BRANCH  14  15
ATOM     15  C   UNL     1       2.084   4.536   5.470  1.00  0.00    -0.000 C 
BRANCH  15  16
ATOM     16  C   UNL     1       1.478   3.883   6.721  1.00  0.00    -0.000 C 
BRANCH  16  17
ATOM     17  C   UNL     1       0.444   2.800   6.380  1.00  0.00    -0.003 C 
ATOM     18  C   UNL     1       0.036   2.018   7.625  1.00  0.00     0.004 C 
ENDBRANCH  16  17
ENDBRANCH  15  16
ENDBRANCH  14  15
ENDBRANCH  13  14
ENDBRANCH  12  13
ENDBRANCH  11  12
ENDBRANCH   1  11
TORSDOF 14
ENDMDL
MODEL 6
REMARK VINA RESULT:    -3.204     17.787     19.563
REMARK INTER + INTRA:          -7.457
REMARK INTER:                  -4.968
REMARK INTRA:                  -2.488
REMARK UNBOUND:                -1.629
REMARK SMILES CCCCCCCCCCCCCCCC(=O)[O-]
REMARK SMILES IDX 9 1 10 2 11 3 12 4 13 5 14 6 15 7 16 8 17 9 18 10 8 11 7 12
REMARK SMILES IDX 6 13 5 14 4 15 3 16 2 17 1 18
REMARK H PARENT
REMARK Flexibility Score: inf
ROOT
ATOM      1  C   UNL     1       3.469   7.218   5.401  1.00  0.00     0.000 C 
ENDROOT
BRANCH   1   2
ATOM      2  C   UNL     1       3.274   8.679   5.836  1.00  0.00     0.000 C 
BRANCH   2   3
ATOM      3  C   UNL     1       2.194   8.836   6.918  1.00  0.00     0.000 C 
BRANCH   3   4
ATOM      4  C   UNL     1       1.160   9.917   6.570  1.00  0.00     0.000 C 
BRANCH   4   5
ATOM      5  C   UNL     1       0.723   9.804   5.103  1.00  0.00     0.000 C 
BRANCH   5   6
ATOM      6  C   UNL     1      -0.549   8.954   4.922  1.00  0.00     0.006 C 
BRANCH   6   7
ATOM      7  C   UNL     1      -1.753   9.731   4.361  1.00  0.00     0.053 C 
BRANCH   7   8
ATOM      8  C   UNL     1      -2.941   8.845   4.144  1.00  0.00     0.041 C 
ATOM      9  O   UNL     1      -4.091   9.234   4.479  1.00  0.00    -0.550 OA
ATOM     10  O   UNL     1      -2.783   7.604   3.541  1.00  0.00    -0.550 OA
ENDBRANCH   7   8
ENDBRANCH   6   7
ENDBRANCH   5   6
ENDBRANCH   4   5
ENDBRANCH   3   4
ENDBRANCH   2   3
ENDBRANCH   1   2
BRANCH   1  11
ATOM     11  C   UNL     1       2.313   6.339   5.901  1.00  0.00     0.000 C 
BRANCH  11  12
ATOM     12  C   UNL     1       1.866   5.296   4.864  1.00  0.00    -0.000 C 
BRANCH  12  13
ATOM     13  C   UNL     1       0.737   5.813   3.955  1.00  0.00    -0.000 C 
BRANCH  13  14
ATOM     14  C   UNL     1       1.241   6.208   2.558  1.00  0.00    -0.000 C 
BRANCH  14  15
ATOM     15  C   UNL     1       0.328   7.238   1.867  1.00  0.00    -0.000 C 
BRANCH  15  16
ATOM     16  C   UNL     1       1.067   8.539   1.516  1.00  0.00    -0.000 C 
BRANCH  16  17
ATOM     17  C   UNL     1       2.521   8.543   2.012  1.00  0.00    -0.003 C 
ATOM     18  C   UNL     1       3.007   9.966   2.277  1.00  0.00     0.004 C 
ENDBRANCH  16  17
ENDBRANCH  15  16
ENDBRANCH  14  15
ENDBRANCH  13  14
ENDBRANCH  12  13
ENDBRANCH  11  12
ENDBRANCH   1  11
TORSDOF 14
ENDMDL
MODEL 7
REMARK VINA RESULT:    -3.201      3.401      5.333
REMARK INTER + INTRA:          -7.451
REMARK INTER:                  -5.195
REMARK INTRA:                  -2.256
REMARK UNBOUND:                -1.629
REMARK SMILES CCCCCCCCCCCCCCCC(=O)[O-]
REMARK SMILES IDX 9 1 10 2 11 3 12 4 13 5 14 6 15 7 16 8 17 9 18 10 8 11 7 12
REMARK SMILES IDX 6 13 5 14 4 15 3 16 2 17 1 18
REMARK H PARENT
REMARK Flexibility Score: inf
ROOT
ATOM      1  C   UNL     1      -7.146  -9.376  -4.477  1.00  0.00     0.000 C 
ENDROOT
BRANCH   1   2
ATOM      2  C   UNL     1      -6.242  -8.169  -4.181  1.00  0.00     0.000 C 
BRANCH   2   3
ATOM      3  C   UNL     1      -5.620  -8.224  -2.776  1.00  0.00     0.000 C 
BRANCH   3   4
ATOM      4  C   UNL     1      -5.292  -6.831  -2.218  1.00  0.00     0.000 C 
BRANCH   4   5
ATOM      5  C   UNL     1      -5.532  -5.747  -3.279  1.00  0.00     0.000 C 
BRANCH   5   6
ATOM      6  C   UNL     1      -4.268  -4.923  -3.589  1.00  0.00     0.006 C 
BRANCH   6   7
ATOM      7  C   UNL     1      -4.544  -3.455  -3.954  1.00  0.00     0.053 C 
BRANCH   7   8
ATOM      8  C   UNL     1      -3.580  -2.940  -4.978  1.00  0.00     0.041 C 
ATOM      9  O   UNL     1      -3.830  -1.875  -5.604  1.00  0.00    -0.550 OA
ATOM     10  O   UNL     1      -2.391  -3.616  -5.217  1.00  0.00    -0.550 OA
ENDBRANCH   7   8
ENDBRANCH   6   7
ENDBRANCH   5   6
ENDBRANCH   4   5
ENDBRANCH   3   4
ENDBRANCH   2   3
ENDBRANCH   1   2
BRANCH   1  11
ATOM     11  C   UNL     1      -8.624  -8.959  -4.500  1.00  0.00     0.000 C 
BRANCH  11  12
ATOM     12  C   UNL     1      -8.815  -7.437  -4.405  1.00  0.00    -0.000 C 
BRANCH  12  13
ATOM     13  C   UNL     1      -9.752  -7.030  -3.254  1.00  0.00    -0.000 C 
BRANCH  13  14
ATOM     14  C   UNL     1      -9.070  -7.121  -1.879  1.00  0.00    -0.000 C 
BRANCH  14  15
ATOM     15  C   UNL     1      -8.806  -5.739  -1.253  1.00  0.00    -0.000 C 
BRANCH  15  16
ATOM     16  C   UNL     1      -9.483  -4.601  -2.033  1.00  0.00    -0.000 C 
BRANCH  16  17
ATOM     17  C   UNL     1      -8.476  -3.573  -2.568  1.00  0.00    -0.003 C 
ATOM     18  C   UNL     1      -8.395  -3.624  -4.091  1.00  0.00     0.004 C 
ENDBRANCH  16  17
ENDBRANCH  15  16
ENDBRANCH  14  15
ENDBRANCH  13  14
ENDBRANCH  12  13
ENDBRANCH  11  12
ENDBRANCH   1  11
TORSDOF 14
ENDMDL
MODEL 8
REMARK VINA RESULT:    -3.147     16.257     17.765
REMARK INTER + INTRA:          -7.352
REMARK INTER:                  -5.160
REMARK INTRA:                  -2.191
REMARK UNBOUND:                -1.629
REMARK SMILES CCCCCCCCCCCCCCCC(=O)[O-]
REMARK SMILES IDX 9 1 10 2 11 3 12 4 13 5 14 6 15 7 16 8 17 9 18 10 8 11 7 12
REMARK SMILES IDX 6 13 5 14 4 15 3 16 2 17 1 18
REMARK H PARENT
REMARK Flexibility Score: inf
ROOT
ATOM      1  C   UNL     1      -5.332   8.734   3.114  1.00  0.00     0.000 C 
ENDROOT
BRANCH   1   2
ATOM      2  C   UNL     1      -4.349   8.233   4.184  1.00  0.00     0.000 C 
BRANCH   2   3
ATOM      3  C   UNL     1      -3.343   9.313   4.617  1.00  0.00     0.000 C 
BRANCH   3   4
ATOM      4  C   UNL     1      -2.645   9.984   3.425  1.00  0.00     0.000 C 
BRANCH   4   5
ATOM      5  C   UNL     1      -1.208   9.466   3.270  1.00  0.00     0.000 C 
BRANCH   5   6
ATOM      6  C   UNL     1      -0.608   8.963   4.597  1.00  0.00     0.006 C 
BRANCH   6   7
ATOM      7  C   UNL     1       0.919   9.120   4.700  1.00  0.00     0.053 C 
BRANCH   7   8
ATOM      8  C   UNL     1       1.482   8.371   5.868  1.00  0.00     0.041 C 
ATOM      9  O   UNL     1       1.517   8.908   7.008  1.00  0.00    -0.550 OA
ATOM     10  O   UNL     1       1.939   7.070   5.707  1.00  0.00    -0.550 OA
ENDBRANCH   7   8
ENDBRANCH   6   7
ENDBRANCH   5   6
ENDBRANCH   4   5
ENDBRANCH   3   4
ENDBRANCH   2   3
ENDBRANCH   1   2
BRANCH   1  11
ATOM     11  C   UNL     1      -5.732   7.596   2.163  1.00  0.00     0.000 C 
BRANCH  11  12
ATOM     12  C   UNL     1      -4.810   7.494   0.937  1.00  0.00    -0.000 C 
BRANCH  12  13
ATOM     13  C   UNL     1      -4.532   6.036   0.527  1.00  0.00    -0.000 C 
BRANCH  13  14
ATOM     14  C   UNL     1      -3.030   5.732   0.413  1.00  0.00    -0.000 C 
BRANCH  14  15
ATOM     15  C   UNL     1      -2.183   6.541   1.413  1.00  0.00    -0.000 C 
BRANCH  15  16
ATOM     16  C   UNL     1      -1.946   5.787   2.730  1.00  0.00    -0.000 C 
BRANCH  16  17
ATOM     17  C   UNL     1      -0.455   5.642   3.068  1.00  0.00    -0.003 C 
ATOM     18  C   UNL     1       0.416   6.325   2.017  1.00  0.00     0.004 C 
ENDBRANCH  16  17
ENDBRANCH  15  16
ENDBRANCH  14  15
ENDBRANCH  13  14
ENDBRANCH  12  13
ENDBRANCH  11  12
ENDBRANCH   1  11
TORSDOF 14
ENDMDL
