MODEL 1
REMARK VINA RESULT:     1.840      0.000      0.000
REMARK INTER + INTRA:           4.597
REMARK INTER:                   2.485
REMARK INTRA:                   2.112
REMARK UNBOUND:                 2.112
REMARK SMILES C=C1CCC=C(C)CC[C@@H]2[C@H]1CC2(C)C
REMARK SMILES IDX 11 1 12 2 13 3 10 4 14 5 15 6 9 7 8 8 6 9 7 10 5 11 2 13
REMARK SMILES IDX 1 14 3 15 4 16
REMARK H PARENT
REMARK Flexibility Score: 70.00
ROOT
ATOM      1  C   UNL     1     154.977 137.408 162.615  1.00  0.00     0.018 C 
ATOM      2  C   UNL     1     154.731 137.300 164.129  1.00  0.00     0.015 C 
ATOM      3  C   UNL     1     153.815 138.531 164.097  1.00  0.00    -0.031 C 
ATOM      4  C   UNL     1     154.079 138.678 162.576  1.00  0.00     0.002 C 
ATOM      5  C   UNL     1     154.372 139.707 164.917  1.00  0.00     0.011 C 
ATOM      6  C   UNL     1     152.373 138.183 164.525  1.00  0.00     0.011 C 
ENDROOT
BRANCH   4   7
ATOM      7  C   UNL     1     152.827 138.814 161.674  1.00  0.00     0.009 C 
BRANCH   7   8
ATOM      8  C   UNL     1     151.646 137.855 161.987  1.00  0.00     0.030 C 
BRANCH   8   9
ATOM      9  C   UNL     1     151.456 136.727 160.989  1.00  0.00    -0.077 C 
ATOM     10  C   UNL     1     150.818 137.032 159.658  1.00  0.00     0.039 C 
ATOM     11  C   UNL     1     151.864 135.462 161.228  1.00  0.00    -0.028 CG0
ATOM     12  G   UNL     1     152.458 134.973 162.527  1.00  0.00     0.000 G0
ENDBRANCH   8   9
ENDBRANCH   7   8
ENDBRANCH   4   7
BRANCH   1  13
ATOM     13  C   UNL     1     154.701 136.077 161.899  1.00  0.00    -0.074 C 
ATOM     14  C   UNL     1     154.921 136.045 160.571  1.00  0.00     0.008 C 
BRANCH  13  15
ATOM     15  C   UNL     1     154.013 134.876 162.519  1.00  0.00     0.035 C 
BRANCH  15  16
ATOM     16  C   UNL     1     152.479 134.981 162.526  1.00  0.00     0.032 CG0
ATOM     17  G   UNL     1     151.864 135.465 161.235  1.00  0.00     0.000 G0
ENDBRANCH  15  16
ENDBRANCH  13  15
ENDBRANCH   1  13
TORSDOF 0
ENDMDL
MODEL 2
REMARK VINA RESULT:     2.364      1.458      4.301
REMARK INTER + INTRA:           5.305
REMARK INTER:                   2.902
REMARK INTRA:                   2.403
REMARK UNBOUND:                 2.112
REMARK SMILES C=C1CCC=C(C)CC[C@@H]2[C@H]1CC2(C)C
REMARK SMILES IDX 11 1 12 2 13 3 10 4 14 5 15 6 9 7 8 8 6 9 7 10 5 11 2 13
REMARK SMILES IDX 1 14 3 15 4 16
REMARK H PARENT
REMARK Flexibility Score: 70.00
ROOT
ATOM      1  C   UNL     1     151.347 135.856 161.292  1.00  0.00     0.018 C 
ATOM      2  C   UNL     1     151.518 135.452 159.818  1.00  0.00     0.015 C 
ATOM      3  C   UNL     1     151.299 136.902 159.366  1.00  0.00    -0.031 C 
ATOM      4  C   UNL     1     151.089 137.322 160.844  1.00  0.00     0.002 C 
ATOM      5  C   UNL     1     150.032 137.072 158.509  1.00  0.00     0.011 C 
ATOM      6  C   UNL     1     152.541 137.472 158.648  1.00  0.00     0.011 C 
ENDROOT
BRANCH   4   7
ATOM      7  C   UNL     1     151.925 138.529 161.338  1.00  0.00     0.009 C 
BRANCH   7   8
ATOM      8  C   UNL     1     153.439 138.270 161.566  1.00  0.00     0.030 C 
BRANCH   8   9
ATOM      9  C   UNL     1     153.891 138.351 163.013  1.00  0.00    -0.077 C 
ATOM     10  C   UNL     1     153.658 139.629 163.778  1.00  0.00     0.039 C 
ATOM     11  C   UNL     1     154.466 137.314 163.659  1.00  0.00    -0.028 CG0
ATOM     12  G   UNL     1     154.830 135.992 163.028  1.00  0.00     0.000 G0
ENDBRANCH   8   9
ENDBRANCH   7   8
ENDBRANCH   4   7
BRANCH   1  13
ATOM     13  C   UNL     1     152.519 135.362 162.155  1.00  0.00    -0.074 C 
ATOM     14  C   UNL     1     152.214 134.877 163.374  1.00  0.00     0.008 C 
BRANCH  13  15
ATOM     15  C   UNL     1     153.988 135.566 161.836  1.00  0.00     0.035 C 
BRANCH  15  16
ATOM     16  C   UNL     1     154.828 135.990 163.051  1.00  0.00     0.032 CG0
ATOM     17  G   UNL     1     154.454 137.321 163.657  1.00  0.00     0.000 G0
ENDBRANCH  15  16
ENDBRANCH  13  15
ENDBRANCH   1  13
TORSDOF 0
ENDMDL
MODEL 3
REMARK VINA RESULT:     3.803      2.854      4.759
REMARK INTER + INTRA:           7.249
REMARK INTER:                   7.431
REMARK INTRA:                  -0.182
REMARK UNBOUND:                 2.112
REMARK SMILES C=C1CCC=C(C)CC[C@@H]2[C@H]1CC2(C)C
REMARK SMILES IDX 11 1 12 2 13 3 10 4 14 5 15 6 9 7 8 8 6 9 7 10 5 11 2 13
REMARK SMILES IDX 1 14 3 15 4 16
REMARK H PARENT
REMARK Flexibility Score: 70.00
ROOT
ATOM      1  C   UNL     1     151.435 136.436 160.192  1.00  0.00     0.018 C 
ATOM      2  C   UNL     1     151.406 136.818 161.682  1.00  0.00     0.015 C 
ATOM      3  C   UNL     1     152.908 137.134 161.658  1.00  0.00    -0.031 C 
ATOM      4  C   UNL     1     152.964 136.719 160.165  1.00  0.00     0.002 C 
ATOM      5  C   UNL     1     153.724 136.201 162.570  1.00  0.00     0.011 C 
ATOM      6  C   UNL     1     153.186 138.617 161.982  1.00  0.00     0.011 C 
ENDROOT
BRANCH   4   7
ATOM      7  C   UNL     1     153.632 137.729 159.199  1.00  0.00     0.009 C 
BRANCH   7   8
ATOM      8  C   UNL     1     153.922 137.218 157.762  1.00  0.00     0.030 C 
BRANCH   8   9
ATOM      9  C   UNL     1     153.091 137.868 156.671  1.00  0.00    -0.077 C 
ATOM     10  C   UNL     1     153.684 139.012 155.889  1.00  0.00     0.039 C 
ATOM     11  C   UNL     1     151.851 137.444 156.345  1.00  0.00    -0.028 CG0
ATOM     12  G   UNL     1     151.087 136.361 157.067  1.00  0.00     0.000 G0
ENDBRANCH   8   9
ENDBRANCH   7   8
ENDBRANCH   4   7
BRANCH   1  13
ATOM     13  C   UNL     1     150.358 137.186 159.393  1.00  0.00    -0.074 C 
ATOM     14  C   UNL     1     149.614 138.083 160.069  1.00  0.00     0.008 C 
BRANCH  13  15
ATOM     15  C   UNL     1     149.929 136.855 157.976  1.00  0.00     0.035 C 
BRANCH  15  16
ATOM     16  C   UNL     1     151.080 136.358 157.086  1.00  0.00     0.032 CG0
ATOM     17  G   UNL     1     151.830 137.439 156.345  1.00  0.00     0.000 G0
ENDBRANCH  15  16
ENDBRANCH  13  15
ENDBRANCH   1  13
TORSDOF 0
ENDMDL
MODEL 4
REMARK VINA RESULT:     3.892      1.911      3.073
REMARK INTER + INTRA:           7.370
REMARK INTER:                   6.486
REMARK INTRA:                   0.884
REMARK UNBOUND:                 2.112
REMARK SMILES C=C1CCC=C(C)CC[C@@H]2[C@H]1CC2(C)C
REMARK SMILES IDX 11 1 12 2 13 3 10 4 14 5 15 6 9 7 8 8 6 9 7 10 5 11 2 13
REMARK SMILES IDX 1 14 3 15 4 16
REMARK H PARENT
REMARK Flexibility Score: 70.00
ROOT
ATOM      1  C   UNL     1     153.094 136.057 162.043  1.00  0.00     0.018 C 
ATOM      2  C   UNL     1     153.094 136.858 163.355  1.00  0.00     0.015 C 
ATOM      3  C   UNL     1     153.724 138.067 162.650  1.00  0.00    -0.031 C 
ATOM      4  C   UNL     1     153.765 137.263 161.325  1.00  0.00     0.002 C 
ATOM      5  C   UNL     1     155.125 138.405 163.189  1.00  0.00     0.011 C 
ATOM      6  C   UNL     1     152.796 139.301 162.690  1.00  0.00     0.011 C 
ENDROOT
BRANCH   4   7
ATOM      7  C   UNL     1     153.163 137.962 160.081  1.00  0.00     0.009 C 
BRANCH   7   8
ATOM      8  C   UNL     1     153.356 137.235 158.722  1.00  0.00     0.030 C 
BRANCH   8   9
ATOM      9  C   UNL     1     152.117 137.174 157.847  1.00  0.00    -0.077 C 
ATOM     10  C   UNL     1     152.256 137.437 156.370  1.00  0.00     0.039 C 
ATOM     11  C   UNL     1     150.896 136.861 158.330  1.00  0.00    -0.028 CG0
ATOM     12  G   UNL     1     150.569 136.635 159.787  1.00  0.00     0.000 G0
ENDBRANCH   8   9
ENDBRANCH   7   8
ENDBRANCH   4   7
BRANCH   1  13
ATOM     13  C   UNL     1     151.707 135.473 161.734  1.00  0.00    -0.074 C 
ATOM     14  C   UNL     1     151.059 134.875 162.752  1.00  0.00     0.008 C 
BRANCH  13  15
ATOM     15  C   UNL     1     151.105 135.332 160.348  1.00  0.00     0.035 C 
BRANCH  15  16
ATOM     16  C   UNL     1     150.579 136.655 159.768  1.00  0.00     0.032 CG0
ATOM     17  G   UNL     1     150.891 136.884 158.309  1.00  0.00     0.000 G0
ENDBRANCH  15  16
ENDBRANCH  13  15
ENDBRANCH   1  13
TORSDOF 0
ENDMDL
MODEL 5
REMARK VINA RESULT:     4.433     20.818     22.409
REMARK INTER + INTRA:           8.100
REMARK INTER:                   7.052
REMARK INTRA:                   1.048
REMARK UNBOUND:                 2.112
REMARK SMILES C=C1CCC=C(C)CC[C@@H]2[C@H]1CC2(C)C
REMARK SMILES IDX 11 1 12 2 13 3 10 4 14 5 15 6 9 7 8 8 6 9 7 10 5 11 2 13
REMARK SMILES IDX 1 14 3 15 4 16
REMARK H PARENT
REMARK Flexibility Score: 70.00
ROOT
ATOM      1  C   UNL     1     139.249 154.495 160.055  1.00  0.00     0.018 C 
ATOM      2  C   UNL     1     139.550 153.737 161.358  1.00  0.00     0.015 C 
ATOM      3  C   UNL     1     138.065 153.385 161.528  1.00  0.00    -0.031 C 
ATOM      4  C   UNL     1     137.738 154.176 160.236  1.00  0.00     0.002 C 
ATOM      5  C   UNL     1     137.447 154.015 162.789  1.00  0.00     0.011 C 
ATOM      6  C   UNL     1     137.830 151.859 161.492  1.00  0.00     0.011 C 
ENDROOT
BRANCH   4   7
ATOM      7  C   UNL     1     136.887 153.433 159.176  1.00  0.00     0.009 C 
BRANCH   7   8
ATOM      8  C   UNL     1     137.654 152.469 158.230  1.00  0.00     0.030 C 
BRANCH   8   9
ATOM      9  C   UNL     1     137.476 152.750 156.749  1.00  0.00    -0.077 C 
ATOM     10  C   UNL     1     136.127 152.512 156.119  1.00  0.00     0.039 C 
ATOM     11  C   UNL     1     138.467 153.238 155.973  1.00  0.00    -0.028 CG0
ATOM     12  G   UNL     1     139.889 153.470 156.425  1.00  0.00     0.000 G0
ENDBRANCH   8   9
ENDBRANCH   7   8
ENDBRANCH   4   7
BRANCH   1  13
ATOM     13  C   UNL     1     140.147 154.021 158.902  1.00  0.00    -0.074 C 
ATOM     14  C   UNL     1     141.165 153.199 159.223  1.00  0.00     0.008 C 
BRANCH  13  15
ATOM     15  C   UNL     1     140.109 154.560 157.484  1.00  0.00     0.035 C 
BRANCH  15  16
ATOM     16  C   UNL     1     139.906 153.472 156.418  1.00  0.00     0.032 CG0
ATOM     17  G   UNL     1     138.476 153.260 155.981  1.00  0.00     0.000 G0
ENDBRANCH  15  16
ENDBRANCH  13  15
ENDBRANCH   1  13
TORSDOF 0
ENDMDL
