MODEL 1
REMARK VINA RESULT:    -4.261      0.000      0.000
REMARK INTER + INTRA:          -9.999
REMARK INTER:                  -7.997
REMARK INTRA:                  -2.002
REMARK UNBOUND:                -2.002
REMARK SMILES CCCCCC=CCC=CCCCCCCCC(=O)OC
REMARK SMILES IDX 11 1 10 2 9 3 8 4 7 5 6 6 5 7 4 8 3 9 2 10 1 11 12 12 13 13
REMARK SMILES IDX 14 14 15 15 16 16 17 17 18 18 19 19 20 20 21 21
REMARK H PARENT
REMARK Flexibility Score: inf
ROOT
ATOM      1  C   UNL     1       0.118 -15.548  -8.469  1.00  0.00     0.027 C 
ENDROOT
BRANCH   1   2
ATOM      2  C   UNL     1       0.029 -17.048  -8.535  1.00  0.00    -0.031 C 
ATOM      3  C   UNL     1       0.694 -17.834  -7.676  1.00  0.00    -0.027 C 
BRANCH   3   4
ATOM      4  C   UNL     1       0.609 -19.332  -7.764  1.00  0.00     0.054 C 
BRANCH   4   5
ATOM      5  C   UNL     1      -0.669 -19.757  -8.441  1.00  0.00    -0.027 C 
ATOM      6  C   UNL     1      -0.796 -20.850  -9.219  1.00  0.00    -0.031 C 
BRANCH   6   7
ATOM      7  C   UNL     1       0.303 -21.849  -9.498  1.00  0.00     0.027 C 
BRANCH   7   8
ATOM      8  C   UNL     1      -0.163 -22.937 -10.477  1.00  0.00     0.004 C 
BRANCH   8   9
ATOM      9  C   UNL     1      -1.470 -22.557 -11.191  1.00  0.00     0.000 C 
BRANCH   9  10
ATOM     10  C   UNL     1      -1.396 -22.886 -12.688  1.00  0.00    -0.003 C 
ATOM     11  C   UNL     1      -2.611 -23.695 -13.137  1.00  0.00     0.004 C 
ENDBRANCH   9  10
ENDBRANCH   8   9
ENDBRANCH   7   8
ENDBRANCH   6   7
ENDBRANCH   4   5
ENDBRANCH   3   4
ENDBRANCH   1   2
BRANCH   1  12
ATOM     12  C   UNL     1       0.696 -15.076  -7.128  1.00  0.00     0.004 C 
BRANCH  12  13
ATOM     13  C   UNL     1      -0.358 -14.523  -6.146  1.00  0.00     0.000 C 
BRANCH  13  14
ATOM     14  C   UNL     1      -0.500 -15.315  -4.833  1.00  0.00     0.000 C 
BRANCH  14  15
ATOM     15  C   UNL     1      -1.551 -16.444  -4.858  1.00  0.00     0.001 C 
BRANCH  15  16
ATOM     16  C   UNL     1      -2.843 -16.118  -5.633  1.00  0.00     0.012 C 
BRANCH  16  17
ATOM     17  C   UNL     1      -3.302 -17.269  -6.539  1.00  0.00     0.123 C 
BRANCH  17  18
ATOM     18  C   UNL     1      -3.442 -16.798  -7.952  1.00  0.00     0.305 C 
ATOM     19  O   UNL     1      -3.273 -15.580  -8.229  1.00  0.00    -0.252 OA
BRANCH  18  20
ATOM     20  O   UNL     1      -3.780 -17.717  -8.951  1.00  0.00    -0.469 OA
ATOM     21  C   UNL     1      -4.257 -17.320 -10.230  1.00  0.00     0.282 C 
ENDBRANCH  18  20
ENDBRANCH  17  18
ENDBRANCH  16  17
ENDBRANCH  15  16
ENDBRANCH  14  15
ENDBRANCH  13  14
ENDBRANCH  12  13
ENDBRANCH   1  12
TORSDOF 15
ENDMDL
MODEL 2
REMARK VINA RESULT:    -4.178      2.810      5.057
REMARK INTER + INTRA:          -9.844
REMARK INTER:                  -6.831
REMARK INTRA:                  -3.013
REMARK UNBOUND:                -2.002
REMARK SMILES CCCCCC=CCC=CCCCCCCCC(=O)OC
REMARK SMILES IDX 11 1 10 2 9 3 8 4 7 5 6 6 5 7 4 8 3 9 2 10 1 11 12 12 13 13
REMARK SMILES IDX 14 14 15 15 16 16 17 17 18 18 19 19 20 20 21 21
REMARK H PARENT
REMARK Flexibility Score: inf
ROOT
ATOM      1  C   UNL     1       0.131 -18.622  -6.729  1.00  0.00     0.027 C 
ENDROOT
BRANCH   1   2
ATOM      2  C   UNL     1      -1.187 -17.963  -6.423  1.00  0.00    -0.031 C 
ATOM      3  C   UNL     1      -2.232 -18.659  -5.951  1.00  0.00    -0.027 C 
BRANCH   3   4
ATOM      4  C   UNL     1      -3.548 -17.992  -5.665  1.00  0.00     0.054 C 
BRANCH   4   5
ATOM      5  C   UNL     1      -3.596 -16.617  -6.283  1.00  0.00    -0.027 C 
ATOM      6  C   UNL     1      -4.100 -16.343  -7.502  1.00  0.00    -0.031 C 
BRANCH   6   7
ATOM      7  C   UNL     1      -4.739 -17.355  -8.424  1.00  0.00     0.027 C 
BRANCH   7   8
ATOM      8  C   UNL     1      -4.147 -17.278  -9.839  1.00  0.00     0.004 C 
BRANCH   8   9
ATOM      9  C   UNL     1      -2.886 -18.144  -9.990  1.00  0.00     0.000 C 
BRANCH   9  10
ATOM     10  C   UNL     1      -3.055 -19.493  -9.277  1.00  0.00    -0.003 C 
ATOM     11  C   UNL     1      -1.798 -20.350  -9.409  1.00  0.00     0.004 C 
ENDBRANCH   9  10
ENDBRANCH   8   9
ENDBRANCH   7   8
ENDBRANCH   6   7
ENDBRANCH   4   5
ENDBRANCH   3   4
ENDBRANCH   1   2
BRANCH   1  12
ATOM     12  C   UNL     1       0.832 -17.952  -7.919  1.00  0.00     0.004 C 
BRANCH  12  13
ATOM     13  C   UNL     1      -0.036 -16.915  -8.661  1.00  0.00     0.000 C 
BRANCH  13  14
ATOM     14  C   UNL     1       0.410 -15.452  -8.487  1.00  0.00     0.000 C 
BRANCH  14  15
ATOM     15  C   UNL     1      -0.373 -14.649  -7.428  1.00  0.00     0.001 C 
BRANCH  15  16
ATOM     16  C   UNL     1       0.211 -14.704  -6.003  1.00  0.00     0.012 C 
BRANCH  16  17
ATOM     17  C   UNL     1      -0.832 -14.396  -4.919  1.00  0.00     0.123 C 
BRANCH  17  18
ATOM     18  C   UNL     1      -0.843 -12.934  -4.603  1.00  0.00     0.305 C 
ATOM     19  O   UNL     1       0.240 -12.290  -4.574  1.00  0.00    -0.252 OA
BRANCH  18  20
ATOM     20  O   UNL     1      -2.058 -12.301  -4.325  1.00  0.00    -0.469 OA
ATOM     21  C   UNL     1      -3.264 -13.020  -4.097  1.00  0.00     0.282 C 
ENDBRANCH  18  20
ENDBRANCH  17  18
ENDBRANCH  16  17
ENDBRANCH  15  16
ENDBRANCH  14  15
ENDBRANCH  13  14
ENDBRANCH  12  13
ENDBRANCH   1  12
TORSDOF 15
ENDMDL
MODEL 3
REMARK VINA RESULT:    -4.097      2.184      4.077
REMARK INTER + INTRA:          -9.691
REMARK INTER:                  -7.211
REMARK INTRA:                  -2.480
REMARK UNBOUND:                -2.002
REMARK SMILES CCCCCC=CCC=CCCCCCCCC(=O)OC
REMARK SMILES IDX 11 1 10 2 9 3 8 4 7 5 6 6 5 7 4 8 3 9 2 10 1 11 12 12 13 13
REMARK SMILES IDX 14 14 15 15 16 16 17 17 18 18 19 19 20 20 21 21
REMARK H PARENT
REMARK Flexibility Score: inf
ROOT
ATOM      1  C   UNL     1      -2.487 -18.510  -9.997  1.00  0.00     0.027 C 
ENDROOT
BRANCH   1   2
ATOM      2  C   UNL     1      -1.353 -18.326  -9.025  1.00  0.00    -0.031 C 
ATOM      3  C   UNL     1      -1.277 -19.032  -7.887  1.00  0.00    -0.027 C 
BRANCH   3   4
ATOM      4  C   UNL     1      -0.148 -18.826  -6.917  1.00  0.00     0.054 C 
BRANCH   4   5
ATOM      5  C   UNL     1       1.148 -18.580  -7.647  1.00  0.00    -0.027 C 
ATOM      6  C   UNL     1       2.060 -19.532  -7.929  1.00  0.00    -0.031 C 
BRANCH   6   7
ATOM      7  C   UNL     1       1.912 -20.999  -7.603  1.00  0.00     0.027 C 
BRANCH   7   8
ATOM      8  C   UNL     1       1.676 -21.834  -8.870  1.00  0.00     0.004 C 
BRANCH   8   9
ATOM      9  C   UNL     1       0.253 -22.413  -8.929  1.00  0.00     0.000 C 
BRANCH   9  10
ATOM     10  C   UNL     1      -0.151 -22.737 -10.374  1.00  0.00    -0.003 C 
ATOM     11  C   UNL     1      -1.374 -21.929 -10.801  1.00  0.00     0.004 C 
ENDBRANCH   9  10
ENDBRANCH   8   9
ENDBRANCH   7   8
ENDBRANCH   6   7
ENDBRANCH   4   5
ENDBRANCH   3   4
ENDBRANCH   1   2
BRANCH   1  12
ATOM     12  C   UNL     1      -3.830 -18.095  -9.381  1.00  0.00     0.004 C 
BRANCH  12  13
ATOM     13  C   UNL     1      -3.877 -16.629  -8.900  1.00  0.00     0.000 C 
BRANCH  13  14
ATOM     14  C   UNL     1      -3.907 -16.449  -7.372  1.00  0.00     0.000 C 
BRANCH  14  15
ATOM     15  C   UNL     1      -2.676 -15.740  -6.771  1.00  0.00     0.001 C 
BRANCH  15  16
ATOM     16  C   UNL     1      -1.847 -14.911  -7.771  1.00  0.00     0.012 C 
BRANCH  16  17
ATOM     17  C   UNL     1      -0.363 -14.823  -7.387  1.00  0.00     0.123 C 
BRANCH  17  18
ATOM     18  C   UNL     1      -0.216 -14.374  -5.968  1.00  0.00     0.305 C 
ATOM     19  O   UNL     1       0.327 -15.134  -5.122  1.00  0.00    -0.252 OA
BRANCH  18  20
ATOM     20  O   UNL     1      -0.701 -13.118  -5.592  1.00  0.00    -0.469 OA
ATOM     21  C   UNL     1      -0.299 -12.467  -4.393  1.00  0.00     0.282 C 
ENDBRANCH  18  20
ENDBRANCH  17  18
ENDBRANCH  16  17
ENDBRANCH  15  16
ENDBRANCH  14  15
ENDBRANCH  13  14
ENDBRANCH  12  13
ENDBRANCH   1  12
TORSDOF 15
ENDMDL
MODEL 4
REMARK VINA RESULT:    -4.064      2.472      4.795
REMARK INTER + INTRA:          -9.629
REMARK INTER:                  -6.413
REMARK INTRA:                  -3.216
REMARK UNBOUND:                -2.002
REMARK SMILES CCCCCC=CCC=CCCCCCCCC(=O)OC
REMARK SMILES IDX 11 1 10 2 9 3 8 4 7 5 6 6 5 7 4 8 3 9 2 10 1 11 12 12 13 13
REMARK SMILES IDX 14 14 15 15 16 16 17 17 18 18 19 19 20 20 21 21
REMARK H PARENT
REMARK Flexibility Score: inf
ROOT
ATOM      1  C   UNL     1      -0.799 -18.290  -5.213  1.00  0.00     0.027 C 
ENDROOT
BRANCH   1   2
ATOM      2  C   UNL     1      -2.102 -18.221  -5.963  1.00  0.00    -0.031 C 
ATOM      3  C   UNL     1      -2.804 -17.082  -6.056  1.00  0.00    -0.027 C 
BRANCH   3   4
ATOM      4  C   UNL     1      -4.112 -17.031  -6.794  1.00  0.00     0.054 C 
BRANCH   4   5
ATOM      5  C   UNL     1      -3.931 -16.428  -8.165  1.00  0.00    -0.027 C 
ATOM      6  C   UNL     1      -3.725 -17.138  -9.292  1.00  0.00    -0.031 C 
BRANCH   6   7
ATOM      7  C   UNL     1      -3.691 -18.646  -9.373  1.00  0.00     0.027 C 
BRANCH   7   8
ATOM      8  C   UNL     1      -2.262 -19.164  -9.593  1.00  0.00     0.004 C 
BRANCH   8   9
ATOM      9  C   UNL     1      -2.186 -20.699  -9.558  1.00  0.00     0.000 C 
BRANCH   9  10
ATOM     10  C   UNL     1      -1.195 -21.177  -8.488  1.00  0.00    -0.003 C 
ATOM     11  C   UNL     1       0.242 -21.130  -9.004  1.00  0.00     0.004 C 
ENDBRANCH   9  10
ENDBRANCH   8   9
ENDBRANCH   7   8
ENDBRANCH   6   7
ENDBRANCH   4   5
ENDBRANCH   3   4
ENDBRANCH   1   2
BRANCH   1  12
ATOM     12  C   UNL     1       0.340 -18.799  -6.108  1.00  0.00     0.004 C 
BRANCH  12  13
ATOM     13  C   UNL     1       1.059 -17.690  -6.904  1.00  0.00     0.000 C 
BRANCH  13  14
ATOM     14  C   UNL     1       0.551 -17.490  -8.343  1.00  0.00     0.000 C 
BRANCH  14  15
ATOM     15  C   UNL     1      -0.140 -16.137  -8.613  1.00  0.00     0.001 C 
BRANCH  15  16
ATOM     16  C   UNL     1       0.311 -14.980  -7.700  1.00  0.00     0.012 C 
BRANCH  16  17
ATOM     17  C   UNL     1      -0.867 -14.238  -7.053  1.00  0.00     0.123 C 
BRANCH  17  18
ATOM     18  C   UNL     1      -0.640 -14.077  -5.583  1.00  0.00     0.305 C 
ATOM     19  O   UNL     1       0.140 -14.860  -4.979  1.00  0.00    -0.252 OA
BRANCH  18  20
ATOM     20  O   UNL     1      -1.316 -13.067  -4.892  1.00  0.00    -0.469 OA
ATOM     21  C   UNL     1      -0.643 -12.101  -4.093  1.00  0.00     0.282 C 
ENDBRANCH  18  20
ENDBRANCH  17  18
ENDBRANCH  16  17
ENDBRANCH  15  16
ENDBRANCH  14  15
ENDBRANCH  13  14
ENDBRANCH  12  13
ENDBRANCH   1  12
TORSDOF 15
ENDMDL
MODEL 5
REMARK VINA RESULT:    -4.008      1.804      3.900
REMARK INTER + INTRA:          -9.524
REMARK INTER:                  -6.934
REMARK INTRA:                  -2.590
REMARK UNBOUND:                -2.002
REMARK SMILES CCCCCC=CCC=CCCCCCCCC(=O)OC
REMARK SMILES IDX 11 1 10 2 9 3 8 4 7 5 6 6 5 7 4 8 3 9 2 10 1 11 12 12 13 13
REMARK SMILES IDX 14 14 15 15 16 16 17 17 18 18 19 19 20 20 21 21
REMARK H PARENT
REMARK Flexibility Score: inf
ROOT
ATOM      1  C   UNL     1      -1.257 -18.253  -9.178  1.00  0.00     0.027 C 
ENDROOT
BRANCH   1   2
ATOM      2  C   UNL     1      -2.291 -19.270  -9.580  1.00  0.00    -0.031 C 
ATOM      3  C   UNL     1      -2.724 -20.211  -8.728  1.00  0.00    -0.027 C 
BRANCH   3   4
ATOM      4  C   UNL     1      -3.744 -21.231  -9.148  1.00  0.00     0.054 C 
BRANCH   4   5
ATOM      5  C   UNL     1      -3.265 -22.627  -8.837  1.00  0.00    -0.027 C 
ATOM      6  C   UNL     1      -2.720 -23.467  -9.739  1.00  0.00    -0.031 C 
BRANCH   6   7
ATOM      7  C   UNL     1      -2.457 -23.132 -11.189  1.00  0.00     0.027 C 
BRANCH   7   8
ATOM      8  C   UNL     1      -1.098 -22.440 -11.367  1.00  0.00     0.004 C 
BRANCH   8   9
ATOM      9  C   UNL     1      -0.030 -23.001 -10.413  1.00  0.00     0.000 C 
BRANCH   9  10
ATOM     10  C   UNL     1       0.580 -21.885  -9.553  1.00  0.00    -0.003 C 
ATOM     11  C   UNL     1       0.415 -22.184  -8.064  1.00  0.00     0.004 C 
ENDBRANCH   9  10
ENDBRANCH   8   9
ENDBRANCH   7   8
ENDBRANCH   6   7
ENDBRANCH   4   5
ENDBRANCH   3   4
ENDBRANCH   1   2
BRANCH   1  12
ATOM     12  C   UNL     1      -0.540 -18.659  -7.883  1.00  0.00     0.004 C 
BRANCH  12  13
ATOM     13  C   UNL     1       0.989 -18.454  -7.918  1.00  0.00     0.000 C 
BRANCH  13  14
ATOM     14  C   UNL     1       1.575 -17.731  -6.691  1.00  0.00     0.000 C 
BRANCH  14  15
ATOM     15  C   UNL     1       0.638 -16.699  -6.030  1.00  0.00     0.001 C 
BRANCH  15  16
ATOM     16  C   UNL     1       0.808 -15.250  -6.528  1.00  0.00     0.012 C 
BRANCH  16  17
ATOM     17  C   UNL     1      -0.068 -14.932  -7.748  1.00  0.00     0.123 C 
BRANCH  17  18
ATOM     18  C   UNL     1      -1.460 -14.591  -7.318  1.00  0.00     0.305 C 
ATOM     19  O   UNL     1      -2.421 -14.753  -8.117  1.00  0.00    -0.252 OA
BRANCH  18  20
ATOM     20  O   UNL     1      -1.675 -14.077  -6.036  1.00  0.00    -0.469 OA
ATOM     21  C   UNL     1      -2.504 -14.724  -5.078  1.00  0.00     0.282 C 
ENDBRANCH  18  20
ENDBRANCH  17  18
ENDBRANCH  16  17
ENDBRANCH  15  16
ENDBRANCH  14  15
ENDBRANCH  13  14
ENDBRANCH  12  13
ENDBRANCH   1  12
TORSDOF 15
ENDMDL
MODEL 6
REMARK VINA RESULT:    -4.001      3.352      7.201
REMARK INTER + INTRA:          -9.511
REMARK INTER:                  -6.243
REMARK INTRA:                  -3.268
REMARK UNBOUND:                -2.002
REMARK SMILES CCCCCC=CCC=CCCCCCCCC(=O)OC
REMARK SMILES IDX 11 1 10 2 9 3 8 4 7 5 6 6 5 7 4 8 3 9 2 10 1 11 12 12 13 13
REMARK SMILES IDX 14 14 15 15 16 16 17 17 18 18 19 19 20 20 21 21
REMARK H PARENT
REMARK Flexibility Score: inf
ROOT
ATOM      1  C   UNL     1      -3.212 -16.583  -8.506  1.00  0.00     0.027 C 
ENDROOT
BRANCH   1   2
ATOM      2  C   UNL     1      -2.161 -15.604  -8.058  1.00  0.00    -0.031 C 
ATOM      3  C   UNL     1      -0.853 -15.855  -8.206  1.00  0.00    -0.027 C 
BRANCH   3   4
ATOM      4  C   UNL     1       0.187 -14.875  -7.738  1.00  0.00     0.054 C 
BRANCH   4   5
ATOM      5  C   UNL     1       0.580 -15.153  -6.309  1.00  0.00    -0.027 C 
ATOM      6  C   UNL     1       0.185 -14.420  -5.250  1.00  0.00    -0.031 C 
BRANCH   6   7
ATOM      7  C   UNL     1      -0.750 -13.235  -5.316  1.00  0.00     0.027 C 
BRANCH   7   8
ATOM      8  C   UNL     1      -2.174 -13.620  -4.891  1.00  0.00     0.004 C 
BRANCH   8   9
ATOM      9  C   UNL     1      -2.191 -14.819  -3.930  1.00  0.00     0.000 C 
BRANCH   9  10
ATOM     10  C   UNL     1      -3.024 -15.974  -4.504  1.00  0.00    -0.003 C 
ATOM     11  C   UNL     1      -2.190 -17.247  -4.630  1.00  0.00     0.004 C 
ENDBRANCH   9  10
ENDBRANCH   8   9
ENDBRANCH   7   8
ENDBRANCH   6   7
ENDBRANCH   4   5
ENDBRANCH   3   4
ENDBRANCH   1   2
BRANCH   1  12
ATOM     12  C   UNL     1      -2.592 -17.927  -8.915  1.00  0.00     0.004 C 
BRANCH  12  13
ATOM     13  C   UNL     1      -2.724 -19.033  -7.848  1.00  0.00     0.000 C 
BRANCH  13  14
ATOM     14  C   UNL     1      -1.475 -19.914  -7.669  1.00  0.00     0.000 C 
BRANCH  14  15
ATOM     15  C   UNL     1      -0.293 -19.574  -8.602  1.00  0.00     0.001 C 
BRANCH  15  16
ATOM     16  C   UNL     1       0.973 -19.059  -7.890  1.00  0.00     0.012 C 
BRANCH  16  17
ATOM     17  C   UNL     1       0.750 -18.791  -6.395  1.00  0.00     0.123 C 
BRANCH  17  18
ATOM     18  C   UNL     1       2.052 -18.817  -5.659  1.00  0.00     0.305 C 
ATOM     19  O   UNL     1       2.807 -19.822  -5.753  1.00  0.00    -0.252 OA
BRANCH  18  20
ATOM     20  O   UNL     1       2.407 -17.729  -4.856  1.00  0.00    -0.469 OA
ATOM     21  C   UNL     1       3.616 -17.002  -5.040  1.00  0.00     0.282 C 
ENDBRANCH  18  20
ENDBRANCH  17  18
ENDBRANCH  16  17
ENDBRANCH  15  16
ENDBRANCH  14  15
ENDBRANCH  13  14
ENDBRANCH  12  13
ENDBRANCH   1  12
TORSDOF 15
ENDMDL
MODEL 7
REMARK VINA RESULT:    -3.997      3.118      5.102
REMARK INTER + INTRA:          -9.503
REMARK INTER:                  -6.391
REMARK INTRA:                  -3.113
REMARK UNBOUND:                -2.002
REMARK SMILES CCCCCC=CCC=CCCCCCCCC(=O)OC
REMARK SMILES IDX 11 1 10 2 9 3 8 4 7 5 6 6 5 7 4 8 3 9 2 10 1 11 12 12 13 13
REMARK SMILES IDX 14 14 15 15 16 16 17 17 18 18 19 19 20 20 21 21
REMARK H PARENT
REMARK Flexibility Score: inf
ROOT
ATOM      1  C   UNL     1      -3.518 -17.925  -6.614  1.00  0.00     0.027 C 
ENDROOT
BRANCH   1   2
ATOM      2  C   UNL     1      -2.419 -18.434  -5.721  1.00  0.00    -0.031 C 
ATOM      3  C   UNL     1      -1.690 -17.608  -4.957  1.00  0.00    -0.027 C 
BRANCH   3   4
ATOM      4  C   UNL     1      -0.584 -18.128  -4.083  1.00  0.00     0.054 C 
BRANCH   4   5
ATOM      5  C   UNL     1       0.708 -17.403  -4.365  1.00  0.00    -0.027 C 
ATOM      6  C   UNL     1       1.600 -17.767  -5.307  1.00  0.00    -0.031 C 
BRANCH   6   7
ATOM      7  C   UNL     1       1.430 -18.926  -6.261  1.00  0.00     0.027 C 
BRANCH   7   8
ATOM      8  C   UNL     1       1.526 -18.467  -7.724  1.00  0.00     0.004 C 
BRANCH   8   9
ATOM      9  C   UNL     1       0.160 -18.485  -8.430  1.00  0.00     0.000 C 
BRANCH   9  10
ATOM     10  C   UNL     1      -0.417 -19.907  -8.476  1.00  0.00    -0.003 C 
ATOM     11  C   UNL     1      -1.750 -19.938  -9.221  1.00  0.00     0.004 C 
ENDBRANCH   9  10
ENDBRANCH   8   9
ENDBRANCH   7   8
ENDBRANCH   6   7
ENDBRANCH   4   5
ENDBRANCH   3   4
ENDBRANCH   1   2
BRANCH   1  12
ATOM     12  C   UNL     1      -3.353 -16.429  -6.914  1.00  0.00     0.004 C 
BRANCH  12  13
ATOM     13  C   UNL     1      -2.469 -16.125  -8.141  1.00  0.00     0.000 C 
BRANCH  13  14
ATOM     14  C   UNL     1      -1.581 -14.875  -8.007  1.00  0.00     0.000 C 
BRANCH  14  15
ATOM     15  C   UNL     1      -0.226 -15.105  -7.306  1.00  0.00     0.001 C 
BRANCH  15  16
ATOM     16  C   UNL     1      -0.044 -14.353  -5.972  1.00  0.00     0.012 C 
BRANCH  16  17
ATOM     17  C   UNL     1      -1.277 -13.526  -5.582  1.00  0.00     0.123 C 
BRANCH  17  18
ATOM     18  C   UNL     1      -0.924 -12.527  -4.526  1.00  0.00     0.305 C 
ATOM     19  O   UNL     1       0.248 -12.068  -4.463  1.00  0.00    -0.252 OA
BRANCH  18  20
ATOM     20  O   UNL     1      -1.898 -12.127  -3.606  1.00  0.00    -0.469 OA
ATOM     21  C   UNL     1      -3.238 -11.834  -3.986  1.00  0.00     0.282 C 
ENDBRANCH  18  20
ENDBRANCH  17  18
ENDBRANCH  16  17
ENDBRANCH  15  16
ENDBRANCH  14  15
ENDBRANCH  13  14
ENDBRANCH  12  13
ENDBRANCH   1  12
TORSDOF 15
ENDMDL
MODEL 8
REMARK VINA RESULT:    -3.984     11.809     14.241
REMARK INTER + INTRA:          -9.480
REMARK INTER:                  -6.669
REMARK INTRA:                  -2.811
REMARK UNBOUND:                -2.002
REMARK SMILES CCCCCC=CCC=CCCCCCCCC(=O)OC
REMARK SMILES IDX 11 1 10 2 9 3 8 4 7 5 6 6 5 7 4 8 3 9 2 10 1 11 12 12 13 13
REMARK SMILES IDX 14 14 15 15 16 16 17 17 18 18 19 19 20 20 21 21
REMARK H PARENT
REMARK Flexibility Score: inf
ROOT
ATOM      1  C   UNL     1      13.990 -14.337  -6.811  1.00  0.00     0.027 C 
ENDROOT
BRANCH   1   2
ATOM      2  C   UNL     1      13.507 -14.253  -5.388  1.00  0.00    -0.031 C 
ATOM      3  C   UNL     1      12.234 -13.954  -5.091  1.00  0.00    -0.027 C 
BRANCH   3   4
ATOM      4  C   UNL     1      11.769 -13.856  -3.665  1.00  0.00     0.054 C 
BRANCH   4   5
ATOM      5  C   UNL     1      11.852 -15.198  -2.982  1.00  0.00    -0.027 C 
ATOM      6  C   UNL     1      10.849 -16.098  -2.940  1.00  0.00    -0.031 C 
BRANCH   6   7
ATOM      7  C   UNL     1       9.504 -15.930  -3.606  1.00  0.00     0.027 C 
BRANCH   7   8
ATOM      8  C   UNL     1       8.768 -17.272  -3.732  1.00  0.00     0.004 C 
BRANCH   8   9
ATOM      9  C   UNL     1       9.556 -18.430  -3.097  1.00  0.00     0.000 C 
BRANCH   9  10
ATOM     10  C   UNL     1       9.725 -19.590  -4.088  1.00  0.00    -0.003 C 
ATOM     11  C   UNL     1      11.084 -20.267  -3.920  1.00  0.00     0.004 C 
ENDBRANCH   9  10
ENDBRANCH   8   9
ENDBRANCH   7   8
ENDBRANCH   6   7
ENDBRANCH   4   5
ENDBRANCH   3   4
ENDBRANCH   1   2
BRANCH   1  12
ATOM     12  C   UNL     1      13.784 -15.742  -7.394  1.00  0.00     0.004 C 
BRANCH  12  13
ATOM     13  C   UNL     1      14.147 -16.887  -6.425  1.00  0.00     0.000 C 
BRANCH  13  14
ATOM     14  C   UNL     1      12.968 -17.783  -6.008  1.00  0.00     0.000 C 
BRANCH  14  15
ATOM     15  C   UNL     1      11.571 -17.245  -6.383  1.00  0.00     0.001 C 
BRANCH  15  16
ATOM     16  C   UNL     1      10.747 -18.157  -7.313  1.00  0.00     0.012 C 
BRANCH  16  17
ATOM     17  C   UNL     1      11.608 -18.867  -8.367  1.00  0.00     0.123 C 
BRANCH  17  18
ATOM     18  C   UNL     1      11.023 -18.683  -9.731  1.00  0.00     0.305 C 
ATOM     19  O   UNL     1       9.924 -19.228 -10.022  1.00  0.00    -0.252 OA
BRANCH  18  20
ATOM     20  O   UNL     1      11.714 -17.920 -10.677  1.00  0.00    -0.469 OA
ATOM     21  C   UNL     1      13.099 -17.618 -10.556  1.00  0.00     0.282 C 
ENDBRANCH  18  20
ENDBRANCH  17  18
ENDBRANCH  16  17
ENDBRANCH  15  16
ENDBRANCH  14  15
ENDBRANCH  13  14
ENDBRANCH  12  13
ENDBRANCH   1  12
TORSDOF 15
ENDMDL
MODEL 9
REMARK VINA RESULT:    -3.981     11.762     14.606
REMARK INTER + INTRA:          -9.475
REMARK INTER:                  -6.626
REMARK INTRA:                  -2.849
REMARK UNBOUND:                -2.002
REMARK SMILES CCCCCC=CCC=CCCCCCCCC(=O)OC
REMARK SMILES IDX 11 1 10 2 9 3 8 4 7 5 6 6 5 7 4 8 3 9 2 10 1 11 12 12 13 13
REMARK SMILES IDX 14 14 15 15 16 16 17 17 18 18 19 19 20 20 21 21
REMARK H PARENT
REMARK Flexibility Score: inf
ROOT
ATOM      1  C   UNL     1      13.598 -17.278  -8.637  1.00  0.00     0.027 C 
ENDROOT
BRANCH   1   2
ATOM      2  C   UNL     1      12.546 -17.329  -7.563  1.00  0.00    -0.031 C 
ATOM      3  C   UNL     1      12.706 -18.061  -6.451  1.00  0.00    -0.027 C 
BRANCH   3   4
ATOM      4  C   UNL     1      11.639 -18.116  -5.394  1.00  0.00     0.054 C 
BRANCH   4   5
ATOM      5  C   UNL     1      10.466 -17.247  -5.771  1.00  0.00    -0.027 C 
ATOM      6  C   UNL     1      10.173 -16.064  -5.195  1.00  0.00    -0.031 C 
BRANCH   6   7
ATOM      7  C   UNL     1      10.994 -15.398  -4.115  1.00  0.00     0.027 C 
BRANCH   7   8
ATOM      8  C   UNL     1      12.079 -14.492  -4.715  1.00  0.00     0.004 C 
BRANCH   8   9
ATOM      9  C   UNL     1      13.498 -14.993  -4.400  1.00  0.00     0.000 C 
BRANCH   9  10
ATOM     10  C   UNL     1      14.473 -14.634  -5.530  1.00  0.00    -0.003 C 
ATOM     11  C   UNL     1      13.765 -13.875  -6.650  1.00  0.00     0.004 C 
ENDBRANCH   9  10
ENDBRANCH   8   9
ENDBRANCH   7   8
ENDBRANCH   6   7
ENDBRANCH   4   5
ENDBRANCH   3   4
ENDBRANCH   1   2
BRANCH   1  12
ATOM     12  C   UNL     1      12.972 -17.261 -10.039  1.00  0.00     0.004 C 
BRANCH  12  13
ATOM     13  C   UNL     1      13.064 -18.606 -10.788  1.00  0.00     0.000 C 
BRANCH  13  14
ATOM     14  C   UNL     1      12.082 -19.687 -10.303  1.00  0.00     0.000 C 
BRANCH  14  15
ATOM     15  C   UNL     1      10.649 -19.191 -10.016  1.00  0.00     0.001 C 
BRANCH  15  16
ATOM     16  C   UNL     1       9.848 -20.049  -9.018  1.00  0.00     0.012 C 
BRANCH  16  17
ATOM     17  C   UNL     1      10.738 -20.736  -7.973  1.00  0.00     0.123 C 
BRANCH  17  18
ATOM     18  C   UNL     1       9.901 -21.366  -6.905  1.00  0.00     0.305 C 
ATOM     19  O   UNL     1       8.773 -21.847  -7.194  1.00  0.00    -0.252 OA
BRANCH  18  20
ATOM     20  O   UNL     1      10.376 -21.396  -5.590  1.00  0.00    -0.469 OA
ATOM     21  C   UNL     1       9.514 -21.338  -4.461  1.00  0.00     0.282 C 
ENDBRANCH  18  20
ENDBRANCH  17  18
ENDBRANCH  16  17
ENDBRANCH  15  16
ENDBRANCH  14  15
ENDBRANCH  13  14
ENDBRANCH  12  13
ENDBRANCH   1  12
TORSDOF 15
ENDMDL
