MODEL 1
REMARK VINA RESULT:    -4.545      0.000      0.000
REMARK INTER + INTRA:          -6.528
REMARK INTER:                  -6.139
REMARK INTRA:                  -0.389
REMARK UNBOUND:                -0.389
REMARK SMILES CCCCCCC=CC(=O)[O-]
REMARK SMILES IDX 5 1 6 2 7 3 8 4 9 5 10 6 11 7 4 8 3 9 2 10 1 11
REMARK H PARENT
REMARK Flexibility Score: inf
ROOT
ATOM      1  C   UNL     1      -5.252   7.369  -5.276  1.00  0.00     0.004 C 
ENDROOT
BRANCH   1   2
ATOM      2  C   UNL     1      -5.117   6.391  -4.098  1.00  0.00     0.027 C 
BRANCH   2   3
ATOM      3  C   UNL     1      -6.388   5.614  -3.886  1.00  0.00    -0.025 C 
ATOM      4  C   UNL     1      -6.512   4.277  -3.930  1.00  0.00     0.020 C 
BRANCH   4   5
ATOM      5  C   UNL     1      -5.440   3.301  -4.224  1.00  0.00     0.064 C 
ATOM      6  O   UNL     1      -5.032   2.477  -3.366  1.00  0.00    -0.545 OA
ATOM      7  O   UNL     1      -4.855   3.307  -5.483  1.00  0.00    -0.545 OA
ENDBRANCH   4   5
ENDBRANCH   2   3
ENDBRANCH   1   2
BRANCH   1   8
ATOM      8  C   UNL     1      -5.471   6.654  -6.621  1.00  0.00     0.000 C 
BRANCH   8   9
ATOM      9  C   UNL     1      -4.846   7.356  -7.842  1.00  0.00    -0.000 C 
BRANCH   9  10
ATOM     10  C   UNL     1      -4.503   6.427  -9.020  1.00  0.00    -0.003 C 
ATOM     11  C   UNL     1      -4.213   4.993  -8.583  1.00  0.00     0.004 C 
ENDBRANCH   9  10
ENDBRANCH   8   9
ENDBRANCH   1   8
TORSDOF 6
ENDMDL
MODEL 2
REMARK VINA RESULT:    -4.373      1.454      2.470
REMARK INTER + INTRA:          -6.296
REMARK INTER:                  -5.759
REMARK INTRA:                  -0.537
REMARK UNBOUND:                -0.389
REMARK SMILES CCCCCCC=CC(=O)[O-]
REMARK SMILES IDX 5 1 6 2 7 3 8 4 9 5 10 6 11 7 4 8 3 9 2 10 1 11
REMARK H PARENT
REMARK Flexibility Score: inf
ROOT
ATOM      1  C   UNL     1      -5.503   4.765  -7.649  1.00  0.00     0.004 C 
ENDROOT
BRANCH   1   2
ATOM      2  C   UNL     1      -4.929   4.195  -6.341  1.00  0.00     0.027 C 
BRANCH   2   3
ATOM      3  C   UNL     1      -5.221   5.102  -5.177  1.00  0.00    -0.025 C 
ATOM      4  C   UNL     1      -5.647   4.715  -3.963  1.00  0.00     0.020 C 
BRANCH   4   5
ATOM      5  C   UNL     1      -5.946   3.332  -3.532  1.00  0.00     0.064 C 
ATOM      6  O   UNL     1      -5.046   2.461  -3.407  1.00  0.00    -0.545 OA
ATOM      7  O   UNL     1      -7.263   2.981  -3.273  1.00  0.00    -0.545 OA
ENDBRANCH   4   5
ENDBRANCH   2   3
ENDBRANCH   1   2
BRANCH   1   8
ATOM      8  C   UNL     1      -4.474   5.593  -8.439  1.00  0.00     0.000 C 
BRANCH   8   9
ATOM      9  C   UNL     1      -4.591   7.119  -8.261  1.00  0.00    -0.000 C 
BRANCH   9  10
ATOM     10  C   UNL     1      -6.018   7.637  -8.010  1.00  0.00    -0.003 C 
ATOM     11  C   UNL     1      -6.185   8.280  -6.634  1.00  0.00     0.004 C 
ENDBRANCH   9  10
ENDBRANCH   8   9
ENDBRANCH   1   8
TORSDOF 6
ENDMDL
MODEL 3
REMARK VINA RESULT:    -4.138      1.451      2.057
REMARK INTER + INTRA:          -5.978
REMARK INTER:                  -5.530
REMARK INTRA:                  -0.448
REMARK UNBOUND:                -0.389
REMARK SMILES CCCCCCC=CC(=O)[O-]
REMARK SMILES IDX 5 1 6 2 7 3 8 4 9 5 10 6 11 7 4 8 3 9 2 10 1 11
REMARK H PARENT
REMARK Flexibility Score: inf
ROOT
ATOM      1  C   UNL     1      -5.318   5.550  -5.199  1.00  0.00     0.004 C 
ENDROOT
BRANCH   1   2
ATOM      2  C   UNL     1      -6.710   5.311  -4.592  1.00  0.00     0.027 C 
BRANCH   2   3
ATOM      3  C   UNL     1      -6.644   5.230  -3.091  1.00  0.00    -0.025 C 
ATOM      4  C   UNL     1      -6.447   4.113  -2.370  1.00  0.00     0.020 C 
BRANCH   4   5
ATOM      5  C   UNL     1      -6.287   2.740  -2.895  1.00  0.00     0.064 C 
ATOM      6  O   UNL     1      -5.208   2.339  -3.402  1.00  0.00    -0.545 OA
ATOM      7  O   UNL     1      -7.369   1.872  -2.841  1.00  0.00    -0.545 OA
ENDBRANCH   4   5
ENDBRANCH   2   3
ENDBRANCH   1   2
BRANCH   1   8
ATOM      8  C   UNL     1      -4.918   4.465  -6.214  1.00  0.00     0.000 C 
BRANCH   8   9
ATOM      9  C   UNL     1      -5.468   4.671  -7.639  1.00  0.00    -0.000 C 
BRANCH   9  10
ATOM     10  C   UNL     1      -4.468   5.278  -8.640  1.00  0.00    -0.003 C 
ATOM     11  C   UNL     1      -4.522   6.803  -8.685  1.00  0.00     0.004 C 
ENDBRANCH   9  10
ENDBRANCH   8   9
ENDBRANCH   1   8
TORSDOF 6
ENDMDL
MODEL 4
REMARK VINA RESULT:    -4.099      2.290      4.750
REMARK INTER + INTRA:          -5.925
REMARK INTER:                  -5.504
REMARK INTRA:                  -0.422
REMARK UNBOUND:                -0.389
REMARK SMILES CCCCCCC=CC(=O)[O-]
REMARK SMILES IDX 5 1 6 2 7 3 8 4 9 5 10 6 11 7 4 8 3 9 2 10 1 11
REMARK H PARENT
REMARK Flexibility Score: inf
ROOT
ATOM      1  C   UNL     1      -6.266   6.842  -5.047  1.00  0.00     0.004 C 
ENDROOT
BRANCH   1   2
ATOM      2  C   UNL     1      -6.214   6.619  -6.567  1.00  0.00     0.027 C 
BRANCH   2   3
ATOM      3  C   UNL     1      -5.150   7.469  -7.207  1.00  0.00    -0.025 C 
ATOM      4  C   UNL     1      -4.453   7.161  -8.314  1.00  0.00     0.020 C 
BRANCH   4   5
ATOM      5  C   UNL     1      -4.564   5.919  -9.109  1.00  0.00     0.064 C 
ATOM      6  O   UNL     1      -3.948   4.867  -8.797  1.00  0.00    -0.545 OA
ATOM      7  O   UNL     1      -5.362   5.920 -10.245  1.00  0.00    -0.545 OA
ENDBRANCH   4   5
ENDBRANCH   2   3
ENDBRANCH   1   2
BRANCH   1   8
ATOM      8  C   UNL     1      -5.169   6.067  -4.295  1.00  0.00     0.000 C 
BRANCH   8   9
ATOM      9  C   UNL     1      -5.016   4.590  -4.705  1.00  0.00    -0.000 C 
BRANCH   9  10
ATOM     10  C   UNL     1      -6.134   3.658  -4.204  1.00  0.00    -0.003 C 
ATOM     11  C   UNL     1      -5.658   2.679  -3.133  1.00  0.00     0.004 C 
ENDBRANCH   9  10
ENDBRANCH   8   9
ENDBRANCH   1   8
TORSDOF 6
ENDMDL
MODEL 5
REMARK VINA RESULT:    -3.926      2.638      5.131
REMARK INTER + INTRA:          -5.692
REMARK INTER:                  -5.113
REMARK INTRA:                  -0.578
REMARK UNBOUND:                -0.389
REMARK SMILES CCCCCCC=CC(=O)[O-]
REMARK SMILES IDX 5 1 6 2 7 3 8 4 9 5 10 6 11 7 4 8 3 9 2 10 1 11
REMARK H PARENT
REMARK Flexibility Score: inf
ROOT
ATOM      1  C   UNL     1      -4.746   4.239  -6.133  1.00  0.00     0.004 C 
ENDROOT
BRANCH   1   2
ATOM      2  C   UNL     1      -5.614   4.979  -7.164  1.00  0.00     0.027 C 
BRANCH   2   3
ATOM      3  C   UNL     1      -4.849   6.097  -7.819  1.00  0.00    -0.025 C 
ATOM      4  C   UNL     1      -5.036   7.410  -7.608  1.00  0.00     0.020 C 
BRANCH   4   5
ATOM      5  C   UNL     1      -6.042   8.026  -6.717  1.00  0.00     0.064 C 
ATOM      6  O   UNL     1      -7.110   8.525  -7.157  1.00  0.00    -0.545 OA
ATOM      7  O   UNL     1      -5.792   8.069  -5.352  1.00  0.00    -0.545 OA
ENDBRANCH   4   5
ENDBRANCH   2   3
ENDBRANCH   1   2
BRANCH   1   8
ATOM      8  C   UNL     1      -5.032   4.682  -4.687  1.00  0.00     0.000 C 
BRANCH   8   9
ATOM      9  C   UNL     1      -6.524   4.738  -4.306  1.00  0.00    -0.000 C 
BRANCH   9  10
ATOM     10  C   UNL     1      -7.003   3.602  -3.386  1.00  0.00    -0.003 C 
ATOM     11  C   UNL     1      -5.873   2.669  -2.955  1.00  0.00     0.004 C 
ENDBRANCH   9  10
ENDBRANCH   8   9
ENDBRANCH   1   8
TORSDOF 6
ENDMDL
MODEL 6
REMARK VINA RESULT:    -3.829     11.558     13.067
REMARK INTER + INTRA:          -5.561
REMARK INTER:                  -5.315
REMARK INTRA:                  -0.246
REMARK UNBOUND:                -0.389
REMARK SMILES CCCCCCC=CC(=O)[O-]
REMARK SMILES IDX 5 1 6 2 7 3 8 4 9 5 10 6 11 7 4 8 3 9 2 10 1 11
REMARK H PARENT
REMARK Flexibility Score: inf
ROOT
ATOM      1  C   UNL     1      -3.759  -6.394   1.189  1.00  0.00     0.004 C 
ENDROOT
BRANCH   1   2
ATOM      2  C   UNL     1      -2.938  -5.448   0.297  1.00  0.00     0.027 C 
BRANCH   2   3
ATOM      3  C   UNL     1      -3.201  -4.008   0.644  1.00  0.00    -0.025 C 
ATOM      4  C   UNL     1      -2.291  -3.125   1.088  1.00  0.00     0.020 C 
BRANCH   4   5
ATOM      5  C   UNL     1      -0.861  -3.390   1.355  1.00  0.00     0.064 C 
ATOM      6  O   UNL     1      -0.483  -4.311   2.125  1.00  0.00    -0.545 OA
ATOM      7  O   UNL     1       0.095  -2.587   0.748  1.00  0.00    -0.545 OA
ENDBRANCH   4   5
ENDBRANCH   2   3
ENDBRANCH   1   2
BRANCH   1   8
ATOM      8  C   UNL     1      -4.196  -7.673   0.455  1.00  0.00     0.000 C 
BRANCH   8   9
ATOM      9  C   UNL     1      -4.006  -7.645  -1.074  1.00  0.00    -0.000 C 
BRANCH   9  10
ATOM     10  C   UNL     1      -5.245  -8.052  -1.891  1.00  0.00    -0.003 C 
ATOM     11  C   UNL     1      -5.579  -7.059  -3.002  1.00  0.00     0.004 C 
ENDBRANCH   9  10
ENDBRANCH   8   9
ENDBRANCH   1   8
TORSDOF 6
ENDMDL
MODEL 7
REMARK VINA RESULT:    -3.825     17.807     19.878
REMARK INTER + INTRA:          -5.555
REMARK INTER:                  -4.901
REMARK INTRA:                  -0.654
REMARK UNBOUND:                -0.389
REMARK SMILES CCCCCCC=CC(=O)[O-]
REMARK SMILES IDX 5 1 6 2 7 3 8 4 9 5 10 6 11 7 4 8 3 9 2 10 1 11
REMARK H PARENT
REMARK Flexibility Score: inf
ROOT
ATOM      1  C   UNL     1       9.663  -4.209 -15.856  1.00  0.00     0.004 C 
ENDROOT
BRANCH   1   2
ATOM      2  C   UNL     1      10.596  -5.349 -15.420  1.00  0.00     0.027 C 
BRANCH   2   3
ATOM      3  C   UNL     1       9.840  -6.639 -15.251  1.00  0.00    -0.025 C 
ATOM      4  C   UNL     1       9.192  -7.034 -14.142  1.00  0.00     0.020 C 
BRANCH   4   5
ATOM      5  C   UNL     1       9.114  -6.304 -12.858  1.00  0.00     0.064 C 
ATOM      6  O   UNL     1       8.102  -5.633 -12.530  1.00  0.00    -0.545 OA
ATOM      7  O   UNL     1      10.201  -6.348 -11.995  1.00  0.00    -0.545 OA
ENDBRANCH   4   5
ENDBRANCH   2   3
ENDBRANCH   1   2
BRANCH   1   8
ATOM      8  C   UNL     1       8.715  -4.619 -16.996  1.00  0.00     0.000 C 
BRANCH   8   9
ATOM      9  C   UNL     1       7.224  -4.316 -16.746  1.00  0.00    -0.000 C 
BRANCH   9  10
ATOM     10  C   UNL     1       6.857  -4.035 -15.278  1.00  0.00    -0.003 C 
ATOM     11  C   UNL     1       5.735  -3.009 -15.131  1.00  0.00     0.004 C 
ENDBRANCH   9  10
ENDBRANCH   8   9
ENDBRANCH   1   8
TORSDOF 6
ENDMDL
MODEL 8
REMARK VINA RESULT:    -3.802     11.807     13.111
REMARK INTER + INTRA:          -5.525
REMARK INTER:                  -4.998
REMARK INTRA:                  -0.527
REMARK UNBOUND:                -0.389
REMARK SMILES CCCCCCC=CC(=O)[O-]
REMARK SMILES IDX 5 1 6 2 7 3 8 4 9 5 10 6 11 7 4 8 3 9 2 10 1 11
REMARK H PARENT
REMARK Flexibility Score: inf
ROOT
ATOM      1  C   UNL     1      -4.677  -5.388   1.439  1.00  0.00     0.004 C 
ENDROOT
BRANCH   1   2
ATOM      2  C   UNL     1      -3.841  -6.676   1.523  1.00  0.00     0.027 C 
BRANCH   2   3
ATOM      3  C   UNL     1      -4.458  -7.781   0.709  1.00  0.00    -0.025 C 
ATOM      4  C   UNL     1      -4.360  -7.928  -0.623  1.00  0.00     0.020 C 
BRANCH   4   5
ATOM      5  C   UNL     1      -3.659  -7.025  -1.561  1.00  0.00     0.064 C 
ATOM      6  O   UNL     1      -2.462  -7.213  -1.902  1.00  0.00    -0.545 OA
ATOM      7  O   UNL     1      -4.339  -5.927  -2.069  1.00  0.00    -0.545 OA
ENDBRANCH   4   5
ENDBRANCH   2   3
ENDBRANCH   1   2
BRANCH   1   8
ATOM      8  C   UNL     1      -3.810  -4.122   1.327  1.00  0.00     0.000 C 
BRANCH   8   9
ATOM      9  C   UNL     1      -2.467  -4.314   0.596  1.00  0.00    -0.000 C 
BRANCH   9  10
ATOM     10  C   UNL     1      -1.217  -4.060   1.456  1.00  0.00    -0.003 C 
ATOM     11  C   UNL     1      -0.545  -2.723   1.150  1.00  0.00     0.004 C 
ENDBRANCH   9  10
ENDBRANCH   8   9
ENDBRANCH   1   8
TORSDOF 6
ENDMDL
MODEL 9
REMARK VINA RESULT:    -3.654      1.635      4.242
REMARK INTER + INTRA:          -5.325
REMARK INTER:                  -4.800
REMARK INTRA:                  -0.525
REMARK UNBOUND:                -0.389
REMARK SMILES CCCCCCC=CC(=O)[O-]
REMARK SMILES IDX 5 1 6 2 7 3 8 4 9 5 10 6 11 7 4 8 3 9 2 10 1 11
REMARK H PARENT
REMARK Flexibility Score: inf
ROOT
ATOM      1  C   UNL     1      -5.101   6.285  -4.178  1.00  0.00     0.004 C 
ENDROOT
BRANCH   1   2
ATOM      2  C   UNL     1      -5.128   7.207  -5.407  1.00  0.00     0.027 C 
BRANCH   2   3
ATOM      3  C   UNL     1      -6.282   6.874  -6.314  1.00  0.00    -0.025 C 
ATOM      4  C   UNL     1      -6.337   5.843  -7.173  1.00  0.00     0.020 C 
BRANCH   4   5
ATOM      5  C   UNL     1      -5.273   4.848  -7.427  1.00  0.00     0.064 C 
ATOM      6  O   UNL     1      -4.522   4.913  -8.435  1.00  0.00    -0.545 OA
ATOM      7  O   UNL     1      -5.108   3.800  -6.532  1.00  0.00    -0.545 OA
ENDBRANCH   4   5
ENDBRANCH   2   3
ENDBRANCH   1   2
BRANCH   1   8
ATOM      8  C   UNL     1      -6.481   6.137  -3.514  1.00  0.00     0.000 C 
BRANCH   8   9
ATOM      9  C   UNL     1      -6.672   4.851  -2.686  1.00  0.00    -0.000 C 
BRANCH   9  10
ATOM     10  C   UNL     1      -6.735   3.552  -3.509  1.00  0.00    -0.003 C 
ATOM     11  C   UNL     1      -5.554   2.621  -3.243  1.00  0.00     0.004 C 
ENDBRANCH   9  10
ENDBRANCH   8   9
ENDBRANCH   1   8
TORSDOF 6
ENDMDL
