MODEL 1
REMARK VINA RESULT:    -4.885      0.000      0.000
REMARK INTER + INTRA:          -6.624
REMARK INTER:                  -6.313
REMARK INTRA:                  -0.311
REMARK UNBOUND:                -0.311
REMARK SMILES CCO[C@@H]1O[C@@H](CO)[C@H](O)[C@@H](O)[C@@H]1O
REMARK SMILES IDX 4 1 13 2 11 3 9 4 6 5 5 6 3 7 2 8 1 9 14 10 12 12 7 14 8 15
REMARK SMILES IDX 10 17
REMARK H PARENT 14 11 12 13 8 16 10 18
REMARK Flexibility Score: inf
ROOT
ATOM      1  C   UNL     1       4.275  -2.335  21.164  1.00  0.00     0.281 C 
ATOM      2  C   UNL     1       5.207  -1.108  21.115  1.00  0.00     0.202 C 
ATOM      3  C   UNL     1       5.165  -0.447  19.724  1.00  0.00     0.179 C 
ATOM      4  C   UNL     1       3.706  -0.184  19.318  1.00  0.00     0.177 C 
ATOM      5  C   UNL     1       2.872  -1.480  19.478  1.00  0.00     0.178 C 
ATOM      6  O   UNL     1       2.949  -1.966  20.810  1.00  0.00    -0.341 OA
ENDROOT
BRANCH   1   7
ATOM      7  O   UNL     1       4.765  -3.369  20.321  1.00  0.00    -0.350 OA
BRANCH   7   8
ATOM      8  C   UNL     1       5.308  -4.432  21.081  1.00  0.00     0.160 C 
ATOM      9  C   UNL     1       6.651  -4.860  20.504  1.00  0.00     0.035 C 
ENDBRANCH   7   8
ENDBRANCH   1   7
BRANCH   2  10
ATOM     10  O   UNL     1       6.520  -1.456  21.483  1.00  0.00    -0.385 OA
ATOM     11  H   UNL     1       6.880  -2.070  20.790  1.00  0.00     0.211 HD
ENDBRANCH   2  10
BRANCH   3  12
ATOM     12  O   UNL     1       5.867   0.769  19.750  1.00  0.00    -0.387 OA
ATOM     13  H   UNL     1       6.624   0.650  20.381  1.00  0.00     0.211 HD
ENDBRANCH   3  12
BRANCH   5  14
ATOM     14  C   UNL     1       1.388  -1.235  19.156  1.00  0.00     0.191 C 
BRANCH  14  15
ATOM     15  O   UNL     1       1.072   0.131  19.208  1.00  0.00    -0.394 OA
ATOM     16  H   UNL     1       1.047   0.453  18.270  1.00  0.00     0.210 HD
ENDBRANCH  14  15
ENDBRANCH   5  14
BRANCH   4  17
ATOM     17  O   UNL     1       3.664   0.248  17.982  1.00  0.00    -0.387 OA
ATOM     18  H   UNL     1       3.809  -0.554  17.414  1.00  0.00     0.211 HD
ENDBRANCH   4  17
TORSDOF 7
ENDMDL
MODEL 2
REMARK VINA RESULT:    -4.369      1.294      4.389
REMARK INTER + INTRA:          -5.958
REMARK INTER:                  -5.630
REMARK INTRA:                  -0.327
REMARK UNBOUND:                -0.311
REMARK SMILES CCO[C@@H]1O[C@@H](CO)[C@H](O)[C@@H](O)[C@@H]1O
REMARK SMILES IDX 4 1 13 2 11 3 9 4 6 5 5 6 3 7 2 8 1 9 14 10 12 12 7 14 8 15
REMARK SMILES IDX 10 17
REMARK H PARENT 14 11 12 13 8 16 10 18
REMARK Flexibility Score: inf
ROOT
ATOM      1  C   UNL     1       3.957  -1.987  19.340  1.00  0.00     0.281 C 
ATOM      2  C   UNL     1       4.963  -0.854  19.620  1.00  0.00     0.202 C 
ATOM      3  C   UNL     1       5.485  -0.933  21.068  1.00  0.00     0.179 C 
ATOM      4  C   UNL     1       5.994  -2.354  21.359  1.00  0.00     0.177 C 
ATOM      5  C   UNL     1       4.911  -3.392  20.971  1.00  0.00     0.178 C 
ATOM      6  O   UNL     1       4.548  -3.252  19.605  1.00  0.00    -0.341 OA
ENDROOT
BRANCH   1   7
ATOM      7  O   UNL     1       2.771  -1.802  20.101  1.00  0.00    -0.350 OA
BRANCH   7   8
ATOM      8  C   UNL     1       1.639  -1.686  19.260  1.00  0.00     0.160 C 
ATOM      9  C   UNL     1       1.193  -0.232  19.175  1.00  0.00     0.035 C 
ENDBRANCH   7   8
ENDBRANCH   1   7
BRANCH   2  10
ATOM     10  O   UNL     1       4.398   0.405  19.343  1.00  0.00    -0.385 OA
ATOM     11  H   UNL     1       5.078   0.946  18.862  1.00  0.00     0.211 HD
ENDBRANCH   2  10
BRANCH   3  12
ATOM     12  O   UNL     1       6.533  -0.017  21.251  1.00  0.00    -0.387 OA
ATOM     13  H   UNL     1       7.377  -0.540  21.239  1.00  0.00     0.211 HD
ENDBRANCH   3  12
BRANCH   5  14
ATOM     14  C   UNL     1       5.415  -4.831  21.175  1.00  0.00     0.191 C 
BRANCH  14  15
ATOM     15  O   UNL     1       6.817  -4.884  21.197  1.00  0.00    -0.394 OA
ATOM     16  H   UNL     1       7.140  -4.050  20.765  1.00  0.00     0.210 HD
ENDBRANCH  14  15
ENDBRANCH   5  14
BRANCH   4  17
ATOM     17  O   UNL     1       6.297  -2.470  22.726  1.00  0.00    -0.387 OA
ATOM     18  H   UNL     1       6.237  -3.434  22.955  1.00  0.00     0.211 HD
ENDBRANCH   4  17
TORSDOF 7
ENDMDL
MODEL 3
REMARK VINA RESULT:    -3.652      2.727      3.939
REMARK INTER + INTRA:          -5.031
REMARK INTER:                  -5.000
REMARK INTRA:                  -0.032
REMARK UNBOUND:                -0.311
REMARK SMILES CCO[C@@H]1O[C@@H](CO)[C@H](O)[C@@H](O)[C@@H]1O
REMARK SMILES IDX 4 1 13 2 11 3 9 4 6 5 5 6 3 7 2 8 1 9 14 10 12 12 7 14 8 15
REMARK SMILES IDX 10 17
REMARK H PARENT 14 11 12 13 8 16 10 18
REMARK Flexibility Score: inf
ROOT
ATOM      1  C   UNL     1       6.927  -4.484  20.954  1.00  0.00     0.281 C 
ATOM      2  C   UNL     1       6.527  -4.069  19.525  1.00  0.00     0.202 C 
ATOM      3  C   UNL     1       4.999  -3.899  19.415  1.00  0.00     0.179 C 
ATOM      4  C   UNL     1       4.498  -2.974  20.535  1.00  0.00     0.177 C 
ATOM      5  C   UNL     1       5.028  -3.469  21.905  1.00  0.00     0.178 C 
ATOM      6  O   UNL     1       6.447  -3.537  21.899  1.00  0.00    -0.341 OA
ENDROOT
BRANCH   1   7
ATOM      7  O   UNL     1       6.454  -5.792  21.246  1.00  0.00    -0.350 OA
BRANCH   7   8
ATOM      8  C   UNL     1       7.523  -6.657  21.581  1.00  0.00     0.160 C 
ATOM      9  C   UNL     1       7.036  -8.100  21.630  1.00  0.00     0.035 C 
ENDBRANCH   7   8
ENDBRANCH   1   7
BRANCH   2  10
ATOM     10  O   UNL     1       7.014  -4.987  18.576  1.00  0.00    -0.385 OA
ATOM     11  H   UNL     1       6.763  -4.657  17.674  1.00  0.00     0.211 HD
ENDBRANCH   2  10
BRANCH   3  12
ATOM     12  O   UNL     1       4.667  -3.343  18.169  1.00  0.00    -0.387 OA
ATOM     13  H   UNL     1       4.447  -4.099  17.565  1.00  0.00     0.211 HD
ENDBRANCH   3  12
BRANCH   5  14
ATOM     14  C   UNL     1       4.612  -2.521  23.042  1.00  0.00     0.191 C 
BRANCH  14  15
ATOM     15  O   UNL     1       3.377  -1.912  22.775  1.00  0.00    -0.394 OA
ATOM     16  H   UNL     1       3.403  -1.016  23.203  1.00  0.00     0.210 HD
ENDBRANCH  14  15
ENDBRANCH   5  14
BRANCH   4  17
ATOM     17  O   UNL     1       3.093  -2.968  20.542  1.00  0.00    -0.387 OA
ATOM     18  H   UNL     1       2.803  -3.744  21.090  1.00  0.00     0.211 HD
ENDBRANCH   4  17
TORSDOF 7
ENDMDL
MODEL 4
REMARK VINA RESULT:    -3.619      1.891      4.796
REMARK INTER + INTRA:          -4.988
REMARK INTER:                  -4.712
REMARK INTRA:                  -0.277
REMARK UNBOUND:                -0.311
REMARK SMILES CCO[C@@H]1O[C@@H](CO)[C@H](O)[C@@H](O)[C@@H]1O
REMARK SMILES IDX 4 1 13 2 11 3 9 4 6 5 5 6 3 7 2 8 1 9 14 10 12 12 7 14 8 15
REMARK SMILES IDX 10 17
REMARK H PARENT 14 11 12 13 8 16 10 18
REMARK Flexibility Score: inf
ROOT
ATOM      1  C   UNL     1       4.229  -1.711  20.143  1.00  0.00     0.281 C 
ATOM      2  C   UNL     1       4.280  -1.737  21.683  1.00  0.00     0.202 C 
ATOM      3  C   UNL     1       4.546  -3.165  22.196  1.00  0.00     0.179 C 
ATOM      4  C   UNL     1       5.778  -3.750  21.486  1.00  0.00     0.177 C 
ATOM      5  C   UNL     1       5.624  -3.599  19.952  1.00  0.00     0.178 C 
ATOM      6  O   UNL     1       5.433  -2.236  19.598  1.00  0.00    -0.341 OA
ENDROOT
BRANCH   1   7
ATOM      7  O   UNL     1       3.094  -2.421  19.667  1.00  0.00    -0.350 OA
BRANCH   7   8
ATOM      8  C   UNL     1       2.075  -1.532  19.250  1.00  0.00     0.160 C 
ATOM      9  C   UNL     1       2.681  -0.205  18.813  1.00  0.00     0.035 C 
ENDBRANCH   7   8
ENDBRANCH   1   7
BRANCH   2  10
ATOM     10  O   UNL     1       3.102  -1.200  22.236  1.00  0.00    -0.385 OA
ATOM     11  H   UNL     1       2.736  -0.537  21.593  1.00  0.00     0.211 HD
ENDBRANCH   2  10
BRANCH   3  12
ATOM     12  O   UNL     1       4.775  -3.142  23.581  1.00  0.00    -0.387 OA
ATOM     13  H   UNL     1       4.603  -4.061  23.916  1.00  0.00     0.211 HD
ENDBRANCH   3  12
BRANCH   5  14
ATOM     14  C   UNL     1       6.873  -4.101  19.211  1.00  0.00     0.191 C 
BRANCH  14  15
ATOM     15  O   UNL     1       8.002  -4.091  20.044  1.00  0.00    -0.394 OA
ATOM     16  H   UNL     1       8.115  -3.156  20.358  1.00  0.00     0.210 HD
ENDBRANCH  14  15
ENDBRANCH   5  14
BRANCH   4  17
ATOM     17  O   UNL     1       5.907  -5.109  21.820  1.00  0.00    -0.387 OA
ATOM     18  H   UNL     1       6.366  -5.551  21.059  1.00  0.00     0.211 HD
ENDBRANCH   4  17
TORSDOF 7
ENDMDL
MODEL 5
REMARK VINA RESULT:    -3.606     17.785     19.050
REMARK INTER + INTRA:          -4.972
REMARK INTER:                  -4.592
REMARK INTRA:                  -0.380
REMARK UNBOUND:                -0.311
REMARK SMILES CCO[C@@H]1O[C@@H](CO)[C@H](O)[C@@H](O)[C@@H]1O
REMARK SMILES IDX 4 1 13 2 11 3 9 4 6 5 5 6 3 7 2 8 1 9 14 10 12 12 7 14 8 15
REMARK SMILES IDX 10 17
REMARK H PARENT 14 11 12 13 8 16 10 18
REMARK Flexibility Score: inf
ROOT
ATOM      1  C   UNL     1      16.185  -7.224   5.313  1.00  0.00     0.281 C 
ATOM      2  C   UNL     1      15.876  -7.015   6.809  1.00  0.00     0.202 C 
ATOM      3  C   UNL     1      14.485  -6.378   6.994  1.00  0.00     0.179 C 
ATOM      4  C   UNL     1      13.437  -7.184   6.211  1.00  0.00     0.177 C 
ATOM      5  C   UNL     1      13.904  -7.376   4.747  1.00  0.00     0.178 C 
ATOM      6  O   UNL     1      15.173  -8.014   4.704  1.00  0.00    -0.341 OA
ENDROOT
BRANCH   1   7
ATOM      7  O   UNL     1      16.332  -5.974   4.653  1.00  0.00    -0.350 OA
BRANCH   7   8
ATOM      8  C   UNL     1      17.609  -5.862   4.054  1.00  0.00     0.160 C 
ATOM      9  C   UNL     1      17.996  -4.395   3.912  1.00  0.00     0.035 C 
ENDBRANCH   7   8
ENDBRANCH   1   7
BRANCH   2  10
ATOM     10  O   UNL     1      16.881  -6.251   7.430  1.00  0.00    -0.385 OA
ATOM     11  H   UNL     1      16.942  -6.538   8.379  1.00  0.00     0.211 HD
ENDBRANCH   2  10
BRANCH   3  12
ATOM     12  O   UNL     1      14.141  -6.366   8.356  1.00  0.00    -0.387 OA
ATOM     13  H   UNL     1      14.524  -7.190   8.756  1.00  0.00     0.211 HD
ENDBRANCH   3  12
BRANCH   5  14
ATOM     14  C   UNL     1      12.917  -8.246   3.953  1.00  0.00     0.191 C 
BRANCH  14  15
ATOM     15  O   UNL     1      12.074  -8.973   4.806  1.00  0.00    -0.394 OA
ATOM     16  H   UNL     1      11.143  -8.736   4.556  1.00  0.00     0.210 HD
ENDBRANCH  14  15
ENDBRANCH   5  14
BRANCH   4  17
ATOM     17  O   UNL     1      12.210  -6.500   6.235  1.00  0.00    -0.387 OA
ATOM     18  H   UNL     1      12.418  -5.531   6.168  1.00  0.00     0.211 HD
ENDBRANCH   4  17
TORSDOF 7
ENDMDL
MODEL 6
REMARK VINA RESULT:    -3.589      1.802      5.021
REMARK INTER + INTRA:          -4.950
REMARK INTER:                  -4.619
REMARK INTRA:                  -0.331
REMARK UNBOUND:                -0.311
REMARK SMILES CCO[C@@H]1O[C@@H](CO)[C@H](O)[C@@H](O)[C@@H]1O
REMARK SMILES IDX 4 1 13 2 11 3 9 4 6 5 5 6 3 7 2 8 1 9 14 10 12 12 7 14 8 15
REMARK SMILES IDX 10 17
REMARK H PARENT 14 11 12 13 8 16 10 18
REMARK Flexibility Score: inf
ROOT
ATOM      1  C   UNL     1       2.737   0.363  19.042  1.00  0.00     0.281 C 
ATOM      2  C   UNL     1       2.277  -1.001  19.593  1.00  0.00     0.202 C 
ATOM      3  C   UNL     1       3.381  -2.061  19.415  1.00  0.00     0.179 C 
ATOM      4  C   UNL     1       4.706  -1.531  19.988  1.00  0.00     0.177 C 
ATOM      5  C   UNL     1       5.011  -0.130  19.401  1.00  0.00     0.178 C 
ATOM      6  O   UNL     1       3.946   0.770  19.670  1.00  0.00    -0.341 OA
ENDROOT
BRANCH   1   7
ATOM      7  O   UNL     1       2.883   0.308  17.629  1.00  0.00    -0.350 OA
BRANCH   7   8
ATOM      8  C   UNL     1       1.900   1.098  16.985  1.00  0.00     0.160 C 
ATOM      9  C   UNL     1       1.314   2.109  17.963  1.00  0.00     0.035 C 
ENDBRANCH   7   8
ENDBRANCH   1   7
BRANCH   2  10
ATOM     10  O   UNL     1       1.070  -1.407  18.994  1.00  0.00    -0.385 OA
ATOM     11  H   UNL     1       0.652  -0.608  18.577  1.00  0.00     0.211 HD
ENDBRANCH   2  10
BRANCH   3  12
ATOM     12  O   UNL     1       3.024  -3.242  20.086  1.00  0.00    -0.387 OA
ATOM     13  H   UNL     1       2.579  -2.970  20.931  1.00  0.00     0.211 HD
ENDBRANCH   3  12
BRANCH   5  14
ATOM     14  C   UNL     1       6.290   0.466  20.012  1.00  0.00     0.191 C 
BRANCH  14  15
ATOM     15  O   UNL     1       6.467   0.048  21.339  1.00  0.00    -0.394 OA
ATOM     16  H   UNL     1       7.432  -0.158  21.447  1.00  0.00     0.210 HD
ENDBRANCH  14  15
ENDBRANCH   5  14
BRANCH   4  17
ATOM     17  O   UNL     1       5.743  -2.421  19.662  1.00  0.00    -0.387 OA
ATOM     18  H   UNL     1       6.035  -2.847  20.510  1.00  0.00     0.211 HD
ENDBRANCH   4  17
TORSDOF 7
ENDMDL
MODEL 7
REMARK VINA RESULT:    -3.587     17.487     18.943
REMARK INTER + INTRA:          -4.947
REMARK INTER:                  -4.534
REMARK INTRA:                  -0.413
REMARK UNBOUND:                -0.311
REMARK SMILES CCO[C@@H]1O[C@@H](CO)[C@H](O)[C@@H](O)[C@@H]1O
REMARK SMILES IDX 4 1 13 2 11 3 9 4 6 5 5 6 3 7 2 8 1 9 14 10 12 12 7 14 8 15
REMARK SMILES IDX 10 17
REMARK H PARENT 14 11 12 13 8 16 10 18
REMARK Flexibility Score: inf
ROOT
ATOM      1  C   UNL     1      13.822  -6.748   4.950  1.00  0.00     0.281 C 
ATOM      2  C   UNL     1      13.521  -6.303   6.395  1.00  0.00     0.202 C 
ATOM      3  C   UNL     1      14.627  -6.782   7.354  1.00  0.00     0.179 C 
ATOM      4  C   UNL     1      16.003  -6.366   6.809  1.00  0.00     0.177 C 
ATOM      5  C   UNL     1      16.144  -6.816   5.333  1.00  0.00     0.178 C 
ATOM      6  O   UNL     1      15.097  -6.273   4.541  1.00  0.00    -0.341 OA
ENDROOT
BRANCH   1   7
ATOM      7  O   UNL     1      13.735  -8.161   4.833  1.00  0.00    -0.350 OA
BRANCH   7   8
ATOM      8  C   UNL     1      12.762  -8.534   3.875  1.00  0.00     0.160 C 
ATOM      9  C   UNL     1      11.688  -9.398   4.524  1.00  0.00     0.035 C 
ENDBRANCH   7   8
ENDBRANCH   1   7
BRANCH   2  10
ATOM     10  O   UNL     1      12.251  -6.749   6.807  1.00  0.00    -0.385 OA
ATOM     11  H   UNL     1      12.051  -6.331   7.686  1.00  0.00     0.211 HD
ENDBRANCH   2  10
BRANCH   3  12
ATOM     12  O   UNL     1      14.439  -6.214   8.625  1.00  0.00    -0.387 OA
ATOM     13  H   UNL     1      15.315  -5.842   8.906  1.00  0.00     0.211 HD
ENDBRANCH   3  12
BRANCH   5  14
ATOM     14  C   UNL     1      17.478  -6.347   4.730  1.00  0.00     0.191 C 
BRANCH  14  15
ATOM     15  O   UNL     1      18.079  -5.358   5.522  1.00  0.00    -0.394 OA
ATOM     16  H   UNL     1      18.932  -5.116   5.076  1.00  0.00     0.210 HD
ENDBRANCH  14  15
ENDBRANCH   5  14
BRANCH   4  17
ATOM     17  O   UNL     1      17.012  -6.959   7.587  1.00  0.00    -0.387 OA
ATOM     18  H   UNL     1      16.636  -7.088   8.497  1.00  0.00     0.211 HD
ENDBRANCH   4  17
TORSDOF 7
ENDMDL
MODEL 8
REMARK VINA RESULT:    -3.298     18.554     19.901
REMARK INTER + INTRA:          -4.573
REMARK INTER:                  -4.285
REMARK INTRA:                  -0.288
REMARK UNBOUND:                -0.311
REMARK SMILES CCO[C@@H]1O[C@@H](CO)[C@H](O)[C@@H](O)[C@@H]1O
REMARK SMILES IDX 4 1 13 2 11 3 9 4 6 5 5 6 3 7 2 8 1 9 14 10 12 12 7 14 8 15
REMARK SMILES IDX 10 17
REMARK H PARENT 14 11 12 13 8 16 10 18
REMARK Flexibility Score: inf
ROOT
ATOM      1  C   UNL     1      17.059  -6.885   4.339  1.00  0.00     0.281 C 
ATOM      2  C   UNL     1      17.163  -8.086   5.299  1.00  0.00     0.202 C 
ATOM      3  C   UNL     1      16.264  -7.878   6.533  1.00  0.00     0.179 C 
ATOM      4  C   UNL     1      14.839  -7.516   6.081  1.00  0.00     0.177 C 
ATOM      5  C   UNL     1      14.888  -6.342   5.071  1.00  0.00     0.178 C 
ATOM      6  O   UNL     1      15.707  -6.671   3.958  1.00  0.00    -0.341 OA
ENDROOT
BRANCH   1   7
ATOM      7  O   UNL     1      17.620  -5.721   4.931  1.00  0.00    -0.350 OA
BRANCH   7   8
ATOM      8  C   UNL     1      18.342  -4.963   3.979  1.00  0.00     0.160 C 
ATOM      9  C   UNL     1      17.761  -3.559   3.875  1.00  0.00     0.035 C 
ENDBRANCH   7   8
ENDBRANCH   1   7
BRANCH   2  10
ATOM     10  O   UNL     1      18.500  -8.323   5.669  1.00  0.00    -0.385 OA
ATOM     11  H   UNL     1      18.953  -7.444   5.759  1.00  0.00     0.211 HD
ENDBRANCH   2  10
BRANCH   3  12
ATOM     12  O   UNL     1      16.223  -9.052   7.301  1.00  0.00    -0.387 OA
ATOM     13  H   UNL     1      15.713  -9.722   6.776  1.00  0.00     0.211 HD
ENDBRANCH   3  12
BRANCH   5  14
ATOM     14  C   UNL     1      13.487  -6.004   4.536  1.00  0.00     0.191 C 
BRANCH  14  15
ATOM     15  O   UNL     1      12.597  -5.712   5.581  1.00  0.00    -0.394 OA
ATOM     16  H   UNL     1      11.937  -5.065   5.219  1.00  0.00     0.210 HD
ENDBRANCH  14  15
ENDBRANCH   5  14
BRANCH   4  17
ATOM     17  O   UNL     1      14.074  -7.150   7.201  1.00  0.00    -0.387 OA
ATOM     18  H   UNL     1      14.671  -7.210   7.991  1.00  0.00     0.211 HD
ENDBRANCH   4  17
TORSDOF 7
ENDMDL
MODEL 9
REMARK VINA RESULT:    -3.232     18.039     19.681
REMARK INTER + INTRA:          -4.489
REMARK INTER:                  -4.142
REMARK INTRA:                  -0.347
REMARK UNBOUND:                -0.311
REMARK SMILES CCO[C@@H]1O[C@@H](CO)[C@H](O)[C@@H](O)[C@@H]1O
REMARK SMILES IDX 4 1 13 2 11 3 9 4 6 5 5 6 3 7 2 8 1 9 14 10 12 12 7 14 8 15
REMARK SMILES IDX 10 17
REMARK H PARENT 14 11 12 13 8 16 10 18
REMARK Flexibility Score: inf
ROOT
ATOM      1  C   UNL     1      15.652  -6.447   6.317  1.00  0.00     0.281 C 
ATOM      2  C   UNL     1      16.104  -6.790   7.750  1.00  0.00     0.202 C 
ATOM      3  C   UNL     1      16.410  -8.295   7.879  1.00  0.00     0.179 C 
ATOM      4  C   UNL     1      17.374  -8.726   6.762  1.00  0.00     0.177 C 
ATOM      5  C   UNL     1      16.831  -8.261   5.388  1.00  0.00     0.178 C 
ATOM      6  O   UNL     1      16.636  -6.854   5.375  1.00  0.00    -0.341 OA
ENDROOT
BRANCH   1   7
ATOM      7  O   UNL     1      14.391  -7.039   6.035  1.00  0.00    -0.350 OA
BRANCH   7   8
ATOM      8  C   UNL     1      13.411  -6.052   5.774  1.00  0.00     0.160 C 
ATOM      9  C   UNL     1      13.168  -5.936   4.274  1.00  0.00     0.035 C 
ENDBRANCH   7   8
ENDBRANCH   1   7
BRANCH   2  10
ATOM     10  O   UNL     1      15.148  -6.374   8.695  1.00  0.00    -0.385 OA
ATOM     11  H   UNL     1      14.452  -7.080   8.757  1.00  0.00     0.211 HD
ENDBRANCH   2  10
BRANCH   3  12
ATOM     12  O   UNL     1      16.996  -8.559   9.128  1.00  0.00    -0.387 OA
ATOM     13  H   UNL     1      16.873  -9.528   9.304  1.00  0.00     0.211 HD
ENDBRANCH   3  12
BRANCH   5  14
ATOM     14  C   UNL     1      17.810  -8.606   4.253  1.00  0.00     0.191 C 
BRANCH  14  15
ATOM     15  O   UNL     1      17.914  -9.993   4.070  1.00  0.00    -0.394 OA
ATOM     16  H   UNL     1      18.776 -10.155   3.607  1.00  0.00     0.210 HD
ENDBRANCH  14  15
ENDBRANCH   5  14
BRANCH   4  17
ATOM     17  O   UNL     1      17.506 -10.125   6.775  1.00  0.00    -0.387 OA
ATOM     18  H   UNL     1      16.687 -10.488   7.204  1.00  0.00     0.211 HD
ENDBRANCH   4  17
TORSDOF 7
ENDMDL
