MODEL 1
REMARK VINA RESULT:    -5.042      0.000      0.000
REMARK INTER + INTRA:          -6.233
REMARK INTER:                  -6.074
REMARK INTRA:                  -0.159
REMARK UNBOUND:                -0.159
REMARK SMILES [NH3+][C@H](Cc1cnc[nH]1)C(=O)[O-]
REMARK SMILES IDX 3 1 2 2 1 3 9 7 10 8 11 9 4 10 5 11 8 12 6 13 7 14
REMARK H PARENT 1 4 1 5 1 6 8 15
REMARK Flexibility Score: inf
ROOT
ATOM      1  C   UNL     1     -16.055 -31.099 -12.986  1.00  0.00     0.127 C 
ENDROOT
BRANCH   1   2
ATOM      2  C   UNL     1     -15.279 -29.805 -13.306  1.00  0.00     0.233 C 
BRANCH   2   3
ATOM      3  N   UNL     1     -16.178 -28.739 -13.766  1.00  0.00    -0.350 N 
ATOM      4  H   UNL     1     -17.018 -29.154 -14.230  1.00  0.00     0.345 HD
ATOM      5  H   UNL     1     -16.488 -28.142 -12.965  1.00  0.00     0.345 HD
ATOM      6  H   UNL     1     -15.688 -28.141 -14.470  1.00  0.00     0.345 HD
ENDBRANCH   2   3
BRANCH   2   7
ATOM      7  C   UNL     1     -14.526 -29.354 -12.083  1.00  0.00     0.099 C 
ATOM      8  O   UNL     1     -14.844 -29.792 -10.946  1.00  0.00    -0.544 OA
ATOM      9  O   UNL     1     -13.487 -28.437 -12.197  1.00  0.00    -0.544 OA
ENDBRANCH   2   7
ENDBRANCH   1   2
BRANCH   1  10
ATOM     10  C   UNL     1     -15.482 -32.282 -13.709  1.00  0.00     0.041 A 
ATOM     11  C   UNL     1     -14.811 -33.341 -13.141  1.00  0.00     0.134 A 
ATOM     12  N   UNL     1     -15.483 -32.438 -15.041  1.00  0.00    -0.348 N 
ATOM     13  N   UNL     1     -14.397 -34.175 -14.117  1.00  0.00    -0.245 NA
ATOM     14  C   UNL     1     -14.826 -33.592 -15.258  1.00  0.00     0.196 A 
ATOM     15  H   UNL     1     -15.895 -31.800 -15.758  1.00  0.00     0.167 HD
ENDBRANCH   1  10
TORSDOF 4
ENDMDL
MODEL 2
REMARK VINA RESULT:    -4.956      2.593      3.574
REMARK INTER + INTRA:          -6.130
REMARK INTER:                  -5.959
REMARK INTRA:                  -0.170
REMARK UNBOUND:                -0.159
REMARK SMILES [NH3+][C@H](Cc1cnc[nH]1)C(=O)[O-]
REMARK SMILES IDX 3 1 2 2 1 3 9 7 10 8 11 9 4 10 5 11 8 12 6 13 7 14
REMARK H PARENT 1 4 1 5 1 6 8 15
REMARK Flexibility Score: inf
ROOT
ATOM      1  C   UNL     1     -15.698 -28.278 -14.011  1.00  0.00     0.127 C 
ENDROOT
BRANCH   1   2
ATOM      2  C   UNL     1     -14.309 -27.844 -14.521  1.00  0.00     0.233 C 
BRANCH   2   3
ATOM      3  N   UNL     1     -14.186 -28.035 -15.973  1.00  0.00    -0.350 N 
ATOM      4  H   UNL     1     -13.949 -29.031 -16.185  1.00  0.00     0.345 HD
ATOM      5  H   UNL     1     -15.077 -27.783 -16.458  1.00  0.00     0.345 HD
ATOM      6  H   UNL     1     -13.413 -27.437 -16.345  1.00  0.00     0.345 HD
ENDBRANCH   2   3
BRANCH   2   7
ATOM      7  C   UNL     1     -14.070 -26.400 -14.168  1.00  0.00     0.099 C 
ATOM      8  O   UNL     1     -13.867 -25.552 -15.076  1.00  0.00    -0.544 OA
ATOM      9  O   UNL     1     -14.056 -25.997 -12.838  1.00  0.00    -0.544 OA
ENDBRANCH   2   7
ENDBRANCH   1   2
BRANCH   1  10
ATOM     10  C   UNL     1     -15.615 -29.507 -13.155  1.00  0.00     0.041 A 
ATOM     11  C   UNL     1     -14.809 -29.684 -12.054  1.00  0.00     0.134 A 
ATOM     12  N   UNL     1     -16.276 -30.650 -13.393  1.00  0.00    -0.348 N 
ATOM     13  N   UNL     1     -14.971 -30.939 -11.587  1.00  0.00    -0.245 NA
ATOM     14  C   UNL     1     -15.870 -31.495 -12.427  1.00  0.00     0.196 A 
ATOM     15  H   UNL     1     -16.951 -30.849 -14.165  1.00  0.00     0.167 HD
ENDBRANCH   1  10
TORSDOF 4
ENDMDL
MODEL 3
REMARK VINA RESULT:    -4.933      4.047      5.540
REMARK INTER + INTRA:          -6.102
REMARK INTER:                  -5.966
REMARK INTRA:                  -0.136
REMARK UNBOUND:                -0.159
REMARK SMILES [NH3+][C@H](Cc1cnc[nH]1)C(=O)[O-]
REMARK SMILES IDX 3 1 2 2 1 3 9 7 10 8 11 9 4 10 5 11 8 12 6 13 7 14
REMARK H PARENT 1 4 1 5 1 6 8 15
REMARK Flexibility Score: inf
ROOT
ATOM      1  C   UNL     1     -14.744 -33.839 -15.362  1.00  0.00     0.127 C 
ENDROOT
BRANCH   1   2
ATOM      2  C   UNL     1     -15.100 -35.312 -15.077  1.00  0.00     0.233 C 
BRANCH   2   3
ATOM      3  N   UNL     1     -16.450 -35.641 -15.556  1.00  0.00    -0.350 N 
ATOM      4  H   UNL     1     -16.879 -34.807 -16.018  1.00  0.00     0.345 HD
ATOM      5  H   UNL     1     -16.419 -36.434 -16.238  1.00  0.00     0.345 HD
ATOM      6  H   UNL     1     -17.057 -35.907 -14.748  1.00  0.00     0.345 HD
ENDBRANCH   2   3
BRANCH   2   7
ATOM      7  C   UNL     1     -14.086 -36.211 -15.731  1.00  0.00     0.099 C 
ATOM      8  O   UNL     1     -13.238 -36.824 -15.031  1.00  0.00    -0.544 OA
ATOM      9  O   UNL     1     -14.066 -36.357 -17.114  1.00  0.00    -0.544 OA
ENDBRANCH   2   7
ENDBRANCH   1   2
BRANCH   1  10
ATOM     10  C   UNL     1     -15.103 -32.948 -14.209  1.00  0.00     0.041 A 
ATOM     11  C   UNL     1     -14.976 -33.250 -12.872  1.00  0.00     0.134 A 
ATOM     12  N   UNL     1     -15.676 -31.741 -14.325  1.00  0.00    -0.348 N 
ATOM     13  N   UNL     1     -15.458 -32.224 -12.141  1.00  0.00    -0.245 NA
ATOM     14  C   UNL     1     -15.874 -31.326 -13.060  1.00  0.00     0.196 A 
ATOM     15  H   UNL     1     -15.926 -31.235 -15.204  1.00  0.00     0.167 HD
ENDBRANCH   1  10
TORSDOF 4
ENDMDL
MODEL 4
REMARK VINA RESULT:    -4.852      2.786      3.616
REMARK INTER + INTRA:          -6.004
REMARK INTER:                  -5.772
REMARK INTRA:                  -0.233
REMARK UNBOUND:                -0.159
REMARK SMILES [NH3+][C@H](Cc1cnc[nH]1)C(=O)[O-]
REMARK SMILES IDX 3 1 2 2 1 3 9 7 10 8 11 9 4 10 5 11 8 12 6 13 7 14
REMARK H PARENT 1 4 1 5 1 6 8 15
REMARK Flexibility Score: inf
ROOT
ATOM      1  C   UNL     1     -14.955 -27.582 -12.615  1.00  0.00     0.127 C 
ENDROOT
BRANCH   1   2
ATOM      2  C   UNL     1     -15.083 -27.005 -14.040  1.00  0.00     0.233 C 
BRANCH   2   3
ATOM      3  N   UNL     1     -15.095 -25.536 -14.025  1.00  0.00    -0.350 N 
ATOM      4  H   UNL     1     -14.990 -25.167 -14.998  1.00  0.00     0.345 HD
ATOM      5  H   UNL     1     -15.988 -25.176 -13.616  1.00  0.00     0.345 HD
ATOM      6  H   UNL     1     -14.291 -25.180 -13.460  1.00  0.00     0.345 HD
ENDBRANCH   2   3
BRANCH   2   7
ATOM      7  C   UNL     1     -13.944 -27.503 -14.889  1.00  0.00     0.099 C 
ATOM      8  O   UNL     1     -14.158 -28.337 -15.808  1.00  0.00    -0.544 OA
ATOM      9  O   UNL     1     -12.647 -27.061 -14.654  1.00  0.00    -0.544 OA
ENDBRANCH   2   7
ENDBRANCH   1   2
BRANCH   1  10
ATOM     10  C   UNL     1     -15.317 -29.038 -12.572  1.00  0.00     0.041 A 
ATOM     11  C   UNL     1     -14.905 -29.955 -11.632  1.00  0.00     0.134 A 
ATOM     12  N   UNL     1     -16.047 -29.672 -13.502  1.00  0.00    -0.348 N 
ATOM     13  N   UNL     1     -15.387 -31.170 -11.962  1.00  0.00    -0.245 NA
ATOM     14  C   UNL     1     -16.076 -30.957 -13.105  1.00  0.00     0.196 A 
ATOM     15  H   UNL     1     -16.488 -29.263 -14.355  1.00  0.00     0.167 HD
ENDBRANCH   1  10
TORSDOF 4
ENDMDL
MODEL 5
REMARK VINA RESULT:    -4.845      2.669      4.429
REMARK INTER + INTRA:          -5.996
REMARK INTER:                  -5.723
REMARK INTRA:                  -0.273
REMARK UNBOUND:                -0.159
REMARK SMILES [NH3+][C@H](Cc1cnc[nH]1)C(=O)[O-]
REMARK SMILES IDX 3 1 2 2 1 3 9 7 10 8 11 9 4 10 5 11 8 12 6 13 7 14
REMARK H PARENT 1 4 1 5 1 6 8 15
REMARK Flexibility Score: inf
ROOT
ATOM      1  C   UNL     1     -16.010 -31.401 -12.248  1.00  0.00     0.127 C 
ENDROOT
BRANCH   1   2
ATOM      2  C   UNL     1     -14.984 -32.547 -12.146  1.00  0.00     0.233 C 
BRANCH   2   3
ATOM      3  N   UNL     1     -15.243 -33.398 -10.976  1.00  0.00    -0.350 N 
ATOM      4  H   UNL     1     -14.379 -33.480 -10.393  1.00  0.00     0.345 HD
ATOM      5  H   UNL     1     -16.016 -33.002 -10.393  1.00  0.00     0.345 HD
ATOM      6  H   UNL     1     -15.510 -34.360 -11.290  1.00  0.00     0.345 HD
ENDBRANCH   2   3
BRANCH   2   7
ATOM      7  C   UNL     1     -15.023 -33.372 -13.404  1.00  0.00     0.099 C 
ATOM      8  O   UNL     1     -14.879 -34.622 -13.346  1.00  0.00    -0.544 OA
ATOM      9  O   UNL     1     -15.199 -32.760 -14.640  1.00  0.00    -0.544 OA
ENDBRANCH   2   7
ENDBRANCH   1   2
BRANCH   1  10
ATOM     10  C   UNL     1     -15.365 -30.115 -12.673  1.00  0.00     0.041 A 
ATOM     11  C   UNL     1     -14.849 -29.145 -11.843  1.00  0.00     0.134 A 
ATOM     12  N   UNL     1     -15.265 -29.693 -13.942  1.00  0.00    -0.348 N 
ATOM     13  N   UNL     1     -14.410 -28.113 -12.592  1.00  0.00    -0.245 NA
ATOM     14  C   UNL     1     -14.680 -28.483 -13.862  1.00  0.00     0.196 A 
ATOM     15  H   UNL     1     -15.581 -30.187 -14.806  1.00  0.00     0.167 HD
ENDBRANCH   1  10
TORSDOF 4
ENDMDL
MODEL 6
REMARK VINA RESULT:    -4.717      2.231      3.148
REMARK INTER + INTRA:          -5.841
REMARK INTER:                  -5.748
REMARK INTRA:                  -0.093
REMARK UNBOUND:                -0.159
REMARK SMILES [NH3+][C@H](Cc1cnc[nH]1)C(=O)[O-]
REMARK SMILES IDX 3 1 2 2 1 3 9 7 10 8 11 9 4 10 5 11 8 12 6 13 7 14
REMARK H PARENT 1 4 1 5 1 6 8 15
REMARK Flexibility Score: inf
ROOT
ATOM      1  C   UNL     1     -14.922 -34.083 -13.399  1.00  0.00     0.127 C 
ENDROOT
BRANCH   1   2
ATOM      2  C   UNL     1     -15.026 -32.597 -13.797  1.00  0.00     0.233 C 
BRANCH   2   3
ATOM      3  N   UNL     1     -15.773 -32.428 -15.051  1.00  0.00    -0.350 N 
ATOM      4  H   UNL     1     -15.315 -31.701 -15.647  1.00  0.00     0.345 HD
ATOM      5  H   UNL     1     -15.818 -33.328 -15.582  1.00  0.00     0.345 HD
ATOM      6  H   UNL     1     -16.746 -32.104 -14.843  1.00  0.00     0.345 HD
ENDBRANCH   2   3
BRANCH   2   7
ATOM      7  C   UNL     1     -15.692 -31.823 -12.691  1.00  0.00     0.099 C 
ATOM      8  O   UNL     1     -15.712 -32.285 -11.520  1.00  0.00    -0.544 OA
ATOM      9  O   UNL     1     -16.303 -30.603 -12.957  1.00  0.00    -0.544 OA
ENDBRANCH   2   7
ENDBRANCH   1   2
BRANCH   1  10
ATOM     10  C   UNL     1     -14.572 -34.948 -14.573  1.00  0.00     0.041 A 
ATOM     11  C   UNL     1     -15.275 -36.044 -15.020  1.00  0.00     0.134 A 
ATOM     12  N   UNL     1     -13.465 -34.813 -15.320  1.00  0.00    -0.348 N 
ATOM     13  N   UNL     1     -14.617 -36.596 -16.060  1.00  0.00    -0.245 NA
ATOM     14  C   UNL     1     -13.522 -35.819 -16.212  1.00  0.00     0.196 A 
ATOM     15  H   UNL     1     -12.716 -34.093 -15.225  1.00  0.00     0.167 HD
ENDBRANCH   1  10
TORSDOF 4
ENDMDL
MODEL 7
REMARK VINA RESULT:    -4.672      2.952      4.324
REMARK INTER + INTRA:          -5.788
REMARK INTER:                  -5.472
REMARK INTRA:                  -0.316
REMARK UNBOUND:                -0.159
REMARK SMILES [NH3+][C@H](Cc1cnc[nH]1)C(=O)[O-]
REMARK SMILES IDX 3 1 2 2 1 3 9 7 10 8 11 9 4 10 5 11 8 12 6 13 7 14
REMARK H PARENT 1 4 1 5 1 6 8 15
REMARK Flexibility Score: inf
ROOT
ATOM      1  C   UNL     1     -14.910 -28.898 -12.069  1.00  0.00     0.127 C 
ENDROOT
BRANCH   1   2
ATOM      2  C   UNL     1     -14.489 -30.352 -11.773  1.00  0.00     0.233 C 
BRANCH   2   3
ATOM      3  N   UNL     1     -14.180 -30.543 -10.349  1.00  0.00    -0.350 N 
ATOM      4  H   UNL     1     -13.862 -29.641  -9.927  1.00  0.00     0.345 HD
ATOM      5  H   UNL     1     -15.020 -30.888  -9.830  1.00  0.00     0.345 HD
ATOM      6  H   UNL     1     -13.404 -31.236 -10.245  1.00  0.00     0.345 HD
ENDBRANCH   2   3
BRANCH   2   7
ATOM      7  C   UNL     1     -15.588 -31.290 -12.194  1.00  0.00     0.099 C 
ATOM      8  O   UNL     1     -16.370 -31.775 -11.334  1.00  0.00    -0.544 OA
ATOM      9  O   UNL     1     -15.737 -31.642 -13.530  1.00  0.00    -0.544 OA
ENDBRANCH   2   7
ENDBRANCH   1   2
BRANCH   1  10
ATOM     10  C   UNL     1     -14.346 -28.412 -13.371  1.00  0.00     0.041 A 
ATOM     11  C   UNL     1     -13.299 -27.534 -13.533  1.00  0.00     0.134 A 
ATOM     12  N   UNL     1     -14.843 -28.716 -14.580  1.00  0.00    -0.348 N 
ATOM     13  N   UNL     1     -13.124 -27.293 -14.848  1.00  0.00    -0.245 NA
ATOM     14  C   UNL     1     -14.081 -28.030 -15.452  1.00  0.00     0.196 A 
ATOM     15  H   UNL     1     -15.650 -29.341 -14.800  1.00  0.00     0.167 HD
ENDBRANCH   1  10
TORSDOF 4
ENDMDL
MODEL 8
REMARK VINA RESULT:    -4.488      2.938      3.498
REMARK INTER + INTRA:          -5.566
REMARK INTER:                  -5.343
REMARK INTRA:                  -0.223
REMARK UNBOUND:                -0.159
REMARK SMILES [NH3+][C@H](Cc1cnc[nH]1)C(=O)[O-]
REMARK SMILES IDX 3 1 2 2 1 3 9 7 10 8 11 9 4 10 5 11 8 12 6 13 7 14
REMARK H PARENT 1 4 1 5 1 6 8 15
REMARK Flexibility Score: inf
ROOT
ATOM      1  C   UNL     1     -13.808 -29.076 -12.084  1.00  0.00     0.127 C 
ENDROOT
BRANCH   1   2
ATOM      2  C   UNL     1     -14.571 -27.743 -12.221  1.00  0.00     0.233 C 
BRANCH   2   3
ATOM      3  N   UNL     1     -13.658 -26.592 -12.160  1.00  0.00    -0.350 N 
ATOM      4  H   UNL     1     -12.973 -26.720 -11.381  1.00  0.00     0.345 HD
ATOM      5  H   UNL     1     -13.138 -26.483 -13.061  1.00  0.00     0.345 HD
ATOM      6  H   UNL     1     -14.201 -25.719 -11.969  1.00  0.00     0.345 HD
ENDBRANCH   2   3
BRANCH   2   7
ATOM      7  C   UNL     1     -15.332 -27.729 -13.520  1.00  0.00     0.099 C 
ATOM      8  O   UNL     1     -16.552 -28.040 -13.541  1.00  0.00    -0.544 OA
ATOM      9  O   UNL     1     -14.691 -27.391 -14.706  1.00  0.00    -0.544 OA
ENDBRANCH   2   7
ENDBRANCH   1   2
BRANCH   1  10
ATOM     10  C   UNL     1     -14.688 -30.164 -11.543  1.00  0.00     0.041 A 
ATOM     11  C   UNL     1     -14.654 -30.686 -10.270  1.00  0.00     0.134 A 
ATOM     12  N   UNL     1     -15.596 -30.841 -12.261  1.00  0.00    -0.348 N 
ATOM     13  N   UNL     1     -15.553 -31.687 -10.180  1.00  0.00    -0.245 NA
ATOM     14  C   UNL     1     -16.106 -31.750 -11.411  1.00  0.00     0.196 A 
ATOM     15  H   UNL     1     -15.848 -30.702 -13.265  1.00  0.00     0.167 HD
ENDBRANCH   1  10
TORSDOF 4
ENDMDL
MODEL 9
REMARK VINA RESULT:    -4.480      2.678      4.163
REMARK INTER + INTRA:          -5.555
REMARK INTER:                  -5.378
REMARK INTRA:                  -0.177
REMARK UNBOUND:                -0.159
REMARK SMILES [NH3+][C@H](Cc1cnc[nH]1)C(=O)[O-]
REMARK SMILES IDX 3 1 2 2 1 3 9 7 10 8 11 9 4 10 5 11 8 12 6 13 7 14
REMARK H PARENT 1 4 1 5 1 6 8 15
REMARK Flexibility Score: inf
ROOT
ATOM      1  C   UNL     1     -15.320 -30.878 -12.312  1.00  0.00     0.127 C 
ENDROOT
BRANCH   1   2
ATOM      2  C   UNL     1     -15.198 -30.966 -10.777  1.00  0.00     0.233 C 
BRANCH   2   3
ATOM      3  N   UNL     1     -16.171 -31.913 -10.214  1.00  0.00    -0.350 N 
ATOM      4  H   UNL     1     -16.915 -31.395  -9.694  1.00  0.00     0.345 HD
ATOM      5  H   UNL     1     -16.614 -32.484 -10.970  1.00  0.00     0.345 HD
ATOM      6  H   UNL     1     -15.693 -32.552  -9.538  1.00  0.00     0.345 HD
ENDBRANCH   2   3
BRANCH   2   7
ATOM      7  C   UNL     1     -13.799 -31.381 -10.406  1.00  0.00     0.099 C 
ATOM      8  O   UNL     1     -13.590 -32.509  -9.889  1.00  0.00    -0.544 OA
ATOM      9  O   UNL     1     -12.732 -30.515 -10.614  1.00  0.00    -0.544 OA
ENDBRANCH   2   7
ENDBRANCH   1   2
BRANCH   1  10
ATOM     10  C   UNL     1     -15.269 -29.457 -12.791  1.00  0.00     0.041 A 
ATOM     11  C   UNL     1     -15.235 -28.329 -12.004  1.00  0.00     0.134 A 
ATOM     12  N   UNL     1     -15.322 -29.082 -14.078  1.00  0.00    -0.348 N 
ATOM     13  N   UNL     1     -15.254 -27.238 -12.796  1.00  0.00    -0.245 NA
ATOM     14  C   UNL     1     -15.307 -27.737 -14.050  1.00  0.00     0.196 A 
ATOM     15  H   UNL     1     -15.375 -29.697 -14.920  1.00  0.00     0.167 HD
ENDBRANCH   1  10
TORSDOF 4
ENDMDL
