MODEL 1
REMARK VINA RESULT:    -3.284      0.000      0.000
REMARK INTER + INTRA:          -3.572
REMARK INTER:                  -3.572
REMARK INTRA:                   0.000
REMARK UNBOUND:                 0.000
REMARK SMILES [NH3+]CC(=O)[O-]
REMARK SMILES IDX 2 1 1 2 3 6 4 7 5 8
REMARK H PARENT 1 3 1 4 1 5
REMARK Flexibility Score: inf
ROOT
ATOM      1  C   UNL     1     102.547  50.728  47.246  1.00  0.00     0.312 C 
ENDROOT
BRANCH   1   2
ATOM      2  N   UNL     1     102.289  49.491  47.980  1.00  0.00    -0.353 N 
ATOM      3  H   UNL     1     102.505  49.624  48.995  1.00  0.00     0.344 HD
ATOM      4  H   UNL     1     101.289  49.206  47.864  1.00  0.00     0.344 HD
ATOM      5  H   UNL     1     102.902  48.733  47.600  1.00  0.00     0.344 HD
ENDBRANCH   1   2
BRANCH   1   6
ATOM      6  C   UNL     1     101.356  51.633  47.300  1.00  0.00     0.096 C 
ATOM      7  O   UNL     1     101.119  52.309  48.335  1.00  0.00    -0.544 OA
ATOM      8  O   UNL     1     100.535  51.767  46.187  1.00  0.00    -0.544 OA
ENDBRANCH   1   6
TORSDOF 2
ENDMDL
MODEL 2
REMARK VINA RESULT:    -3.169      2.078      2.392
REMARK INTER + INTRA:          -3.447
REMARK INTER:                  -3.447
REMARK INTRA:                   0.000
REMARK UNBOUND:                 0.000
REMARK SMILES [NH3+]CC(=O)[O-]
REMARK SMILES IDX 2 1 1 2 3 6 4 7 5 8
REMARK H PARENT 1 3 1 4 1 5
REMARK Flexibility Score: inf
ROOT
ATOM      1  C   UNL     1     101.561  51.672  47.457  1.00  0.00     0.312 C 
ENDROOT
BRANCH   1   2
ATOM      2  N   UNL     1     100.459  51.366  46.546  1.00  0.00    -0.353 N 
ATOM      3  H   UNL     1     100.345  50.330  46.457  1.00  0.00     0.344 HD
ATOM      4  H   UNL     1      99.571  51.792  46.901  1.00  0.00     0.344 HD
ATOM      5  H   UNL     1     100.673  51.765  45.603  1.00  0.00     0.344 HD
ENDBRANCH   1   2
BRANCH   1   6
ATOM      6  C   UNL     1     101.283  52.930  48.219  1.00  0.00     0.096 C 
ATOM      7  O   UNL     1     101.652  54.043  47.762  1.00  0.00    -0.544 OA
ATOM      8  O   UNL     1     100.571  52.876  49.411  1.00  0.00    -0.544 OA
ENDBRANCH   1   6
TORSDOF 2
ENDMDL
MODEL 3
REMARK VINA RESULT:    -3.158      2.099      2.216
REMARK INTER + INTRA:          -3.435
REMARK INTER:                  -3.435
REMARK INTRA:                   0.000
REMARK UNBOUND:                 0.000
REMARK SMILES [NH3+]CC(=O)[O-]
REMARK SMILES IDX 2 1 1 2 3 6 4 7 5 8
REMARK H PARENT 1 3 1 4 1 5
REMARK Flexibility Score: inf
ROOT
ATOM      1  C   UNL     1     101.574  51.698  47.465  1.00  0.00     0.312 C 
ENDROOT
BRANCH   1   2
ATOM      2  N   UNL     1     100.484  51.367  46.549  1.00  0.00    -0.353 N 
ATOM      3  H   UNL     1      99.927  52.225  46.330  1.00  0.00     0.344 HD
ATOM      4  H   UNL     1     100.869  50.960  45.665  1.00  0.00     0.344 HD
ATOM      5  H   UNL     1      99.858  50.662  47.001  1.00  0.00     0.344 HD
ENDBRANCH   1   2
BRANCH   1   6
ATOM      6  C   UNL     1     101.243  52.922  48.261  1.00  0.00     0.096 C 
ATOM      7  O   UNL     1     100.641  52.818  49.361  1.00  0.00    -0.544 OA
ATOM      8  O   UNL     1     101.644  54.173  47.810  1.00  0.00    -0.544 OA
ENDBRANCH   1   6
TORSDOF 2
ENDMDL
MODEL 4
REMARK VINA RESULT:    -3.071      6.646      6.794
REMARK INTER + INTRA:          -3.340
REMARK INTER:                  -3.340
REMARK INTRA:                   0.000
REMARK UNBOUND:                 0.000
REMARK SMILES [NH3+]CC(=O)[O-]
REMARK SMILES IDX 2 1 1 2 3 6 4 7 5 8
REMARK H PARENT 1 3 1 4 1 5
REMARK Flexibility Score: inf
ROOT
ATOM      1  C   UNL     1      99.500  52.349  52.770  1.00  0.00     0.312 C 
ENDROOT
BRANCH   1   2
ATOM      2  N   UNL     1     100.129  52.833  53.997  1.00  0.00    -0.353 N 
ATOM      3  H   UNL     1     100.395  52.025  54.607  1.00  0.00     0.344 HD
ATOM      4  H   UNL     1     100.979  53.398  53.767  1.00  0.00     0.344 HD
ATOM      5  H   UNL     1      99.451  53.438  54.515  1.00  0.00     0.344 HD
ENDBRANCH   1   2
BRANCH   1   6
ATOM      6  C   UNL     1      98.480  51.298  53.078  1.00  0.00     0.096 C 
ATOM      7  O   UNL     1      98.843  50.130  53.374  1.00  0.00    -0.544 OA
ATOM      8  O   UNL     1      97.129  51.623  53.087  1.00  0.00    -0.544 OA
ENDBRANCH   1   6
TORSDOF 2
ENDMDL
MODEL 5
REMARK VINA RESULT:    -3.030      5.525      5.969
REMARK INTER + INTRA:          -3.296
REMARK INTER:                  -3.296
REMARK INTRA:                   0.000
REMARK UNBOUND:                 0.000
REMARK SMILES [NH3+]CC(=O)[O-]
REMARK SMILES IDX 2 1 1 2 3 6 4 7 5 8
REMARK H PARENT 1 3 1 4 1 5
REMARK Flexibility Score: inf
ROOT
ATOM      1  C   UNL     1      99.447  53.204  52.876  1.00  0.00     0.312 C 
ENDROOT
BRANCH   1   2
ATOM      2  N   UNL     1     100.059  52.504  54.003  1.00  0.00    -0.353 N 
ATOM      3  H   UNL     1     101.095  52.441  53.867  1.00  0.00     0.344 HD
ATOM      4  H   UNL     1      99.849  53.007  54.896  1.00  0.00     0.344 HD
ATOM      5  H   UNL     1      99.667  51.536  54.061  1.00  0.00     0.344 HD
ENDBRANCH   1   2
BRANCH   1   6
ATOM      6  C   UNL     1     100.472  53.998  52.128  1.00  0.00     0.096 C 
ATOM      7  O   UNL     1     101.270  54.748  52.748  1.00  0.00    -0.544 OA
ATOM      8  O   UNL     1     100.578  53.871  50.748  1.00  0.00    -0.544 OA
ENDBRANCH   1   6
TORSDOF 2
ENDMDL
MODEL 6
REMARK VINA RESULT:    -3.017      5.949      6.354
REMARK INTER + INTRA:          -3.281
REMARK INTER:                  -3.281
REMARK INTRA:                   0.000
REMARK UNBOUND:                 0.000
REMARK SMILES [NH3+]CC(=O)[O-]
REMARK SMILES IDX 2 1 1 2 3 6 4 7 5 8
REMARK H PARENT 1 3 1 4 1 5
REMARK Flexibility Score: inf
ROOT
ATOM      1  C   UNL     1      98.630  51.496  52.924  1.00  0.00     0.312 C 
ENDROOT
BRANCH   1   2
ATOM      2  N   UNL     1      97.299  52.058  53.144  1.00  0.00    -0.353 N 
ATOM      3  H   UNL     1      97.305  53.085  52.944  1.00  0.00     0.344 HD
ATOM      4  H   UNL     1      96.601  51.581  52.526  1.00  0.00     0.344 HD
ATOM      5  H   UNL     1      97.024  51.909  54.142  1.00  0.00     0.344 HD
ENDBRANCH   1   2
BRANCH   1   6
ATOM      6  C   UNL     1      99.647  52.586  52.784  1.00  0.00     0.096 C 
ATOM      7  O   UNL     1     100.219  53.055  53.802  1.00  0.00    -0.544 OA
ATOM      8  O   UNL     1      99.999  53.047  51.522  1.00  0.00    -0.544 OA
ENDBRANCH   1   6
TORSDOF 2
ENDMDL
MODEL 7
REMARK VINA RESULT:    -2.966      3.916      4.450
REMARK INTER + INTRA:          -3.226
REMARK INTER:                  -3.226
REMARK INTRA:                   0.000
REMARK UNBOUND:                 0.000
REMARK SMILES [NH3+]CC(=O)[O-]
REMARK SMILES IDX 2 1 1 2 3 6 4 7 5 8
REMARK H PARENT 1 3 1 4 1 5
REMARK Flexibility Score: inf
ROOT
ATOM      1  C   UNL     1     101.992  54.782  49.644  1.00  0.00     0.312 C 
ENDROOT
BRANCH   1   2
ATOM      2  N   UNL     1     101.987  54.808  48.182  1.00  0.00    -0.353 N 
ATOM      3  H   UNL     1     101.052  54.508  47.821  1.00  0.00     0.344 HD
ATOM      4  H   UNL     1     102.206  55.772  47.839  1.00  0.00     0.344 HD
ATOM      5  H   UNL     1     102.715  54.148  47.825  1.00  0.00     0.344 HD
ENDBRANCH   1   2
BRANCH   1   6
ATOM      6  C   UNL     1     100.926  53.866  50.160  1.00  0.00     0.096 C 
ATOM      7  O   UNL     1     100.521  52.904  49.456  1.00  0.00    -0.544 OA
ATOM      8  O   UNL     1     100.416  54.045  51.439  1.00  0.00    -0.544 OA
ENDBRANCH   1   6
TORSDOF 2
ENDMDL
MODEL 8
REMARK VINA RESULT:    -2.920      2.368      2.761
REMARK INTER + INTRA:          -3.176
REMARK INTER:                  -3.176
REMARK INTRA:                   0.000
REMARK UNBOUND:                 0.000
REMARK SMILES [NH3+]CC(=O)[O-]
REMARK SMILES IDX 2 1 1 2 3 6 4 7 5 8
REMARK H PARENT 1 3 1 4 1 5
REMARK Flexibility Score: inf
ROOT
ATOM      1  C   UNL     1     101.217  52.793  48.203  1.00  0.00     0.312 C 
ENDROOT
BRANCH   1   2
ATOM      2  N   UNL     1     101.867  53.997  47.689  1.00  0.00    -0.353 N 
ATOM      3  H   UNL     1     102.245  53.819  46.730  1.00  0.00     0.344 HD
ATOM      4  H   UNL     1     101.184  54.789  47.660  1.00  0.00     0.344 HD
ATOM      5  H   UNL     1     102.658  54.256  48.321  1.00  0.00     0.344 HD
ENDBRANCH   1   2
BRANCH   1   6
ATOM      6  C   UNL     1     101.267  51.692  47.190  1.00  0.00     0.096 C 
ATOM      7  O   UNL     1     100.498  51.712  46.194  1.00  0.00    -0.544 OA
ATOM      8  O   UNL     1     102.199  50.670  47.321  1.00  0.00    -0.544 OA
ENDBRANCH   1   6
TORSDOF 2
ENDMDL
MODEL 9
REMARK VINA RESULT:    -2.772      5.573      5.845
REMARK INTER + INTRA:          -3.015
REMARK INTER:                  -3.015
REMARK INTRA:                   0.000
REMARK UNBOUND:                 0.000
REMARK SMILES [NH3+]CC(=O)[O-]
REMARK SMILES IDX 2 1 1 2 3 6 4 7 5 8
REMARK H PARENT 1 3 1 4 1 5
REMARK Flexibility Score: inf
ROOT
ATOM      1  C   UNL     1     100.820  54.122  50.671  1.00  0.00     0.312 C 
ENDROOT
BRANCH   1   2
ATOM      2  N   UNL     1     101.649  55.125  50.005  1.00  0.00    -0.353 N 
ATOM      3  H   UNL     1     101.044  55.860  49.571  1.00  0.00     0.344 HD
ATOM      4  H   UNL     1     102.303  55.565  50.693  1.00  0.00     0.344 HD
ATOM      5  H   UNL     1     102.210  54.662  49.254  1.00  0.00     0.344 HD
ENDBRANCH   1   2
BRANCH   1   6
ATOM      6  C   UNL     1     100.798  54.353  52.150  1.00  0.00     0.096 C 
ATOM      7  O   UNL     1     101.645  55.115  52.686  1.00  0.00    -0.544 OA
ATOM      8  O   UNL     1      99.810  53.766  52.930  1.00  0.00    -0.544 OA
ENDBRANCH   1   6
TORSDOF 2
ENDMDL
