MODEL 1
REMARK VINA RESULT:    -4.119      0.000      0.000
REMARK INTER + INTRA:          -6.484
REMARK INTER:                  -5.805
REMARK INTRA:                  -0.679
REMARK UNBOUND:                -0.679
REMARK SMILES CCCCCCCCC(=O)[O-]
REMARK SMILES IDX 6 1 7 2 8 3 9 4 10 5 11 6 5 7 4 8 3 9 2 10 1 11
REMARK H PARENT
REMARK Flexibility Score: inf
ROOT
ATOM      1  C   UNL     1      19.306  17.835  -4.986  1.00  0.00     0.000 C 
ENDROOT
BRANCH   1   2
ATOM      2  C   UNL     1      18.887  16.706  -5.940  1.00  0.00     0.006 C 
BRANCH   2   3
ATOM      3  C   UNL     1      19.047  17.101  -7.413  1.00  0.00     0.053 C 
BRANCH   3   4
ATOM      4  C   UNL     1      17.724  17.208  -8.108  1.00  0.00     0.041 C 
ATOM      5  O   UNL     1      16.839  17.991  -7.671  1.00  0.00    -0.550 OA
ATOM      6  O   UNL     1      17.481  16.468  -9.259  1.00  0.00    -0.550 OA
ENDBRANCH   3   4
ENDBRANCH   2   3
ENDBRANCH   1   2
BRANCH   1   7
ATOM      7  C   UNL     1      20.438  18.676  -5.596  1.00  0.00     0.000 C 
BRANCH   7   8
ATOM      8  C   UNL     1      20.227  20.185  -5.395  1.00  0.00    -0.000 C 
BRANCH   8   9
ATOM      9  C   UNL     1      18.811  20.642  -5.787  1.00  0.00    -0.000 C 
BRANCH   9  10
ATOM     10  C   UNL     1      18.671  20.894  -7.296  1.00  0.00    -0.003 C 
ATOM     11  C   UNL     1      19.487  22.096  -7.773  1.00  0.00     0.004 C 
ENDBRANCH   9  10
ENDBRANCH   8   9
ENDBRANCH   7   8
ENDBRANCH   1   7
TORSDOF 7
ENDMDL
MODEL 2
REMARK VINA RESULT:    -3.978      2.606      4.300
REMARK INTER + INTRA:          -6.284
REMARK INTER:                  -5.591
REMARK INTRA:                  -0.693
REMARK UNBOUND:                -0.679
REMARK SMILES CCCCCCCCC(=O)[O-]
REMARK SMILES IDX 6 1 7 2 8 3 9 4 10 5 11 6 5 7 4 8 3 9 2 10 1 11
REMARK H PARENT
REMARK Flexibility Score: inf
ROOT
ATOM      1  C   UNL     1      19.205  19.320  -5.412  1.00  0.00     0.000 C 
ENDROOT
BRANCH   1   2
ATOM      2  C   UNL     1      18.831  20.775  -5.733  1.00  0.00     0.006 C 
BRANCH   2   3
ATOM      3  C   UNL     1      18.675  21.015  -7.241  1.00  0.00     0.053 C 
BRANCH   3   4
ATOM      4  C   UNL     1      19.813  21.813  -7.798  1.00  0.00     0.041 C 
ATOM      5  O   UNL     1      19.885  22.036  -9.036  1.00  0.00    -0.550 OA
ATOM      6  O   UNL     1      20.776  22.342  -6.947  1.00  0.00    -0.550 OA
ENDBRANCH   3   4
ENDBRANCH   2   3
ENDBRANCH   1   2
BRANCH   1   7
ATOM      7  C   UNL     1      20.730  19.147  -5.347  1.00  0.00     0.000 C 
BRANCH   7   8
ATOM      8  C   UNL     1      21.313  18.563  -6.645  1.00  0.00    -0.000 C 
BRANCH   8   9
ATOM      9  C   UNL     1      20.665  17.224  -7.035  1.00  0.00    -0.000 C 
BRANCH   9  10
ATOM     10  C   UNL     1      19.844  17.324  -8.331  1.00  0.00    -0.003 C 
ATOM     11  C   UNL     1      18.365  16.998  -8.119  1.00  0.00     0.004 C 
ENDBRANCH   9  10
ENDBRANCH   8   9
ENDBRANCH   7   8
ENDBRANCH   1   7
TORSDOF 7
ENDMDL
MODEL 3
REMARK VINA RESULT:    -3.977      9.187      9.914
REMARK INTER + INTRA:          -6.283
REMARK INTER:                  -5.656
REMARK INTRA:                  -0.626
REMARK UNBOUND:                -0.679
REMARK SMILES CCCCCCCCC(=O)[O-]
REMARK SMILES IDX 6 1 7 2 8 3 9 4 10 5 11 6 5 7 4 8 3 9 2 10 1 11
REMARK H PARENT
REMARK Flexibility Score: inf
ROOT
ATOM      1  C   UNL     1      25.985  15.181  -9.827  1.00  0.00     0.000 C 
ENDROOT
BRANCH   1   2
ATOM      2  C   UNL     1      27.321  15.212  -9.068  1.00  0.00     0.006 C 
BRANCH   2   3
ATOM      3  C   UNL     1      28.521  14.978  -9.995  1.00  0.00     0.053 C 
BRANCH   3   4
ATOM      4  C   UNL     1      28.777  13.519 -10.216  1.00  0.00     0.041 C 
ATOM      5  O   UNL     1      29.412  13.133 -11.233  1.00  0.00    -0.550 OA
ATOM      6  O   UNL     1      28.344  12.586  -9.280  1.00  0.00    -0.550 OA
ENDBRANCH   3   4
ENDBRANCH   2   3
ENDBRANCH   1   2
BRANCH   1   7
ATOM      7  C   UNL     1      24.944  16.081  -9.144  1.00  0.00     0.000 C 
BRANCH   7   8
ATOM      8  C   UNL     1      24.648  17.356  -9.949  1.00  0.00    -0.000 C 
BRANCH   8   9
ATOM      9  C   UNL     1      25.130  17.262 -11.407  1.00  0.00    -0.000 C 
BRANCH   9  10
ATOM     10  C   UNL     1      26.104  18.391 -11.778  1.00  0.00    -0.003 C 
ATOM     11  C   UNL     1      27.412  17.871 -12.375  1.00  0.00     0.004 C 
ENDBRANCH   9  10
ENDBRANCH   8   9
ENDBRANCH   7   8
ENDBRANCH   1   7
TORSDOF 7
ENDMDL
MODEL 4
REMARK VINA RESULT:    -3.953      2.980      4.489
REMARK INTER + INTRA:          -6.250
REMARK INTER:                  -5.616
REMARK INTRA:                  -0.634
REMARK UNBOUND:                -0.679
REMARK SMILES CCCCCCCCC(=O)[O-]
REMARK SMILES IDX 6 1 7 2 8 3 9 4 10 5 11 6 5 7 4 8 3 9 2 10 1 11
REMARK H PARENT
REMARK Flexibility Score: inf
ROOT
ATOM      1  C   UNL     1      21.303  18.498  -7.189  1.00  0.00     0.000 C 
ENDROOT
BRANCH   1   2
ATOM      2  C   UNL     1      21.179  18.744  -5.678  1.00  0.00     0.006 C 
BRANCH   2   3
ATOM      3  C   UNL     1      20.546  20.105  -5.361  1.00  0.00     0.053 C 
BRANCH   3   4
ATOM      4  C   UNL     1      21.286  21.229  -6.019  1.00  0.00     0.041 C 
ATOM      5  O   UNL     1      22.478  21.478  -5.698  1.00  0.00    -0.550 OA
ATOM      6  O   UNL     1      20.670  21.981  -7.013  1.00  0.00    -0.550 OA
ENDBRANCH   3   4
ENDBRANCH   2   3
ENDBRANCH   1   2
BRANCH   1   7
ATOM      7  C   UNL     1      20.695  17.141  -7.576  1.00  0.00     0.000 C 
BRANCH   7   8
ATOM      8  C   UNL     1      19.296  16.928  -6.975  1.00  0.00    -0.000 C 
BRANCH   8   9
ATOM      9  C   UNL     1      18.181  16.999  -8.032  1.00  0.00    -0.000 C 
BRANCH   9  10
ATOM     10  C   UNL     1      17.092  18.021  -7.669  1.00  0.00    -0.003 C 
ATOM     11  C   UNL     1      17.663  19.398  -7.330  1.00  0.00     0.004 C 
ENDBRANCH   9  10
ENDBRANCH   8   9
ENDBRANCH   7   8
ENDBRANCH   1   7
TORSDOF 7
ENDMDL
MODEL 5
REMARK VINA RESULT:    -3.913      2.048      4.191
REMARK INTER + INTRA:          -6.193
REMARK INTER:                  -5.342
REMARK INTRA:                  -0.851
REMARK UNBOUND:                -0.679
REMARK SMILES CCCCCCCCC(=O)[O-]
REMARK SMILES IDX 6 1 7 2 8 3 9 4 10 5 11 6 5 7 4 8 3 9 2 10 1 11
REMARK H PARENT
REMARK Flexibility Score: inf
ROOT
ATOM      1  C   UNL     1      21.856  18.657  -6.237  1.00  0.00     0.000 C 
ENDROOT
BRANCH   1   2
ATOM      2  C   UNL     1      21.224  20.029  -5.958  1.00  0.00     0.006 C 
BRANCH   2   3
ATOM      3  C   UNL     1      19.793  19.909  -5.418  1.00  0.00     0.053 C 
BRANCH   3   4
ATOM      4  C   UNL     1      18.802  20.590  -6.310  1.00  0.00     0.041 C 
ATOM      5  O   UNL     1      18.953  20.566  -7.561  1.00  0.00    -0.550 OA
ATOM      6  O   UNL     1      17.692  21.223  -5.763  1.00  0.00    -0.550 OA
ENDBRANCH   3   4
ENDBRANCH   2   3
ENDBRANCH   1   2
BRANCH   1   7
ATOM      7  C   UNL     1      21.630  18.235  -7.697  1.00  0.00     0.000 C 
BRANCH   7   8
ATOM      8  C   UNL     1      20.911  16.881  -7.816  1.00  0.00    -0.000 C 
BRANCH   8   9
ATOM      9  C   UNL     1      19.515  17.006  -8.450  1.00  0.00    -0.000 C 
BRANCH   9  10
ATOM     10  C   UNL     1      18.397  17.085  -7.398  1.00  0.00    -0.003 C 
ATOM     11  C   UNL     1      18.802  16.472  -6.058  1.00  0.00     0.004 C 
ENDBRANCH   9  10
ENDBRANCH   8   9
ENDBRANCH   7   8
ENDBRANCH   1   7
TORSDOF 7
ENDMDL
MODEL 6
REMARK VINA RESULT:    -3.907      1.322      2.045
REMARK INTER + INTRA:          -6.184
REMARK INTER:                  -5.573
REMARK INTRA:                  -0.612
REMARK UNBOUND:                -0.679
REMARK SMILES CCCCCCCCC(=O)[O-]
REMARK SMILES IDX 6 1 7 2 8 3 9 4 10 5 11 6 5 7 4 8 3 9 2 10 1 11
REMARK H PARENT
REMARK Flexibility Score: inf
ROOT
ATOM      1  C   UNL     1      21.524  18.698  -6.155  1.00  0.00     0.000 C 
ENDROOT
BRANCH   1   2
ATOM      2  C   UNL     1      20.747  18.121  -7.348  1.00  0.00     0.006 C 
BRANCH   2   3
ATOM      3  C   UNL     1      19.542  17.282  -6.904  1.00  0.00     0.053 C 
BRANCH   3   4
ATOM      4  C   UNL     1      18.287  17.693  -7.610  1.00  0.00     0.041 C 
ATOM      5  O   UNL     1      17.712  16.897  -8.398  1.00  0.00    -0.550 OA
ATOM      6  O   UNL     1      17.731  18.945  -7.371  1.00  0.00    -0.550 OA
ENDBRANCH   3   4
ENDBRANCH   2   3
ENDBRANCH   1   2
BRANCH   1   7
ATOM      7  C   UNL     1      20.876  19.998  -5.655  1.00  0.00     0.000 C 
BRANCH   7   8
ATOM      8  C   UNL     1      21.787  21.222  -5.842  1.00  0.00    -0.000 C 
BRANCH   8   9
ATOM      9  C   UNL     1      21.090  22.369  -6.596  1.00  0.00    -0.000 C 
BRANCH   9  10
ATOM     10  C   UNL     1      19.770  21.929  -7.247  1.00  0.00    -0.003 C 
ATOM     11  C   UNL     1      19.841  21.913  -8.774  1.00  0.00     0.004 C 
ENDBRANCH   9  10
ENDBRANCH   8   9
ENDBRANCH   7   8
ENDBRANCH   1   7
TORSDOF 7
ENDMDL
MODEL 7
REMARK VINA RESULT:    -3.890      2.757      4.506
REMARK INTER + INTRA:          -6.161
REMARK INTER:                  -5.531
REMARK INTRA:                  -0.631
REMARK UNBOUND:                -0.679
REMARK SMILES CCCCCCCCC(=O)[O-]
REMARK SMILES IDX 6 1 7 2 8 3 9 4 10 5 11 6 5 7 4 8 3 9 2 10 1 11
REMARK H PARENT
REMARK Flexibility Score: inf
ROOT
ATOM      1  C   UNL     1      17.736  18.930  -7.369  1.00  0.00     0.000 C 
ENDROOT
BRANCH   1   2
ATOM      2  C   UNL     1      17.873  20.453  -7.215  1.00  0.00     0.006 C 
BRANCH   2   3
ATOM      3  C   UNL     1      19.124  20.845  -6.419  1.00  0.00     0.053 C 
BRANCH   3   4
ATOM      4  C   UNL     1      20.050  21.705  -7.224  1.00  0.00     0.041 C 
ATOM      5  O   UNL     1      19.777  21.981  -8.422  1.00  0.00    -0.550 OA
ATOM      6  O   UNL     1      21.197  22.230  -6.640  1.00  0.00    -0.550 OA
ENDBRANCH   3   4
ENDBRANCH   2   3
ENDBRANCH   1   2
BRANCH   1   7
ATOM      7  C   UNL     1      18.809  18.197  -6.549  1.00  0.00     0.000 C 
BRANCH   7   8
ATOM      8  C   UNL     1      19.238  16.868  -7.192  1.00  0.00    -0.000 C 
BRANCH   8   9
ATOM      9  C   UNL     1      20.744  16.818  -7.499  1.00  0.00    -0.000 C 
BRANCH   9  10
ATOM     10  C   UNL     1      21.360  18.218  -7.653  1.00  0.00    -0.003 C 
ATOM     11  C   UNL     1      22.322  18.568  -6.517  1.00  0.00     0.004 C 
ENDBRANCH   9  10
ENDBRANCH   8   9
ENDBRANCH   7   8
ENDBRANCH   1   7
TORSDOF 7
ENDMDL
MODEL 8
REMARK VINA RESULT:    -3.883      9.042     10.125
REMARK INTER + INTRA:          -6.150
REMARK INTER:                  -5.386
REMARK INTRA:                  -0.764
REMARK UNBOUND:                -0.679
REMARK SMILES CCCCCCCCC(=O)[O-]
REMARK SMILES IDX 6 1 7 2 8 3 9 4 10 5 11 6 5 7 4 8 3 9 2 10 1 11
REMARK H PARENT
REMARK Flexibility Score: inf
ROOT
ATOM      1  C   UNL     1      25.348  15.346 -10.854  1.00  0.00     0.000 C 
ENDROOT
BRANCH   1   2
ATOM      2  C   UNL     1      26.121  15.845 -12.084  1.00  0.00     0.006 C 
BRANCH   2   3
ATOM      3  C   UNL     1      26.837  17.176 -11.820  1.00  0.00     0.053 C 
BRANCH   3   4
ATOM      4  C   UNL     1      25.959  18.351 -12.124  1.00  0.00     0.041 C 
ATOM      5  O   UNL     1      25.493  19.053 -11.188  1.00  0.00    -0.550 OA
ATOM      6  O   UNL     1      25.684  18.691 -13.443  1.00  0.00    -0.550 OA
ENDBRANCH   3   4
ENDBRANCH   2   3
ENDBRANCH   1   2
BRANCH   1   7
ATOM      7  C   UNL     1      26.113  15.665  -9.560  1.00  0.00     0.000 C 
BRANCH   7   8
ATOM      8  C   UNL     1      26.882  14.450  -9.014  1.00  0.00    -0.000 C 
BRANCH   8   9
ATOM      9  C   UNL     1      28.375  14.746  -8.794  1.00  0.00    -0.000 C 
BRANCH   9  10
ATOM     10  C   UNL     1      29.174  14.748 -10.106  1.00  0.00    -0.003 C 
ATOM     11  C   UNL     1      29.125  13.403 -10.830  1.00  0.00     0.004 C 
ENDBRANCH   9  10
ENDBRANCH   8   9
ENDBRANCH   7   8
ENDBRANCH   1   7
TORSDOF 7
ENDMDL
MODEL 9
REMARK VINA RESULT:    -3.840      1.502      2.118
REMARK INTER + INTRA:          -6.090
REMARK INTER:                  -5.373
REMARK INTRA:                  -0.717
REMARK UNBOUND:                -0.679
REMARK SMILES CCCCCCCCC(=O)[O-]
REMARK SMILES IDX 6 1 7 2 8 3 9 4 10 5 11 6 5 7 4 8 3 9 2 10 1 11
REMARK H PARENT
REMARK Flexibility Score: inf
ROOT
ATOM      1  C   UNL     1      21.927  17.730  -7.894  1.00  0.00     0.000 C 
ENDROOT
BRANCH   1   2
ATOM      2  C   UNL     1      20.757  16.787  -7.572  1.00  0.00     0.006 C 
BRANCH   2   3
ATOM      3  C   UNL     1      19.503  17.118  -8.393  1.00  0.00     0.053 C 
BRANCH   3   4
ATOM      4  C   UNL     1      18.266  17.102  -7.549  1.00  0.00     0.041 C 
ATOM      5  O   UNL     1      18.291  16.600  -6.394  1.00  0.00    -0.550 OA
ATOM      6  O   UNL     1      17.091  17.674  -8.024  1.00  0.00    -0.550 OA
ENDBRANCH   3   4
ENDBRANCH   2   3
ENDBRANCH   1   2
BRANCH   1   7
ATOM      7  C   UNL     1      22.280  18.601  -6.680  1.00  0.00     0.000 C 
BRANCH   7   8
ATOM      8  C   UNL     1      21.110  18.739  -5.692  1.00  0.00    -0.000 C 
BRANCH   8   9
ATOM      9  C   UNL     1      20.530  20.164  -5.656  1.00  0.00    -0.000 C 
BRANCH   9  10
ATOM     10  C   UNL     1      18.994  20.175  -5.702  1.00  0.00    -0.003 C 
ATOM     11  C   UNL     1      18.446  20.820  -6.975  1.00  0.00     0.004 C 
ENDBRANCH   9  10
ENDBRANCH   8   9
ENDBRANCH   7   8
ENDBRANCH   1   7
TORSDOF 7
ENDMDL
