MODEL 1
REMARK VINA RESULT:    -5.781      0.000      0.000
REMARK INTER + INTRA:          -7.138
REMARK INTER:                  -6.963
REMARK INTRA:                  -0.175
REMARK UNBOUND:                -0.175
REMARK SMILES O=c1c(O)c(-c2ccc(O)c(O)c2)oc2cc(O)cc(O)c12
REMARK SMILES IDX 5 1 3 2 2 3 1 4 22 5 20 6 19 7 17 8 16 9 15 10 14 11 6 12
REMARK SMILES IDX 7 13 8 14 9 15 13 16 11 17 10 18 12 20 4 22 21 24 18 26
REMARK H PARENT 10 19 12 21 4 23 21 25 18 27
REMARK Flexibility Score: inf
ROOT
ATOM      1  C   UNL     1      69.406   8.807 356.041  1.00  0.00     0.180 A 
ATOM      2  C   UNL     1      68.004   8.724 356.091  1.00  0.00     0.208 A 
ATOM      3  C   UNL     1      67.269   9.858 356.470  1.00  0.00     0.238 A 
ATOM      4  O   UNL     1      66.011   9.800 356.442  1.00  0.00    -0.285 OA
ATOM      5  C   UNL     1      67.945  11.044 356.849  1.00  0.00     0.111 A 
ATOM      6  C   UNL     1      67.302  12.239 357.294  1.00  0.00     0.134 A 
ATOM      7  C   UNL     1      68.070  13.385 357.541  1.00  0.00     0.093 A 
ATOM      8  C   UNL     1      69.459  13.361 357.421  1.00  0.00     0.123 A 
ATOM      9  C   UNL     1      70.101  12.184 357.040  1.00  0.00     0.094 A 
ATOM     10  C   UNL     1      69.361  11.035 356.750  1.00  0.00     0.146 A 
ATOM     11  O   UNL     1      70.012   9.942 356.370  1.00  0.00    -0.452 OA
ENDROOT
BRANCH   1  12
ATOM     12  C   UNL     1      70.250   7.659 355.636  1.00  0.00     0.025 A 
ATOM     13  C   UNL     1      70.174   7.114 354.342  1.00  0.00     0.016 A 
ATOM     14  C   UNL     1      70.997   6.046 353.975  1.00  0.00     0.051 A 
ATOM     15  C   UNL     1      71.917   5.517 354.890  1.00  0.00     0.157 A 
ATOM     16  C   UNL     1      71.188   7.138 356.542  1.00  0.00     0.062 A 
ATOM     17  C   UNL     1      72.015   6.066 356.175  1.00  0.00     0.158 A 
BRANCH  15  18
ATOM     18  O   UNL     1      72.738   4.451 354.528  1.00  0.00    -0.504 OA
ATOM     19  H   UNL     1      73.105   4.359 353.588  1.00  0.00     0.293 HD
ENDBRANCH  15  18
BRANCH  17  20
ATOM     20  O   UNL     1      72.935   5.543 357.081  1.00  0.00    -0.504 OA
ATOM     21  H   UNL     1      72.647   5.189 357.985  1.00  0.00     0.293 HD
ENDBRANCH  17  20
ENDBRANCH   1  12
BRANCH   2  22
ATOM     22  O   UNL     1      67.359   7.523 355.787  1.00  0.00    -0.502 OA
ATOM     23  H   UNL     1      66.578   7.472 355.143  1.00  0.00     0.293 HD
ENDBRANCH   2  22
BRANCH   6  24
ATOM     24  O   UNL     1      65.929  12.348 357.533  1.00  0.00    -0.507 OA
ATOM     25  H   UNL     1      65.510  12.490 358.439  1.00  0.00     0.293 HD
ENDBRANCH   6  24
BRANCH   8  26
ATOM     26  O   UNL     1      70.191  14.515 357.692  1.00  0.00    -0.508 OA
ATOM     27  H   UNL     1      70.167  15.316 357.071  1.00  0.00     0.293 HD
ENDBRANCH   8  26
TORSDOF 6
ENDMDL
MODEL 2
REMARK VINA RESULT:    -5.404      2.757      4.017
REMARK INTER + INTRA:          -6.685
REMARK INTER:                  -6.361
REMARK INTRA:                  -0.323
REMARK UNBOUND:                -0.175
REMARK SMILES O=c1c(O)c(-c2ccc(O)c(O)c2)oc2cc(O)cc(O)c12
REMARK SMILES IDX 5 1 3 2 2 3 1 4 22 5 20 6 19 7 17 8 16 9 15 10 14 11 6 12
REMARK SMILES IDX 7 13 8 14 9 15 13 16 11 17 10 18 12 20 4 22 21 24 18 26
REMARK H PARENT 10 19 12 21 4 23 21 25 18 27
REMARK Flexibility Score: inf
ROOT
ATOM      1  C   UNL     1      68.734   9.562 356.016  1.00  0.00     0.180 A 
ATOM      2  C   UNL     1      68.639  10.793 355.344  1.00  0.00     0.208 A 
ATOM      3  C   UNL     1      69.381  11.887 355.818  1.00  0.00     0.238 A 
ATOM      4  O   UNL     1      69.349  12.965 355.169  1.00  0.00    -0.285 OA
ATOM      5  C   UNL     1      70.165  11.753 356.990  1.00  0.00     0.111 A 
ATOM      6  C   UNL     1      70.922  12.807 357.586  1.00  0.00     0.134 A 
ATOM      7  C   UNL     1      71.745  12.529 358.685  1.00  0.00     0.093 A 
ATOM      8  C   UNL     1      71.789  11.254 359.249  1.00  0.00     0.123 A 
ATOM      9  C   UNL     1      71.012  10.231 358.708  1.00  0.00     0.094 A 
ATOM     10  C   UNL     1      70.210  10.466 357.589  1.00  0.00     0.146 A 
ATOM     11  O   UNL     1      69.503   9.457 357.093  1.00  0.00    -0.452 OA
ENDROOT
BRANCH   1  12
ATOM     12  C   UNL     1      67.995   8.360 355.568  1.00  0.00     0.025 A 
ATOM     13  C   UNL     1      66.696   8.083 356.031  1.00  0.00     0.016 A 
ATOM     14  C   UNL     1      66.009   6.954 355.576  1.00  0.00     0.051 A 
ATOM     15  C   UNL     1      66.603   6.096 354.641  1.00  0.00     0.157 A 
ATOM     16  C   UNL     1      68.576   7.507 354.616  1.00  0.00     0.062 A 
ATOM     17  C   UNL     1      67.887   6.375 354.158  1.00  0.00     0.158 A 
BRANCH  15  18
ATOM     18  O   UNL     1      65.921   4.969 354.186  1.00  0.00    -0.504 OA
ATOM     19  H   UNL     1      64.926   4.991 353.998  1.00  0.00     0.293 HD
ENDBRANCH  15  18
BRANCH  17  20
ATOM     20  O   UNL     1      68.473   5.523 353.223  1.00  0.00    -0.504 OA
ATOM     21  H   UNL     1      67.916   4.900 352.651  1.00  0.00     0.293 HD
ENDBRANCH  17  20
ENDBRANCH   1  12
BRANCH   2  22
ATOM     22  O   UNL     1      67.800  10.926 354.234  1.00  0.00    -0.502 OA
ATOM     23  H   UNL     1      66.979  11.520 354.241  1.00  0.00     0.293 HD
ENDBRANCH   2  22
BRANCH   6  24
ATOM     24  O   UNL     1      70.883  14.137 357.159  1.00  0.00    -0.507 OA
ATOM     25  H   UNL     1      70.195  14.816 357.445  1.00  0.00     0.293 HD
ENDBRANCH   6  24
BRANCH   8  26
ATOM     26  O   UNL     1      72.606  11.019 360.353  1.00  0.00    -0.508 OA
ATOM     27  H   UNL     1      72.245  11.064 361.298  1.00  0.00     0.293 HD
ENDBRANCH   8  26
TORSDOF 6
ENDMDL
MODEL 3
REMARK VINA RESULT:    -5.279      2.308      6.845
REMARK INTER + INTRA:          -6.534
REMARK INTER:                  -6.338
REMARK INTRA:                  -0.196
REMARK UNBOUND:                -0.175
REMARK SMILES O=c1c(O)c(-c2ccc(O)c(O)c2)oc2cc(O)cc(O)c12
REMARK SMILES IDX 5 1 3 2 2 3 1 4 22 5 20 6 19 7 17 8 16 9 15 10 14 11 6 12
REMARK SMILES IDX 7 13 8 14 9 15 13 16 11 17 10 18 12 20 4 22 21 24 18 26
REMARK H PARENT 10 19 12 21 4 23 21 25 18 27
REMARK Flexibility Score: inf
ROOT
ATOM      1  C   UNL     1      69.044   7.904 355.198  1.00  0.00     0.180 A 
ATOM      2  C   UNL     1      67.691   7.625 354.941  1.00  0.00     0.208 A 
ATOM      3  C   UNL     1      67.362   6.496 354.175  1.00  0.00     0.238 A 
ATOM      4  O   UNL     1      66.147   6.210 354.011  1.00  0.00    -0.285 OA
ATOM      5  C   UNL     1      68.391   5.692 353.626  1.00  0.00     0.111 A 
ATOM      6  C   UNL     1      68.175   4.550 352.796  1.00  0.00     0.134 A 
ATOM      7  C   UNL     1      69.268   3.769 352.399  1.00  0.00     0.093 A 
ATOM      8  C   UNL     1      70.571   4.122 352.746  1.00  0.00     0.123 A 
ATOM      9  C   UNL     1      70.798   5.266 353.510  1.00  0.00     0.094 A 
ATOM     10  C   UNL     1      69.727   6.045 353.954  1.00  0.00     0.146 A 
ATOM     11  O   UNL     1      69.986   7.114 354.698  1.00  0.00    -0.452 OA
ENDROOT
BRANCH   1  12
ATOM     12  C   UNL     1      69.469   9.067 356.010  1.00  0.00     0.025 A 
ATOM     13  C   UNL     1      70.087   8.900 357.263  1.00  0.00     0.016 A 
ATOM     14  C   UNL     1      70.500  10.012 358.001  1.00  0.00     0.051 A 
ATOM     15  C   UNL     1      70.316  11.305 357.493  1.00  0.00     0.157 A 
ATOM     16  C   UNL     1      69.305  10.364 355.497  1.00  0.00     0.062 A 
ATOM     17  C   UNL     1      69.720  11.481 356.237  1.00  0.00     0.158 A 
BRANCH  15  18
ATOM     18  O   UNL     1      70.725  12.416 358.227  1.00  0.00    -0.504 OA
ATOM     19  H   UNL     1      71.472  12.355 358.910  1.00  0.00     0.293 HD
ENDBRANCH  15  18
BRANCH  17  20
ATOM     20  O   UNL     1      69.544  12.768 355.731  1.00  0.00    -0.504 OA
ATOM     21  H   UNL     1      70.300  13.442 355.722  1.00  0.00     0.293 HD
ENDBRANCH  17  20
ENDBRANCH   1  12
BRANCH   2  22
ATOM     22  O   UNL     1      66.693   8.473 355.428  1.00  0.00    -0.502 OA
ATOM     23  H   UNL     1      66.595   9.433 355.116  1.00  0.00     0.293 HD
ENDBRANCH   2  22
BRANCH   6  24
ATOM     24  O   UNL     1      66.922   4.156 352.316  1.00  0.00    -0.507 OA
ATOM     25  H   UNL     1      66.376   3.394 352.686  1.00  0.00     0.293 HD
ENDBRANCH   6  24
BRANCH   8  26
ATOM     26  O   UNL     1      71.635   3.331 352.317  1.00  0.00    -0.508 OA
ATOM     27  H   UNL     1      72.165   2.761 352.965  1.00  0.00     0.293 HD
ENDBRANCH   8  26
TORSDOF 6
ENDMDL
MODEL 4
REMARK VINA RESULT:    -5.231      1.657      6.639
REMARK INTER + INTRA:          -6.476
REMARK INTER:                  -6.146
REMARK INTRA:                  -0.330
REMARK UNBOUND:                -0.175
REMARK SMILES O=c1c(O)c(-c2ccc(O)c(O)c2)oc2cc(O)cc(O)c12
REMARK SMILES IDX 5 1 3 2 2 3 1 4 22 5 20 6 19 7 17 8 16 9 15 10 14 11 6 12
REMARK SMILES IDX 7 13 8 14 9 15 13 16 11 17 10 18 12 20 4 22 21 24 18 26
REMARK H PARENT 10 19 12 21 4 23 21 25 18 27
REMARK Flexibility Score: inf
ROOT
ATOM      1  C   UNL     1      69.430   9.299 356.742  1.00  0.00     0.180 A 
ATOM      2  C   UNL     1      68.391   9.012 355.840  1.00  0.00     0.208 A 
ATOM      3  C   UNL     1      68.520   7.910 354.981  1.00  0.00     0.238 A 
ATOM      4  O   UNL     1      67.556   7.615 354.228  1.00  0.00    -0.285 OA
ATOM      5  C   UNL     1      69.710   7.141 354.994  1.00  0.00     0.111 A 
ATOM      6  C   UNL     1      69.968   6.029 354.135  1.00  0.00     0.134 A 
ATOM      7  C   UNL     1      71.138   5.278 354.312  1.00  0.00     0.093 A 
ATOM      8  C   UNL     1      72.086   5.635 355.270  1.00  0.00     0.123 A 
ATOM      9  C   UNL     1      71.869   6.751 356.077  1.00  0.00     0.094 A 
ATOM     10  C   UNL     1      70.696   7.498 355.951  1.00  0.00     0.146 A 
ATOM     11  O   UNL     1      70.519   8.541 356.755  1.00  0.00    -0.452 OA
ENDROOT
BRANCH   1  12
ATOM     12  C   UNL     1      69.360  10.434 357.690  1.00  0.00     0.025 A 
ATOM     13  C   UNL     1      68.738  10.305 358.945  1.00  0.00     0.016 A 
ATOM     14  C   UNL     1      68.705  11.385 359.832  1.00  0.00     0.051 A 
ATOM     15  C   UNL     1      69.305  12.602 359.485  1.00  0.00     0.157 A 
ATOM     16  C   UNL     1      69.977  11.651 357.356  1.00  0.00     0.062 A 
ATOM     17  C   UNL     1      69.946  12.735 358.246  1.00  0.00     0.158 A 
BRANCH  15  18
ATOM     18  O   UNL     1      69.273  13.681 360.367  1.00  0.00    -0.504 OA
ATOM     19  H   UNL     1      69.951  13.776 361.114  1.00  0.00     0.293 HD
ENDBRANCH  15  18
BRANCH  17  20
ATOM     20  O   UNL     1      70.548  13.945 357.906  1.00  0.00    -0.504 OA
ATOM     21  H   UNL     1      71.548  14.019 357.765  1.00  0.00     0.293 HD
ENDBRANCH  17  20
ENDBRANCH   1  12
BRANCH   2  22
ATOM     22  O   UNL     1      67.258   9.828 355.790  1.00  0.00    -0.502 OA
ATOM     23  H   UNL     1      66.321   9.467 355.926  1.00  0.00     0.293 HD
ENDBRANCH   2  22
BRANCH   6  24
ATOM     24  O   UNL     1      69.131   5.639 353.086  1.00  0.00    -0.507 OA
ATOM     25  H   UNL     1      68.130   5.543 353.151  1.00  0.00     0.293 HD
ENDBRANCH   6  24
BRANCH   8  26
ATOM     26  O   UNL     1      73.245   4.875 355.405  1.00  0.00    -0.508 OA
ATOM     27  H   UNL     1      73.371   4.005 354.900  1.00  0.00     0.293 HD
ENDBRANCH   8  26
TORSDOF 6
ENDMDL
MODEL 5
REMARK VINA RESULT:    -5.212      7.272      9.030
REMARK INTER + INTRA:          -6.453
REMARK INTER:                  -6.439
REMARK INTRA:                  -0.015
REMARK UNBOUND:                -0.175
REMARK SMILES O=c1c(O)c(-c2ccc(O)c(O)c2)oc2cc(O)cc(O)c12
REMARK SMILES IDX 5 1 3 2 2 3 1 4 22 5 20 6 19 7 17 8 16 9 15 10 14 11 6 12
REMARK SMILES IDX 7 13 8 14 9 15 13 16 11 17 10 18 12 20 4 22 21 24 18 26
REMARK H PARENT 10 19 12 21 4 23 21 25 18 27
REMARK Flexibility Score: inf
ROOT
ATOM      1  C   UNL     1      73.933  11.780 361.643  1.00  0.00     0.180 A 
ATOM      2  C   UNL     1      72.547  11.627 361.476  1.00  0.00     0.208 A 
ATOM      3  C   UNL     1      71.784  11.121 362.541  1.00  0.00     0.238 A 
ATOM      4  O   UNL     1      70.534  11.056 362.412  1.00  0.00    -0.285 OA
ATOM      5  C   UNL     1      72.425  10.721 363.739  1.00  0.00     0.111 A 
ATOM      6  C   UNL     1      71.758  10.152 364.867  1.00  0.00     0.134 A 
ATOM      7  C   UNL     1      72.481   9.892 366.038  1.00  0.00     0.093 A 
ATOM      8  C   UNL     1      73.855  10.120 366.102  1.00  0.00     0.123 A 
ATOM      9  C   UNL     1      74.526  10.624 364.989  1.00  0.00     0.094 A 
ATOM     10  C   UNL     1      73.827  10.928 363.819  1.00  0.00     0.146 A 
ATOM     11  O   UNL     1      74.502  11.428 362.789  1.00  0.00    -0.452 OA
ENDROOT
BRANCH   1  12
ATOM     12  C   UNL     1      74.801  12.322 360.572  1.00  0.00     0.025 A 
ATOM     13  C   UNL     1      75.913  11.604 360.095  1.00  0.00     0.016 A 
ATOM     14  C   UNL     1      76.703  12.126 359.068  1.00  0.00     0.051 A 
ATOM     15  C   UNL     1      76.387  13.363 358.492  1.00  0.00     0.157 A 
ATOM     16  C   UNL     1      74.477  13.552 359.977  1.00  0.00     0.062 A 
ATOM     17  C   UNL     1      75.270  14.076 358.945  1.00  0.00     0.158 A 
BRANCH  15  18
ATOM     18  O   UNL     1      77.174  13.886 357.468  1.00  0.00    -0.504 OA
ATOM     19  H   UNL     1      76.842  14.638 356.876  1.00  0.00     0.293 HD
ENDBRANCH  15  18
BRANCH  17  20
ATOM     20  O   UNL     1      74.953  15.304 358.367  1.00  0.00    -0.504 OA
ATOM     21  H   UNL     1      75.670  15.918 357.999  1.00  0.00     0.293 HD
ENDBRANCH  17  20
ENDBRANCH   1  12
BRANCH   2  22
ATOM     22  O   UNL     1      71.943  11.957 360.259  1.00  0.00    -0.502 OA
ATOM     23  H   UNL     1      72.387  12.563 359.579  1.00  0.00     0.293 HD
ENDBRANCH   2  22
BRANCH   6  24
ATOM     24  O   UNL     1      70.405   9.801 364.881  1.00  0.00    -0.507 OA
ATOM     25  H   UNL     1      69.752   9.985 364.135  1.00  0.00     0.293 HD
ENDBRANCH   6  24
BRANCH   8  26
ATOM     26  O   UNL     1      74.545   9.834 367.279  1.00  0.00    -0.508 OA
ATOM     27  H   UNL     1      74.524   8.910 367.693  1.00  0.00     0.293 HD
ENDBRANCH   8  26
TORSDOF 6
ENDMDL
MODEL 6
REMARK VINA RESULT:    -5.157      2.172      3.303
REMARK INTER + INTRA:          -6.388
REMARK INTER:                  -6.315
REMARK INTRA:                  -0.072
REMARK UNBOUND:                -0.175
REMARK SMILES O=c1c(O)c(-c2ccc(O)c(O)c2)oc2cc(O)cc(O)c12
REMARK SMILES IDX 5 1 3 2 2 3 1 4 22 5 20 6 19 7 17 8 16 9 15 10 14 11 6 12
REMARK SMILES IDX 7 13 8 14 9 15 13 16 11 17 10 18 12 20 4 22 21 24 18 26
REMARK H PARENT 10 19 12 21 4 23 21 25 18 27
REMARK Flexibility Score: inf
ROOT
ATOM      1  C   UNL     1      69.695   8.118 355.294  1.00  0.00     0.180 A 
ATOM      2  C   UNL     1      70.274   8.189 356.572  1.00  0.00     0.208 A 
ATOM      3  C   UNL     1      70.223   9.403 357.276  1.00  0.00     0.238 A 
ATOM      4  O   UNL     1      70.678   9.440 358.449  1.00  0.00    -0.285 OA
ATOM      5  C   UNL     1      69.643  10.545 356.671  1.00  0.00     0.111 A 
ATOM      6  C   UNL     1      69.577  11.838 357.274  1.00  0.00     0.134 A 
ATOM      7  C   UNL     1      68.884  12.868 356.624  1.00  0.00     0.093 A 
ATOM      8  C   UNL     1      68.313  12.671 355.368  1.00  0.00     0.123 A 
ATOM      9  C   UNL     1      68.419  11.427 354.746  1.00  0.00     0.094 A 
ATOM     10  C   UNL     1      69.070  10.370 355.384  1.00  0.00     0.146 A 
ATOM     11  O   UNL     1      69.129   9.196 354.766  1.00  0.00    -0.452 OA
ENDROOT
BRANCH   1  12
ATOM     12  C   UNL     1      69.695   6.870 354.497  1.00  0.00     0.025 A 
ATOM     13  C   UNL     1      70.892   6.200 354.184  1.00  0.00     0.016 A 
ATOM     14  C   UNL     1      70.865   5.011 353.450  1.00  0.00     0.051 A 
ATOM     15  C   UNL     1      69.644   4.467 353.031  1.00  0.00     0.157 A 
ATOM     16  C   UNL     1      68.473   6.309 354.092  1.00  0.00     0.062 A 
ATOM     17  C   UNL     1      68.445   5.115 353.356  1.00  0.00     0.158 A 
BRANCH  15  18
ATOM     18  O   UNL     1      69.614   3.282 352.298  1.00  0.00    -0.504 OA
ATOM     19  H   UNL     1      69.800   3.269 351.303  1.00  0.00     0.293 HD
ENDBRANCH  15  18
BRANCH  17  20
ATOM     20  O   UNL     1      67.231   4.568 352.944  1.00  0.00    -0.504 OA
ATOM     21  H   UNL     1      66.852   4.751 352.023  1.00  0.00     0.293 HD
ENDBRANCH  17  20
ENDBRANCH   1  12
BRANCH   2  22
ATOM     22  O   UNL     1      70.909   7.072 357.121  1.00  0.00    -0.502 OA
ATOM     23  H   UNL     1      70.777   6.136 356.753  1.00  0.00     0.293 HD
ENDBRANCH   2  22
BRANCH   6  24
ATOM     24  O   UNL     1      70.189  12.170 358.486  1.00  0.00    -0.507 OA
ATOM     25  H   UNL     1      70.968  11.676 358.894  1.00  0.00     0.293 HD
ENDBRANCH   6  24
BRANCH   8  26
ATOM     26  O   UNL     1      67.647  13.724 354.743  1.00  0.00    -0.508 OA
ATOM     27  H   UNL     1      67.370  14.553 355.255  1.00  0.00     0.293 HD
ENDBRANCH   8  26
TORSDOF 6
ENDMDL
MODEL 7
REMARK VINA RESULT:    -5.027      7.157      9.223
REMARK INTER + INTRA:          -6.230
REMARK INTER:                  -5.998
REMARK INTRA:                  -0.232
REMARK UNBOUND:                -0.175
REMARK SMILES O=c1c(O)c(-c2ccc(O)c(O)c2)oc2cc(O)cc(O)c12
REMARK SMILES IDX 5 1 3 2 2 3 1 4 22 5 20 6 19 7 17 8 16 9 15 10 14 11 6 12
REMARK SMILES IDX 7 13 8 14 9 15 13 16 11 17 10 18 12 20 4 22 21 24 18 26
REMARK H PARENT 10 19 12 21 4 23 21 25 18 27
REMARK Flexibility Score: inf
ROOT
ATOM      1  C   UNL     1      75.502  13.395 360.097  1.00  0.00     0.180 A 
ATOM      2  C   UNL     1      74.429  13.658 359.228  1.00  0.00     0.208 A 
ATOM      3  C   UNL     1      73.142  13.227 359.586  1.00  0.00     0.238 A 
ATOM      4  O   UNL     1      72.174  13.530 358.841  1.00  0.00    -0.285 OA
ATOM      5  C   UNL     1      72.952  12.488 360.780  1.00  0.00     0.111 A 
ATOM      6  C   UNL     1      71.699  11.962 361.219  1.00  0.00     0.134 A 
ATOM      7  C   UNL     1      71.613  11.338 362.470  1.00  0.00     0.093 A 
ATOM      8  C   UNL     1      72.743  11.165 363.268  1.00  0.00     0.123 A 
ATOM      9  C   UNL     1      73.982  11.626 362.825  1.00  0.00     0.094 A 
ATOM     10  C   UNL     1      74.094  12.286 361.599  1.00  0.00     0.146 A 
ATOM     11  O   UNL     1      75.289  12.729 361.225  1.00  0.00    -0.452 OA
ENDROOT
BRANCH   1  12
ATOM     12  C   UNL     1      76.885  13.832 359.796  1.00  0.00     0.025 A 
ATOM     13  C   UNL     1      77.246  15.191 359.817  1.00  0.00     0.016 A 
ATOM     14  C   UNL     1      78.562  15.577 359.553  1.00  0.00     0.051 A 
ATOM     15  C   UNL     1      79.540  14.611 359.279  1.00  0.00     0.157 A 
ATOM     16  C   UNL     1      77.873  12.867 359.541  1.00  0.00     0.062 A 
ATOM     17  C   UNL     1      79.196  13.253 359.277  1.00  0.00     0.158 A 
BRANCH  15  18
ATOM     18  O   UNL     1      80.854  14.993 359.014  1.00  0.00    -0.504 OA
ATOM     19  H   UNL     1      81.379  14.589 358.247  1.00  0.00     0.293 HD
ENDBRANCH  15  18
BRANCH  17  20
ATOM     20  O   UNL     1      80.171  12.294 359.011  1.00  0.00    -0.504 OA
ATOM     21  H   UNL     1      80.410  12.029 358.063  1.00  0.00     0.293 HD
ENDBRANCH  17  20
ENDBRANCH   1  12
BRANCH   2  22
ATOM     22  O   UNL     1      74.650  14.322 358.019  1.00  0.00    -0.502 OA
ATOM     23  H   UNL     1      75.557  14.692 357.758  1.00  0.00     0.293 HD
ENDBRANCH   2  22
BRANCH   6  24
ATOM     24  O   UNL     1      70.525  12.000 360.462  1.00  0.00    -0.507 OA
ATOM     25  H   UNL     1      70.236  11.291 359.806  1.00  0.00     0.293 HD
ENDBRANCH   6  24
BRANCH   8  26
ATOM     26  O   UNL     1      72.623  10.524 364.500  1.00  0.00    -0.508 OA
ATOM     27  H   UNL     1      71.725  10.420 364.958  1.00  0.00     0.293 HD
ENDBRANCH   8  26
TORSDOF 6
ENDMDL
MODEL 8
REMARK VINA RESULT:    -4.954      6.761      8.865
REMARK INTER + INTRA:          -6.143
REMARK INTER:                  -5.812
REMARK INTRA:                  -0.330
REMARK UNBOUND:                -0.175
REMARK SMILES O=c1c(O)c(-c2ccc(O)c(O)c2)oc2cc(O)cc(O)c12
REMARK SMILES IDX 5 1 3 2 2 3 1 4 22 5 20 6 19 7 17 8 16 9 15 10 14 11 6 12
REMARK SMILES IDX 7 13 8 14 9 15 13 16 11 17 10 18 12 20 4 22 21 24 18 26
REMARK H PARENT 10 19 12 21 4 23 21 25 18 27
REMARK Flexibility Score: inf
ROOT
ATOM      1  C   UNL     1      72.940  11.712 362.669  1.00  0.00     0.180 A 
ATOM      2  C   UNL     1      73.512  12.861 362.098  1.00  0.00     0.208 A 
ATOM      3  C   UNL     1      73.134  13.237 360.800  1.00  0.00     0.238 A 
ATOM      4  O   UNL     1      73.594  14.307 360.323  1.00  0.00    -0.285 OA
ATOM      5  C   UNL     1      72.232  12.428 360.066  1.00  0.00     0.111 A 
ATOM      6  C   UNL     1      71.814  12.688 358.725  1.00  0.00     0.134 A 
ATOM      7  C   UNL     1      70.835  11.876 358.138  1.00  0.00     0.093 A 
ATOM      8  C   UNL     1      70.307  10.778 358.817  1.00  0.00     0.123 A 
ATOM      9  C   UNL     1      70.748  10.483 360.106  1.00  0.00     0.094 A 
ATOM     10  C   UNL     1      71.695  11.295 360.733  1.00  0.00     0.146 A 
ATOM     11  O   UNL     1      72.072  10.991 361.970  1.00  0.00    -0.452 OA
ENDROOT
BRANCH   1  12
ATOM     12  C   UNL     1      73.277  11.260 364.039  1.00  0.00     0.025 A 
ATOM     13  C   UNL     1      72.530  11.681 365.154  1.00  0.00     0.016 A 
ATOM     14  C   UNL     1      72.852  11.223 366.434  1.00  0.00     0.051 A 
ATOM     15  C   UNL     1      73.914  10.329 366.617  1.00  0.00     0.157 A 
ATOM     16  C   UNL     1      74.327  10.348 364.226  1.00  0.00     0.062 A 
ATOM     17  C   UNL     1      74.651   9.887 365.511  1.00  0.00     0.158 A 
BRANCH  15  18
ATOM     18  O   UNL     1      74.239   9.871 367.893  1.00  0.00    -0.504 OA
ATOM     19  H   UNL     1      75.080   9.332 368.065  1.00  0.00     0.293 HD
ENDBRANCH  15  18
BRANCH  17  20
ATOM     20  O   UNL     1      75.703   8.992 365.695  1.00  0.00    -0.504 OA
ATOM     21  H   UNL     1      76.315   8.728 364.932  1.00  0.00     0.293 HD
ENDBRANCH  17  20
ENDBRANCH   1  12
BRANCH   2  22
ATOM     22  O   UNL     1      74.458  13.604 362.810  1.00  0.00    -0.502 OA
ATOM     23  H   UNL     1      74.393  13.751 363.810  1.00  0.00     0.293 HD
ENDBRANCH   2  22
BRANCH   6  24
ATOM     24  O   UNL     1      72.341  13.704 357.923  1.00  0.00    -0.507 OA
ATOM     25  H   UNL     1      72.967  13.562 357.147  1.00  0.00     0.293 HD
ENDBRANCH   6  24
BRANCH   8  26
ATOM     26  O   UNL     1      69.348   9.982 358.194  1.00  0.00    -0.508 OA
ATOM     27  H   UNL     1      68.881  10.280 357.346  1.00  0.00     0.293 HD
ENDBRANCH   8  26
TORSDOF 6
ENDMDL
MODEL 9
REMARK VINA RESULT:    -4.835      4.687      7.021
REMARK INTER + INTRA:          -6.000
REMARK INTER:                  -5.686
REMARK INTRA:                  -0.314
REMARK UNBOUND:                -0.175
REMARK SMILES O=c1c(O)c(-c2ccc(O)c(O)c2)oc2cc(O)cc(O)c12
REMARK SMILES IDX 5 1 3 2 2 3 1 4 22 5 20 6 19 7 17 8 16 9 15 10 14 11 6 12
REMARK SMILES IDX 7 13 8 14 9 15 13 16 11 17 10 18 12 20 4 22 21 24 18 26
REMARK H PARENT 10 19 12 21 4 23 21 25 18 27
REMARK Flexibility Score: inf
ROOT
ATOM      1  C   UNL     1      68.131  12.625 353.504  1.00  0.00     0.180 A 
ATOM      2  C   UNL     1      67.783  11.264 353.543  1.00  0.00     0.208 A 
ATOM      3  C   UNL     1      68.245  10.473 354.606  1.00  0.00     0.238 A 
ATOM      4  O   UNL     1      67.869   9.273 354.675  1.00  0.00    -0.285 OA
ATOM      5  C   UNL     1      69.096  11.037 355.588  1.00  0.00     0.111 A 
ATOM      6  C   UNL     1      69.660  10.318 356.685  1.00  0.00     0.134 A 
ATOM      7  C   UNL     1      70.403  11.007 357.653  1.00  0.00     0.093 A 
ATOM      8  C   UNL     1      70.655  12.372 357.531  1.00  0.00     0.123 A 
ATOM      9  C   UNL     1      70.154  13.074 356.435  1.00  0.00     0.094 A 
ATOM     10  C   UNL     1      69.379  12.424 355.473  1.00  0.00     0.146 A 
ATOM     11  O   UNL     1      68.903  13.135 354.456  1.00  0.00    -0.452 OA
ENDROOT
BRANCH   1  12
ATOM     12  C   UNL     1      67.670  13.527 352.424  1.00  0.00     0.025 A 
ATOM     13  C   UNL     1      66.556  14.368 352.597  1.00  0.00     0.016 A 
ATOM     14  C   UNL     1      66.154  15.227 351.571  1.00  0.00     0.051 A 
ATOM     15  C   UNL     1      66.865  15.269 350.365  1.00  0.00     0.157 A 
ATOM     16  C   UNL     1      68.391  13.588 351.221  1.00  0.00     0.062 A 
ATOM     17  C   UNL     1      67.988  14.451 350.191  1.00  0.00     0.158 A 
BRANCH  15  18
ATOM     18  O   UNL     1      66.466  16.124 349.340  1.00  0.00    -0.504 OA
ATOM     19  H   UNL     1      66.755  17.095 349.316  1.00  0.00     0.293 HD
ENDBRANCH  15  18
BRANCH  17  20
ATOM     20  O   UNL     1      68.699  14.499 348.993  1.00  0.00    -0.504 OA
ATOM     21  H   UNL     1      68.586  15.265 348.340  1.00  0.00     0.293 HD
ENDBRANCH  17  20
ENDBRANCH   1  12
BRANCH   2  22
ATOM     22  O   UNL     1      67.005  10.708 352.524  1.00  0.00    -0.502 OA
ATOM     23  H   UNL     1      67.315   9.915 351.974  1.00  0.00     0.293 HD
ENDBRANCH   2  22
BRANCH   6  24
ATOM     24  O   UNL     1      69.546   8.935 356.857  1.00  0.00    -0.507 OA
ATOM     25  H   UNL     1      70.215   8.255 356.530  1.00  0.00     0.293 HD
ENDBRANCH   6  24
BRANCH   8  26
ATOM     26  O   UNL     1      71.412  13.021 358.504  1.00  0.00    -0.508 OA
ATOM     27  H   UNL     1      72.340  13.375 358.305  1.00  0.00     0.293 HD
ENDBRANCH   8  26
TORSDOF 6
ENDMDL
