MODEL 1
REMARK VINA RESULT:    -6.693      0.000      0.000
REMARK INTER + INTRA:         -10.909
REMARK INTER:                  -9.823
REMARK INTRA:                  -1.086
REMARK UNBOUND:                -1.086
REMARK SMILES O=c1c(O[C@H]2O[C@@H](CO)[C@H](O)[C@H](O)[C@@H]2O)c(-c2ccc(O)c(O)c2)oc2cc(O)cc(O)c12
REMARK SMILES IDX 4 1 3 2 16 3 25 4 2 5 26 6 1 7 33 8 27 9 31 10 28 11 30 12
REMARK SMILES IDX 17 13 18 14 19 15 20 16 24 17 22 18 21 19 23 21 32 23 29 25
REMARK SMILES IDX 5 27 14 28 6 29 12 30 7 31 10 32 15 33 13 35 8 37 9 38 11 40
REMARK H PARENT 21 20 23 22 32 24 29 26 15 34 13 36 9 39 11 41
REMARK Flexibility Score: inf
ROOT
ATOM      1  O   UNL     1      16.540  -2.878 -13.459  1.00  0.00    -0.454 OA
ENDROOT
BRANCH   1   2
ATOM      2  C   UNL     1      17.243  -2.750 -14.677  1.00  0.00     0.214 A 
ATOM      3  C   UNL     1      17.541  -3.926 -15.398  1.00  0.00     0.180 A 
ATOM      4  O   UNL     1      18.115  -3.850 -16.594  1.00  0.00    -0.452 OA
ATOM      5  C   UNL     1      17.649  -1.514 -15.223  1.00  0.00     0.239 A 
ATOM      6  C   UNL     1      18.465  -2.705 -17.163  1.00  0.00     0.146 A 
ATOM      7  O   UNL     1      17.491  -0.449 -14.572  1.00  0.00    -0.285 OA
ATOM      8  C   UNL     1      18.255  -1.477 -16.497  1.00  0.00     0.111 A 
ATOM      9  C   UNL     1      19.054  -2.729 -18.431  1.00  0.00     0.094 A 
ATOM     10  C   UNL     1      18.654  -0.274 -17.131  1.00  0.00     0.134 A 
ATOM     11  C   UNL     1      19.441  -1.539 -19.053  1.00  0.00     0.123 A 
ATOM     12  C   UNL     1      19.242  -0.319 -18.403  1.00  0.00     0.093 A 
BRANCH   3  13
ATOM     13  C   UNL     1      17.206  -5.268 -14.875  1.00  0.00     0.025 A 
ATOM     14  C   UNL     1      18.073  -5.893 -13.966  1.00  0.00     0.016 A 
ATOM     15  C   UNL     1      17.763  -7.151 -13.444  1.00  0.00     0.051 A 
ATOM     16  C   UNL     1      16.574  -7.796 -13.810  1.00  0.00     0.157 A 
ATOM     17  C   UNL     1      16.005  -5.910 -15.227  1.00  0.00     0.062 A 
ATOM     18  C   UNL     1      15.689  -7.168 -14.702  1.00  0.00     0.158 A 
BRANCH  16  19
ATOM     19  O   UNL     1      16.269  -9.052 -13.288  1.00  0.00    -0.504 OA
ATOM     20  H   UNL     1      15.530  -9.622 -13.679  1.00  0.00     0.293 HD
ENDBRANCH  16  19
BRANCH  18  21
ATOM     21  O   UNL     1      14.491  -7.776 -15.076  1.00  0.00    -0.504 OA
ATOM     22  H   UNL     1      14.410  -8.780 -15.191  1.00  0.00     0.293 HD
ENDBRANCH  18  21
ENDBRANCH   3  13
BRANCH  10  23
ATOM     23  O   UNL     1      18.469   0.963 -16.510  1.00  0.00    -0.507 OA
ATOM     24  H   UNL     1      17.602   1.478 -16.596  1.00  0.00     0.293 HD
ENDBRANCH  10  23
BRANCH  11  25
ATOM     25  O   UNL     1      20.025  -1.555 -20.318  1.00  0.00    -0.508 OA
ATOM     26  H   UNL     1      20.448  -2.395 -20.695  1.00  0.00     0.293 HD
ENDBRANCH  11  25
ENDBRANCH   1   2
BRANCH   1  27
ATOM     27  C   UNL     1      16.911  -2.409 -12.156  1.00  0.00     0.339 C 
ATOM     28  C   UNL     1      17.194  -3.587 -11.176  1.00  0.00     0.214 C 
ATOM     29  O   UNL     1      15.931  -1.519 -11.657  1.00  0.00    -0.332 OA
ATOM     30  C   UNL     1      16.502  -3.372  -9.808  1.00  0.00     0.180 C 
ATOM     31  C   UNL     1      16.400  -0.890 -10.475  1.00  0.00     0.179 C 
ATOM     32  C   UNL     1      16.608  -1.913  -9.314  1.00  0.00     0.177 C 
BRANCH  28  33
ATOM     33  O   UNL     1      18.578  -3.794 -11.024  1.00  0.00    -0.384 OA
ATOM     34  H   UNL     1      18.733  -4.174 -10.121  1.00  0.00     0.211 HD
ENDBRANCH  28  33
BRANCH  30  35
ATOM     35  O   UNL     1      17.024  -4.248  -8.841  1.00  0.00    -0.387 OA
ATOM     36  H   UNL     1      17.207  -5.108  -9.303  1.00  0.00     0.211 HD
ENDBRANCH  30  35
BRANCH  31  37
ATOM     37  C   UNL     1      15.395   0.196 -10.068  1.00  0.00     0.191 C 
BRANCH  37  38
ATOM     38  O   UNL     1      14.179   0.020 -10.743  1.00  0.00    -0.394 OA
ATOM     39  H   UNL     1      13.867  -0.898 -10.531  1.00  0.00     0.210 HD
ENDBRANCH  37  38
ENDBRANCH  31  37
BRANCH  32  40
ATOM     40  O   UNL     1      17.859  -1.703  -8.709  1.00  0.00    -0.387 OA
ATOM     41  H   UNL     1      18.449  -2.446  -9.008  1.00  0.00     0.211 HD
ENDBRANCH  32  40
ENDBRANCH   1  27
TORSDOF 12
ENDMDL
MODEL 2
REMARK VINA RESULT:    -6.675      1.205      2.228
REMARK INTER + INTRA:         -10.883
REMARK INTER:                  -9.738
REMARK INTRA:                  -1.144
REMARK UNBOUND:                -1.086
REMARK SMILES O=c1c(O[C@H]2O[C@@H](CO)[C@H](O)[C@H](O)[C@@H]2O)c(-c2ccc(O)c(O)c2)oc2cc(O)cc(O)c12
REMARK SMILES IDX 4 1 3 2 16 3 25 4 2 5 26 6 1 7 33 8 27 9 31 10 28 11 30 12
REMARK SMILES IDX 17 13 18 14 19 15 20 16 24 17 22 18 21 19 23 21 32 23 29 25
REMARK SMILES IDX 5 27 14 28 6 29 12 30 7 31 10 32 15 33 13 35 8 37 9 38 11 40
REMARK H PARENT 21 20 23 22 32 24 29 26 15 34 13 36 9 39 11 41
REMARK Flexibility Score: inf
ROOT
ATOM      1  O   UNL     1      16.322  -3.008 -14.060  1.00  0.00    -0.454 OA
ENDROOT
BRANCH   1   2
ATOM      2  C   UNL     1      17.133  -2.796 -15.197  1.00  0.00     0.214 A 
ATOM      3  C   UNL     1      17.418  -3.903 -16.025  1.00  0.00     0.180 A 
ATOM      4  O   UNL     1      18.095  -3.736 -17.156  1.00  0.00    -0.452 OA
ATOM      5  C   UNL     1      17.661  -1.539 -15.562  1.00  0.00     0.239 A 
ATOM      6  C   UNL     1      18.564  -2.563 -17.559  1.00  0.00     0.146 A 
ATOM      7  O   UNL     1      17.515  -0.545 -14.805  1.00  0.00    -0.285 OA
ATOM      8  C   UNL     1      18.375  -1.405 -16.772  1.00  0.00     0.111 A 
ATOM      9  C   UNL     1      19.256  -2.489 -18.771  1.00  0.00     0.094 A 
ATOM     10  C   UNL     1      18.900  -0.170 -17.228  1.00  0.00     0.134 A 
ATOM     11  C   UNL     1      19.769  -1.267 -19.218  1.00  0.00     0.123 A 
ATOM     12  C   UNL     1      19.591  -0.116 -18.448  1.00  0.00     0.093 A 
BRANCH   3  13
ATOM     13  C   UNL     1      16.955  -5.267 -15.690  1.00  0.00     0.025 A 
ATOM     14  C   UNL     1      17.674  -6.031 -14.758  1.00  0.00     0.016 A 
ATOM     15  C   UNL     1      17.240  -7.313 -14.411  1.00  0.00     0.051 A 
ATOM     16  C   UNL     1      16.075  -7.845 -14.979  1.00  0.00     0.157 A 
ATOM     17  C   UNL     1      15.776  -5.795 -16.245  1.00  0.00     0.062 A 
ATOM     18  C   UNL     1      15.337  -7.077 -15.896  1.00  0.00     0.158 A 
BRANCH  16  19
ATOM     19  O   UNL     1      15.647  -9.125 -14.632  1.00  0.00    -0.504 OA
ATOM     20  H   UNL     1      15.604  -9.426 -13.667  1.00  0.00     0.293 HD
ENDBRANCH  16  19
BRANCH  18  21
ATOM     21  O   UNL     1      14.165  -7.571 -16.469  1.00  0.00    -0.504 OA
ATOM     22  H   UNL     1      13.249  -7.232 -16.197  1.00  0.00     0.293 HD
ENDBRANCH  18  21
ENDBRANCH   3  13
BRANCH  10  23
ATOM     23  O   UNL     1      18.741   1.000 -16.483  1.00  0.00    -0.507 OA
ATOM     24  H   UNL     1      17.991   1.653 -16.670  1.00  0.00     0.293 HD
ENDBRANCH  10  23
BRANCH  11  25
ATOM     25  O   UNL     1      20.456  -1.184 -20.427  1.00  0.00    -0.508 OA
ATOM     26  H   UNL     1      20.914  -0.328 -20.717  1.00  0.00     0.293 HD
ENDBRANCH  11  25
ENDBRANCH   1   2
BRANCH   1  27
ATOM     27  C   UNL     1      16.723  -3.210 -12.699  1.00  0.00     0.339 C 
ATOM     28  C   UNL     1      15.772  -2.482 -11.701  1.00  0.00     0.214 C 
ATOM     29  O   UNL     1      18.075  -2.832 -12.523  1.00  0.00    -0.332 OA
ATOM     30  C   UNL     1      16.562  -1.701 -10.624  1.00  0.00     0.180 C 
ATOM     31  C   UNL     1      18.532  -3.234 -11.242  1.00  0.00     0.179 C 
ATOM     32  C   UNL     1      17.779  -2.489 -10.095  1.00  0.00     0.177 C 
BRANCH  28  33
ATOM     33  O   UNL     1      14.866  -3.387 -11.119  1.00  0.00    -0.384 OA
ATOM     34  H   UNL     1      15.359  -4.222 -10.911  1.00  0.00     0.211 HD
ENDBRANCH  28  33
BRANCH  30  35
ATOM     35  O   UNL     1      15.723  -1.335  -9.557  1.00  0.00    -0.387 OA
ATOM     36  H   UNL     1      16.073  -1.794  -8.747  1.00  0.00     0.211 HD
ENDBRANCH  30  35
BRANCH  31  37
ATOM     37  C   UNL     1      20.042  -2.976 -11.158  1.00  0.00     0.191 C 
BRANCH  37  38
ATOM     38  O   UNL     1      20.756  -4.058 -11.692  1.00  0.00    -0.394 OA
ATOM     39  H   UNL     1      20.267  -4.880 -11.427  1.00  0.00     0.210 HD
ENDBRANCH  37  38
ENDBRANCH  31  37
BRANCH  32  40
ATOM     40  O   UNL     1      17.364  -3.409  -9.117  1.00  0.00    -0.387 OA
ATOM     41  H   UNL     1      16.697  -4.006  -9.551  1.00  0.00     0.211 HD
ENDBRANCH  32  40
ENDBRANCH   1  27
TORSDOF 12
ENDMDL
MODEL 3
REMARK VINA RESULT:    -6.537     11.832     15.297
REMARK INTER + INTRA:         -10.679
REMARK INTER:                  -9.480
REMARK INTRA:                  -1.200
REMARK UNBOUND:                -1.086
REMARK SMILES O=c1c(O[C@H]2O[C@@H](CO)[C@H](O)[C@H](O)[C@@H]2O)c(-c2ccc(O)c(O)c2)oc2cc(O)cc(O)c12
REMARK SMILES IDX 4 1 3 2 16 3 25 4 2 5 26 6 1 7 33 8 27 9 31 10 28 11 30 12
REMARK SMILES IDX 17 13 18 14 19 15 20 16 24 17 22 18 21 19 23 21 32 23 29 25
REMARK SMILES IDX 5 27 14 28 6 29 12 30 7 31 10 32 15 33 13 35 8 37 9 38 11 40
REMARK H PARENT 21 20 23 22 32 24 29 26 15 34 13 36 9 39 11 41
REMARK Flexibility Score: inf
ROOT
ATOM      1  O   UNL     1       4.469   3.447 -11.804  1.00  0.00    -0.454 OA
ENDROOT
BRANCH   1   2
ATOM      2  C   UNL     1       4.710   4.838 -11.817  1.00  0.00     0.214 A 
ATOM      3  C   UNL     1       5.259   5.428 -10.658  1.00  0.00     0.180 A 
ATOM      4  O   UNL     1       5.593   6.713 -10.655  1.00  0.00    -0.452 OA
ATOM      5  C   UNL     1       4.452   5.670 -12.928  1.00  0.00     0.239 A 
ATOM      6  C   UNL     1       5.413   7.516 -11.695  1.00  0.00     0.146 A 
ATOM      7  O   UNL     1       3.875   5.209 -13.946  1.00  0.00    -0.285 OA
ATOM      8  C   UNL     1       4.823   7.032 -12.884  1.00  0.00     0.111 A 
ATOM      9  C   UNL     1       5.808   8.854 -11.597  1.00  0.00     0.094 A 
ATOM     10  C   UNL     1       4.634   7.921 -13.971  1.00  0.00     0.134 A 
ATOM     11  C   UNL     1       5.624   9.726 -12.674  1.00  0.00     0.123 A 
ATOM     12  C   UNL     1       5.039   9.259 -13.853  1.00  0.00     0.093 A 
BRANCH   3  13
ATOM     13  C   UNL     1       5.508   4.645  -9.428  1.00  0.00     0.025 A 
ATOM     14  C   UNL     1       4.579   4.691  -8.378  1.00  0.00     0.016 A 
ATOM     15  C   UNL     1       4.786   3.941  -7.218  1.00  0.00     0.051 A 
ATOM     16  C   UNL     1       5.916   3.122  -7.096  1.00  0.00     0.157 A 
ATOM     17  C   UNL     1       6.633   3.809  -9.311  1.00  0.00     0.062 A 
ATOM     18  C   UNL     1       6.841   3.053  -8.152  1.00  0.00     0.158 A 
BRANCH  16  19
ATOM     19  O   UNL     1       6.120   2.377  -5.936  1.00  0.00    -0.504 OA
ATOM     20  H   UNL     1       5.393   2.270  -5.241  1.00  0.00     0.293 HD
ENDBRANCH  16  19
BRANCH  18  21
ATOM     21  O   UNL     1       7.969   2.237  -8.068  1.00  0.00    -0.504 OA
ATOM     22  H   UNL     1       8.889   2.609  -7.861  1.00  0.00     0.293 HD
ENDBRANCH  18  21
ENDBRANCH   3  13
BRANCH  10  23
ATOM     23  O   UNL     1       4.052   7.488 -15.163  1.00  0.00    -0.507 OA
ATOM     24  H   UNL     1       3.234   6.892 -15.171  1.00  0.00     0.293 HD
ENDBRANCH  10  23
BRANCH  11  25
ATOM     25  O   UNL     1       6.019  11.059 -12.585  1.00  0.00    -0.508 OA
ATOM     26  H   UNL     1       6.483  11.419 -11.759  1.00  0.00     0.293 HD
ENDBRANCH  11  25
ENDBRANCH   1   2
BRANCH   1  27
ATOM     27  C   UNL     1       5.235   2.399 -12.413  1.00  0.00     0.339 C 
ATOM     28  C   UNL     1       6.482   2.956 -13.165  1.00  0.00     0.214 C 
ATOM     29  O   UNL     1       4.411   1.611 -13.251  1.00  0.00    -0.332 OA
ATOM     30  C   UNL     1       6.629   2.329 -14.572  1.00  0.00     0.180 C 
ATOM     31  C   UNL     1       5.113   0.454 -13.677  1.00  0.00     0.179 C 
ATOM     32  C   UNL     1       6.336   0.814 -14.578  1.00  0.00     0.177 C 
BRANCH  28  33
ATOM     33  O   UNL     1       7.650   2.780 -12.399  1.00  0.00    -0.384 OA
ATOM     34  H   UNL     1       8.083   3.667 -12.295  1.00  0.00     0.211 HD
ENDBRANCH  28  33
BRANCH  30  35
ATOM     35  O   UNL     1       7.909   2.575 -15.097  1.00  0.00    -0.387 OA
ATOM     36  H   UNL     1       8.476   2.880 -14.340  1.00  0.00     0.211 HD
ENDBRANCH  30  35
BRANCH  31  37
ATOM     37  C   UNL     1       4.136  -0.462 -14.426  1.00  0.00     0.191 C 
BRANCH  37  38
ATOM     38  O   UNL     1       3.912  -1.641 -13.700  1.00  0.00    -0.394 OA
ATOM     39  H   UNL     1       4.605  -1.673 -12.989  1.00  0.00     0.210 HD
ENDBRANCH  37  38
ENDBRANCH  31  37
BRANCH  32  40
ATOM     40  O   UNL     1       7.472   0.106 -14.149  1.00  0.00    -0.387 OA
ATOM     41  H   UNL     1       7.195  -0.422 -13.353  1.00  0.00     0.211 HD
ENDBRANCH  32  40
ENDBRANCH   1  27
TORSDOF 12
ENDMDL
MODEL 4
REMARK VINA RESULT:    -6.431      2.227      7.546
REMARK INTER + INTRA:         -10.524
REMARK INTER:                  -9.340
REMARK INTRA:                  -1.184
REMARK UNBOUND:                -1.086
REMARK SMILES O=c1c(O[C@H]2O[C@@H](CO)[C@H](O)[C@H](O)[C@@H]2O)c(-c2ccc(O)c(O)c2)oc2cc(O)cc(O)c12
REMARK SMILES IDX 4 1 3 2 16 3 25 4 2 5 26 6 1 7 33 8 27 9 31 10 28 11 30 12
REMARK SMILES IDX 17 13 18 14 19 15 20 16 24 17 22 18 21 19 23 21 32 23 29 25
REMARK SMILES IDX 5 27 14 28 6 29 12 30 7 31 10 32 15 33 13 35 8 37 9 38 11 40
REMARK H PARENT 21 20 23 22 32 24 29 26 15 34 13 36 9 39 11 41
REMARK Flexibility Score: inf
ROOT
ATOM      1  O   UNL     1      15.097  -3.341 -12.262  1.00  0.00    -0.454 OA
ENDROOT
BRANCH   1   2
ATOM      2  C   UNL     1      15.992  -2.648 -11.418  1.00  0.00     0.214 A 
ATOM      3  C   UNL     1      16.331  -1.320 -11.758  1.00  0.00     0.180 A 
ATOM      4  O   UNL     1      17.091  -0.595 -10.945  1.00  0.00    -0.452 OA
ATOM      5  C   UNL     1      16.552  -3.198 -10.246  1.00  0.00     0.239 A 
ATOM      6  C   UNL     1      17.595  -1.060  -9.809  1.00  0.00     0.146 A 
ATOM      7  O   UNL     1      16.356  -4.406  -9.955  1.00  0.00    -0.285 OA
ATOM      8  C   UNL     1      17.355  -2.393  -9.409  1.00  0.00     0.111 A 
ATOM      9  C   UNL     1      18.375  -0.213  -9.016  1.00  0.00     0.094 A 
ATOM     10  C   UNL     1      17.920  -2.859  -8.196  1.00  0.00     0.134 A 
ATOM     11  C   UNL     1      18.927  -0.677  -7.819  1.00  0.00     0.123 A 
ATOM     12  C   UNL     1      18.699  -1.994  -7.414  1.00  0.00     0.093 A 
BRANCH   3  13
ATOM     13  C   UNL     1      15.837  -0.682 -12.997  1.00  0.00     0.025 A 
ATOM     14  C   UNL     1      14.584  -0.050 -12.998  1.00  0.00     0.016 A 
ATOM     15  C   UNL     1      14.110   0.578 -14.152  1.00  0.00     0.051 A 
ATOM     16  C   UNL     1      14.887   0.598 -15.317  1.00  0.00     0.157 A 
ATOM     17  C   UNL     1      16.623  -0.645 -14.163  1.00  0.00     0.062 A 
ATOM     18  C   UNL     1      16.153  -0.012 -15.319  1.00  0.00     0.158 A 
BRANCH  16  19
ATOM     19  O   UNL     1      14.410   1.224 -16.467  1.00  0.00    -0.504 OA
ATOM     20  H   UNL     1      14.954   1.250 -17.321  1.00  0.00     0.293 HD
ENDBRANCH  16  19
BRANCH  18  21
ATOM     21  O   UNL     1      16.957   0.002 -16.458  1.00  0.00    -0.504 OA
ATOM     22  H   UNL     1      17.948   0.212 -16.415  1.00  0.00     0.293 HD
ENDBRANCH  18  21
ENDBRANCH   3  13
BRANCH  10  23
ATOM     23  O   UNL     1      17.713  -4.169  -7.762  1.00  0.00    -0.507 OA
ATOM     24  H   UNL     1      17.641  -4.941  -8.412  1.00  0.00     0.293 HD
ENDBRANCH  10  23
BRANCH  11  25
ATOM     25  O   UNL     1      19.702   0.162  -7.021  1.00  0.00    -0.508 OA
ATOM     26  H   UNL     1      20.235  -0.198  -6.237  1.00  0.00     0.293 HD
ENDBRANCH  11  25
ENDBRANCH   1   2
BRANCH   1  27
ATOM     27  C   UNL     1      15.395  -4.285 -13.300  1.00  0.00     0.339 C 
ATOM     28  C   UNL     1      15.574  -5.727 -12.737  1.00  0.00     0.214 C 
ATOM     29  O   UNL     1      16.519  -3.857 -14.046  1.00  0.00    -0.332 OA
ATOM     30  C   UNL     1      16.833  -6.416 -13.317  1.00  0.00     0.180 C 
ATOM     31  C   UNL     1      16.678  -4.669 -15.198  1.00  0.00     0.179 C 
ATOM     32  C   UNL     1      17.011  -6.148 -14.826  1.00  0.00     0.177 C 
BRANCH  28  33
ATOM     33  O   UNL     1      14.419  -6.500 -12.956  1.00  0.00    -0.384 OA
ATOM     34  H   UNL     1      14.255  -7.043 -12.142  1.00  0.00     0.211 HD
ENDBRANCH  28  33
BRANCH  30  35
ATOM     35  O   UNL     1      16.803  -7.799 -13.072  1.00  0.00    -0.387 OA
ATOM     36  H   UNL     1      17.334  -7.956 -12.247  1.00  0.00     0.211 HD
ENDBRANCH  30  35
BRANCH  31  37
ATOM     37  C   UNL     1      17.785  -4.065 -16.073  1.00  0.00     0.191 C 
BRANCH  37  38
ATOM     38  O   UNL     1      18.158  -4.963 -17.083  1.00  0.00    -0.394 OA
ATOM     39  H   UNL     1      17.742  -5.835 -16.856  1.00  0.00     0.210 HD
ENDBRANCH  37  38
ENDBRANCH  31  37
BRANCH  32  40
ATOM     40  O   UNL     1      16.198  -7.023 -15.566  1.00  0.00    -0.387 OA
ATOM     41  H   UNL     1      15.462  -7.308 -14.961  1.00  0.00     0.211 HD
ENDBRANCH  32  40
ENDBRANCH   1  27
TORSDOF 12
ENDMDL
MODEL 5
REMARK VINA RESULT:    -6.359     11.807     13.910
REMARK INTER + INTRA:         -10.418
REMARK INTER:                  -9.269
REMARK INTRA:                  -1.149
REMARK UNBOUND:                -1.086
REMARK SMILES O=c1c(O[C@H]2O[C@@H](CO)[C@H](O)[C@H](O)[C@@H]2O)c(-c2ccc(O)c(O)c2)oc2cc(O)cc(O)c12
REMARK SMILES IDX 4 1 3 2 16 3 25 4 2 5 26 6 1 7 33 8 27 9 31 10 28 11 30 12
REMARK SMILES IDX 17 13 18 14 19 15 20 16 24 17 22 18 21 19 23 21 32 23 29 25
REMARK SMILES IDX 5 27 14 28 6 29 12 30 7 31 10 32 15 33 13 35 8 37 9 38 11 40
REMARK H PARENT 21 20 23 22 32 24 29 26 15 34 13 36 9 39 11 41
REMARK Flexibility Score: inf
ROOT
ATOM      1  O   UNL     1       7.299   4.309 -16.450  1.00  0.00    -0.454 OA
ENDROOT
BRANCH   1   2
ATOM      2  C   UNL     1       7.540   5.539 -17.098  1.00  0.00     0.214 A 
ATOM      3  C   UNL     1       8.775   5.710 -17.760  1.00  0.00     0.180 A 
ATOM      4  O   UNL     1       9.011   6.811 -18.465  1.00  0.00    -0.452 OA
ATOM      5  C   UNL     1       6.612   6.602 -17.139  1.00  0.00     0.239 A 
ATOM      6  C   UNL     1       8.144   7.809 -18.569  1.00  0.00     0.146 A 
ATOM      7  O   UNL     1       5.540   6.533 -16.485  1.00  0.00    -0.285 OA
ATOM      8  C   UNL     1       6.901   7.755 -17.900  1.00  0.00     0.111 A 
ATOM      9  C   UNL     1       8.481   8.923 -19.345  1.00  0.00     0.094 A 
ATOM     10  C   UNL     1       6.005   8.845 -18.024  1.00  0.00     0.134 A 
ATOM     11  C   UNL     1       7.591   9.994 -19.466  1.00  0.00     0.123 A 
ATOM     12  C   UNL     1       6.360   9.953 -18.808  1.00  0.00     0.093 A 
BRANCH   3  13
ATOM     13  C   UNL     1       9.830   4.674 -17.722  1.00  0.00     0.025 A 
ATOM     14  C   UNL     1      10.525   4.438 -16.526  1.00  0.00     0.016 A 
ATOM     15  C   UNL     1      11.510   3.449 -16.464  1.00  0.00     0.051 A 
ATOM     16  C   UNL     1      11.803   2.670 -17.591  1.00  0.00     0.157 A 
ATOM     17  C   UNL     1      10.114   3.879 -18.847  1.00  0.00     0.062 A 
ATOM     18  C   UNL     1      11.096   2.884 -18.786  1.00  0.00     0.158 A 
BRANCH  16  19
ATOM     19  O   UNL     1      12.787   1.685 -17.526  1.00  0.00    -0.504 OA
ATOM     20  H   UNL     1      13.511   1.612 -18.229  1.00  0.00     0.293 HD
ENDBRANCH  16  19
BRANCH  18  21
ATOM     21  O   UNL     1      11.354   2.116 -19.922  1.00  0.00    -0.504 OA
ATOM     22  H   UNL     1      12.066   2.374 -20.596  1.00  0.00     0.293 HD
ENDBRANCH  18  21
ENDBRANCH   3  13
BRANCH  10  23
ATOM     23  O   UNL     1       4.767   8.837 -17.379  1.00  0.00    -0.507 OA
ATOM     24  H   UNL     1       3.899   8.943 -17.889  1.00  0.00     0.293 HD
ENDBRANCH  10  23
BRANCH  11  25
ATOM     25  O   UNL     1       7.918  11.105 -20.241  1.00  0.00    -0.508 OA
ATOM     26  H   UNL     1       7.555  11.220 -21.180  1.00  0.00     0.293 HD
ENDBRANCH  11  25
ENDBRANCH   1   2
BRANCH   1  27
ATOM     27  C   UNL     1       6.379   3.270 -16.812  1.00  0.00     0.339 C 
ATOM     28  C   UNL     1       6.381   2.108 -15.774  1.00  0.00     0.214 C 
ATOM     29  O   UNL     1       6.643   2.816 -18.126  1.00  0.00    -0.332 OA
ATOM     30  C   UNL     1       6.447   0.724 -16.464  1.00  0.00     0.180 C 
ATOM     31  C   UNL     1       5.606   1.952 -18.562  1.00  0.00     0.179 C 
ATOM     32  C   UNL     1       5.545   0.642 -17.713  1.00  0.00     0.177 C 
BRANCH  28  33
ATOM     33  O   UNL     1       5.270   2.200 -14.914  1.00  0.00    -0.384 OA
ATOM     34  H   UNL     1       4.581   1.564 -15.236  1.00  0.00     0.211 HD
ENDBRANCH  28  33
BRANCH  30  35
ATOM     35  O   UNL     1       6.115  -0.301 -15.561  1.00  0.00    -0.387 OA
ATOM     36  H   UNL     1       5.434   0.073 -14.941  1.00  0.00     0.211 HD
ENDBRANCH  30  35
BRANCH  31  37
ATOM     37  C   UNL     1       5.829   1.629 -20.045  1.00  0.00     0.191 C 
BRANCH  37  38
ATOM     38  O   UNL     1       5.700   2.787 -20.825  1.00  0.00    -0.394 OA
ATOM     39  H   UNL     1       4.818   2.729 -21.277  1.00  0.00     0.210 HD
ENDBRANCH  37  38
ENDBRANCH  31  37
BRANCH  32  40
ATOM     40  O   UNL     1       4.219   0.382 -17.329  1.00  0.00    -0.387 OA
ATOM     41  H   UNL     1       3.723   0.142 -18.158  1.00  0.00     0.211 HD
ENDBRANCH  32  40
ENDBRANCH   1  27
TORSDOF 12
ENDMDL
MODEL 6
REMARK VINA RESULT:    -6.350      2.980      6.847
REMARK INTER + INTRA:         -10.405
REMARK INTER:                  -8.921
REMARK INTRA:                  -1.483
REMARK UNBOUND:                -1.086
REMARK SMILES O=c1c(O[C@H]2O[C@@H](CO)[C@H](O)[C@H](O)[C@@H]2O)c(-c2ccc(O)c(O)c2)oc2cc(O)cc(O)c12
REMARK SMILES IDX 4 1 3 2 16 3 25 4 2 5 26 6 1 7 33 8 27 9 31 10 28 11 30 12
REMARK SMILES IDX 17 13 18 14 19 15 20 16 24 17 22 18 21 19 23 21 32 23 29 25
REMARK SMILES IDX 5 27 14 28 6 29 12 30 7 31 10 32 15 33 13 35 8 37 9 38 11 40
REMARK H PARENT 21 20 23 22 32 24 29 26 15 34 13 36 9 39 11 41
REMARK Flexibility Score: inf
ROOT
ATOM      1  O   UNL     1      16.386  -0.639 -11.256  1.00  0.00    -0.454 OA
ENDROOT
BRANCH   1   2
ATOM      2  C   UNL     1      17.616  -1.191 -10.836  1.00  0.00     0.214 A 
ATOM      3  C   UNL     1      18.610  -1.418 -11.812  1.00  0.00     0.180 A 
ATOM      4  O   UNL     1      19.816  -1.845 -11.454  1.00  0.00    -0.452 OA
ATOM      5  C   UNL     1      17.916  -1.514  -9.495  1.00  0.00     0.239 A 
ATOM      6  C   UNL     1      20.152  -2.110 -10.198  1.00  0.00     0.146 A 
ATOM      7  O   UNL     1      17.031  -1.420  -8.606  1.00  0.00    -0.285 OA
ATOM      8  C   UNL     1      19.210  -1.964  -9.156  1.00  0.00     0.111 A 
ATOM      9  C   UNL     1      21.451  -2.545  -9.921  1.00  0.00     0.094 A 
ATOM     10  C   UNL     1      19.601  -2.269  -7.828  1.00  0.00     0.134 A 
ATOM     11  C   UNL     1      21.832  -2.841  -8.609  1.00  0.00     0.123 A 
ATOM     12  C   UNL     1      20.909  -2.703  -7.570  1.00  0.00     0.093 A 
BRANCH   3  13
ATOM     13  C   UNL     1      18.364  -1.164 -13.249  1.00  0.00     0.025 A 
ATOM     14  C   UNL     1      17.970  -2.223 -14.080  1.00  0.00     0.016 A 
ATOM     15  C   UNL     1      17.712  -2.000 -15.435  1.00  0.00     0.051 A 
ATOM     16  C   UNL     1      17.829  -0.712 -15.975  1.00  0.00     0.157 A 
ATOM     17  C   UNL     1      18.464   0.130 -13.789  1.00  0.00     0.062 A 
ATOM     18  C   UNL     1      18.201   0.359 -15.144  1.00  0.00     0.158 A 
BRANCH  16  19
ATOM     19  O   UNL     1      17.572  -0.493 -17.327  1.00  0.00    -0.504 OA
ATOM     20  H   UNL     1      16.749   0.010 -17.635  1.00  0.00     0.293 HD
ENDBRANCH  16  19
BRANCH  18  21
ATOM     21  O   UNL     1      18.312   1.655 -15.647  1.00  0.00    -0.504 OA
ATOM     22  H   UNL     1      17.869   1.936 -16.514  1.00  0.00     0.293 HD
ENDBRANCH  18  21
ENDBRANCH   3  13
BRANCH  10  23
ATOM     23  O   UNL     1      18.703  -2.143  -6.766  1.00  0.00    -0.507 OA
ATOM     24  H   UNL     1      19.016  -1.949  -5.824  1.00  0.00     0.293 HD
ENDBRANCH  10  23
BRANCH  11  25
ATOM     25  O   UNL     1      23.126  -3.271  -8.324  1.00  0.00    -0.508 OA
ATOM     26  H   UNL     1      23.896  -3.087  -8.957  1.00  0.00     0.293 HD
ENDBRANCH  11  25
ENDBRANCH   1   2
BRANCH   1  27
ATOM     27  C   UNL     1      15.123  -1.295 -11.431  1.00  0.00     0.339 C 
ATOM     28  C   UNL     1      15.290  -2.835 -11.603  1.00  0.00     0.214 C 
ATOM     29  O   UNL     1      14.412  -0.709 -12.505  1.00  0.00    -0.332 OA
ATOM     30  C   UNL     1      14.446  -3.374 -12.783  1.00  0.00     0.180 C 
ATOM     31  C   UNL     1      13.083  -1.207 -12.539  1.00  0.00     0.179 C 
ATOM     32  C   UNL     1      13.042  -2.737 -12.846  1.00  0.00     0.177 C 
BRANCH  28  33
ATOM     33  O   UNL     1      14.988  -3.509 -10.405  1.00  0.00    -0.384 OA
ATOM     34  H   UNL     1      14.088  -3.216 -10.108  1.00  0.00     0.211 HD
ENDBRANCH  28  33
BRANCH  30  35
ATOM     35  O   UNL     1      14.339  -4.774 -12.722  1.00  0.00    -0.387 OA
ATOM     36  H   UNL     1      15.238  -5.140 -12.938  1.00  0.00     0.211 HD
ENDBRANCH  30  35
BRANCH  31  37
ATOM     37  C   UNL     1      12.293  -0.419 -13.591  1.00  0.00     0.191 C 
BRANCH  37  38
ATOM     38  O   UNL     1      11.319  -1.234 -14.186  1.00  0.00    -0.394 OA
ATOM     39  H   UNL     1      10.440  -0.919 -13.850  1.00  0.00     0.210 HD
ENDBRANCH  37  38
ENDBRANCH  31  37
BRANCH  32  40
ATOM     40  O   UNL     1      12.183  -3.385 -11.943  1.00  0.00    -0.387 OA
ATOM     41  H   UNL     1      11.399  -3.698 -12.469  1.00  0.00     0.211 HD
ENDBRANCH  32  40
ENDBRANCH   1  27
TORSDOF 12
ENDMDL
MODEL 7
REMARK VINA RESULT:    -6.323      2.474      5.866
REMARK INTER + INTRA:         -10.365
REMARK INTER:                  -8.765
REMARK INTRA:                  -1.600
REMARK UNBOUND:                -1.086
REMARK SMILES O=c1c(O[C@H]2O[C@@H](CO)[C@H](O)[C@H](O)[C@@H]2O)c(-c2ccc(O)c(O)c2)oc2cc(O)cc(O)c12
REMARK SMILES IDX 4 1 3 2 16 3 25 4 2 5 26 6 1 7 33 8 27 9 31 10 28 11 30 12
REMARK SMILES IDX 17 13 18 14 19 15 20 16 24 17 22 18 21 19 23 21 32 23 29 25
REMARK SMILES IDX 5 27 14 28 6 29 12 30 7 31 10 32 15 33 13 35 8 37 9 38 11 40
REMARK H PARENT 21 20 23 22 32 24 29 26 15 34 13 36 9 39 11 41
REMARK Flexibility Score: inf
ROOT
ATOM      1  O   UNL     1      16.655  -2.680 -12.002  1.00  0.00    -0.454 OA
ENDROOT
BRANCH   1   2
ATOM      2  C   UNL     1      16.447  -3.510 -13.125  1.00  0.00     0.214 A 
ATOM      3  C   UNL     1      16.668  -2.961 -14.406  1.00  0.00     0.180 A 
ATOM      4  O   UNL     1      16.580  -3.728 -15.487  1.00  0.00    -0.452 OA
ATOM      5  C   UNL     1      16.048  -4.861 -13.040  1.00  0.00     0.239 A 
ATOM      6  C   UNL     1      16.257  -5.014 -15.445  1.00  0.00     0.146 A 
ATOM      7  O   UNL     1      15.747  -5.365 -11.928  1.00  0.00    -0.285 OA
ATOM      8  C   UNL     1      15.967  -5.642 -14.213  1.00  0.00     0.111 A 
ATOM      9  C   UNL     1      16.201  -5.739 -16.639  1.00  0.00     0.094 A 
ATOM     10  C   UNL     1      15.613  -7.014 -14.207  1.00  0.00     0.134 A 
ATOM     11  C   UNL     1      15.856  -7.094 -16.626  1.00  0.00     0.123 A 
ATOM     12  C   UNL     1      15.563  -7.725 -15.415  1.00  0.00     0.093 A 
BRANCH   3  13
ATOM     13  C   UNL     1      17.032  -1.540 -14.594  1.00  0.00     0.025 A 
ATOM     14  C   UNL     1      16.020  -0.585 -14.776  1.00  0.00     0.016 A 
ATOM     15  C   UNL     1      16.342   0.765 -14.933  1.00  0.00     0.051 A 
ATOM     16  C   UNL     1      17.678   1.184 -14.894  1.00  0.00     0.157 A 
ATOM     17  C   UNL     1      18.371  -1.115 -14.537  1.00  0.00     0.062 A 
ATOM     18  C   UNL     1      18.697   0.238 -14.689  1.00  0.00     0.158 A 
BRANCH  16  19
ATOM     19  O   UNL     1      17.996   2.531 -15.052  1.00  0.00    -0.504 OA
ATOM     20  H   UNL     1      18.344   3.088 -14.281  1.00  0.00     0.293 HD
ENDBRANCH  16  19
BRANCH  18  21
ATOM     21  O   UNL     1      20.036   0.623 -14.630  1.00  0.00    -0.504 OA
ATOM     22  H   UNL     1      20.791  -0.054 -14.614  1.00  0.00     0.293 HD
ENDBRANCH  18  21
ENDBRANCH   3  13
BRANCH  10  23
ATOM     23  O   UNL     1      15.315  -7.675 -13.015  1.00  0.00    -0.507 OA
ATOM     24  H   UNL     1      15.766  -8.545 -12.760  1.00  0.00     0.293 HD
ENDBRANCH  10  23
BRANCH  11  25
ATOM     25  O   UNL     1      15.802  -7.825 -17.811  1.00  0.00    -0.508 OA
ATOM     26  H   UNL     1      16.201  -8.754 -17.878  1.00  0.00     0.293 HD
ENDBRANCH  11  25
ENDBRANCH   1   2
BRANCH   1  27
ATOM     27  C   UNL     1      17.668  -2.776 -10.991  1.00  0.00     0.339 C 
ATOM     28  C   UNL     1      17.052  -2.923  -9.567  1.00  0.00     0.214 C 
ATOM     29  O   UNL     1      18.556  -1.678 -11.081  1.00  0.00    -0.332 OA
ATOM     30  C   UNL     1      17.732  -1.976  -8.549  1.00  0.00     0.180 C 
ATOM     31  C   UNL     1      19.674  -1.885 -10.232  1.00  0.00     0.179 C 
ATOM     32  C   UNL     1      19.263  -1.918  -8.726  1.00  0.00     0.177 C 
BRANCH  28  33
ATOM     33  O   UNL     1      17.100  -4.262  -9.135  1.00  0.00    -0.384 OA
ATOM     34  H   UNL     1      16.188  -4.520  -8.840  1.00  0.00     0.211 HD
ENDBRANCH  28  33
BRANCH  30  35
ATOM     35  O   UNL     1      17.412  -2.347  -7.231  1.00  0.00    -0.387 OA
ATOM     36  H   UNL     1      18.272  -2.434  -6.741  1.00  0.00     0.211 HD
ENDBRANCH  30  35
BRANCH  31  37
ATOM     37  C   UNL     1      20.698  -0.772 -10.492  1.00  0.00     0.191 C 
BRANCH  37  38
ATOM     38  O   UNL     1      20.653  -0.367 -11.834  1.00  0.00    -0.394 OA
ATOM     39  H   UNL     1      20.355   0.580 -11.836  1.00  0.00     0.210 HD
ENDBRANCH  37  38
ENDBRANCH  31  37
BRANCH  32  40
ATOM     40  O   UNL     1      19.860  -3.021  -8.091  1.00  0.00    -0.387 OA
ATOM     41  H   UNL     1      19.616  -3.824  -8.624  1.00  0.00     0.211 HD
ENDBRANCH  32  40
ENDBRANCH   1  27
TORSDOF 12
ENDMDL
MODEL 8
REMARK VINA RESULT:    -6.284      2.307      5.597
REMARK INTER + INTRA:         -10.308
REMARK INTER:                  -9.086
REMARK INTRA:                  -1.222
REMARK UNBOUND:                -1.086
REMARK SMILES O=c1c(O[C@H]2O[C@@H](CO)[C@H](O)[C@H](O)[C@@H]2O)c(-c2ccc(O)c(O)c2)oc2cc(O)cc(O)c12
REMARK SMILES IDX 4 1 3 2 16 3 25 4 2 5 26 6 1 7 33 8 27 9 31 10 28 11 30 12
REMARK SMILES IDX 17 13 18 14 19 15 20 16 24 17 22 18 21 19 23 21 32 23 29 25
REMARK SMILES IDX 5 27 14 28 6 29 12 30 7 31 10 32 15 33 13 35 8 37 9 38 11 40
REMARK H PARENT 21 20 23 22 32 24 29 26 15 34 13 36 9 39 11 41
REMARK Flexibility Score: inf
ROOT
ATOM      1  O   UNL     1      15.700  -2.335 -12.241  1.00  0.00    -0.454 OA
ENDROOT
BRANCH   1   2
ATOM      2  C   UNL     1      15.926  -3.263 -13.282  1.00  0.00     0.214 A 
ATOM      3  C   UNL     1      16.606  -2.815 -14.434  1.00  0.00     0.180 A 
ATOM      4  O   UNL     1      16.928  -3.672 -15.398  1.00  0.00    -0.452 OA
ATOM      5  C   UNL     1      15.526  -4.615 -13.229  1.00  0.00     0.239 A 
ATOM      6  C   UNL     1      16.614  -4.960 -15.362  1.00  0.00     0.146 A 
ATOM      7  O   UNL     1      14.834  -5.036 -12.267  1.00  0.00    -0.285 OA
ATOM      8  C   UNL     1      15.888  -5.493 -14.274  1.00  0.00     0.111 A 
ATOM      9  C   UNL     1      17.007  -5.784 -16.421  1.00  0.00     0.094 A 
ATOM     10  C   UNL     1      15.560  -6.872 -14.275  1.00  0.00     0.134 A 
ATOM     11  C   UNL     1      16.684  -7.144 -16.415  1.00  0.00     0.123 A 
ATOM     12  C   UNL     1      15.964  -7.682 -15.347  1.00  0.00     0.093 A 
BRANCH   3  13
ATOM     13  C   UNL     1      17.012  -1.402 -14.601  1.00  0.00     0.025 A 
ATOM     14  C   UNL     1      16.032  -0.424 -14.830  1.00  0.00     0.016 A 
ATOM     15  C   UNL     1      16.392   0.918 -14.968  1.00  0.00     0.051 A 
ATOM     16  C   UNL     1      17.735   1.305 -14.864  1.00  0.00     0.157 A 
ATOM     17  C   UNL     1      18.357  -1.009 -14.480  1.00  0.00     0.062 A 
ATOM     18  C   UNL     1      18.720   0.336 -14.613  1.00  0.00     0.158 A 
BRANCH  16  19
ATOM     19  O   UNL     1      18.091   2.646 -15.004  1.00  0.00    -0.504 OA
ATOM     20  H   UNL     1      18.929   3.018 -14.576  1.00  0.00     0.293 HD
ENDBRANCH  16  19
BRANCH  18  21
ATOM     21  O   UNL     1      20.064   0.689 -14.490  1.00  0.00    -0.504 OA
ATOM     22  H   UNL     1      20.426   1.148 -13.663  1.00  0.00     0.293 HD
ENDBRANCH  18  21
ENDBRANCH   3  13
BRANCH  10  23
ATOM     23  O   UNL     1      14.841  -7.442 -13.224  1.00  0.00    -0.507 OA
ATOM     24  H   UNL     1      13.951  -7.066 -12.921  1.00  0.00     0.293 HD
ENDBRANCH  10  23
BRANCH  11  25
ATOM     25  O   UNL     1      17.076  -7.972 -17.465  1.00  0.00    -0.508 OA
ATOM     26  H   UNL     1      17.484  -8.884 -17.295  1.00  0.00     0.293 HD
ENDBRANCH  11  25
ENDBRANCH   1   2
BRANCH   1  27
ATOM     27  C   UNL     1      16.595  -1.922 -11.200  1.00  0.00     0.339 C 
ATOM     28  C   UNL     1      17.062  -3.126 -10.327  1.00  0.00     0.214 C 
ATOM     29  O   UNL     1      16.005  -0.895 -10.425  1.00  0.00    -0.332 OA
ATOM     30  C   UNL     1      16.972  -2.806  -8.815  1.00  0.00     0.180 C 
ATOM     31  C   UNL     1      16.965  -0.338  -9.541  1.00  0.00     0.179 C 
ATOM     32  C   UNL     1      17.453  -1.378  -8.483  1.00  0.00     0.177 C 
BRANCH  28  33
ATOM     33  O   UNL     1      18.359  -3.535 -10.689  1.00  0.00    -0.384 OA
ATOM     34  H   UNL     1      18.358  -4.525 -10.761  1.00  0.00     0.211 HD
ENDBRANCH  28  33
BRANCH  30  35
ATOM     35  O   UNL     1      17.695  -3.746  -8.062  1.00  0.00    -0.387 OA
ATOM     36  H   UNL     1      17.861  -3.335  -7.172  1.00  0.00     0.211 HD
ENDBRANCH  30  35
BRANCH  31  37
ATOM     37  C   UNL     1      16.346   0.886  -8.855  1.00  0.00     0.191 C 
BRANCH  37  38
ATOM     38  O   UNL     1      17.090   1.244  -7.722  1.00  0.00    -0.394 OA
ATOM     39  H   UNL     1      18.047   1.126  -7.961  1.00  0.00     0.210 HD
ENDBRANCH  37  38
ENDBRANCH  31  37
BRANCH  32  40
ATOM     40  O   UNL     1      18.856  -1.354  -8.400  1.00  0.00    -0.387 OA
ATOM     41  H   UNL     1      19.160  -0.570  -8.932  1.00  0.00     0.211 HD
ENDBRANCH  32  40
ENDBRANCH   1  27
TORSDOF 12
ENDMDL
MODEL 9
REMARK VINA RESULT:    -6.270     12.007     14.131
REMARK INTER + INTRA:         -10.288
REMARK INTER:                  -9.063
REMARK INTRA:                  -1.224
REMARK UNBOUND:                -1.086
REMARK SMILES O=c1c(O[C@H]2O[C@@H](CO)[C@H](O)[C@H](O)[C@@H]2O)c(-c2ccc(O)c(O)c2)oc2cc(O)cc(O)c12
REMARK SMILES IDX 4 1 3 2 16 3 25 4 2 5 26 6 1 7 33 8 27 9 31 10 28 11 30 12
REMARK SMILES IDX 17 13 18 14 19 15 20 16 24 17 22 18 21 19 23 21 32 23 29 25
REMARK SMILES IDX 5 27 14 28 6 29 12 30 7 31 10 32 15 33 13 35 8 37 9 38 11 40
REMARK H PARENT 21 20 23 22 32 24 29 26 15 34 13 36 9 39 11 41
REMARK Flexibility Score: inf
ROOT
ATOM      1  O   UNL     1       7.569   4.769 -16.507  1.00  0.00    -0.454 OA
ENDROOT
BRANCH   1   2
ATOM      2  C   UNL     1       7.822   5.919 -17.286  1.00  0.00     0.214 A 
ATOM      3  C   UNL     1       9.036   5.981 -18.005  1.00  0.00     0.180 A 
ATOM      4  O   UNL     1       9.276   6.997 -18.826  1.00  0.00    -0.452 OA
ATOM      5  C   UNL     1       6.925   7.003 -17.402  1.00  0.00     0.239 A 
ATOM      6  C   UNL     1       8.436   8.008 -19.001  1.00  0.00     0.146 A 
ATOM      7  O   UNL     1       5.878   7.037 -16.707  1.00  0.00    -0.285 OA
ATOM      8  C   UNL     1       7.219   8.063 -18.286  1.00  0.00     0.111 A 
ATOM      9  C   UNL     1       8.776   9.026 -19.897  1.00  0.00     0.094 A 
ATOM     10  C   UNL     1       6.352   9.166 -18.489  1.00  0.00     0.134 A 
ATOM     11  C   UNL     1       7.915  10.109 -20.096  1.00  0.00     0.123 A 
ATOM     12  C   UNL     1       6.710  10.176 -19.393  1.00  0.00     0.093 A 
BRANCH   3  13
ATOM     13  C   UNL     1      10.060   4.919 -17.899  1.00  0.00     0.025 A 
ATOM     14  C   UNL     1      10.785   4.774 -16.707  1.00  0.00     0.016 A 
ATOM     15  C   UNL     1      11.741   3.763 -16.579  1.00  0.00     0.051 A 
ATOM     16  C   UNL     1      11.975   2.873 -17.635  1.00  0.00     0.157 A 
ATOM     17  C   UNL     1      10.284   4.013 -18.951  1.00  0.00     0.062 A 
ATOM     18  C   UNL     1      11.237   2.996 -18.825  1.00  0.00     0.158 A 
BRANCH  16  19
ATOM     19  O   UNL     1      12.930   1.866 -17.505  1.00  0.00    -0.504 OA
ATOM     20  H   UNL     1      12.812   0.963 -17.947  1.00  0.00     0.293 HD
ENDBRANCH  16  19
BRANCH  18  21
ATOM     21  O   UNL     1      11.435   2.117 -19.889  1.00  0.00    -0.504 OA
ATOM     22  H   UNL     1      10.848   1.303 -20.031  1.00  0.00     0.293 HD
ENDBRANCH  18  21
ENDBRANCH   3  13
BRANCH  10  23
ATOM     23  O   UNL     1       5.140   9.264 -17.803  1.00  0.00    -0.507 OA
ATOM     24  H   UNL     1       4.279   8.894 -18.185  1.00  0.00     0.293 HD
ENDBRANCH  10  23
BRANCH  11  25
ATOM     25  O   UNL     1       8.244  11.125 -20.990  1.00  0.00    -0.508 OA
ATOM     26  H   UNL     1       8.008  11.061 -21.974  1.00  0.00     0.293 HD
ENDBRANCH  11  25
ENDBRANCH   1   2
BRANCH   1  27
ATOM     27  C   UNL     1       6.845   3.585 -16.867  1.00  0.00     0.339 C 
ATOM     28  C   UNL     1       6.327   3.648 -18.336  1.00  0.00     0.214 C 
ATOM     29  O   UNL     1       5.802   3.347 -15.941  1.00  0.00    -0.332 OA
ATOM     30  C   UNL     1       4.845   3.212 -18.440  1.00  0.00     0.180 C 
ATOM     31  C   UNL     1       5.230   2.069 -16.169  1.00  0.00     0.179 C 
ATOM     32  C   UNL     1       4.527   1.985 -17.560  1.00  0.00     0.177 C 
BRANCH  28  33
ATOM     33  O   UNL     1       7.147   2.888 -19.191  1.00  0.00    -0.384 OA
ATOM     34  H   UNL     1       8.037   2.799 -18.761  1.00  0.00     0.211 HD
ENDBRANCH  28  33
BRANCH  30  35
ATOM     35  O   UNL     1       4.493   2.953 -19.776  1.00  0.00    -0.387 OA
ATOM     36  H   UNL     1       5.295   2.561 -20.212  1.00  0.00     0.211 HD
ENDBRANCH  30  35
BRANCH  31  37
ATOM     37  C   UNL     1       4.237   1.769 -15.038  1.00  0.00     0.191 C 
BRANCH  37  38
ATOM     38  O   UNL     1       4.247   2.801 -14.089  1.00  0.00    -0.394 OA
ATOM     39  H   UNL     1       5.199   3.029 -13.926  1.00  0.00     0.210 HD
ENDBRANCH  37  38
ENDBRANCH  31  37
BRANCH  32  40
ATOM     40  O   UNL     1       4.914   0.808 -18.223  1.00  0.00    -0.387 OA
ATOM     41  H   UNL     1       4.348   0.076 -17.859  1.00  0.00     0.211 HD
ENDBRANCH  32  40
ENDBRANCH   1  27
TORSDOF 12
ENDMDL
