MODEL 1
REMARK VINA RESULT:    -6.630      0.000      0.000
REMARK INTER + INTRA:          -7.205
REMARK INTER:                  -7.211
REMARK INTRA:                   0.006
REMARK UNBOUND:                 0.006
REMARK SMILES C=C1C[C@]2(O)O[C@@]3(C[C@H]2C(C)C)[C@@H]1CC[C@@H]3C
REMARK SMILES IDX 17 1 16 2 15 3 14 4 13 5 7 6 8 7 9 8 4 9 6 10 3 11 2 12 1 13
REMARK SMILES IDX 10 14 11 15 12 16 5 17
REMARK H PARENT 5 18
REMARK Flexibility Score: inf
ROOT
ATOM      1  C   UNL     1      55.629 -17.941   2.342  1.00  0.00     0.011 C 
ATOM      2  C   UNL     1      54.263 -18.183   3.016  1.00  0.00     0.019 C 
ATOM      3  C   UNL     1      53.125 -17.934   2.017  1.00  0.00     0.007 C 
ATOM      4  C   UNL     1      52.725 -19.297   1.443  1.00  0.00     0.011 C 
ATOM      5  C   UNL     1      53.542 -20.354   2.197  1.00  0.00     0.047 C 
ATOM      6  C   UNL     1      54.039 -19.638   3.468  1.00  0.00     0.081 C 
ATOM      7  C   UNL     1      55.244 -20.340   4.107  1.00  0.00     0.046 C 
ATOM      8  C   UNL     1      54.595 -21.320   5.083  1.00  0.00     0.054 C 
ATOM      9  C   UNL     1      53.082 -20.986   4.955  1.00  0.00     0.173 C 
ATOM     10  O   UNL     1      53.016 -19.675   4.440  1.00  0.00    -0.342 OA
ATOM     11  C   UNL     1      52.367 -21.933   3.954  1.00  0.00     0.096 C 
ATOM     12  C   UNL     1      52.733 -21.603   2.520  1.00  0.00    -0.066 C 
ATOM     13  C   UNL     1      52.328 -22.413   1.532  1.00  0.00     0.008 C 
ENDROOT
BRANCH   8  14
ATOM     14  C   UNL     1      55.171 -21.249   6.535  1.00  0.00    -0.009 C 
ATOM     15  C   UNL     1      55.111 -19.850   7.184  1.00  0.00     0.008 C 
ATOM     16  C   UNL     1      56.607 -21.791   6.585  1.00  0.00     0.008 C 
ENDBRANCH   8  14
BRANCH   9  17
ATOM     17  O   UNL     1      52.430 -21.057   6.200  1.00  0.00    -0.365 OA
ATOM     18  H   UNL     1      51.790 -21.815   6.156  1.00  0.00     0.214 HD
ENDBRANCH   9  17
TORSDOF 2
ENDMDL
MODEL 2
REMARK VINA RESULT:    -6.403      1.648      3.453
REMARK INTER + INTRA:          -6.958
REMARK INTER:                  -6.713
REMARK INTRA:                  -0.246
REMARK UNBOUND:                 0.006
REMARK SMILES C=C1C[C@]2(O)O[C@@]3(C[C@H]2C(C)C)[C@@H]1CC[C@@H]3C
REMARK SMILES IDX 17 1 16 2 15 3 14 4 13 5 7 6 8 7 9 8 4 9 6 10 3 11 2 12 1 13
REMARK SMILES IDX 10 14 11 15 12 16 5 17
REMARK H PARENT 5 18
REMARK Flexibility Score: inf
ROOT
ATOM      1  C   UNL     1      50.901 -21.658   3.601  1.00  0.00     0.011 C 
ATOM      2  C   UNL     1      52.096 -21.562   2.631  1.00  0.00     0.019 C 
ATOM      3  C   UNL     1      51.683 -20.823   1.350  1.00  0.00     0.007 C 
ATOM      4  C   UNL     1      52.110 -19.361   1.517  1.00  0.00     0.011 C 
ATOM      5  C   UNL     1      52.882 -19.271   2.839  1.00  0.00     0.047 C 
ATOM      6  C   UNL     1      53.271 -20.725   3.170  1.00  0.00     0.081 C 
ATOM      7  C   UNL     1      53.615 -20.921   4.652  1.00  0.00     0.046 C 
ATOM      8  C   UNL     1      55.120 -20.657   4.695  1.00  0.00     0.054 C 
ATOM      9  C   UNL     1      55.476 -20.438   3.198  1.00  0.00     0.173 C 
ATOM     10  O   UNL     1      54.446 -21.054   2.459  1.00  0.00    -0.342 OA
ATOM     11  C   UNL     1      55.497 -18.930   2.827  1.00  0.00     0.096 C 
ATOM     12  C   UNL     1      54.096 -18.357   2.751  1.00  0.00    -0.066 C 
ATOM     13  C   UNL     1      53.930 -17.036   2.592  1.00  0.00     0.008 C 
ENDROOT
BRANCH   8  14
ATOM     14  C   UNL     1      55.942 -21.773   5.418  1.00  0.00    -0.009 C 
ATOM     15  C   UNL     1      55.399 -23.204   5.218  1.00  0.00     0.008 C 
ATOM     16  C   UNL     1      56.086 -21.469   6.916  1.00  0.00     0.008 C 
ENDBRANCH   8  14
BRANCH   9  17
ATOM     17  O   UNL     1      56.721 -21.007   2.874  1.00  0.00    -0.365 OA
ATOM     18  H   UNL     1      56.564 -21.967   2.671  1.00  0.00     0.214 HD
ENDBRANCH   9  17
TORSDOF 2
ENDMDL
MODEL 3
REMARK VINA RESULT:    -6.182      1.560      5.166
REMARK INTER + INTRA:          -6.717
REMARK INTER:                  -6.489
REMARK INTRA:                  -0.229
REMARK UNBOUND:                 0.006
REMARK SMILES C=C1C[C@]2(O)O[C@@]3(C[C@H]2C(C)C)[C@@H]1CC[C@@H]3C
REMARK SMILES IDX 17 1 16 2 15 3 14 4 13 5 7 6 8 7 9 8 4 9 6 10 3 11 2 12 1 13
REMARK SMILES IDX 10 14 11 15 12 16 5 17
REMARK H PARENT 5 18
REMARK Flexibility Score: inf
ROOT
ATOM      1  C   UNL     1      52.150 -22.150   4.326  1.00  0.00     0.011 C 
ATOM      2  C   UNL     1      52.562 -20.695   4.626  1.00  0.00     0.019 C 
ATOM      3  C   UNL     1      53.537 -20.651   5.811  1.00  0.00     0.007 C 
ATOM      4  C   UNL     1      54.953 -20.596   5.225  1.00  0.00     0.011 C 
ATOM      5  C   UNL     1      54.800 -20.480   3.704  1.00  0.00     0.047 C 
ATOM      6  C   UNL     1      53.346 -20.020   3.485  1.00  0.00     0.081 C 
ATOM      7  C   UNL     1      52.845 -20.304   2.063  1.00  0.00     0.046 C 
ATOM      8  C   UNL     1      53.214 -19.028   1.307  1.00  0.00     0.054 C 
ATOM      9  C   UNL     1      53.798 -18.118   2.425  1.00  0.00     0.173 C 
ATOM     10  O   UNL     1      53.284 -18.618   3.639  1.00  0.00    -0.342 OA
ATOM     11  C   UNL     1      55.347 -18.205   2.485  1.00  0.00     0.096 C 
ATOM     12  C   UNL     1      55.806 -19.521   3.083  1.00  0.00    -0.066 C 
ATOM     13  C   UNL     1      57.110 -19.831   3.073  1.00  0.00     0.008 C 
ENDROOT
BRANCH   8  14
ATOM     14  C   UNL     1      52.033 -18.405   0.493  1.00  0.00    -0.009 C 
ATOM     15  C   UNL     1      50.750 -19.263   0.461  1.00  0.00     0.008 C 
ATOM     16  C   UNL     1      52.470 -18.061  -0.938  1.00  0.00     0.008 C 
ENDBRANCH   8  14
BRANCH   9  17
ATOM     17  O   UNL     1      53.420 -16.775   2.248  1.00  0.00    -0.365 OA
ATOM     18  H   UNL     1      53.075 -16.447   3.119  1.00  0.00     0.214 HD
ENDBRANCH   9  17
TORSDOF 2
ENDMDL
MODEL 4
REMARK VINA RESULT:    -6.057      1.730      2.609
REMARK INTER + INTRA:          -6.582
REMARK INTER:                  -6.348
REMARK INTRA:                  -0.234
REMARK UNBOUND:                 0.006
REMARK SMILES C=C1C[C@]2(O)O[C@@]3(C[C@H]2C(C)C)[C@@H]1CC[C@@H]3C
REMARK SMILES IDX 17 1 16 2 15 3 14 4 13 5 7 6 8 7 9 8 4 9 6 10 3 11 2 12 1 13
REMARK SMILES IDX 10 14 11 15 12 16 5 17
REMARK H PARENT 5 18
REMARK Flexibility Score: inf
ROOT
ATOM      1  C   UNL     1      51.817 -18.609   0.513  1.00  0.00     0.011 C 
ATOM      2  C   UNL     1      51.429 -18.880   1.981  1.00  0.00     0.019 C 
ATOM      3  C   UNL     1      49.917 -19.120   2.097  1.00  0.00     0.007 C 
ATOM      4  C   UNL     1      49.702 -20.637   2.092  1.00  0.00     0.011 C 
ATOM      5  C   UNL     1      51.093 -21.284   2.100  1.00  0.00     0.047 C 
ATOM      6  C   UNL     1      52.047 -20.165   2.562  1.00  0.00     0.081 C 
ATOM      7  C   UNL     1      53.508 -20.443   2.184  1.00  0.00     0.046 C 
ATOM      8  C   UNL     1      54.039 -21.205   3.397  1.00  0.00     0.054 C 
ATOM      9  C   UNL     1      52.832 -21.182   4.377  1.00  0.00     0.173 C 
ATOM     10  O   UNL     1      52.024 -20.101   3.973  1.00  0.00    -0.342 OA
ATOM     11  C   UNL     1      51.987 -22.480   4.275  1.00  0.00     0.096 C 
ATOM     12  C   UNL     1      51.167 -22.510   3.000  1.00  0.00    -0.066 C 
ATOM     13  C   UNL     1      50.493 -23.622   2.673  1.00  0.00     0.008 C 
ENDROOT
BRANCH   8  14
ATOM     14  C   UNL     1      55.375 -20.631   3.975  1.00  0.00    -0.009 C 
ATOM     15  C   UNL     1      55.982 -19.469   3.160  1.00  0.00     0.008 C 
ATOM     16  C   UNL     1      56.417 -21.743   4.163  1.00  0.00     0.008 C 
ENDBRANCH   8  14
BRANCH   9  17
ATOM     17  O   UNL     1      53.251 -21.011   5.709  1.00  0.00    -0.365 OA
ATOM     18  H   UNL     1      52.722 -21.638   6.269  1.00  0.00     0.214 HD
ENDBRANCH   9  17
TORSDOF 2
ENDMDL
MODEL 5
REMARK VINA RESULT:    -6.040      1.988      3.857
REMARK INTER + INTRA:          -6.563
REMARK INTER:                  -6.334
REMARK INTRA:                  -0.229
REMARK UNBOUND:                 0.006
REMARK SMILES C=C1C[C@]2(O)O[C@@]3(C[C@H]2C(C)C)[C@@H]1CC[C@@H]3C
REMARK SMILES IDX 17 1 16 2 15 3 14 4 13 5 7 6 8 7 9 8 4 9 6 10 3 11 2 12 1 13
REMARK SMILES IDX 10 14 11 15 12 16 5 17
REMARK H PARENT 5 18
REMARK Flexibility Score: inf
ROOT
ATOM      1  C   UNL     1      53.496 -17.195   3.505  1.00  0.00     0.011 C 
ATOM      2  C   UNL     1      53.954 -18.240   2.467  1.00  0.00     0.019 C 
ATOM      3  C   UNL     1      55.436 -18.035   2.125  1.00  0.00     0.007 C 
ATOM      4  C   UNL     1      56.237 -19.013   2.992  1.00  0.00     0.011 C 
ATOM      5  C   UNL     1      55.218 -19.874   3.747  1.00  0.00     0.047 C 
ATOM      6  C   UNL     1      53.896 -19.692   2.976  1.00  0.00     0.081 C 
ATOM      7  C   UNL     1      52.667 -20.064   3.816  1.00  0.00     0.046 C 
ATOM      8  C   UNL     1      52.478 -21.550   3.510  1.00  0.00     0.054 C 
ATOM      9  C   UNL     1      53.573 -21.827   2.442  1.00  0.00     0.173 C 
ATOM     10  O   UNL     1      53.887 -20.575   1.874  1.00  0.00    -0.342 OA
ATOM     11  C   UNL     1      54.865 -22.402   3.081  1.00  0.00     0.096 C 
ATOM     12  C   UNL     1      55.634 -21.336   3.837  1.00  0.00    -0.066 C 
ATOM     13  C   UNL     1      56.695 -21.686   4.578  1.00  0.00     0.008 C 
ENDROOT
BRANCH   8  14
ATOM     14  C   UNL     1      51.022 -21.932   3.084  1.00  0.00    -0.009 C 
ATOM     15  C   UNL     1      49.997 -20.783   3.192  1.00  0.00     0.008 C 
ATOM     16  C   UNL     1      50.524 -23.157   3.864  1.00  0.00     0.008 C 
ENDBRANCH   8  14
BRANCH   9  17
ATOM     17  O   UNL     1      53.117 -22.715   1.451  1.00  0.00    -0.365 OA
ATOM     18  H   UNL     1      53.037 -23.611   1.870  1.00  0.00     0.214 HD
ENDBRANCH   9  17
TORSDOF 2
ENDMDL
MODEL 6
REMARK VINA RESULT:    -5.880      2.632      4.616
REMARK INTER + INTRA:          -6.389
REMARK INTER:                  -6.172
REMARK INTRA:                  -0.218
REMARK UNBOUND:                 0.006
REMARK SMILES C=C1C[C@]2(O)O[C@@]3(C[C@H]2C(C)C)[C@@H]1CC[C@@H]3C
REMARK SMILES IDX 17 1 16 2 15 3 14 4 13 5 7 6 8 7 9 8 4 9 6 10 3 11 2 12 1 13
REMARK SMILES IDX 10 14 11 15 12 16 5 17
REMARK H PARENT 5 18
REMARK Flexibility Score: inf
ROOT
ATOM      1  C   UNL     1      49.898 -18.418   2.117  1.00  0.00     0.011 C 
ATOM      2  C   UNL     1      50.794 -19.238   1.166  1.00  0.00     0.019 C 
ATOM      3  C   UNL     1      51.881 -18.342   0.554  1.00  0.00     0.007 C 
ATOM      4  C   UNL     1      53.146 -18.533   1.397  1.00  0.00     0.011 C 
ATOM      5  C   UNL     1      52.837 -19.631   2.422  1.00  0.00     0.047 C 
ATOM      6  C   UNL     1      51.593 -20.351   1.867  1.00  0.00     0.081 C 
ATOM      7  C   UNL     1      50.842 -21.145   2.944  1.00  0.00     0.046 C 
ATOM      8  C   UNL     1      51.498 -22.524   2.877  1.00  0.00     0.054 C 
ATOM      9  C   UNL     1      52.488 -22.380   1.686  1.00  0.00     0.173 C 
ATOM     10  O   UNL     1      52.008 -21.304   0.911  1.00  0.00    -0.342 OA
ATOM     11  C   UNL     1      53.919 -22.023   2.170  1.00  0.00     0.096 C 
ATOM     12  C   UNL     1      54.005 -20.583   2.635  1.00  0.00    -0.066 C 
ATOM     13  C   UNL     1      55.126 -20.146   3.228  1.00  0.00     0.008 C 
ENDROOT
BRANCH   8  14
ATOM     14  C   UNL     1      50.482 -23.707   2.757  1.00  0.00    -0.009 C 
ATOM     15  C   UNL     1      49.276 -23.430   1.834  1.00  0.00     0.008 C 
ATOM     16  C   UNL     1      49.993 -24.156   4.142  1.00  0.00     0.008 C 
ENDBRANCH   8  14
BRANCH   9  17
ATOM     17  O   UNL     1      52.543 -23.554   0.915  1.00  0.00    -0.365 OA
ATOM     18  H   UNL     1      52.358 -23.300  -0.027  1.00  0.00     0.214 HD
ENDBRANCH   9  17
TORSDOF 2
ENDMDL
MODEL 7
REMARK VINA RESULT:    -5.821      2.079      4.538
REMARK INTER + INTRA:          -6.325
REMARK INTER:                  -6.073
REMARK INTRA:                  -0.253
REMARK UNBOUND:                 0.006
REMARK SMILES C=C1C[C@]2(O)O[C@@]3(C[C@H]2C(C)C)[C@@H]1CC[C@@H]3C
REMARK SMILES IDX 17 1 16 2 15 3 14 4 13 5 7 6 8 7 9 8 4 9 6 10 3 11 2 12 1 13
REMARK SMILES IDX 10 14 11 15 12 16 5 17
REMARK H PARENT 5 18
REMARK Flexibility Score: inf
ROOT
ATOM      1  C   UNL     1      54.608 -21.981   4.530  1.00  0.00     0.011 C 
ATOM      2  C   UNL     1      53.487 -20.934   4.688  1.00  0.00     0.019 C 
ATOM      3  C   UNL     1      54.083 -19.521   4.744  1.00  0.00     0.007 C 
ATOM      4  C   UNL     1      53.992 -18.938   3.329  1.00  0.00     0.011 C 
ATOM      5  C   UNL     1      53.230 -19.960   2.476  1.00  0.00     0.047 C 
ATOM      6  C   UNL     1      52.518 -20.873   3.493  1.00  0.00     0.081 C 
ATOM      7  C   UNL     1      52.106 -22.221   2.888  1.00  0.00     0.046 C 
ATOM      8  C   UNL     1      50.698 -21.947   2.359  1.00  0.00     0.054 C 
ATOM      9  C   UNL     1      50.433 -20.486   2.821  1.00  0.00     0.173 C 
ATOM     10  O   UNL     1      51.315 -20.252   3.896  1.00  0.00    -0.342 OA
ATOM     11  C   UNL     1      50.759 -19.462   1.700  1.00  0.00     0.096 C 
ATOM     12  C   UNL     1      52.254 -19.307   1.507  1.00  0.00    -0.066 C 
ATOM     13  C   UNL     1      52.716 -18.579   0.480  1.00  0.00     0.008 C 
ENDROOT
BRANCH   8  14
ATOM     14  C   UNL     1      49.631 -22.993   2.818  1.00  0.00    -0.009 C 
ATOM     15  C   UNL     1      50.135 -24.014   3.860  1.00  0.00     0.008 C 
ATOM     16  C   UNL     1      49.026 -23.728   1.613  1.00  0.00     0.008 C 
ENDBRANCH   8  14
BRANCH   9  17
ATOM     17  O   UNL     1      49.100 -20.308   3.232  1.00  0.00    -0.365 OA
ATOM     18  H   UNL     1      49.118 -19.811   4.091  1.00  0.00     0.214 HD
ENDBRANCH   9  17
TORSDOF 2
ENDMDL
MODEL 8
REMARK VINA RESULT:    -5.716      1.911      5.049
REMARK INTER + INTRA:          -6.211
REMARK INTER:                  -5.956
REMARK INTRA:                  -0.255
REMARK UNBOUND:                 0.006
REMARK SMILES C=C1C[C@]2(O)O[C@@]3(C[C@H]2C(C)C)[C@@H]1CC[C@@H]3C
REMARK SMILES IDX 17 1 16 2 15 3 14 4 13 5 7 6 8 7 9 8 4 9 6 10 3 11 2 12 1 13
REMARK SMILES IDX 10 14 11 15 12 16 5 17
REMARK H PARENT 5 18
REMARK Flexibility Score: inf
ROOT
ATOM      1  C   UNL     1      54.656 -22.342   3.239  1.00  0.00     0.011 C 
ATOM      2  C   UNL     1      53.649 -21.428   3.967  1.00  0.00     0.019 C 
ATOM      3  C   UNL     1      54.357 -20.631   5.072  1.00  0.00     0.007 C 
ATOM      4  C   UNL     1      54.696 -19.255   4.486  1.00  0.00     0.011 C 
ATOM      5  C   UNL     1      54.078 -19.204   3.084  1.00  0.00     0.047 C 
ATOM      6  C   UNL     1      53.034 -20.338   3.069  1.00  0.00     0.081 C 
ATOM      7  C   UNL     1      52.653 -20.771   1.647  1.00  0.00     0.046 C 
ATOM      8  C   UNL     1      51.467 -19.864   1.318  1.00  0.00     0.054 C 
ATOM      9  C   UNL     1      51.247 -19.084   2.645  1.00  0.00     0.173 C 
ATOM     10  O   UNL     1      51.840 -19.865   3.657  1.00  0.00    -0.342 OA
ATOM     11  C   UNL     1      51.958 -17.704   2.623  1.00  0.00     0.096 C 
ATOM     12  C   UNL     1      53.460 -17.851   2.762  1.00  0.00    -0.066 C 
ATOM     13  C   UNL     1      54.246 -16.775   2.611  1.00  0.00     0.008 C 
ENDROOT
BRANCH   8  14
ATOM     14  C   UNL     1      50.213 -20.628   0.780  1.00  0.00    -0.009 C 
ATOM     15  C   UNL     1      50.022 -22.045   1.362  1.00  0.00     0.008 C 
ATOM     16  C   UNL     1      50.219 -20.686  -0.754  1.00  0.00     0.008 C 
ENDBRANCH   8  14
BRANCH   9  17
ATOM     17  O   UNL     1      49.880 -18.892   2.911  1.00  0.00    -0.365 OA
ATOM     18  H   UNL     1      49.601 -18.060   2.446  1.00  0.00     0.214 HD
ENDBRANCH   9  17
TORSDOF 2
ENDMDL
MODEL 9
REMARK VINA RESULT:    -5.488      6.162      7.834
REMARK INTER + INTRA:          -5.963
REMARK INTER:                  -5.785
REMARK INTRA:                  -0.177
REMARK UNBOUND:                 0.006
REMARK SMILES C=C1C[C@]2(O)O[C@@]3(C[C@H]2C(C)C)[C@@H]1CC[C@@H]3C
REMARK SMILES IDX 17 1 16 2 15 3 14 4 13 5 7 6 8 7 9 8 4 9 6 10 3 11 2 12 1 13
REMARK SMILES IDX 10 14 11 15 12 16 5 17
REMARK H PARENT 5 18
REMARK Flexibility Score: inf
ROOT
ATOM      1  C   UNL     1      62.060 -18.481  -1.815  1.00  0.00     0.011 C 
ATOM      2  C   UNL     1      62.125 -17.906  -0.385  1.00  0.00     0.019 C 
ATOM      3  C   UNL     1      61.876 -16.391  -0.409  1.00  0.00     0.007 C 
ATOM      4  C   UNL     1      60.394 -16.175  -0.087  1.00  0.00     0.011 C 
ATOM      5  C   UNL     1      59.805 -17.551   0.247  1.00  0.00     0.047 C 
ATOM      6  C   UNL     1      61.026 -18.440   0.552  1.00  0.00     0.081 C 
ATOM      7  C   UNL     1      60.709 -19.937   0.436  1.00  0.00     0.046 C 
ATOM      8  C   UNL     1      60.263 -20.306   1.851  1.00  0.00     0.054 C 
ATOM      9  C   UNL     1      60.478 -18.982   2.638  1.00  0.00     0.173 C 
ATOM     10  O   UNL     1      61.414 -18.235   1.894  1.00  0.00    -0.342 OA
ATOM     11  C   UNL     1      59.169 -18.154   2.735  1.00  0.00     0.096 C 
ATOM     12  C   UNL     1      58.823 -17.505   1.409  1.00  0.00    -0.066 C 
ATOM     13  C   UNL     1      57.647 -16.877   1.267  1.00  0.00     0.008 C 
ENDROOT
BRANCH   8  14
ATOM     14  C   UNL     1      60.992 -21.557   2.442  1.00  0.00    -0.009 C 
ATOM     15  C   UNL     1      61.731 -22.424   1.401  1.00  0.00     0.008 C 
ATOM     16  C   UNL     1      60.023 -22.425   3.257  1.00  0.00     0.008 C 
ENDBRANCH   8  14
BRANCH   9  17
ATOM     17  O   UNL     1      60.964 -19.225   3.935  1.00  0.00    -0.365 OA
ATOM     18  H   UNL     1      61.929 -18.991   3.940  1.00  0.00     0.214 HD
ENDBRANCH   9  17
TORSDOF 2
ENDMDL
