MODEL 1
REMARK VINA RESULT:    -6.663      0.000      0.000
REMARK INTER + INTRA:          -6.663
REMARK INTER:                  -6.663
REMARK INTRA:                   0.000
REMARK UNBOUND:                 0.000
REMARK SMILES Cc1cccc2ccccc12
REMARK SMILES IDX 1 1 2 2 3 3 4 4 5 5 6 6 7 7 8 8 9 9 10 10 11 11
REMARK H PARENT
REMARK Flexibility Score: inf
ROOT
ATOM      1  C   UNL     1      18.501 -10.748 -18.606  1.00  0.00     0.045 C 
ATOM      2  C   UNL     1      17.372 -11.513 -19.250  1.00  0.00    -0.043 A 
ATOM      3  C   UNL     1      17.295 -12.901 -19.052  1.00  0.00     0.004 A 
ATOM      4  C   UNL     1      16.268 -13.649 -19.628  1.00  0.00     0.001 A 
ATOM      5  C   UNL     1      15.299 -13.026 -20.413  1.00  0.00     0.009 A 
ATOM      6  C   UNL     1      15.349 -11.642 -20.630  1.00  0.00    -0.018 A 
ATOM      7  C   UNL     1      14.370 -11.020 -21.421  1.00  0.00     0.009 A 
ATOM      8  C   UNL     1      14.413  -9.643 -21.641  1.00  0.00     0.001 A 
ATOM      9  C   UNL     1      15.430  -8.875 -21.076  1.00  0.00     0.001 A 
ATOM     10  C   UNL     1      16.413  -9.477 -20.285  1.00  0.00     0.009 A 
ATOM     11  C   UNL     1      16.390 -10.868 -20.048  1.00  0.00    -0.015 A 
ENDROOT
TORSDOF 0
ENDMDL
MODEL 2
REMARK VINA RESULT:    -6.127      0.795      2.553
REMARK INTER + INTRA:          -6.127
REMARK INTER:                  -6.127
REMARK INTRA:                   0.000
REMARK UNBOUND:                 0.000
REMARK SMILES Cc1cccc2ccccc12
REMARK SMILES IDX 1 1 2 2 3 3 4 4 5 5 6 6 7 7 8 8 9 9 10 10 11 11
REMARK H PARENT
REMARK Flexibility Score: inf
ROOT
ATOM      1  C   UNL     1      15.475 -13.761 -19.862  1.00  0.00     0.045 C 
ATOM      2  C   UNL     1      16.211 -12.451 -19.746  1.00  0.00    -0.043 A 
ATOM      3  C   UNL     1      17.407 -12.408 -19.009  1.00  0.00     0.004 A 
ATOM      4  C   UNL     1      18.121 -11.218 -18.875  1.00  0.00     0.001 A 
ATOM      5  C   UNL     1      17.657 -10.047 -19.473  1.00  0.00     0.009 A 
ATOM      6  C   UNL     1      16.468 -10.057 -20.214  1.00  0.00    -0.018 A 
ATOM      7  C   UNL     1      16.005  -8.875 -20.815  1.00  0.00     0.009 A 
ATOM      8  C   UNL     1      14.822  -8.877 -21.554  1.00  0.00     0.001 A 
ATOM      9  C   UNL     1      14.091 -10.055 -21.702  1.00  0.00     0.001 A 
ATOM     10  C   UNL     1      14.536 -11.241 -21.112  1.00  0.00     0.009 A 
ATOM     11  C   UNL     1      15.730 -11.264 -20.359  1.00  0.00    -0.015 A 
ENDROOT
TORSDOF 0
ENDMDL
MODEL 3
REMARK VINA RESULT:    -6.092      1.139      3.324
REMARK INTER + INTRA:          -6.092
REMARK INTER:                  -6.092
REMARK INTRA:                   0.000
REMARK UNBOUND:                 0.000
REMARK SMILES Cc1cccc2ccccc12
REMARK SMILES IDX 1 1 2 2 3 3 4 4 5 5 6 6 7 7 8 8 9 9 10 10 11 11
REMARK H PARENT
REMARK Flexibility Score: inf
ROOT
ATOM      1  C   UNL     1      14.493  -9.369 -21.584  1.00  0.00     0.045 C 
ATOM      2  C   UNL     1      15.133 -10.360 -20.645  1.00  0.00    -0.043 A 
ATOM      3  C   UNL     1      14.382 -11.466 -20.212  1.00  0.00     0.004 A 
ATOM      4  C   UNL     1      14.933 -12.408 -19.344  1.00  0.00     0.001 A 
ATOM      5  C   UNL     1      16.243 -12.266 -18.891  1.00  0.00     0.009 A 
ATOM      6  C   UNL     1      17.018 -11.174 -19.304  1.00  0.00    -0.018 A 
ATOM      7  C   UNL     1      18.337 -11.035 -18.844  1.00  0.00     0.009 A 
ATOM      8  C   UNL     1      19.115  -9.950 -19.251  1.00  0.00     0.001 A 
ATOM      9  C   UNL     1      18.586  -8.996 -20.118  1.00  0.00     0.001 A 
ATOM     10  C   UNL     1      17.274  -9.117 -20.586  1.00  0.00     0.009 A 
ATOM     11  C   UNL     1      16.469 -10.205 -20.189  1.00  0.00    -0.015 A 
ENDROOT
TORSDOF 0
ENDMDL
MODEL 4
REMARK VINA RESULT:    -5.913      6.279      8.441
REMARK INTER + INTRA:          -5.913
REMARK INTER:                  -5.913
REMARK INTRA:                   0.000
REMARK UNBOUND:                 0.000
REMARK SMILES Cc1cccc2ccccc12
REMARK SMILES IDX 1 1 2 2 3 3 4 4 5 5 6 6 7 7 8 8 9 9 10 10 11 11
REMARK H PARENT
REMARK Flexibility Score: inf
ROOT
ATOM      1  C   UNL     1      18.117 -19.407 -20.765  1.00  0.00     0.045 C 
ATOM      2  C   UNL     1      18.829 -18.114 -21.069  1.00  0.00    -0.043 A 
ATOM      3  C   UNL     1      18.516 -16.972 -20.312  1.00  0.00     0.004 A 
ATOM      4  C   UNL     1      19.150 -15.755 -20.560  1.00  0.00     0.001 A 
ATOM      5  C   UNL     1      20.109 -15.653 -21.566  1.00  0.00     0.009 A 
ATOM      6  C   UNL     1      20.443 -16.773 -22.339  1.00  0.00    -0.018 A 
ATOM      7  C   UNL     1      21.410 -16.664 -23.351  1.00  0.00     0.009 A 
ATOM      8  C   UNL     1      21.748 -17.775 -24.125  1.00  0.00     0.001 A 
ATOM      9  C   UNL     1      21.127 -19.002 -23.897  1.00  0.00     0.001 A 
ATOM     10  C   UNL     1      20.163 -19.129 -22.892  1.00  0.00     0.009 A 
ATOM     11  C   UNL     1      19.804 -18.020 -22.098  1.00  0.00    -0.015 A 
ENDROOT
TORSDOF 0
ENDMDL
MODEL 5
REMARK VINA RESULT:    -5.904      6.128      8.400
REMARK INTER + INTRA:          -5.904
REMARK INTER:                  -5.904
REMARK INTRA:                   0.000
REMARK UNBOUND:                 0.000
REMARK SMILES Cc1cccc2ccccc12
REMARK SMILES IDX 1 1 2 2 3 3 4 4 5 5 6 6 7 7 8 8 9 9 10 10 11 11
REMARK H PARENT
REMARK Flexibility Score: inf
ROOT
ATOM      1  C   UNL     1      21.691 -16.714 -23.237  1.00  0.00     0.045 C 
ATOM      2  C   UNL     1      20.558 -16.802 -22.246  1.00  0.00    -0.043 A 
ATOM      3  C   UNL     1      20.169 -15.642 -21.556  1.00  0.00     0.004 A 
ATOM      4  C   UNL     1      19.126 -15.678 -20.631  1.00  0.00     0.001 A 
ATOM      5  C   UNL     1      18.451 -16.870 -20.376  1.00  0.00     0.009 A 
ATOM      6  C   UNL     1      18.816 -18.045 -21.048  1.00  0.00    -0.018 A 
ATOM      7  C   UNL     1      18.132 -19.243 -20.788  1.00  0.00     0.009 A 
ATOM      8  C   UNL     1      18.489 -20.416 -21.453  1.00  0.00     0.001 A 
ATOM      9  C   UNL     1      19.529 -20.406 -22.383  1.00  0.00     0.001 A 
ATOM     10  C   UNL     1      20.220 -19.221 -22.655  1.00  0.00     0.009 A 
ATOM     11  C   UNL     1      19.877 -18.023 -21.994  1.00  0.00    -0.015 A 
ENDROOT
TORSDOF 0
ENDMDL
MODEL 6
REMARK VINA RESULT:    -5.851      6.456      8.141
REMARK INTER + INTRA:          -5.851
REMARK INTER:                  -5.851
REMARK INTRA:                   0.000
REMARK UNBOUND:                 0.000
REMARK SMILES Cc1cccc2ccccc12
REMARK SMILES IDX 1 1 2 2 3 3 4 4 5 5 6 6 7 7 8 8 9 9 10 10 11 11
REMARK H PARENT
REMARK Flexibility Score: inf
ROOT
ATOM      1  C   UNL     1      22.052 -16.655 -24.088  1.00  0.00     0.045 C 
ATOM      2  C   UNL     1      21.136 -17.646 -23.416  1.00  0.00    -0.043 A 
ATOM      3  C   UNL     1      21.138 -18.980 -23.859  1.00  0.00     0.004 A 
ATOM      4  C   UNL     1      20.307 -19.930 -23.267  1.00  0.00     0.001 A 
ATOM      5  C   UNL     1      19.457 -19.569 -22.223  1.00  0.00     0.009 A 
ATOM      6  C   UNL     1      19.431 -18.247 -21.759  1.00  0.00    -0.018 A 
ATOM      7  C   UNL     1      18.573 -17.890 -20.707  1.00  0.00     0.009 A 
ATOM      8  C   UNL     1      18.542 -16.575 -20.239  1.00  0.00     0.001 A 
ATOM      9  C   UNL     1      19.364 -15.608 -20.815  1.00  0.00     0.001 A 
ATOM     10  C   UNL     1      20.225 -15.946 -21.864  1.00  0.00     0.009 A 
ATOM     11  C   UNL     1      20.273 -17.268 -22.353  1.00  0.00    -0.015 A 
ENDROOT
TORSDOF 0
ENDMDL
MODEL 7
REMARK VINA RESULT:    -5.799      6.441      8.465
REMARK INTER + INTRA:          -5.799
REMARK INTER:                  -5.799
REMARK INTRA:                   0.000
REMARK UNBOUND:                 0.000
REMARK SMILES Cc1cccc2ccccc12
REMARK SMILES IDX 1 1 2 2 3 3 4 4 5 5 6 6 7 7 8 8 9 9 10 10 11 11
REMARK H PARENT
REMARK Flexibility Score: inf
ROOT
ATOM      1  C   UNL     1      18.459 -20.618 -21.650  1.00  0.00     0.045 C 
ATOM      2  C   UNL     1      19.363 -19.581 -22.266  1.00  0.00    -0.043 A 
ATOM      3  C   UNL     1      20.186 -19.952 -23.342  1.00  0.00     0.004 A 
ATOM      4  C   UNL     1      21.038 -19.025 -23.942  1.00  0.00     0.001 A 
ATOM      5  C   UNL     1      21.085 -17.710 -23.481  1.00  0.00     0.009 A 
ATOM      6  C   UNL     1      20.276 -17.309 -22.409  1.00  0.00    -0.018 A 
ATOM      7  C   UNL     1      20.327 -15.984 -21.949  1.00  0.00     0.009 A 
ATOM      8  C   UNL     1      19.525 -15.577 -20.882  1.00  0.00     0.001 A 
ATOM      9  C   UNL     1      18.666 -16.486 -20.266  1.00  0.00     0.001 A 
ATOM     10  C   UNL     1      18.602 -17.809 -20.711  1.00  0.00     0.009 A 
ATOM     11  C   UNL     1      19.403 -18.244 -21.788  1.00  0.00    -0.015 A 
ENDROOT
TORSDOF 0
ENDMDL
MODEL 8
REMARK VINA RESULT:    -5.762      6.471      8.416
REMARK INTER + INTRA:          -5.762
REMARK INTER:                  -5.762
REMARK INTRA:                   0.000
REMARK UNBOUND:                 0.000
REMARK SMILES Cc1cccc2ccccc12
REMARK SMILES IDX 1 1 2 2 3 3 4 4 5 5 6 6 7 7 8 8 9 9 10 10 11 11
REMARK H PARENT
REMARK Flexibility Score: inf
ROOT
ATOM      1  C   UNL     1      20.736 -19.731 -24.106  1.00  0.00     0.045 C 
ATOM      2  C   UNL     1      19.810 -19.550 -22.929  1.00  0.00    -0.043 A 
ATOM      3  C   UNL     1      19.030 -20.639 -22.506  1.00  0.00     0.004 A 
ATOM      4  C   UNL     1      18.160 -20.516 -21.423  1.00  0.00     0.001 A 
ATOM      5  C   UNL     1      18.052 -19.305 -20.741  1.00  0.00     0.009 A 
ATOM      6  C   UNL     1      18.817 -18.200 -21.139  1.00  0.00    -0.018 A 
ATOM      7  C   UNL     1      18.704 -16.983 -20.448  1.00  0.00     0.009 A 
ATOM      8  C   UNL     1      19.462 -15.878 -20.839  1.00  0.00     0.001 A 
ATOM      9  C   UNL     1      20.338 -15.977 -21.919  1.00  0.00     0.001 A 
ATOM     10  C   UNL     1      20.463 -17.181 -22.618  1.00  0.00     0.009 A 
ATOM     11  C   UNL     1      19.707 -18.311 -22.242  1.00  0.00    -0.015 A 
ENDROOT
TORSDOF 0
ENDMDL
MODEL 9
REMARK VINA RESULT:    -5.671      6.514      8.712
REMARK INTER + INTRA:          -5.671
REMARK INTER:                  -5.671
REMARK INTRA:                   0.000
REMARK UNBOUND:                 0.000
REMARK SMILES Cc1cccc2ccccc12
REMARK SMILES IDX 1 1 2 2 3 3 4 4 5 5 6 6 7 7 8 8 9 9 10 10 11 11
REMARK H PARENT
REMARK Flexibility Score: inf
ROOT
ATOM      1  C   UNL     1      19.207 -15.454 -20.845  1.00  0.00     0.045 C 
ATOM      2  C   UNL     1      19.976 -16.503 -21.608  1.00  0.00    -0.043 A 
ATOM      3  C   UNL     1      21.088 -16.108 -22.371  1.00  0.00     0.004 A 
ATOM      4  C   UNL     1      21.827 -17.044 -23.092  1.00  0.00     0.001 A 
ATOM      5  C   UNL     1      21.473 -18.392 -23.067  1.00  0.00     0.009 A 
ATOM      6  C   UNL     1      20.370 -18.818 -22.316  1.00  0.00    -0.018 A 
ATOM      7  C   UNL     1      20.018 -20.177 -22.294  1.00  0.00     0.009 A 
ATOM      8  C   UNL     1      18.920 -20.608 -21.548  1.00  0.00     0.001 A 
ATOM      9  C   UNL     1      18.165 -19.690 -20.819  1.00  0.00     0.001 A 
ATOM     10  C   UNL     1      18.501 -18.334 -20.829  1.00  0.00     0.009 A 
ATOM     11  C   UNL     1      19.606 -17.874 -21.576  1.00  0.00    -0.015 A 
ENDROOT
TORSDOF 0
ENDMDL
