MODEL 1
REMARK VINA RESULT:    -3.088      0.000      0.000
REMARK INTER + INTRA:          -3.585
REMARK INTER:                  -3.540
REMARK INTRA:                  -0.045
REMARK UNBOUND:                -0.045
REMARK SMILES CC(C)[C@H]([NH3+])C(=O)[O-]
REMARK SMILES IDX 4 1 5 2 6 6 7 7 8 8 2 9 1 10 3 11
REMARK H PARENT 5 3 5 4 5 5
REMARK Flexibility Score: inf
ROOT
ATOM      1  C   UNL     1      36.017  28.013 -13.237  1.00  0.00     0.230 C 
ENDROOT
BRANCH   1   2
ATOM      2  N   UNL     1      35.561  27.665 -11.884  1.00  0.00    -0.350 N 
ATOM      3  H   UNL     1      35.114  26.721 -11.860  1.00  0.00     0.345 HD
ATOM      4  H   UNL     1      36.368  27.681 -11.219  1.00  0.00     0.345 HD
ATOM      5  H   UNL     1      34.860  28.372 -11.559  1.00  0.00     0.345 HD
ENDBRANCH   1   2
BRANCH   1   6
ATOM      6  C   UNL     1      34.865  27.969 -14.214  1.00  0.00     0.099 C 
ATOM      7  O   UNL     1      33.708  27.676 -13.810  1.00  0.00    -0.544 OA
ATOM      8  O   UNL     1      35.061  28.276 -15.555  1.00  0.00    -0.544 OA
ENDBRANCH   1   6
BRANCH   1   9
ATOM      9  C   UNL     1      37.219  27.127 -13.686  1.00  0.00     0.047 C 
ATOM     10  C   UNL     1      38.401  27.933 -14.253  1.00  0.00     0.014 C 
ATOM     11  C   UNL     1      37.700  26.218 -12.546  1.00  0.00     0.014 C 
ENDBRANCH   1   9
TORSDOF 3
ENDMDL
MODEL 2
REMARK VINA RESULT:    -3.081     15.676     16.239
REMARK INTER + INTRA:          -3.576
REMARK INTER:                  -3.510
REMARK INTRA:                  -0.066
REMARK UNBOUND:                -0.045
REMARK SMILES CC(C)[C@H]([NH3+])C(=O)[O-]
REMARK SMILES IDX 4 1 5 2 6 6 7 7 8 8 2 9 1 10 3 11
REMARK H PARENT 5 3 5 4 5 5
REMARK Flexibility Score: inf
ROOT
ATOM      1  C   UNL     1      26.741  15.527 -16.714  1.00  0.00     0.230 C 
ENDROOT
BRANCH   1   2
ATOM      2  N   UNL     1      25.526  16.177 -16.202  1.00  0.00    -0.350 N 
ATOM      3  H   UNL     1      25.734  16.784 -15.377  1.00  0.00     0.345 HD
ATOM      4  H   UNL     1      25.085  16.755 -16.953  1.00  0.00     0.345 HD
ATOM      5  H   UNL     1      24.836  15.446 -15.909  1.00  0.00     0.345 HD
ENDBRANCH   1   2
BRANCH   1   6
ATOM      6  C   UNL     1      26.472  14.874 -18.049  1.00  0.00     0.099 C 
ATOM      7  O   UNL     1      25.290  14.770 -18.473  1.00  0.00    -0.544 OA
ATOM      8  O   UNL     1      27.520  14.407 -18.834  1.00  0.00    -0.544 OA
ENDBRANCH   1   6
BRANCH   1   9
ATOM      9  C   UNL     1      27.350  14.539 -15.673  1.00  0.00     0.047 C 
ATOM     10  C   UNL     1      27.965  15.235 -14.448  1.00  0.00     0.014 C 
ATOM     11  C   UNL     1      26.316  13.497 -15.222  1.00  0.00     0.014 C 
ENDBRANCH   1   9
TORSDOF 3
ENDMDL
MODEL 3
REMARK VINA RESULT:    -3.005     15.587     16.366
REMARK INTER + INTRA:          -3.489
REMARK INTER:                  -3.427
REMARK INTRA:                  -0.062
REMARK UNBOUND:                -0.045
REMARK SMILES CC(C)[C@H]([NH3+])C(=O)[O-]
REMARK SMILES IDX 4 1 5 2 6 6 7 7 8 8 2 9 1 10 3 11
REMARK H PARENT 5 3 5 4 5 5
REMARK Flexibility Score: inf
ROOT
ATOM      1  C   UNL     1      26.886  15.336 -15.998  1.00  0.00     0.230 C 
ENDROOT
BRANCH   1   2
ATOM      2  N   UNL     1      27.357  15.123 -17.374  1.00  0.00    -0.350 N 
ATOM      3  H   UNL     1      28.040  15.858 -17.664  1.00  0.00     0.345 HD
ATOM      4  H   UNL     1      27.807  14.183 -17.457  1.00  0.00     0.345 HD
ATOM      5  H   UNL     1      26.541  15.150 -18.030  1.00  0.00     0.345 HD
ENDBRANCH   1   2
BRANCH   1   6
ATOM      6  C   UNL     1      27.952  14.940 -15.004  1.00  0.00     0.099 C 
ATOM      7  O   UNL     1      29.019  14.404 -15.405  1.00  0.00    -0.544 OA
ATOM      8  O   UNL     1      27.783  15.186 -13.646  1.00  0.00    -0.544 OA
ENDBRANCH   1   6
BRANCH   1   9
ATOM      9  C   UNL     1      25.526  14.622 -15.736  1.00  0.00     0.047 C 
ATOM     10  C   UNL     1      24.318  15.350 -16.351  1.00  0.00     0.014 C 
ATOM     11  C   UNL     1      25.560  13.163 -16.214  1.00  0.00     0.014 C 
ENDBRANCH   1   9
TORSDOF 3
ENDMDL
MODEL 4
REMARK VINA RESULT:    -2.985     10.867     11.536
REMARK INTER + INTRA:          -3.467
REMARK INTER:                  -3.431
REMARK INTRA:                  -0.036
REMARK UNBOUND:                -0.045
REMARK SMILES CC(C)[C@H]([NH3+])C(=O)[O-]
REMARK SMILES IDX 4 1 5 2 6 6 7 7 8 8 2 9 1 10 3 11
REMARK H PARENT 5 3 5 4 5 5
REMARK Flexibility Score: inf
ROOT
ATOM      1  C   UNL     1      32.225  20.822 -21.480  1.00  0.00     0.230 C 
ENDROOT
BRANCH   1   2
ATOM      2  N   UNL     1      31.451  20.466 -20.281  1.00  0.00    -0.350 N 
ATOM      3  H   UNL     1      31.066  19.498 -20.347  1.00  0.00     0.345 HD
ATOM      4  H   UNL     1      32.055  20.540 -19.430  1.00  0.00     0.345 HD
ATOM      5  H   UNL     1      30.653  21.135 -20.170  1.00  0.00     0.345 HD
ENDBRANCH   1   2
BRANCH   1   6
ATOM      6  C   UNL     1      32.680  22.261 -21.411  1.00  0.00     0.099 C 
ATOM      7  O   UNL     1      32.701  22.862 -20.304  1.00  0.00    -0.544 OA
ATOM      8  O   UNL     1      33.105  22.925 -22.556  1.00  0.00    -0.544 OA
ENDBRANCH   1   6
BRANCH   1   9
ATOM      9  C   UNL     1      31.441  20.502 -22.788  1.00  0.00     0.047 C 
ATOM     10  C   UNL     1      32.285  19.783 -23.854  1.00  0.00     0.014 C 
ATOM     11  C   UNL     1      30.168  19.696 -22.494  1.00  0.00     0.014 C 
ENDBRANCH   1   9
TORSDOF 3
ENDMDL
MODEL 5
REMARK VINA RESULT:    -2.980     15.295     15.779
REMARK INTER + INTRA:          -3.461
REMARK INTER:                  -3.396
REMARK INTRA:                  -0.065
REMARK UNBOUND:                -0.045
REMARK SMILES CC(C)[C@H]([NH3+])C(=O)[O-]
REMARK SMILES IDX 4 1 5 2 6 6 7 7 8 8 2 9 1 10 3 11
REMARK H PARENT 5 3 5 4 5 5
REMARK Flexibility Score: inf
ROOT
ATOM      1  C   UNL     1      28.724  14.676 -14.478  1.00  0.00     0.230 C 
ENDROOT
BRANCH   1   2
ATOM      2  N   UNL     1      27.716  15.739 -14.605  1.00  0.00    -0.350 N 
ATOM      3  H   UNL     1      27.945  16.558 -13.999  1.00  0.00     0.345 HD
ATOM      4  H   UNL     1      27.651  16.054 -15.600  1.00  0.00     0.345 HD
ATOM      5  H   UNL     1      26.779  15.367 -14.321  1.00  0.00     0.345 HD
ENDBRANCH   1   2
BRANCH   1   6
ATOM      6  C   UNL     1      28.599  13.687 -15.613  1.00  0.00     0.099 C 
ATOM      7  O   UNL     1      27.662  13.801 -16.447  1.00  0.00    -0.544 OA
ATOM      8  O   UNL     1      29.528  12.664 -15.767  1.00  0.00    -0.544 OA
ENDBRANCH   1   6
BRANCH   1   9
ATOM      9  C   UNL     1      28.668  13.993 -13.078  1.00  0.00     0.047 C 
ATOM     10  C   UNL     1      28.660  14.988 -11.905  1.00  0.00     0.014 C 
ATOM     11  C   UNL     1      27.469  13.041 -12.968  1.00  0.00     0.014 C 
ENDBRANCH   1   9
TORSDOF 3
ENDMDL
MODEL 6
REMARK VINA RESULT:    -2.975     11.783     12.319
REMARK INTER + INTRA:          -3.455
REMARK INTER:                  -3.380
REMARK INTRA:                  -0.075
REMARK UNBOUND:                -0.045
REMARK SMILES CC(C)[C@H]([NH3+])C(=O)[O-]
REMARK SMILES IDX 4 1 5 2 6 6 7 7 8 8 2 9 1 10 3 11
REMARK H PARENT 5 3 5 4 5 5
REMARK Flexibility Score: inf
ROOT
ATOM      1  C   UNL     1      31.520  19.918 -21.410  1.00  0.00     0.230 C 
ENDROOT
BRANCH   1   2
ATOM      2  N   UNL     1      31.718  19.861 -19.954  1.00  0.00    -0.350 N 
ATOM      3  H   UNL     1      31.534  20.787 -19.506  1.00  0.00     0.345 HD
ATOM      4  H   UNL     1      31.084  19.143 -19.534  1.00  0.00     0.345 HD
ATOM      5  H   UNL     1      32.705  19.582 -19.747  1.00  0.00     0.345 HD
ENDBRANCH   1   2
BRANCH   1   6
ATOM      6  C   UNL     1      31.520  18.528 -22.001  1.00  0.00     0.099 C 
ATOM      7  O   UNL     1      30.478  18.075 -22.545  1.00  0.00    -0.544 OA
ATOM      8  O   UNL     1      32.671  17.748 -21.978  1.00  0.00    -0.544 OA
ENDBRANCH   1   6
BRANCH   1   9
ATOM      9  C   UNL     1      32.553  20.863 -22.096  1.00  0.00     0.047 C 
ATOM     10  C   UNL     1      32.291  21.078 -23.596  1.00  0.00     0.014 C 
ATOM     11  C   UNL     1      32.636  22.217 -21.377  1.00  0.00     0.014 C 
ENDBRANCH   1   9
TORSDOF 3
ENDMDL
MODEL 7
REMARK VINA RESULT:    -2.949     15.181     15.814
REMARK INTER + INTRA:          -3.425
REMARK INTER:                  -3.396
REMARK INTRA:                  -0.029
REMARK UNBOUND:                -0.045
REMARK SMILES CC(C)[C@H]([NH3+])C(=O)[O-]
REMARK SMILES IDX 4 1 5 2 6 6 7 7 8 8 2 9 1 10 3 11
REMARK H PARENT 5 3 5 4 5 5
REMARK Flexibility Score: inf
ROOT
ATOM      1  C   UNL     1      28.906  13.810 -12.942  1.00  0.00     0.230 C 
ENDROOT
BRANCH   1   2
ATOM      2  N   UNL     1      28.908  12.360 -12.698  1.00  0.00    -0.350 N 
ATOM      3  H   UNL     1      27.947  12.004 -12.498  1.00  0.00     0.345 HD
ATOM      4  H   UNL     1      29.296  11.857 -13.529  1.00  0.00     0.345 HD
ATOM      5  H   UNL     1      29.520  12.145 -11.876  1.00  0.00     0.345 HD
ENDBRANCH   1   2
BRANCH   1   6
ATOM      6  C   UNL     1      29.065  14.567 -11.644  1.00  0.00     0.099 C 
ATOM      7  O   UNL     1      28.368  15.593 -11.424  1.00  0.00    -0.544 OA
ATOM      8  O   UNL     1      29.956  14.127 -10.672  1.00  0.00    -0.544 OA
ENDBRANCH   1   6
BRANCH   1   9
ATOM      9  C   UNL     1      27.650  14.257 -13.748  1.00  0.00     0.047 C 
ATOM     10  C   UNL     1      27.953  15.305 -14.833  1.00  0.00     0.014 C 
ATOM     11  C   UNL     1      26.925  13.054 -14.368  1.00  0.00     0.014 C 
ENDBRANCH   1   9
TORSDOF 3
ENDMDL
MODEL 8
REMARK VINA RESULT:    -2.930     10.922     11.465
REMARK INTER + INTRA:          -3.404
REMARK INTER:                  -3.348
REMARK INTRA:                  -0.056
REMARK UNBOUND:                -0.045
REMARK SMILES CC(C)[C@H]([NH3+])C(=O)[O-]
REMARK SMILES IDX 4 1 5 2 6 6 7 7 8 8 2 9 1 10 3 11
REMARK H PARENT 5 3 5 4 5 5
REMARK Flexibility Score: inf
ROOT
ATOM      1  C   UNL     1      32.930  21.659 -22.347  1.00  0.00     0.230 C 
ENDROOT
BRANCH   1   2
ATOM      2  N   UNL     1      34.258  22.262 -22.527  1.00  0.00    -0.350 N 
ATOM      3  H   UNL     1      34.440  22.498 -23.528  1.00  0.00     0.345 HD
ATOM      4  H   UNL     1      34.339  23.130 -21.948  1.00  0.00     0.345 HD
ATOM      5  H   UNL     1      34.994  21.590 -22.205  1.00  0.00     0.345 HD
ENDBRANCH   1   2
BRANCH   1   6
ATOM      6  C   UNL     1      32.513  21.714 -20.896  1.00  0.00     0.099 C 
ATOM      7  O   UNL     1      32.511  22.815 -20.283  1.00  0.00    -0.544 OA
ATOM      8  O   UNL     1      32.103  20.564 -20.231  1.00  0.00    -0.544 OA
ENDBRANCH   1   6
BRANCH   1   9
ATOM      9  C   UNL     1      32.867  20.216 -22.934  1.00  0.00     0.047 C 
ATOM     10  C   UNL     1      31.720  20.008 -23.938  1.00  0.00     0.014 C 
ATOM     11  C   UNL     1      34.204  19.815 -23.574  1.00  0.00     0.014 C 
ENDBRANCH   1   9
TORSDOF 3
ENDMDL
MODEL 9
REMARK VINA RESULT:    -2.865     15.170     15.834
REMARK INTER + INTRA:          -3.329
REMARK INTER:                  -3.272
REMARK INTRA:                  -0.057
REMARK UNBOUND:                -0.045
REMARK SMILES CC(C)[C@H]([NH3+])C(=O)[O-]
REMARK SMILES IDX 4 1 5 2 6 6 7 7 8 8 2 9 1 10 3 11
REMARK H PARENT 5 3 5 4 5 5
REMARK Flexibility Score: inf
ROOT
ATOM      1  C   UNL     1      28.449  14.205 -12.230  1.00  0.00     0.230 C 
ENDROOT
BRANCH   1   2
ATOM      2  N   UNL     1      28.461  15.657 -12.006  1.00  0.00    -0.350 N 
ATOM      3  H   UNL     1      27.764  16.145 -12.613  1.00  0.00     0.345 HD
ATOM      4  H   UNL     1      28.252  15.867 -11.003  1.00  0.00     0.345 HD
ATOM      5  H   UNL     1      29.413  16.036 -12.224  1.00  0.00     0.345 HD
ENDBRANCH   1   2
BRANCH   1   6
ATOM      6  C   UNL     1      29.646  13.556 -11.575  1.00  0.00     0.099 C 
ATOM      7  O   UNL     1      30.201  12.564 -12.118  1.00  0.00    -0.544 OA
ATOM      8  O   UNL     1      30.163  14.060 -10.387  1.00  0.00    -0.544 OA
ENDBRANCH   1   6
BRANCH   1   9
ATOM      9  C   UNL     1      28.331  13.855 -13.744  1.00  0.00     0.047 C 
ATOM     10  C   UNL     1      27.158  12.916 -14.071  1.00  0.00     0.014 C 
ATOM     11  C   UNL     1      28.245  15.124 -14.605  1.00  0.00     0.014 C 
ENDBRANCH   1   9
TORSDOF 3
ENDMDL
