MODEL 1
REMARK VINA RESULT:    -3.427      0.000      0.000
REMARK INTER + INTRA:          -5.373
REMARK INTER:                  -4.829
REMARK INTRA:                  -0.544
REMARK UNBOUND:                -0.544
REMARK SMILES CCCCCCCCC(=O)[O-]
REMARK SMILES IDX 6 1 7 2 8 3 9 4 10 5 11 6 5 7 4 8 3 9 2 10 1 11
REMARK H PARENT
REMARK Flexibility Score: inf
ROOT
ATOM      1  C   UNL     1      -5.060  15.544  21.354  1.00  0.00     0.000 C 
ENDROOT
BRANCH   1   2
ATOM      2  C   UNL     1      -4.573  16.503  22.459  1.00  0.00     0.006 C 
BRANCH   2   3
ATOM      3  C   UNL     1      -3.112  16.289  22.886  1.00  0.00     0.053 C 
BRANCH   3   4
ATOM      4  C   UNL     1      -2.162  16.481  21.744  1.00  0.00     0.041 C 
ATOM      5  O   UNL     1      -1.594  15.489  21.218  1.00  0.00    -0.550 OA
ATOM      6  O   UNL     1      -1.881  17.761  21.283  1.00  0.00    -0.550 OA
ENDBRANCH   3   4
ENDBRANCH   2   3
ENDBRANCH   1   2
BRANCH   1   7
ATOM      7  C   UNL     1      -6.121  14.519  21.801  1.00  0.00     0.000 C 
BRANCH   7   8
ATOM      8  C   UNL     1      -7.567  14.844  21.376  1.00  0.00    -0.000 C 
BRANCH   8   9
ATOM      9  C   UNL     1      -8.327  15.785  22.328  1.00  0.00    -0.000 C 
BRANCH   9  10
ATOM     10  C   UNL     1      -8.404  17.227  21.805  1.00  0.00    -0.003 C 
ATOM     11  C   UNL     1      -8.200  17.276  20.294  1.00  0.00     0.004 C 
ENDBRANCH   9  10
ENDBRANCH   8   9
ENDBRANCH   7   8
ENDBRANCH   1   7
TORSDOF 7
ENDMDL
MODEL 2
REMARK VINA RESULT:    -3.351      1.166      1.787
REMARK INTER + INTRA:          -5.266
REMARK INTER:                  -5.003
REMARK INTRA:                  -0.263
REMARK UNBOUND:                -0.544
REMARK SMILES CCCCCCCCC(=O)[O-]
REMARK SMILES IDX 6 1 7 2 8 3 9 4 10 5 11 6 5 7 4 8 3 9 2 10 1 11
REMARK H PARENT
REMARK Flexibility Score: inf
ROOT
ATOM      1  C   UNL     1      -3.908  16.055  23.099  1.00  0.00     0.000 C 
ENDROOT
BRANCH   1   2
ATOM      2  C   UNL     1      -2.971  16.678  22.045  1.00  0.00     0.006 C 
BRANCH   2   3
ATOM      3  C   UNL     1      -1.501  16.776  22.483  1.00  0.00     0.053 C 
BRANCH   3   4
ATOM      4  C   UNL     1      -0.608  15.918  21.640  1.00  0.00     0.041 C 
ATOM      5  O   UNL     1      -1.093  14.989  20.945  1.00  0.00    -0.550 OA
ATOM      6  O   UNL     1       0.766  16.125  21.650  1.00  0.00    -0.550 OA
ENDBRANCH   3   4
ENDBRANCH   2   3
ENDBRANCH   1   2
BRANCH   1   7
ATOM      7  C   UNL     1      -5.398  16.014  22.704  1.00  0.00     0.000 C 
BRANCH   7   8
ATOM      8  C   UNL     1      -5.749  15.026  21.574  1.00  0.00    -0.000 C 
BRANCH   8   9
ATOM      9  C   UNL     1      -7.256  14.818  21.338  1.00  0.00    -0.000 C 
BRANCH   9  10
ATOM     10  C   UNL     1      -8.090  16.062  21.680  1.00  0.00    -0.003 C 
ATOM     11  C   UNL     1      -8.141  17.031  20.503  1.00  0.00     0.004 C 
ENDBRANCH   9  10
ENDBRANCH   8   9
ENDBRANCH   7   8
ENDBRANCH   1   7
TORSDOF 7
ENDMDL
MODEL 3
REMARK VINA RESULT:    -3.300      2.714      5.255
REMARK INTER + INTRA:          -5.194
REMARK INTER:                  -4.762
REMARK INTRA:                  -0.431
REMARK UNBOUND:                -0.544
REMARK SMILES CCCCCCCCC(=O)[O-]
REMARK SMILES IDX 6 1 7 2 8 3 9 4 10 5 11 6 5 7 4 8 3 9 2 10 1 11
REMARK H PARENT
REMARK Flexibility Score: inf
ROOT
ATOM      1  C   UNL     1      -5.817  15.313  21.175  1.00  0.00     0.000 C 
ENDROOT
BRANCH   1   2
ATOM      2  C   UNL     1      -7.274  14.838  21.349  1.00  0.00     0.006 C 
BRANCH   2   3
ATOM      3  C   UNL     1      -8.255  15.944  21.773  1.00  0.00     0.053 C 
BRANCH   3   4
ATOM      4  C   UNL     1      -8.025  17.215  21.015  1.00  0.00     0.041 C 
ATOM      5  O   UNL     1      -8.330  17.291  19.796  1.00  0.00    -0.550 OA
ATOM      6  O   UNL     1      -7.441  18.305  21.648  1.00  0.00    -0.550 OA
ENDBRANCH   3   4
ENDBRANCH   2   3
ENDBRANCH   1   2
BRANCH   1   7
ATOM      7  C   UNL     1      -5.070  15.622  22.488  1.00  0.00     0.000 C 
BRANCH   7   8
ATOM      8  C   UNL     1      -4.120  16.834  22.431  1.00  0.00    -0.000 C 
BRANCH   8   9
ATOM      9  C   UNL     1      -2.687  16.559  22.923  1.00  0.00    -0.000 C 
BRANCH   9  10
ATOM     10  C   UNL     1      -1.641  16.675  21.804  1.00  0.00    -0.003 C 
ATOM     11  C   UNL     1      -1.570  15.392  20.982  1.00  0.00     0.004 C 
ENDBRANCH   9  10
ENDBRANCH   8   9
ENDBRANCH   7   8
ENDBRANCH   1   7
TORSDOF 7
ENDMDL
MODEL 4
REMARK VINA RESULT:    -3.294     11.339     14.779
REMARK INTER + INTRA:          -5.186
REMARK INTER:                  -4.860
REMARK INTRA:                  -0.326
REMARK UNBOUND:                -0.544
REMARK SMILES CCCCCCCCC(=O)[O-]
REMARK SMILES IDX 6 1 7 2 8 3 9 4 10 5 11 6 5 7 4 8 3 9 2 10 1 11
REMARK H PARENT
REMARK Flexibility Score: inf
ROOT
ATOM      1  C   UNL     1       8.677  17.246  20.870  1.00  0.00     0.000 C 
ENDROOT
BRANCH   1   2
ATOM      2  C   UNL     1       8.375  16.115  21.874  1.00  0.00     0.006 C 
BRANCH   2   3
ATOM      3  C   UNL     1       7.059  16.289  22.648  1.00  0.00     0.053 C 
BRANCH   3   4
ATOM      4  C   UNL     1       5.900  15.678  21.924  1.00  0.00     0.041 C 
ATOM      5  O   UNL     1       4.986  16.407  21.458  1.00  0.00    -0.550 OA
ATOM      6  O   UNL     1       5.812  14.297  21.792  1.00  0.00    -0.550 OA
ENDBRANCH   3   4
ENDBRANCH   2   3
ENDBRANCH   1   2
BRANCH   1   7
ATOM      7  C   UNL     1      10.042  17.141  20.161  1.00  0.00     0.000 C 
BRANCH   7   8
ATOM      8  C   UNL     1      10.789  15.809  20.371  1.00  0.00    -0.000 C 
BRANCH   8   9
ATOM      9  C   UNL     1      10.885  14.914  19.123  1.00  0.00    -0.000 C 
BRANCH   9  10
ATOM     10  C   UNL     1      10.632  13.431  19.432  1.00  0.00    -0.003 C 
ATOM     11  C   UNL     1      10.747  12.579  18.172  1.00  0.00     0.004 C 
ENDBRANCH   9  10
ENDBRANCH   8   9
ENDBRANCH   7   8
ENDBRANCH   1   7
TORSDOF 7
ENDMDL
MODEL 5
REMARK VINA RESULT:    -3.257     12.418     15.113
REMARK INTER + INTRA:          -5.133
REMARK INTER:                  -4.630
REMARK INTRA:                  -0.503
REMARK UNBOUND:                -0.544
REMARK SMILES CCCCCCCCC(=O)[O-]
REMARK SMILES IDX 6 1 7 2 8 3 9 4 10 5 11 6 5 7 4 8 3 9 2 10 1 11
REMARK H PARENT
REMARK Flexibility Score: inf
ROOT
ATOM      1  C   UNL     1      10.787  16.070  20.466  1.00  0.00     0.000 C 
ENDROOT
BRANCH   1   2
ATOM      2  C   UNL     1      10.855  14.910  19.452  1.00  0.00     0.006 C 
BRANCH   2   3
ATOM      3  C   UNL     1      10.183  13.612  19.927  1.00  0.00     0.053 C 
BRANCH   3   4
ATOM      4  C   UNL     1      10.555  12.443  19.068  1.00  0.00     0.041 C 
ATOM      5  O   UNL     1      10.619  12.570  17.818  1.00  0.00    -0.550 OA
ATOM      6  O   UNL     1      10.798  11.204  19.648  1.00  0.00    -0.550 OA
ENDBRANCH   3   4
ENDBRANCH   2   3
ENDBRANCH   1   2
BRANCH   1   7
ATOM      7  C   UNL     1       9.766  17.174  20.126  1.00  0.00     0.000 C 
BRANCH   7   8
ATOM      8  C   UNL     1       8.516  17.211  21.028  1.00  0.00    -0.000 C 
BRANCH   8   9
ATOM      9  C   UNL     1       8.441  16.090  22.080  1.00  0.00    -0.000 C 
BRANCH   9  10
ATOM     10  C   UNL     1       7.147  15.268  21.983  1.00  0.00    -0.003 C 
ATOM     11  C   UNL     1       5.955  16.156  21.640  1.00  0.00     0.004 C 
ENDBRANCH   9  10
ENDBRANCH   8   9
ENDBRANCH   7   8
ENDBRANCH   1   7
TORSDOF 7
ENDMDL
MODEL 6
REMARK VINA RESULT:    -3.171      1.478      2.631
REMARK INTER + INTRA:          -5.013
REMARK INTER:                  -4.609
REMARK INTRA:                  -0.404
REMARK UNBOUND:                -0.544
REMARK SMILES CCCCCCCCC(=O)[O-]
REMARK SMILES IDX 6 1 7 2 8 3 9 4 10 5 11 6 5 7 4 8 3 9 2 10 1 11
REMARK H PARENT
REMARK Flexibility Score: inf
ROOT
ATOM      1  C   UNL     1      -3.957  18.294  23.102  1.00  0.00     0.000 C 
ENDROOT
BRANCH   1   2
ATOM      2  C   UNL     1      -2.515  18.090  22.592  1.00  0.00     0.006 C 
BRANCH   2   3
ATOM      3  C   UNL     1      -1.906  16.723  22.944  1.00  0.00     0.053 C 
BRANCH   3   4
ATOM      4  C   UNL     1      -1.162  16.129  21.789  1.00  0.00     0.041 C 
ATOM      5  O   UNL     1       0.074  16.327  21.660  1.00  0.00    -0.550 OA
ATOM      6  O   UNL     1      -1.842  15.382  20.834  1.00  0.00    -0.550 OA
ENDBRANCH   3   4
ENDBRANCH   2   3
ENDBRANCH   1   2
BRANCH   1   7
ATOM      7  C   UNL     1      -5.062  17.801  22.146  1.00  0.00     0.000 C 
BRANCH   7   8
ATOM      8  C   UNL     1      -5.779  16.509  22.584  1.00  0.00    -0.000 C 
BRANCH   8   9
ATOM      9  C   UNL     1      -5.517  15.285  21.688  1.00  0.00    -0.000 C 
BRANCH   9  10
ATOM     10  C   UNL     1      -6.800  14.515  21.340  1.00  0.00    -0.003 C 
ATOM     11  C   UNL     1      -8.028  15.192  21.941  1.00  0.00     0.004 C 
ENDBRANCH   9  10
ENDBRANCH   8   9
ENDBRANCH   7   8
ENDBRANCH   1   7
TORSDOF 7
ENDMDL
MODEL 7
REMARK VINA RESULT:    -3.124     14.371     16.360
REMARK INTER + INTRA:          -4.946
REMARK INTER:                  -4.746
REMARK INTRA:                  -0.200
REMARK UNBOUND:                -0.544
REMARK SMILES CCCCCCCCC(=O)[O-]
REMARK SMILES IDX 6 1 7 2 8 3 9 4 10 5 11 6 5 7 4 8 3 9 2 10 1 11
REMARK H PARENT
REMARK Flexibility Score: inf
ROOT
ATOM      1  C   UNL     1      10.760  13.306  18.761  1.00  0.00     0.000 C 
ENDROOT
BRANCH   1   2
ATOM      2  C   UNL     1      11.066  11.811  18.535  1.00  0.00     0.006 C 
BRANCH   2   3
ATOM      3  C   UNL     1       9.957  11.042  17.800  1.00  0.00     0.053 C 
BRANCH   3   4
ATOM      4  C   UNL     1       9.906   9.604  18.215  1.00  0.00     0.041 C 
ATOM      5  O   UNL     1       8.970   8.862  17.819  1.00  0.00    -0.550 OA
ATOM      6  O   UNL     1      10.877   9.091  19.068  1.00  0.00    -0.550 OA
ENDBRANCH   3   4
ENDBRANCH   2   3
ENDBRANCH   1   2
BRANCH   1   7
ATOM      7  C   UNL     1      10.897  13.786  20.220  1.00  0.00     0.000 C 
BRANCH   7   8
ATOM      8  C   UNL     1      10.012  14.990  20.600  1.00  0.00    -0.000 C 
BRANCH   8   9
ATOM      9  C   UNL     1      10.521  16.353  20.097  1.00  0.00    -0.000 C 
BRANCH   9  10
ATOM     10  C   UNL     1       9.566  17.508  20.436  1.00  0.00    -0.003 C 
ATOM     11  C   UNL     1       8.302  16.993  21.119  1.00  0.00     0.004 C 
ENDBRANCH   9  10
ENDBRANCH   8   9
ENDBRANCH   7   8
ENDBRANCH   1   7
TORSDOF 7
ENDMDL
MODEL 8
REMARK VINA RESULT:    -3.104      9.663     13.414
REMARK INTER + INTRA:          -4.919
REMARK INTER:                  -4.573
REMARK INTRA:                  -0.346
REMARK UNBOUND:                -0.544
REMARK SMILES CCCCCCCCC(=O)[O-]
REMARK SMILES IDX 6 1 7 2 8 3 9 4 10 5 11 6 5 7 4 8 3 9 2 10 1 11
REMARK H PARENT
REMARK Flexibility Score: inf
ROOT
ATOM      1  C   UNL     1       7.310  15.062  22.053  1.00  0.00     0.000 C 
ENDROOT
BRANCH   1   2
ATOM      2  C   UNL     1       6.150  15.309  23.038  1.00  0.00     0.006 C 
BRANCH   2   3
ATOM      3  C   UNL     1       4.768  14.901  22.505  1.00  0.00     0.053 C 
BRANCH   3   4
ATOM      4  C   UNL     1       3.981  16.083  22.029  1.00  0.00     0.041 C 
ATOM      5  O   UNL     1       2.813  16.280  22.452  1.00  0.00    -0.550 OA
ATOM      6  O   UNL     1       4.528  16.950  21.091  1.00  0.00    -0.550 OA
ENDBRANCH   3   4
ENDBRANCH   2   3
ENDBRANCH   1   2
BRANCH   1   7
ATOM      7  C   UNL     1       8.436  16.114  22.094  1.00  0.00     0.000 C 
BRANCH   7   8
ATOM      8  C   UNL     1       8.420  17.138  20.942  1.00  0.00    -0.000 C 
BRANCH   8   9
ATOM      9  C   UNL     1       9.773  17.346  20.239  1.00  0.00    -0.000 C 
BRANCH   9  10
ATOM     10  C   UNL     1      10.772  16.214  20.521  1.00  0.00    -0.003 C 
ATOM     11  C   UNL     1      10.713  15.144  19.435  1.00  0.00     0.004 C 
ENDBRANCH   9  10
ENDBRANCH   8   9
ENDBRANCH   7   8
ENDBRANCH   1   7
TORSDOF 7
ENDMDL
MODEL 9
REMARK VINA RESULT:    -3.037     10.779     13.854
REMARK INTER + INTRA:          -4.824
REMARK INTER:                  -4.212
REMARK INTRA:                  -0.612
REMARK UNBOUND:                -0.544
REMARK SMILES CCCCCCCCC(=O)[O-]
REMARK SMILES IDX 6 1 7 2 8 3 9 4 10 5 11 6 5 7 4 8 3 9 2 10 1 11
REMARK H PARENT
REMARK Flexibility Score: inf
ROOT
ATOM      1  C   UNL     1       7.892  14.099  21.467  1.00  0.00     0.000 C 
ENDROOT
BRANCH   1   2
ATOM      2  C   UNL     1       7.196  14.500  22.783  1.00  0.00     0.006 C 
BRANCH   2   3
ATOM      3  C   UNL     1       6.608  15.920  22.782  1.00  0.00     0.053 C 
BRANCH   3   4
ATOM      4  C   UNL     1       5.299  15.983  22.056  1.00  0.00     0.041 C 
ATOM      5  O   UNL     1       4.321  15.299  22.454  1.00  0.00    -0.550 OA
ATOM      6  O   UNL     1       5.172  16.772  20.920  1.00  0.00    -0.550 OA
ENDBRANCH   3   4
ENDBRANCH   2   3
ENDBRANCH   1   2
BRANCH   1   7
ATOM      7  C   UNL     1       9.361  13.655  21.616  1.00  0.00     0.000 C 
BRANCH   7   8
ATOM      8  C   UNL     1      10.407  14.764  21.384  1.00  0.00    -0.000 C 
BRANCH   8   9
ATOM      9  C   UNL     1      10.224  15.568  20.084  1.00  0.00    -0.000 C 
BRANCH   9  10
ATOM     10  C   UNL     1      10.316  17.086  20.304  1.00  0.00    -0.003 C 
ATOM     11  C   UNL     1       8.974  17.660  20.747  1.00  0.00     0.004 C 
ENDBRANCH   9  10
ENDBRANCH   8   9
ENDBRANCH   7   8
ENDBRANCH   1   7
TORSDOF 7
ENDMDL
