MODEL 1
REMARK VINA RESULT:    -4.946      0.000      0.000
REMARK INTER + INTRA:          -6.708
REMARK INTER:                  -6.391
REMARK INTRA:                  -0.317
REMARK UNBOUND:                -0.317
REMARK SMILES CCO[C@@H]1O[C@@H](CO)[C@@H](O)[C@@H](O)[C@@H]1O
REMARK SMILES IDX 4 1 13 2 11 3 9 4 6 5 5 6 3 7 2 8 1 9 14 10 12 12 7 14 8 15
REMARK SMILES IDX 10 17
REMARK H PARENT 14 11 12 13 8 16 10 18
REMARK Flexibility Score: inf
ROOT
ATOM      1  C   UNL     1      21.748   3.873  39.097  1.00  0.00     0.281 C 
ATOM      2  C   UNL     1      23.153   4.512  39.049  1.00  0.00     0.202 C 
ATOM      3  C   UNL     1      23.715   4.486  37.615  1.00  0.00     0.179 C 
ATOM      4  C   UNL     1      22.680   5.026  36.611  1.00  0.00     0.177 C 
ATOM      5  C   UNL     1      21.316   4.328  36.833  1.00  0.00     0.178 C 
ATOM      6  O   UNL     1      20.870   4.499  38.170  1.00  0.00    -0.341 OA
ENDROOT
BRANCH   1   7
ATOM      7  O   UNL     1      21.838   2.475  38.870  1.00  0.00    -0.350 OA
BRANCH   7   8
ATOM      8  C   UNL     1      20.674   1.828  39.339  1.00  0.00     0.160 C 
ATOM      9  C   UNL     1      20.995   0.368  39.620  1.00  0.00     0.035 C 
ENDBRANCH   7   8
ENDBRANCH   1   7
BRANCH   2  10
ATOM     10  O   UNL     1      24.026   3.819  39.904  1.00  0.00    -0.385 OA
ATOM     11  H   UNL     1      24.909   3.790  39.451  1.00  0.00     0.211 HD
ENDBRANCH   2  10
BRANCH   3  12
ATOM     12  O   UNL     1      24.888   5.252  37.537  1.00  0.00    -0.387 OA
ATOM     13  H   UNL     1      24.935   5.617  36.615  1.00  0.00     0.211 HD
ENDBRANCH   3  12
BRANCH   5  14
ATOM     14  C   UNL     1      20.249   4.879  35.875  1.00  0.00     0.191 C 
BRANCH  14  15
ATOM     15  O   UNL     1      19.875   6.176  36.254  1.00  0.00    -0.394 OA
ATOM     16  H   UNL     1      18.882   6.196  36.261  1.00  0.00     0.210 HD
ENDBRANCH  14  15
ENDBRANCH   5  14
BRANCH   4  17
ATOM     17  O   UNL     1      22.575   6.430  36.688  1.00  0.00    -0.387 OA
ATOM     18  H   UNL     1      22.878   6.812  35.824  1.00  0.00     0.211 HD
ENDBRANCH   4  17
TORSDOF 7
ENDMDL
MODEL 2
REMARK VINA RESULT:    -4.537     12.773     14.998
REMARK INTER + INTRA:          -6.180
REMARK INTER:                  -5.795
REMARK INTRA:                  -0.384
REMARK UNBOUND:                -0.317
REMARK SMILES CCO[C@@H]1O[C@@H](CO)[C@@H](O)[C@@H](O)[C@@H]1O
REMARK SMILES IDX 4 1 13 2 11 3 9 4 6 5 5 6 3 7 2 8 1 9 14 10 12 12 7 14 8 15
REMARK SMILES IDX 10 17
REMARK H PARENT 14 11 12 13 8 16 10 18
REMARK Flexibility Score: inf
ROOT
ATOM      1  C   UNL     1      35.268   3.273  42.241  1.00  0.00     0.281 C 
ATOM      2  C   UNL     1      35.860   4.658  42.579  1.00  0.00     0.202 C 
ATOM      3  C   UNL     1      35.732   4.952  44.086  1.00  0.00     0.179 C 
ATOM      4  C   UNL     1      36.244   3.764  44.922  1.00  0.00     0.177 C 
ATOM      5  C   UNL     1      35.602   2.449  44.416  1.00  0.00     0.178 C 
ATOM      6  O   UNL     1      35.865   2.255  43.035  1.00  0.00    -0.341 OA
ENDROOT
BRANCH   1   7
ATOM      7  O   UNL     1      33.857   3.293  42.392  1.00  0.00    -0.350 OA
BRANCH   7   8
ATOM      8  C   UNL     1      33.231   2.916  41.183  1.00  0.00     0.160 C 
ATOM      9  C   UNL     1      31.914   3.664  41.051  1.00  0.00     0.035 C 
ENDBRANCH   7   8
ENDBRANCH   1   7
BRANCH   2  10
ATOM     10  O   UNL     1      35.191   5.657  41.852  1.00  0.00    -0.385 OA
ATOM     11  H   UNL     1      35.195   5.372  40.901  1.00  0.00     0.211 HD
ENDBRANCH   2  10
BRANCH   3  12
ATOM     12  O   UNL     1      36.456   6.107  44.421  1.00  0.00    -0.387 OA
ATOM     13  H   UNL     1      37.146   6.230  43.719  1.00  0.00     0.211 HD
ENDBRANCH   3  12
BRANCH   5  14
ATOM     14  C   UNL     1      36.128   1.238  45.201  1.00  0.00     0.191 C 
BRANCH  14  15
ATOM     15  O   UNL     1      36.484   1.618  46.504  1.00  0.00    -0.394 OA
ATOM     16  H   UNL     1      36.594   0.780  47.025  1.00  0.00     0.210 HD
ENDBRANCH  14  15
ENDBRANCH   5  14
BRANCH   4  17
ATOM     17  O   UNL     1      37.652   3.703  44.916  1.00  0.00    -0.387 OA
ATOM     18  H   UNL     1      37.937   3.162  44.135  1.00  0.00     0.211 HD
ENDBRANCH   4  17
TORSDOF 7
ENDMDL
MODEL 3
REMARK VINA RESULT:    -4.529      1.722      3.570
REMARK INTER + INTRA:          -6.170
REMARK INTER:                  -5.810
REMARK INTRA:                  -0.360
REMARK UNBOUND:                -0.317
REMARK SMILES CCO[C@@H]1O[C@@H](CO)[C@@H](O)[C@@H](O)[C@@H]1O
REMARK SMILES IDX 4 1 13 2 11 3 9 4 6 5 5 6 3 7 2 8 1 9 14 10 12 12 7 14 8 15
REMARK SMILES IDX 10 17
REMARK H PARENT 14 11 12 13 8 16 10 18
REMARK Flexibility Score: inf
ROOT
ATOM      1  C   UNL     1      22.567   1.970  37.894  1.00  0.00     0.281 C 
ATOM      2  C   UNL     1      21.525   2.815  37.129  1.00  0.00     0.202 C 
ATOM      3  C   UNL     1      20.994   3.957  38.015  1.00  0.00     0.179 C 
ATOM      4  C   UNL     1      22.154   4.727  38.671  1.00  0.00     0.177 C 
ATOM      5  C   UNL     1      23.136   3.733  39.339  1.00  0.00     0.178 C 
ATOM      6  O   UNL     1      23.617   2.786  38.396  1.00  0.00    -0.341 OA
ENDROOT
BRANCH   1   7
ATOM      7  O   UNL     1      21.935   1.234  38.930  1.00  0.00    -0.350 OA
BRANCH   7   8
ATOM      8  C   UNL     1      22.588  -0.004  39.118  1.00  0.00     0.160 C 
ATOM      9  C   UNL     1      21.874  -0.782  40.212  1.00  0.00     0.035 C 
ENDBRANCH   7   8
ENDBRANCH   1   7
BRANCH   2  10
ATOM     10  O   UNL     1      20.453   2.003  36.722  1.00  0.00    -0.385 OA
ATOM     11  H   UNL     1      19.984   2.490  35.995  1.00  0.00     0.211 HD
ENDBRANCH   2  10
BRANCH   3  12
ATOM     12  O   UNL     1      20.214   4.843  37.254  1.00  0.00    -0.387 OA
ATOM     13  H   UNL     1      19.370   4.369  37.034  1.00  0.00     0.211 HD
ENDBRANCH   3  12
BRANCH   5  14
ATOM     14  C   UNL     1      24.330   4.468  39.964  1.00  0.00     0.191 C 
BRANCH  14  15
ATOM     15  O   UNL     1      23.895   5.615  40.646  1.00  0.00    -0.394 OA
ATOM     16  H   UNL     1      24.711   6.112  40.916  1.00  0.00     0.210 HD
ENDBRANCH  14  15
ENDBRANCH   5  14
BRANCH   4  17
ATOM     17  O   UNL     1      22.802   5.568  37.744  1.00  0.00    -0.387 OA
ATOM     18  H   UNL     1      22.642   5.207  36.833  1.00  0.00     0.211 HD
ENDBRANCH   4  17
TORSDOF 7
ENDMDL
MODEL 4
REMARK VINA RESULT:    -4.526     12.266     14.449
REMARK INTER + INTRA:          -6.166
REMARK INTER:                  -5.695
REMARK INTRA:                  -0.471
REMARK UNBOUND:                -0.317
REMARK SMILES CCO[C@@H]1O[C@@H](CO)[C@@H](O)[C@@H](O)[C@@H]1O
REMARK SMILES IDX 4 1 13 2 11 3 9 4 6 5 5 6 3 7 2 8 1 9 14 10 12 12 7 14 8 15
REMARK SMILES IDX 10 17
REMARK H PARENT 14 11 12 13 8 16 10 18
REMARK Flexibility Score: inf
ROOT
ATOM      1  C   UNL     1      33.609   2.316  43.182  1.00  0.00     0.281 C 
ATOM      2  C   UNL     1      33.870   0.930  43.811  1.00  0.00     0.202 C 
ATOM      3  C   UNL     1      35.370   0.581  43.756  1.00  0.00     0.179 C 
ATOM      4  C   UNL     1      36.224   1.748  44.286  1.00  0.00     0.177 C 
ATOM      5  C   UNL     1      35.795   3.068  43.601  1.00  0.00     0.178 C 
ATOM      6  O   UNL     1      34.411   3.316  43.798  1.00  0.00    -0.341 OA
ENDROOT
BRANCH   1   7
ATOM      7  O   UNL     1      33.822   2.265  41.780  1.00  0.00    -0.350 OA
BRANCH   7   8
ATOM      8  C   UNL     1      32.939   3.149  41.120  1.00  0.00     0.160 C 
ATOM      9  C   UNL     1      31.530   2.931  41.647  1.00  0.00     0.035 C 
ENDBRANCH   7   8
ENDBRANCH   1   7
BRANCH   2  10
ATOM     10  O   UNL     1      33.138  -0.055  43.126  1.00  0.00    -0.385 OA
ATOM     11  H   UNL     1      33.143  -0.865  43.699  1.00  0.00     0.211 HD
ENDBRANCH   2  10
BRANCH   3  12
ATOM     12  O   UNL     1      35.631  -0.572  44.513  1.00  0.00    -0.387 OA
ATOM     13  H   UNL     1      36.172  -0.289  45.295  1.00  0.00     0.211 HD
ENDBRANCH   3  12
BRANCH   5  14
ATOM     14  C   UNL     1      36.599   4.260  44.141  1.00  0.00     0.191 C 
BRANCH  14  15
ATOM     15  O   UNL     1      35.916   4.866  45.207  1.00  0.00    -0.394 OA
ATOM     16  H   UNL     1      35.404   5.624  44.822  1.00  0.00     0.210 HD
ENDBRANCH  14  15
ENDBRANCH   5  14
BRANCH   4  17
ATOM     17  O   UNL     1      36.158   1.835  45.691  1.00  0.00    -0.387 OA
ATOM     18  H   UNL     1      35.434   1.235  46.006  1.00  0.00     0.211 HD
ENDBRANCH   4  17
TORSDOF 7
ENDMDL
MODEL 5
REMARK VINA RESULT:    -4.510      1.569      4.137
REMARK INTER + INTRA:          -6.145
REMARK INTER:                  -5.748
REMARK INTRA:                  -0.397
REMARK UNBOUND:                -0.317
REMARK SMILES CCO[C@@H]1O[C@@H](CO)[C@@H](O)[C@@H](O)[C@@H]1O
REMARK SMILES IDX 4 1 13 2 11 3 9 4 6 5 5 6 3 7 2 8 1 9 14 10 12 12 7 14 8 15
REMARK SMILES IDX 10 17
REMARK H PARENT 14 11 12 13 8 16 10 18
REMARK Flexibility Score: inf
ROOT
ATOM      1  C   UNL     1      22.775   4.523  36.656  1.00  0.00     0.281 C 
ATOM      2  C   UNL     1      23.571   4.536  37.980  1.00  0.00     0.202 C 
ATOM      3  C   UNL     1      22.616   4.512  39.189  1.00  0.00     0.179 C 
ATOM      4  C   UNL     1      21.560   3.402  39.032  1.00  0.00     0.177 C 
ATOM      5  C   UNL     1      20.903   3.493  37.633  1.00  0.00     0.178 C 
ATOM      6  O   UNL     1      21.882   3.418  36.607  1.00  0.00    -0.341 OA
ENDROOT
BRANCH   1   7
ATOM      7  O   UNL     1      22.093   5.756  36.483  1.00  0.00    -0.350 OA
BRANCH   7   8
ATOM      8  C   UNL     1      22.481   6.362  35.268  1.00  0.00     0.160 C 
ATOM      9  C   UNL     1      22.490   7.872  35.446  1.00  0.00     0.035 C 
ENDBRANCH   7   8
ENDBRANCH   1   7
BRANCH   2  10
ATOM     10  O   UNL     1      24.377   5.684  38.046  1.00  0.00    -0.385 OA
ATOM     11  H   UNL     1      24.685   5.872  37.121  1.00  0.00     0.211 HD
ENDBRANCH   2  10
BRANCH   3  12
ATOM     12  O   UNL     1      23.337   4.309  40.376  1.00  0.00    -0.387 OA
ATOM     13  H   UNL     1      22.733   3.834  41.004  1.00  0.00     0.211 HD
ENDBRANCH   3  12
BRANCH   5  14
ATOM     14  C   UNL     1      19.876   2.370  37.429  1.00  0.00     0.191 C 
BRANCH  14  15
ATOM     15  O   UNL     1      20.513   1.198  36.996  1.00  0.00    -0.394 OA
ATOM     16  H   UNL     1      19.888   0.748  36.370  1.00  0.00     0.210 HD
ENDBRANCH  14  15
ENDBRANCH   5  14
BRANCH   4  17
ATOM     17  O   UNL     1      22.114   2.130  39.275  1.00  0.00    -0.387 OA
ATOM     18  H   UNL     1      21.710   1.487  38.636  1.00  0.00     0.211 HD
ENDBRANCH   4  17
TORSDOF 7
ENDMDL
MODEL 6
REMARK VINA RESULT:    -4.494     15.829     17.224
REMARK INTER + INTRA:          -6.125
REMARK INTER:                  -5.710
REMARK INTRA:                  -0.415
REMARK UNBOUND:                -0.317
REMARK SMILES CCO[C@@H]1O[C@@H](CO)[C@@H](O)[C@@H](O)[C@@H]1O
REMARK SMILES IDX 4 1 13 2 11 3 9 4 6 5 5 6 3 7 2 8 1 9 14 10 12 12 7 14 8 15
REMARK SMILES IDX 10 17
REMARK H PARENT 14 11 12 13 8 16 10 18
REMARK Flexibility Score: inf
ROOT
ATOM      1  C   UNL     1      36.144   0.714  45.155  1.00  0.00     0.281 C 
ATOM      2  C   UNL     1      37.024   0.970  46.397  1.00  0.00     0.202 C 
ATOM      3  C   UNL     1      38.507   1.095  45.998  1.00  0.00     0.179 C 
ATOM      4  C   UNL     1      38.677   2.075  44.823  1.00  0.00     0.177 C 
ATOM      5  C   UNL     1      37.683   1.717  43.690  1.00  0.00     0.178 C 
ATOM      6  O   UNL     1      36.347   1.719  44.169  1.00  0.00    -0.341 OA
ENDROOT
BRANCH   1   7
ATOM      7  O   UNL     1      36.393  -0.584  44.637  1.00  0.00    -0.350 OA
BRANCH   7   8
ATOM      8  C   UNL     1      35.177  -1.280  44.458  1.00  0.00     0.160 C 
ATOM      9  C   UNL     1      35.354  -2.717  44.921  1.00  0.00     0.035 C 
ENDBRANCH   7   8
ENDBRANCH   1   7
BRANCH   2  10
ATOM     10  O   UNL     1      36.876  -0.083  47.316  1.00  0.00    -0.385 OA
ATOM     11  H   UNL     1      36.972  -0.928  46.803  1.00  0.00     0.211 HD
ENDBRANCH   2  10
BRANCH   3  12
ATOM     12  O   UNL     1      39.270   1.536  47.091  1.00  0.00    -0.387 OA
ATOM     13  H   UNL     1      39.399   2.513  46.978  1.00  0.00     0.211 HD
ENDBRANCH   3  12
BRANCH   5  14
ATOM     14  C   UNL     1      37.798   2.705  42.520  1.00  0.00     0.191 C 
BRANCH  14  15
ATOM     15  O   UNL     1      39.120   3.156  42.389  1.00  0.00    -0.394 OA
ATOM     16  H   UNL     1      39.331   3.141  41.419  1.00  0.00     0.210 HD
ENDBRANCH  14  15
ENDBRANCH   5  14
BRANCH   4  17
ATOM     17  O   UNL     1      38.539   3.412  45.246  1.00  0.00    -0.387 OA
ATOM     18  H   UNL     1      37.749   3.470  45.842  1.00  0.00     0.211 HD
ENDBRANCH   4  17
TORSDOF 7
ENDMDL
MODEL 7
REMARK VINA RESULT:    -4.474     14.817     16.511
REMARK INTER + INTRA:          -6.099
REMARK INTER:                  -5.710
REMARK INTRA:                  -0.389
REMARK UNBOUND:                -0.317
REMARK SMILES CCO[C@@H]1O[C@@H](CO)[C@@H](O)[C@@H](O)[C@@H]1O
REMARK SMILES IDX 4 1 13 2 11 3 9 4 6 5 5 6 3 7 2 8 1 9 14 10 12 12 7 14 8 15
REMARK SMILES IDX 10 17
REMARK H PARENT 14 11 12 13 8 16 10 18
REMARK Flexibility Score: inf
ROOT
ATOM      1  C   UNL     1      36.690   0.658  45.594  1.00  0.00     0.281 C 
ATOM      2  C   UNL     1      37.948   1.519  45.840  1.00  0.00     0.202 C 
ATOM      3  C   UNL     1      38.251   2.403  44.615  1.00  0.00     0.179 C 
ATOM      4  C   UNL     1      36.987   3.151  44.153  1.00  0.00     0.177 C 
ATOM      5  C   UNL     1      35.808   2.157  44.014  1.00  0.00     0.178 C 
ATOM      6  O   UNL     1      35.578   1.469  45.235  1.00  0.00    -0.341 OA
ENDROOT
BRANCH   1   7
ATOM      7  O   UNL     1      36.957  -0.329  44.610  1.00  0.00    -0.350 OA
BRANCH   7   8
ATOM      8  C   UNL     1      36.332  -1.547  44.957  1.00  0.00     0.160 C 
ATOM      9  C   UNL     1      37.026  -2.688  44.230  1.00  0.00     0.035 C 
ENDBRANCH   7   8
ENDBRANCH   1   7
BRANCH   2  10
ATOM     10  O   UNL     1      39.053   0.692  46.102  1.00  0.00    -0.385 OA
ATOM     11  H   UNL     1      39.590   1.144  46.804  1.00  0.00     0.211 HD
ENDBRANCH   2  10
BRANCH   3  12
ATOM     12  O   UNL     1      39.259   3.331  44.921  1.00  0.00    -0.387 OA
ATOM     13  H   UNL     1      39.578   3.707  44.059  1.00  0.00     0.211 HD
ENDBRANCH   3  12
BRANCH   5  14
ATOM     14  C   UNL     1      34.519   2.880  43.597  1.00  0.00     0.191 C 
BRANCH  14  15
ATOM     15  O   UNL     1      34.821   3.996  42.802  1.00  0.00    -0.394 OA
ATOM     16  H   UNL     1      35.729   3.843  42.429  1.00  0.00     0.210 HD
ENDBRANCH  14  15
ENDBRANCH   5  14
BRANCH   4  17
ATOM     17  O   UNL     1      36.679   4.220  45.017  1.00  0.00    -0.387 OA
ATOM     18  H   UNL     1      37.401   4.897  44.944  1.00  0.00     0.211 HD
ENDBRANCH   4  17
TORSDOF 7
ENDMDL
MODEL 8
REMARK VINA RESULT:    -4.471     14.701     16.618
REMARK INTER + INTRA:          -6.094
REMARK INTER:                  -5.663
REMARK INTRA:                  -0.432
REMARK UNBOUND:                -0.317
REMARK SMILES CCO[C@@H]1O[C@@H](CO)[C@@H](O)[C@@H](O)[C@@H]1O
REMARK SMILES IDX 4 1 13 2 11 3 9 4 6 5 5 6 3 7 2 8 1 9 14 10 12 12 7 14 8 15
REMARK SMILES IDX 10 17
REMARK H PARENT 14 11 12 13 8 16 10 18
REMARK Flexibility Score: inf
ROOT
ATOM      1  C   UNL     1      35.914   1.567  45.245  1.00  0.00     0.281 C 
ATOM      2  C   UNL     1      37.137   0.791  45.782  1.00  0.00     0.202 C 
ATOM      3  C   UNL     1      38.286   0.808  44.755  1.00  0.00     0.179 C 
ATOM      4  C   UNL     1      38.547   2.239  44.249  1.00  0.00     0.177 C 
ATOM      5  C   UNL     1      37.215   2.894  43.808  1.00  0.00     0.178 C 
ATOM      6  O   UNL     1      36.273   2.890  44.869  1.00  0.00    -0.341 OA
ENDROOT
BRANCH   1   7
ATOM      7  O   UNL     1      35.321   0.859  44.167  1.00  0.00    -0.350 OA
BRANCH   7   8
ATOM      8  C   UNL     1      33.927   1.088  44.140  1.00  0.00     0.160 C 
ATOM      9  C   UNL     1      33.581   1.898  42.901  1.00  0.00     0.035 C 
ENDBRANCH   7   8
ENDBRANCH   1   7
BRANCH   2  10
ATOM     10  O   UNL     1      36.780  -0.539  46.058  1.00  0.00    -0.385 OA
ATOM     11  H   UNL     1      37.311  -0.820  46.849  1.00  0.00     0.211 HD
ENDBRANCH   2  10
BRANCH   3  12
ATOM     12  O   UNL     1      39.459   0.292  45.327  1.00  0.00    -0.387 OA
ATOM     13  H   UNL     1      40.068   0.059  44.578  1.00  0.00     0.211 HD
ENDBRANCH   3  12
BRANCH   5  14
ATOM     14  C   UNL     1      37.436   4.339  43.339  1.00  0.00     0.191 C 
BRANCH  14  15
ATOM     15  O   UNL     1      37.315   5.227  44.419  1.00  0.00    -0.394 OA
ATOM     16  H   UNL     1      36.965   6.079  44.049  1.00  0.00     0.210 HD
ENDBRANCH  14  15
ENDBRANCH   5  14
BRANCH   4  17
ATOM     17  O   UNL     1      39.221   3.010  45.216  1.00  0.00    -0.387 OA
ATOM     18  H   UNL     1      40.168   2.715  45.245  1.00  0.00     0.211 HD
ENDBRANCH   4  17
TORSDOF 7
ENDMDL
MODEL 9
REMARK VINA RESULT:    -4.416     15.177     17.278
REMARK INTER + INTRA:          -6.024
REMARK INTER:                  -5.572
REMARK INTRA:                  -0.452
REMARK UNBOUND:                -0.317
REMARK SMILES CCO[C@@H]1O[C@@H](CO)[C@@H](O)[C@@H](O)[C@@H]1O
REMARK SMILES IDX 4 1 13 2 11 3 9 4 6 5 5 6 3 7 2 8 1 9 14 10 12 12 7 14 8 15
REMARK SMILES IDX 10 17
REMARK H PARENT 14 11 12 13 8 16 10 18
REMARK Flexibility Score: inf
ROOT
ATOM      1  C   UNL     1      38.341   1.799  44.496  1.00  0.00     0.281 C 
ATOM      2  C   UNL     1      38.305   0.852  45.716  1.00  0.00     0.202 C 
ATOM      3  C   UNL     1      36.857   0.641  46.199  1.00  0.00     0.179 C 
ATOM      4  C   UNL     1      35.934   0.279  45.021  1.00  0.00     0.177 C 
ATOM      5  C   UNL     1      36.137   1.287  43.864  1.00  0.00     0.178 C 
ATOM      6  O   UNL     1      37.496   1.324  43.456  1.00  0.00    -0.341 OA
ENDROOT
BRANCH   1   7
ATOM      7  O   UNL     1      37.994   3.118  44.890  1.00  0.00    -0.350 OA
BRANCH   7   8
ATOM      8  C   UNL     1      38.719   4.061  44.129  1.00  0.00     0.160 C 
ATOM      9  C   UNL     1      40.125   3.534  43.891  1.00  0.00     0.035 C 
ENDBRANCH   7   8
ENDBRANCH   1   7
BRANCH   2  10
ATOM     10  O   UNL     1      39.072   1.389  46.764  1.00  0.00    -0.385 OA
ATOM     11  H   UNL     1      38.432   1.739  47.437  1.00  0.00     0.211 HD
ENDBRANCH   2  10
BRANCH   3  12
ATOM     12  O   UNL     1      36.809  -0.378  47.163  1.00  0.00    -0.387 OA
ATOM     13  H   UNL     1      35.972  -0.248  47.680  1.00  0.00     0.211 HD
ENDBRANCH   3  12
BRANCH   5  14
ATOM     14  C   UNL     1      35.261   0.926  42.655  1.00  0.00     0.191 C 
BRANCH  14  15
ATOM     15  O   UNL     1      34.021   0.427  43.082  1.00  0.00    -0.394 OA
ATOM     16  H   UNL     1      33.862  -0.412  42.575  1.00  0.00     0.210 HD
ENDBRANCH  14  15
ENDBRANCH   5  14
BRANCH   4  17
ATOM     17  O   UNL     1      36.132  -1.053  44.605  1.00  0.00    -0.387 OA
ATOM     18  H   UNL     1      35.251  -1.436  44.358  1.00  0.00     0.211 HD
ENDBRANCH   4  17
TORSDOF 7
ENDMDL
