MODEL 1
REMARK VINA RESULT:    -3.102      0.000      0.000
REMARK INTER + INTRA:         -10.200
REMARK INTER:                  -7.092
REMARK INTRA:                  -3.109
REMARK UNBOUND:                -3.109
REMARK SMILES CCCCCCCCCCCCCCCCCCCCCCCC(=O)[O-]
REMARK SMILES IDX 13 1 14 2 15 3 16 4 17 5 18 6 19 7 20 8 21 9 22 10 23 11
REMARK SMILES IDX 24 12 25 13 26 14 12 15 11 16 10 17 9 18 8 19 7 20 6 21 5 22
REMARK SMILES IDX 4 23 3 24 2 25 1 26
REMARK H PARENT
REMARK Flexibility Score: inf
ROOT
ATOM      1  C   UNL     1       4.871  -9.845   3.540  1.00  0.00     0.000 C 
ENDROOT
BRANCH   1   2
ATOM      2  C   UNL     1       4.609 -10.363   4.962  1.00  0.00     0.000 C 
BRANCH   2   3
ATOM      3  C   UNL     1       3.141 -10.769   5.187  1.00  0.00     0.000 C 
BRANCH   3   4
ATOM      4  C   UNL     1       2.648 -10.649   6.643  1.00  0.00     0.000 C 
BRANCH   4   5
ATOM      5  C   UNL     1       3.764 -10.514   7.699  1.00  0.00     0.000 C 
BRANCH   5   6
ATOM      6  C   UNL     1       3.780  -9.173   8.461  1.00  0.00     0.000 C 
BRANCH   6   7
ATOM      7  C   UNL     1       2.563  -8.263   8.207  1.00  0.00     0.000 C 
BRANCH   7   8
ATOM      8  C   UNL     1       2.078  -7.551   9.482  1.00  0.00     0.000 C 
BRANCH   8   9
ATOM      9  C   UNL     1       0.827  -8.205  10.087  1.00  0.00     0.000 C 
BRANCH   9  10
ATOM     10  C   UNL     1       0.626  -9.655   9.620  1.00  0.00     0.006 C 
BRANCH  10  11
ATOM     11  C   UNL     1      -0.548  -9.756   8.642  1.00  0.00     0.053 C 
BRANCH  11  12
ATOM     12  C   UNL     1      -1.853  -9.745   9.374  1.00  0.00     0.041 C 
ATOM     13  O   UNL     1      -2.167 -10.708  10.122  1.00  0.00    -0.550 OA
ATOM     14  O   UNL     1      -2.718  -8.663   9.240  1.00  0.00    -0.550 OA
ENDBRANCH  11  12
ENDBRANCH  10  11
ENDBRANCH   9  10
ENDBRANCH   8   9
ENDBRANCH   7   8
ENDBRANCH   6   7
ENDBRANCH   5   6
ENDBRANCH   4   5
ENDBRANCH   3   4
ENDBRANCH   2   3
ENDBRANCH   1   2
BRANCH   1  15
ATOM     15  C   UNL     1       5.218  -8.351   3.555  1.00  0.00     0.000 C 
BRANCH  15  16
ATOM     16  C   UNL     1       6.688  -8.136   3.937  1.00  0.00     0.000 C 
BRANCH  16  17
ATOM     17  C   UNL     1       6.822  -7.761   5.420  1.00  0.00     0.000 C 
BRANCH  17  18
ATOM     18  C   UNL     1       7.898  -8.587   6.142  1.00  0.00    -0.000 C 
BRANCH  18  19
ATOM     19  C   UNL     1       7.314  -9.472   7.253  1.00  0.00    -0.000 C 
BRANCH  19  20
ATOM     20  C   UNL     1       8.301  -9.611   8.420  1.00  0.00    -0.000 C 
BRANCH  20  21
ATOM     21  C   UNL     1       9.609  -8.839   8.183  1.00  0.00    -0.000 C 
BRANCH  21  22
ATOM     22  C   UNL     1      10.037  -8.010   9.406  1.00  0.00    -0.000 C 
BRANCH  22  23
ATOM     23  C   UNL     1       9.070  -6.854   9.715  1.00  0.00    -0.000 C 
BRANCH  23  24
ATOM     24  C   UNL     1       8.678  -5.996   8.497  1.00  0.00    -0.000 C 
BRANCH  24  25
ATOM     25  C   UNL     1       7.287  -5.361   8.636  1.00  0.00    -0.003 C 
ATOM     26  C   UNL     1       6.246  -6.400   9.045  1.00  0.00     0.004 C 
ENDBRANCH  24  25
ENDBRANCH  23  24
ENDBRANCH  22  23
ENDBRANCH  21  22
ENDBRANCH  20  21
ENDBRANCH  19  20
ENDBRANCH  18  19
ENDBRANCH  17  18
ENDBRANCH  16  17
ENDBRANCH  15  16
ENDBRANCH   1  15
TORSDOF 22
ENDMDL
MODEL 2
REMARK VINA RESULT:    -2.514      1.884      2.878
REMARK INTER + INTRA:          -8.856
REMARK INTER:                  -6.513
REMARK INTRA:                  -2.343
REMARK UNBOUND:                -3.109
REMARK SMILES CCCCCCCCCCCCCCCCCCCCCCCC(=O)[O-]
REMARK SMILES IDX 13 1 14 2 15 3 16 4 17 5 18 6 19 7 20 8 21 9 22 10 23 11
REMARK SMILES IDX 24 12 25 13 26 14 12 15 11 16 10 17 9 18 8 19 7 20 6 21 5 22
REMARK SMILES IDX 4 23 3 24 2 25 1 26
REMARK H PARENT
REMARK Flexibility Score: inf
ROOT
ATOM      1  C   UNL     1       4.769 -10.772   4.115  1.00  0.00     0.000 C 
ENDROOT
BRANCH   1   2
ATOM      2  C   UNL     1       3.458 -10.535   4.879  1.00  0.00     0.000 C 
BRANCH   2   3
ATOM      3  C   UNL     1       3.657 -10.492   6.405  1.00  0.00     0.000 C 
BRANCH   3   4
ATOM      4  C   UNL     1       2.433 -10.931   7.234  1.00  0.00     0.000 C 
BRANCH   4   5
ATOM      5  C   UNL     1       1.070 -10.719   6.546  1.00  0.00     0.000 C 
BRANCH   5   6
ATOM      6  C   UNL     1      -0.156 -11.125   7.389  1.00  0.00     0.000 C 
BRANCH   6   7
ATOM      7  C   UNL     1      -1.092  -9.966   7.780  1.00  0.00     0.000 C 
BRANCH   7   8
ATOM      8  C   UNL     1      -1.356  -9.900   9.295  1.00  0.00     0.000 C 
BRANCH   8   9
ATOM      9  C   UNL     1      -0.065  -9.760  10.116  1.00  0.00     0.000 C 
BRANCH   9  10
ATOM     10  C   UNL     1       0.487  -8.326  10.120  1.00  0.00     0.006 C 
BRANCH  10  11
ATOM     11  C   UNL     1       1.814  -8.249   9.357  1.00  0.00     0.053 C 
BRANCH  11  12
ATOM     12  C   UNL     1       2.475  -6.924   9.572  1.00  0.00     0.041 C 
ATOM     13  O   UNL     1       3.717  -6.802   9.407  1.00  0.00    -0.550 OA
ATOM     14  O   UNL     1       1.715  -5.817   9.941  1.00  0.00    -0.550 OA
ENDBRANCH  11  12
ENDBRANCH  10  11
ENDBRANCH   9  10
ENDBRANCH   8   9
ENDBRANCH   7   8
ENDBRANCH   6   7
ENDBRANCH   5   6
ENDBRANCH   4   5
ENDBRANCH   3   4
ENDBRANCH   2   3
ENDBRANCH   1   2
BRANCH   1  15
ATOM     15  C   UNL     1       4.884  -9.824   2.915  1.00  0.00     0.000 C 
BRANCH  15  16
ATOM     16  C   UNL     1       5.036  -8.370   3.378  1.00  0.00     0.000 C 
BRANCH  16  17
ATOM     17  C   UNL     1       6.344  -8.174   4.157  1.00  0.00     0.000 C 
BRANCH  17  18
ATOM     18  C   UNL     1       6.117  -8.065   5.673  1.00  0.00    -0.000 C 
BRANCH  18  19
ATOM     19  C   UNL     1       6.814  -9.189   6.454  1.00  0.00    -0.000 C 
BRANCH  19  20
ATOM     20  C   UNL     1       8.311  -8.890   6.628  1.00  0.00    -0.000 C 
BRANCH  20  21
ATOM     21  C   UNL     1       8.869  -9.423   7.957  1.00  0.00    -0.000 C 
BRANCH  21  22
ATOM     22  C   UNL     1      10.100  -8.636   8.439  1.00  0.00    -0.000 C 
BRANCH  22  23
ATOM     23  C   UNL     1       9.786  -7.162   8.745  1.00  0.00    -0.000 C 
BRANCH  23  24
ATOM     24  C   UNL     1       8.655  -6.939   9.766  1.00  0.00    -0.000 C 
BRANCH  24  25
ATOM     25  C   UNL     1       7.671  -5.841   9.340  1.00  0.00    -0.003 C 
ATOM     26  C   UNL     1       7.965  -5.361   7.921  1.00  0.00     0.004 C 
ENDBRANCH  24  25
ENDBRANCH  23  24
ENDBRANCH  22  23
ENDBRANCH  21  22
ENDBRANCH  20  21
ENDBRANCH  19  20
ENDBRANCH  18  19
ENDBRANCH  17  18
ENDBRANCH  16  17
ENDBRANCH  15  16
ENDBRANCH   1  15
TORSDOF 22
ENDMDL
MODEL 3
REMARK VINA RESULT:    -2.152     16.582     19.812
REMARK INTER + INTRA:          -8.029
REMARK INTER:                  -5.725
REMARK INTRA:                  -2.303
REMARK UNBOUND:                -3.109
REMARK SMILES CCCCCCCCCCCCCCCCCCCCCCCC(=O)[O-]
REMARK SMILES IDX 13 1 14 2 15 3 16 4 17 5 18 6 19 7 20 8 21 9 22 10 23 11
REMARK SMILES IDX 24 12 25 13 26 14 12 15 11 16 10 17 9 18 8 19 7 20 6 21 5 22
REMARK SMILES IDX 4 23 3 24 2 25 1 26
REMARK H PARENT
REMARK Flexibility Score: inf
ROOT
ATOM      1  C   UNL     1      -6.559  -9.455  -4.129  1.00  0.00     0.000 C 
ENDROOT
BRANCH   1   2
ATOM      2  C   UNL     1      -6.062 -10.851  -4.534  1.00  0.00     0.000 C 
BRANCH   2   3
ATOM      3  C   UNL     1      -5.533 -10.898  -5.978  1.00  0.00     0.000 C 
BRANCH   3   4
ATOM      4  C   UNL     1      -4.711  -9.666  -6.411  1.00  0.00     0.000 C 
BRANCH   4   5
ATOM      5  C   UNL     1      -5.302  -8.871  -7.592  1.00  0.00     0.000 C 
BRANCH   5   6
ATOM      6  C   UNL     1      -6.196  -9.690  -8.546  1.00  0.00     0.000 C 
BRANCH   6   7
ATOM      7  C   UNL     1      -5.513 -10.147  -9.849  1.00  0.00     0.000 C 
BRANCH   7   8
ATOM      8  C   UNL     1      -4.265 -11.010  -9.594  1.00  0.00     0.000 C 
BRANCH   8   9
ATOM      9  C   UNL     1      -2.974 -10.354 -10.108  1.00  0.00     0.000 C 
BRANCH   9  10
ATOM     10  C   UNL     1      -1.938 -10.123  -8.997  1.00  0.00     0.006 C 
BRANCH  10  11
ATOM     11  C   UNL     1      -0.592 -10.757  -9.365  1.00  0.00     0.053 C 
BRANCH  11  12
ATOM     12  C   UNL     1       0.436  -9.703  -9.634  1.00  0.00     0.041 C 
ATOM     13  O   UNL     1       0.107  -8.488  -9.653  1.00  0.00    -0.550 OA
ATOM     14  O   UNL     1       1.763 -10.063  -9.850  1.00  0.00    -0.550 OA
ENDBRANCH  11  12
ENDBRANCH  10  11
ENDBRANCH   9  10
ENDBRANCH   8   9
ENDBRANCH   7   8
ENDBRANCH   6   7
ENDBRANCH   5   6
ENDBRANCH   4   5
ENDBRANCH   3   4
ENDBRANCH   2   3
ENDBRANCH   1   2
BRANCH   1  15
ATOM     15  C   UNL     1      -7.060  -9.449  -2.679  1.00  0.00     0.000 C 
BRANCH  15  16
ATOM     16  C   UNL     1      -7.933 -10.679  -2.398  1.00  0.00     0.000 C 
BRANCH  16  17
ATOM     17  C   UNL     1      -9.420 -10.356  -2.599  1.00  0.00     0.000 C 
BRANCH  17  18
ATOM     18  C   UNL     1      -9.745  -9.952  -4.046  1.00  0.00    -0.000 C 
BRANCH  18  19
ATOM     19  C   UNL     1      -9.744  -8.430  -4.246  1.00  0.00    -0.000 C 
BRANCH  19  20
ATOM     20  C   UNL     1     -10.125  -8.065  -5.689  1.00  0.00    -0.000 C 
BRANCH  20  21
ATOM     21  C   UNL     1      -9.028  -8.433  -6.701  1.00  0.00    -0.000 C 
BRANCH  21  22
ATOM     22  C   UNL     1      -9.414  -8.075  -8.146  1.00  0.00    -0.000 C 
BRANCH  22  23
ATOM     23  C   UNL     1      -8.625  -6.875  -8.697  1.00  0.00    -0.000 C 
BRANCH  23  24
ATOM     24  C   UNL     1      -7.913  -6.024  -7.629  1.00  0.00    -0.000 C 
BRANCH  24  25
ATOM     25  C   UNL     1      -6.645  -5.338  -8.158  1.00  0.00    -0.003 C 
ATOM     26  C   UNL     1      -6.739  -5.093  -9.662  1.00  0.00     0.004 C 
ENDBRANCH  24  25
ENDBRANCH  23  24
ENDBRANCH  22  23
ENDBRANCH  21  22
ENDBRANCH  20  21
ENDBRANCH  19  20
ENDBRANCH  18  19
ENDBRANCH  17  18
ENDBRANCH  16  17
ENDBRANCH  15  16
ENDBRANCH   1  15
TORSDOF 22
ENDMDL
MODEL 4
REMARK VINA RESULT:    -2.114      1.615      2.571
REMARK INTER + INTRA:          -7.942
REMARK INTER:                  -6.055
REMARK INTRA:                  -1.887
REMARK UNBOUND:                -3.109
REMARK SMILES CCCCCCCCCCCCCCCCCCCCCCCC(=O)[O-]
REMARK SMILES IDX 13 1 14 2 15 3 16 4 17 5 18 6 19 7 20 8 21 9 22 10 23 11
REMARK SMILES IDX 24 12 25 13 26 14 12 15 11 16 10 17 9 18 8 19 7 20 6 21 5 22
REMARK SMILES IDX 4 23 3 24 2 25 1 26
REMARK H PARENT
REMARK Flexibility Score: inf
ROOT
ATOM      1  C   UNL     1       4.114  -9.476   3.108  1.00  0.00     0.000 C 
ENDROOT
BRANCH   1   2
ATOM      2  C   UNL     1       3.915 -10.947   3.503  1.00  0.00     0.000 C 
BRANCH   2   3
ATOM      3  C   UNL     1       3.089 -11.111   4.791  1.00  0.00     0.000 C 
BRANCH   3   4
ATOM      4  C   UNL     1       3.849 -10.794   6.096  1.00  0.00     0.000 C 
BRANCH   4   5
ATOM      5  C   UNL     1       3.101  -9.869   7.076  1.00  0.00     0.000 C 
BRANCH   5   6
ATOM      6  C   UNL     1       1.564  -9.993   7.045  1.00  0.00     0.000 C 
BRANCH   6   7
ATOM      7  C   UNL     1       0.866  -9.795   8.404  1.00  0.00     0.000 C 
BRANCH   7   8
ATOM      8  C   UNL     1       0.588 -11.124   9.128  1.00  0.00     0.000 C 
BRANCH   8   9
ATOM      9  C   UNL     1      -0.615 -11.041  10.079  1.00  0.00     0.000 C 
BRANCH   9  10
ATOM     10  C   UNL     1      -1.521  -9.833   9.793  1.00  0.00     0.006 C 
BRANCH  10  11
ATOM     11  C   UNL     1      -2.981 -10.154  10.125  1.00  0.00     0.053 C 
BRANCH  11  12
ATOM     12  C   UNL     1      -3.857  -8.967   9.874  1.00  0.00     0.041 C 
ATOM     13  O   UNL     1      -3.389  -7.802   9.976  1.00  0.00    -0.550 OA
ATOM     14  O   UNL     1      -5.190  -9.147   9.514  1.00  0.00    -0.550 OA
ENDBRANCH  11  12
ENDBRANCH  10  11
ENDBRANCH   9  10
ENDBRANCH   8   9
ENDBRANCH   7   8
ENDBRANCH   6   7
ENDBRANCH   5   6
ENDBRANCH   4   5
ENDBRANCH   3   4
ENDBRANCH   2   3
ENDBRANCH   1   2
BRANCH   1  15
ATOM     15  C   UNL     1       5.605  -9.122   3.042  1.00  0.00     0.000 C 
BRANCH  15  16
ATOM     16  C   UNL     1       6.012  -8.244   4.232  1.00  0.00     0.000 C 
BRANCH  16  17
ATOM     17  C   UNL     1       7.179  -8.872   5.006  1.00  0.00     0.000 C 
BRANCH  17  18
ATOM     18  C   UNL     1       7.574  -8.052   6.245  1.00  0.00    -0.000 C 
BRANCH  18  19
ATOM     19  C   UNL     1       6.417  -7.192   6.773  1.00  0.00    -0.000 C 
BRANCH  19  20
ATOM     20  C   UNL     1       5.419  -8.044   7.572  1.00  0.00    -0.000 C 
BRANCH  20  21
ATOM     21  C   UNL     1       5.286  -7.584   9.033  1.00  0.00    -0.000 C 
BRANCH  21  22
ATOM     22  C   UNL     1       5.856  -8.608  10.028  1.00  0.00    -0.000 C 
BRANCH  22  23
ATOM     23  C   UNL     1       7.391  -8.565  10.120  1.00  0.00    -0.000 C 
BRANCH  23  24
ATOM     24  C   UNL     1       8.004  -7.154  10.040  1.00  0.00    -0.000 C 
BRANCH  24  25
ATOM     25  C   UNL     1       9.467  -7.163   9.573  1.00  0.00    -0.003 C 
ATOM     26  C   UNL     1       9.811  -5.880   8.819  1.00  0.00     0.004 C 
ENDBRANCH  24  25
ENDBRANCH  23  24
ENDBRANCH  22  23
ENDBRANCH  21  22
ENDBRANCH  20  21
ENDBRANCH  19  20
ENDBRANCH  18  19
ENDBRANCH  17  18
ENDBRANCH  16  17
ENDBRANCH  15  16
ENDBRANCH   1  15
TORSDOF 22
ENDMDL
MODEL 5
REMARK VINA RESULT:    -2.114      3.133      7.370
REMARK INTER + INTRA:          -7.941
REMARK INTER:                  -5.418
REMARK INTRA:                  -2.523
REMARK UNBOUND:                -3.109
REMARK SMILES CCCCCCCCCCCCCCCCCCCCCCCC(=O)[O-]
REMARK SMILES IDX 13 1 14 2 15 3 16 4 17 5 18 6 19 7 20 8 21 9 22 10 23 11
REMARK SMILES IDX 24 12 25 13 26 14 12 15 11 16 10 17 9 18 8 19 7 20 6 21 5 22
REMARK SMILES IDX 4 23 3 24 2 25 1 26
REMARK H PARENT
REMARK Flexibility Score: inf
ROOT
ATOM      1  C   UNL     1       6.668  -8.016   4.390  1.00  0.00     0.000 C 
ENDROOT
BRANCH   1   2
ATOM      2  C   UNL     1       7.117  -7.666   5.817  1.00  0.00     0.000 C 
BRANCH   2   3
ATOM      3  C   UNL     1       8.085  -8.706   6.408  1.00  0.00     0.000 C 
BRANCH   3   4
ATOM      4  C   UNL     1       7.437 -10.049   6.802  1.00  0.00     0.000 C 
BRANCH   4   5
ATOM      5  C   UNL     1       6.526  -9.992   8.045  1.00  0.00     0.000 C 
BRANCH   5   6
ATOM      6  C   UNL     1       7.175 -10.497   9.351  1.00  0.00     0.000 C 
BRANCH   6   7
ATOM      7  C   UNL     1       7.990  -9.444  10.125  1.00  0.00     0.000 C 
BRANCH   7   8
ATOM      8  C   UNL     1       9.454  -9.365   9.656  1.00  0.00     0.000 C 
BRANCH   8   9
ATOM      9  C   UNL     1       9.966  -7.920   9.551  1.00  0.00     0.000 C 
BRANCH   9  10
ATOM     10  C   UNL     1       8.841  -6.879   9.659  1.00  0.00     0.006 C 
BRANCH  10  11
ATOM     11  C   UNL     1       9.027  -5.764   8.623  1.00  0.00     0.053 C 
BRANCH  11  12
ATOM     12  C   UNL     1       7.753  -5.006   8.423  1.00  0.00     0.041 C 
ATOM     13  O   UNL     1       7.784  -3.775   8.156  1.00  0.00    -0.550 OA
ATOM     14  O   UNL     1       6.529  -5.661   8.518  1.00  0.00    -0.550 OA
ENDBRANCH  11  12
ENDBRANCH  10  11
ENDBRANCH   9  10
ENDBRANCH   8   9
ENDBRANCH   7   8
ENDBRANCH   6   7
ENDBRANCH   5   6
ENDBRANCH   4   5
ENDBRANCH   3   4
ENDBRANCH   2   3
ENDBRANCH   1   2
BRANCH   1  15
ATOM     15  C   UNL     1       5.242  -8.582   4.386  1.00  0.00     0.000 C 
BRANCH  15  16
ATOM     16  C   UNL     1       5.151  -9.829   3.497  1.00  0.00     0.000 C 
BRANCH  16  17
ATOM     17  C   UNL     1       3.689 -10.175   3.182  1.00  0.00     0.000 C 
BRANCH  17  18
ATOM     18  C   UNL     1       3.020 -10.983   4.305  1.00  0.00    -0.000 C 
BRANCH  18  19
ATOM     19  C   UNL     1       3.917 -11.125   5.543  1.00  0.00    -0.000 C 
BRANCH  19  20
ATOM     20  C   UNL     1       3.085 -11.069   6.833  1.00  0.00    -0.000 C 
BRANCH  20  21
ATOM     21  C   UNL     1       3.007  -9.652   7.425  1.00  0.00    -0.000 C 
BRANCH  21  22
ATOM     22  C   UNL     1       1.562  -9.210   7.709  1.00  0.00    -0.000 C 
BRANCH  22  23
ATOM     23  C   UNL     1       0.584 -10.392   7.825  1.00  0.00    -0.000 C 
BRANCH  23  24
ATOM     24  C   UNL     1       0.124 -10.712   9.259  1.00  0.00    -0.000 C 
BRANCH  24  25
ATOM     25  C   UNL     1      -1.404 -10.712   9.411  1.00  0.00    -0.003 C 
ATOM     26  C   UNL     1      -1.955  -9.288   9.422  1.00  0.00     0.004 C 
ENDBRANCH  24  25
ENDBRANCH  23  24
ENDBRANCH  22  23
ENDBRANCH  21  22
ENDBRANCH  20  21
ENDBRANCH  19  20
ENDBRANCH  18  19
ENDBRANCH  17  18
ENDBRANCH  16  17
ENDBRANCH  15  16
ENDBRANCH   1  15
TORSDOF 22
ENDMDL
MODEL 6
REMARK VINA RESULT:    -1.815      3.509      7.596
REMARK INTER + INTRA:          -7.257
REMARK INTER:                  -4.894
REMARK INTRA:                  -2.363
REMARK UNBOUND:                -3.109
REMARK SMILES CCCCCCCCCCCCCCCCCCCCCCCC(=O)[O-]
REMARK SMILES IDX 13 1 14 2 15 3 16 4 17 5 18 6 19 7 20 8 21 9 22 10 23 11
REMARK SMILES IDX 24 12 25 13 26 14 12 15 11 16 10 17 9 18 8 19 7 20 6 21 5 22
REMARK SMILES IDX 4 23 3 24 2 25 1 26
REMARK H PARENT
REMARK Flexibility Score: inf
ROOT
ATOM      1  C   UNL     1       3.101 -10.777   5.789  1.00  0.00     0.000 C 
ENDROOT
BRANCH   1   2
ATOM      2  C   UNL     1       3.737  -9.885   4.712  1.00  0.00     0.000 C 
BRANCH   2   3
ATOM      3  C   UNL     1       5.185  -9.486   5.050  1.00  0.00     0.000 C 
BRANCH   3   4
ATOM      4  C   UNL     1       5.323  -8.285   6.008  1.00  0.00     0.000 C 
BRANCH   4   5
ATOM      5  C   UNL     1       6.755  -8.012   6.508  1.00  0.00     0.000 C 
BRANCH   5   6
ATOM      6  C   UNL     1       7.554  -9.268   6.915  1.00  0.00     0.000 C 
BRANCH   6   7
ATOM      7  C   UNL     1       7.524  -9.601   8.419  1.00  0.00     0.000 C 
BRANCH   7   8
ATOM      8  C   UNL     1       8.918  -9.929   8.981  1.00  0.00     0.000 C 
BRANCH   8   9
ATOM      9  C   UNL     1       9.362  -8.947  10.077  1.00  0.00     0.000 C 
BRANCH   9  10
ATOM     10  C   UNL     1       8.624  -7.601  10.006  1.00  0.00     0.006 C 
BRANCH  10  11
ATOM     11  C   UNL     1       9.330  -6.641   9.044  1.00  0.00     0.053 C 
BRANCH  11  12
ATOM     12  C   UNL     1       8.647  -5.309   9.024  1.00  0.00     0.041 C 
ATOM     13  O   UNL     1       8.645  -4.584  10.054  1.00  0.00    -0.550 OA
ATOM     14  O   UNL     1       8.025  -4.862   7.863  1.00  0.00    -0.550 OA
ENDBRANCH  11  12
ENDBRANCH  10  11
ENDBRANCH   9  10
ENDBRANCH   8   9
ENDBRANCH   7   8
ENDBRANCH   6   7
ENDBRANCH   5   6
ENDBRANCH   4   5
ENDBRANCH   3   4
ENDBRANCH   2   3
ENDBRANCH   1   2
BRANCH   1  15
ATOM     15  C   UNL     1       1.651 -11.123   5.428  1.00  0.00     0.000 C 
BRANCH  15  16
ATOM     16  C   UNL     1       0.752 -11.072   6.669  1.00  0.00     0.000 C 
BRANCH  16  17
ATOM     17  C   UNL     1      -0.482 -10.193   6.420  1.00  0.00     0.000 C 
BRANCH  17  18
ATOM     18  C   UNL     1      -1.317  -9.975   7.692  1.00  0.00    -0.000 C 
BRANCH  18  19
ATOM     19  C   UNL     1      -1.116 -11.092   8.726  1.00  0.00    -0.000 C 
BRANCH  19  20
ATOM     20  C   UNL     1      -0.865 -10.507  10.124  1.00  0.00    -0.000 C 
BRANCH  20  21
ATOM     21  C   UNL     1      -0.184  -9.130  10.075  1.00  0.00    -0.000 C 
BRANCH  21  22
ATOM     22  C   UNL     1       1.350  -9.228  10.114  1.00  0.00    -0.000 C 
BRANCH  22  23
ATOM     23  C   UNL     1       2.005  -8.930   8.755  1.00  0.00    -0.000 C 
BRANCH  23  24
ATOM     24  C   UNL     1       2.353  -7.449   8.515  1.00  0.00    -0.000 C 
BRANCH  24  25
ATOM     25  C   UNL     1       2.602  -6.675   9.817  1.00  0.00    -0.003 C 
ATOM     26  C   UNL     1       4.095  -6.477  10.063  1.00  0.00     0.004 C 
ENDBRANCH  24  25
ENDBRANCH  23  24
ENDBRANCH  22  23
ENDBRANCH  21  22
ENDBRANCH  20  21
ENDBRANCH  19  20
ENDBRANCH  18  19
ENDBRANCH  17  18
ENDBRANCH  16  17
ENDBRANCH  15  16
ENDBRANCH   1  15
TORSDOF 22
ENDMDL
MODEL 7
REMARK VINA RESULT:    -1.721      3.515      5.372
REMARK INTER + INTRA:          -7.043
REMARK INTER:                  -4.690
REMARK INTRA:                  -2.354
REMARK UNBOUND:                -3.109
REMARK SMILES CCCCCCCCCCCCCCCCCCCCCCCC(=O)[O-]
REMARK SMILES IDX 13 1 14 2 15 3 16 4 17 5 18 6 19 7 20 8 21 9 22 10 23 11
REMARK SMILES IDX 24 12 25 13 26 14 12 15 11 16 10 17 9 18 8 19 7 20 6 21 5 22
REMARK SMILES IDX 4 23 3 24 2 25 1 26
REMARK H PARENT
REMARK Flexibility Score: inf
ROOT
ATOM      1  C   UNL     1       3.789 -10.450   6.228  1.00  0.00     0.000 C 
ENDROOT
BRANCH   1   2
ATOM      2  C   UNL     1       2.300 -10.637   5.901  1.00  0.00     0.000 C 
BRANCH   2   3
ATOM      3  C   UNL     1       1.471 -11.061   7.126  1.00  0.00     0.000 C 
BRANCH   3   4
ATOM      4  C   UNL     1       0.545  -9.966   7.696  1.00  0.00     0.000 C 
BRANCH   4   5
ATOM      5  C   UNL     1       0.616  -9.785   9.225  1.00  0.00     0.000 C 
BRANCH   5   6
ATOM      6  C   UNL     1       1.260  -8.464   9.695  1.00  0.00     0.000 C 
BRANCH   6   7
ATOM      7  C   UNL     1       2.774  -8.538   9.972  1.00  0.00     0.000 C 
BRANCH   7   8
ATOM      8  C   UNL     1       3.491  -7.202   9.709  1.00  0.00     0.000 C 
BRANCH   8   9
ATOM      9  C   UNL     1       4.996  -7.268  10.009  1.00  0.00     0.000 C 
BRANCH   9  10
ATOM     10  C   UNL     1       5.713  -5.930   9.767  1.00  0.00     0.006 C 
BRANCH  10  11
ATOM     11  C   UNL     1       7.216  -6.060  10.032  1.00  0.00     0.053 C 
BRANCH  11  12
ATOM     12  C   UNL     1       7.986  -5.058   9.229  1.00  0.00     0.041 C 
ATOM     13  O   UNL     1       7.429  -4.443   8.283  1.00  0.00    -0.550 OA
ATOM     14  O   UNL     1       9.318  -4.794   9.537  1.00  0.00    -0.550 OA
ENDBRANCH  11  12
ENDBRANCH  10  11
ENDBRANCH   9  10
ENDBRANCH   8   9
ENDBRANCH   7   8
ENDBRANCH   6   7
ENDBRANCH   5   6
ENDBRANCH   4   5
ENDBRANCH   3   4
ENDBRANCH   2   3
ENDBRANCH   1   2
BRANCH   1  15
ATOM     15  C   UNL     1       4.672 -11.125   5.170  1.00  0.00     0.000 C 
BRANCH  15  16
ATOM     16  C   UNL     1       4.487 -10.462   3.800  1.00  0.00     0.000 C 
BRANCH  16  17
ATOM     17  C   UNL     1       5.174  -9.090   3.755  1.00  0.00     0.000 C 
BRANCH  17  18
ATOM     18  C   UNL     1       6.262  -8.939   4.830  1.00  0.00    -0.000 C 
BRANCH  18  19
ATOM     19  C   UNL     1       6.059  -7.692   5.702  1.00  0.00    -0.000 C 
BRANCH  19  20
ATOM     20  C   UNL     1       7.104  -7.631   6.825  1.00  0.00    -0.000 C 
BRANCH  20  21
ATOM     21  C   UNL     1       7.988  -8.888   6.879  1.00  0.00    -0.000 C 
BRANCH  21  22
ATOM     22  C   UNL     1       8.801  -8.984   8.181  1.00  0.00    -0.000 C 
BRANCH  22  23
ATOM     23  C   UNL     1       9.011 -10.433   8.651  1.00  0.00    -0.000 C 
BRANCH  23  24
ATOM     24  C   UNL     1       7.778 -11.086   9.306  1.00  0.00    -0.000 C 
BRANCH  24  25
ATOM     25  C   UNL     1       6.453 -10.603   8.699  1.00  0.00    -0.003 C 
ATOM     26  C   UNL     1       5.262 -11.105   9.511  1.00  0.00     0.004 C 
ENDBRANCH  24  25
ENDBRANCH  23  24
ENDBRANCH  22  23
ENDBRANCH  21  22
ENDBRANCH  20  21
ENDBRANCH  19  20
ENDBRANCH  18  19
ENDBRANCH  17  18
ENDBRANCH  16  17
ENDBRANCH  15  16
ENDBRANCH   1  15
TORSDOF 22
ENDMDL
