MODEL 1
REMARK VINA RESULT:    -4.328      0.000      0.000
REMARK INTER + INTRA:          -9.715
REMARK INTER:                  -7.617
REMARK INTRA:                  -2.098
REMARK UNBOUND:                -2.098
REMARK SMILES CCCCCCC=CCCCCCCCC(=O)[O-]
REMARK SMILES IDX 10 1 11 2 12 3 13 4 14 5 15 6 16 7 17 8 18 9 9 10 8 11 7 12
REMARK SMILES IDX 6 13 5 14 4 15 3 16 2 17 1 18
REMARK H PARENT
REMARK Flexibility Score: inf
ROOT
ATOM      1  C   UNL     1       3.682  19.722   2.420  1.00  0.00     0.004 C 
ENDROOT
BRANCH   1   2
ATOM      2  C   UNL     1       4.861  19.284   3.304  1.00  0.00     0.000 C 
BRANCH   2   3
ATOM      3  C   UNL     1       4.480  19.183   4.790  1.00  0.00     0.000 C 
BRANCH   3   4
ATOM      4  C   UNL     1       4.930  17.860   5.436  1.00  0.00     0.000 C 
BRANCH   4   5
ATOM      5  C   UNL     1       6.254  17.282   4.894  1.00  0.00     0.006 C 
BRANCH   5   6
ATOM      6  C   UNL     1       6.689  15.960   5.548  1.00  0.00     0.053 C 
BRANCH   6   7
ATOM      7  C   UNL     1       8.051  16.063   6.164  1.00  0.00     0.041 C 
ATOM      8  O   UNL     1       9.020  15.430   5.668  1.00  0.00    -0.550 OA
ATOM      9  O   UNL     1       8.256  16.883   7.266  1.00  0.00    -0.550 OA
ENDBRANCH   6   7
ENDBRANCH   5   6
ENDBRANCH   4   5
ENDBRANCH   3   4
ENDBRANCH   2   3
ENDBRANCH   1   2
BRANCH   1  10
ATOM     10  C   UNL     1       3.431  18.759   1.249  1.00  0.00     0.027 C 
BRANCH  10  11
ATOM     11  C   UNL     1       4.164  17.462   1.448  1.00  0.00    -0.031 C 
ATOM     12  C   UNL     1       4.454  16.652   0.419  1.00  0.00    -0.031 C 
BRANCH  12  13
ATOM     13  C   UNL     1       5.202  15.366   0.642  1.00  0.00     0.027 C 
BRANCH  13  14
ATOM     14  C   UNL     1       5.676  15.244   2.097  1.00  0.00     0.004 C 
BRANCH  14  15
ATOM     15  C   UNL     1       4.988  14.079   2.840  1.00  0.00     0.000 C 
BRANCH  15  16
ATOM     16  C   UNL     1       3.453  14.173   2.848  1.00  0.00    -0.000 C 
BRANCH  16  17
ATOM     17  C   UNL     1       2.907  14.925   4.068  1.00  0.00    -0.003 C 
ATOM     18  C   UNL     1       3.335  14.250   5.368  1.00  0.00     0.004 C 
ENDBRANCH  16  17
ENDBRANCH  15  16
ENDBRANCH  14  15
ENDBRANCH  13  14
ENDBRANCH  12  13
ENDBRANCH  10  11
ENDBRANCH   1  10
TORSDOF 13
ENDMDL
MODEL 2
REMARK VINA RESULT:    -4.127      8.979     10.710
REMARK INTER + INTRA:          -9.362
REMARK INTER:                  -7.263
REMARK INTRA:                  -2.099
REMARK UNBOUND:                -2.098
REMARK SMILES CCCCCCC=CCCCCCCCC(=O)[O-]
REMARK SMILES IDX 10 1 11 2 12 3 13 4 14 5 15 6 16 7 17 8 18 9 9 10 8 11 7 12
REMARK SMILES IDX 6 13 5 14 4 15 3 16 2 17 1 18
REMARK H PARENT
REMARK Flexibility Score: inf
ROOT
ATOM      1  C   UNL     1      14.975  13.078  -3.500  1.00  0.00     0.004 C 
ENDROOT
BRANCH   1   2
ATOM      2  C   UNL     1      15.963  13.655  -2.473  1.00  0.00     0.000 C 
BRANCH   2   3
ATOM      3  C   UNL     1      15.378  14.843  -1.693  1.00  0.00     0.000 C 
BRANCH   3   4
ATOM      4  C   UNL     1      14.728  14.424  -0.361  1.00  0.00     0.000 C 
BRANCH   4   5
ATOM      5  C   UNL     1      13.215  14.129  -0.433  1.00  0.00     0.006 C 
BRANCH   5   6
ATOM      6  C   UNL     1      12.854  12.635  -0.423  1.00  0.00     0.053 C 
BRANCH   6   7
ATOM      7  C   UNL     1      13.919  11.806   0.227  1.00  0.00     0.041 C 
ATOM      8  O   UNL     1      14.758  11.185  -0.478  1.00  0.00    -0.550 OA
ATOM      9  O   UNL     1      14.005  11.747   1.612  1.00  0.00    -0.550 OA
ENDBRANCH   6   7
ENDBRANCH   5   6
ENDBRANCH   4   5
ENDBRANCH   3   4
ENDBRANCH   2   3
ENDBRANCH   1   2
BRANCH   1  10
ATOM     10  C   UNL     1      14.092  14.159  -4.144  1.00  0.00     0.027 C 
BRANCH  10  11
ATOM     11  C   UNL     1      12.639  13.925  -3.836  1.00  0.00    -0.031 C 
ATOM     12  C   UNL     1      11.725  13.799  -4.808  1.00  0.00    -0.031 C 
BRANCH  12  13
ATOM     13  C   UNL     1      10.280  13.550  -4.475  1.00  0.00     0.027 C 
BRANCH  13  14
ATOM     14  C   UNL     1      10.066  13.465  -2.957  1.00  0.00     0.004 C 
BRANCH  14  15
ATOM     15  C   UNL     1       9.397  12.140  -2.534  1.00  0.00     0.000 C 
BRANCH  15  16
ATOM     16  C   UNL     1       9.639  10.985  -3.521  1.00  0.00    -0.000 C 
BRANCH  16  17
ATOM     17  C   UNL     1      10.608   9.928  -2.976  1.00  0.00    -0.003 C 
ATOM     18  C   UNL     1      12.056  10.301  -3.278  1.00  0.00     0.004 C 
ENDBRANCH  16  17
ENDBRANCH  15  16
ENDBRANCH  14  15
ENDBRANCH  13  14
ENDBRANCH  12  13
ENDBRANCH  10  11
ENDBRANCH   1  10
TORSDOF 13
ENDMDL
MODEL 3
REMARK VINA RESULT:    -4.101      9.690     11.530
REMARK INTER + INTRA:          -9.317
REMARK INTER:                  -7.276
REMARK INTRA:                  -2.041
REMARK UNBOUND:                -2.098
REMARK SMILES CCCCCCC=CCCCCCCCC(=O)[O-]
REMARK SMILES IDX 10 1 11 2 12 3 13 4 14 5 15 6 16 7 17 8 18 9 9 10 8 11 7 12
REMARK SMILES IDX 6 13 5 14 4 15 3 16 2 17 1 18
REMARK H PARENT
REMARK Flexibility Score: inf
ROOT
ATOM      1  C   UNL     1       9.581  11.027  -3.790  1.00  0.00     0.004 C 
ENDROOT
BRANCH   1   2
ATOM      2  C   UNL     1      10.044   9.620  -3.379  1.00  0.00     0.000 C 
BRANCH   2   3
ATOM      3  C   UNL     1      11.286   9.648  -2.473  1.00  0.00     0.000 C 
BRANCH   3   4
ATOM      4  C   UNL     1      12.068  10.971  -2.568  1.00  0.00     0.000 C 
BRANCH   4   5
ATOM      5  C   UNL     1      12.273  11.711  -1.230  1.00  0.00     0.006 C 
BRANCH   5   6
ATOM      6  C   UNL     1      12.198  13.243  -1.327  1.00  0.00     0.053 C 
BRANCH   6   7
ATOM      7  C   UNL     1      13.263  13.909  -0.511  1.00  0.00     0.041 C 
ATOM      8  O   UNL     1      13.518  15.130  -0.677  1.00  0.00    -0.550 OA
ATOM      9  O   UNL     1      13.950  13.187   0.456  1.00  0.00    -0.550 OA
ENDBRANCH   6   7
ENDBRANCH   5   6
ENDBRANCH   4   5
ENDBRANCH   3   4
ENDBRANCH   2   3
ENDBRANCH   1   2
BRANCH   1  10
ATOM     10  C   UNL     1       9.591  11.232  -5.313  1.00  0.00     0.027 C 
BRANCH  10  11
ATOM     11  C   UNL     1      10.462  12.397  -5.696  1.00  0.00    -0.031 C 
ATOM     12  C   UNL     1      10.686  13.415  -4.853  1.00  0.00    -0.031 C 
BRANCH  12  13
ATOM     13  C   UNL     1      11.574  14.562  -5.253  1.00  0.00     0.027 C 
BRANCH  13  14
ATOM     14  C   UNL     1      12.975  14.418  -4.643  1.00  0.00     0.004 C 
BRANCH  14  15
ATOM     15  C   UNL     1      14.013  13.920  -5.671  1.00  0.00     0.000 C 
BRANCH  15  16
ATOM     16  C   UNL     1      15.333  13.449  -5.038  1.00  0.00    -0.000 C 
BRANCH  16  17
ATOM     17  C   UNL     1      15.164  12.976  -3.589  1.00  0.00    -0.003 C 
ATOM     18  C   UNL     1      16.200  13.623  -2.674  1.00  0.00     0.004 C 
ENDBRANCH  16  17
ENDBRANCH  15  16
ENDBRANCH  14  15
ENDBRANCH  13  14
ENDBRANCH  12  13
ENDBRANCH  10  11
ENDBRANCH   1  10
TORSDOF 13
ENDMDL
MODEL 4
REMARK VINA RESULT:    -4.091      2.957      4.755
REMARK INTER + INTRA:          -9.299
REMARK INTER:                  -6.877
REMARK INTRA:                  -2.422
REMARK UNBOUND:                -2.098
REMARK SMILES CCCCCCC=CCCCCCCCC(=O)[O-]
REMARK SMILES IDX 10 1 11 2 12 3 13 4 14 5 15 6 16 7 17 8 18 9 9 10 8 11 7 12
REMARK SMILES IDX 6 13 5 14 4 15 3 16 2 17 1 18
REMARK H PARENT
REMARK Flexibility Score: inf
ROOT
ATOM      1  C   UNL     1       6.195  17.726   4.738  1.00  0.00     0.004 C 
ENDROOT
BRANCH   1   2
ATOM      2  C   UNL     1       4.753  18.173   4.450  1.00  0.00     0.000 C 
BRANCH   2   3
ATOM      3  C   UNL     1       4.689  19.403   3.529  1.00  0.00     0.000 C 
BRANCH   3   4
ATOM      4  C   UNL     1       4.138  19.075   2.129  1.00  0.00     0.000 C 
BRANCH   4   5
ATOM      5  C   UNL     1       3.786  17.591   1.892  1.00  0.00     0.006 C 
BRANCH   5   6
ATOM      6  C   UNL     1       4.778  16.835   0.994  1.00  0.00     0.053 C 
BRANCH   6   7
ATOM      7  C   UNL     1       4.119  15.711   0.255  1.00  0.00     0.041 C 
ATOM      8  O   UNL     1       2.905  15.444   0.460  1.00  0.00    -0.550 OA
ATOM      9  O   UNL     1       4.836  14.981  -0.684  1.00  0.00    -0.550 OA
ENDBRANCH   6   7
ENDBRANCH   5   6
ENDBRANCH   4   5
ENDBRANCH   3   4
ENDBRANCH   2   3
ENDBRANCH   1   2
BRANCH   1  10
ATOM     10  C   UNL     1       6.304  16.219   5.018  1.00  0.00     0.027 C 
BRANCH  10  11
ATOM     11  C   UNL     1       4.976  15.538   4.836  1.00  0.00    -0.031 C 
ATOM     12  C   UNL     1       4.774  14.636   3.865  1.00  0.00    -0.031 C 
BRANCH  12  13
ATOM     13  C   UNL     1       3.440  13.957   3.714  1.00  0.00     0.027 C 
BRANCH  13  14
ATOM     14  C   UNL     1       2.807  13.666   5.082  1.00  0.00     0.004 C 
BRANCH  14  15
ATOM     15  C   UNL     1       1.537  14.507   5.328  1.00  0.00     0.000 C 
BRANCH  15  16
ATOM     16  C   UNL     1       1.221  15.494   4.192  1.00  0.00    -0.000 C 
BRANCH  16  17
ATOM     17  C   UNL     1       1.334  16.961   4.625  1.00  0.00    -0.003 C 
ATOM     18  C   UNL     1       1.642  17.072   6.115  1.00  0.00     0.004 C 
ENDBRANCH  16  17
ENDBRANCH  15  16
ENDBRANCH  14  15
ENDBRANCH  13  14
ENDBRANCH  12  13
ENDBRANCH  10  11
ENDBRANCH   1  10
TORSDOF 13
ENDMDL
MODEL 5
REMARK VINA RESULT:    -4.080      3.110      4.805
REMARK INTER + INTRA:          -9.280
REMARK INTER:                  -6.991
REMARK INTRA:                  -2.289
REMARK UNBOUND:                -2.098
REMARK SMILES CCCCCCC=CCCCCCCCC(=O)[O-]
REMARK SMILES IDX 10 1 11 2 12 3 13 4 14 5 15 6 16 7 17 8 18 9 9 10 8 11 7 12
REMARK SMILES IDX 6 13 5 14 4 15 3 16 2 17 1 18
REMARK H PARENT
REMARK Flexibility Score: inf
ROOT
ATOM      1  C   UNL     1       2.963  14.625   4.917  1.00  0.00     0.004 C 
ENDROOT
BRANCH   1   2
ATOM      2  C   UNL     1       1.887  15.505   4.261  1.00  0.00     0.000 C 
BRANCH   2   3
ATOM      3  C   UNL     1       2.359  16.952   4.043  1.00  0.00     0.000 C 
BRANCH   3   4
ATOM      4  C   UNL     1       3.739  17.232   4.666  1.00  0.00     0.000 C 
BRANCH   4   5
ATOM      5  C   UNL     1       4.582  18.302   3.941  1.00  0.00     0.006 C 
BRANCH   5   6
ATOM      6  C   UNL     1       4.263  19.750   4.349  1.00  0.00     0.053 C 
BRANCH   6   7
ATOM      7  C   UNL     1       3.854  20.584   3.174  1.00  0.00     0.041 C 
ATOM      8  O   UNL     1       3.762  21.835   3.286  1.00  0.00    -0.550 OA
ATOM      9  O   UNL     1       3.607  19.982   1.946  1.00  0.00    -0.550 OA
ENDBRANCH   6   7
ENDBRANCH   5   6
ENDBRANCH   4   5
ENDBRANCH   3   4
ENDBRANCH   2   3
ENDBRANCH   1   2
BRANCH   1  10
ATOM     10  C   UNL     1       3.391  13.449   4.025  1.00  0.00     0.027 C 
BRANCH  10  11
ATOM     11  C   UNL     1       4.121  13.934   2.803  1.00  0.00    -0.031 C 
ATOM     12  C   UNL     1       5.250  14.652   2.896  1.00  0.00    -0.031 C 
BRANCH  12  13
ATOM     13  C   UNL     1       5.971  15.112   1.659  1.00  0.00     0.027 C 
BRANCH  13  14
ATOM     14  C   UNL     1       4.988  15.376   0.509  1.00  0.00     0.004 C 
BRANCH  14  15
ATOM     15  C   UNL     1       4.338  16.772   0.605  1.00  0.00     0.000 C 
BRANCH  15  16
ATOM     16  C   UNL     1       2.806  16.749   0.477  1.00  0.00    -0.000 C 
BRANCH  16  17
ATOM     17  C   UNL     1       2.229  15.328   0.464  1.00  0.00    -0.003 C 
ATOM     18  C   UNL     1       0.721  15.348   0.231  1.00  0.00     0.004 C 
ENDBRANCH  16  17
ENDBRANCH  15  16
ENDBRANCH  14  15
ENDBRANCH  13  14
ENDBRANCH  12  13
ENDBRANCH  10  11
ENDBRANCH   1  10
TORSDOF 13
ENDMDL
MODEL 6
REMARK VINA RESULT:    -4.066      2.600      4.057
REMARK INTER + INTRA:          -9.254
REMARK INTER:                  -6.920
REMARK INTRA:                  -2.334
REMARK UNBOUND:                -2.098
REMARK SMILES CCCCCCC=CCCCCCCCC(=O)[O-]
REMARK SMILES IDX 10 1 11 2 12 3 13 4 14 5 15 6 16 7 17 8 18 9 9 10 8 11 7 12
REMARK SMILES IDX 6 13 5 14 4 15 3 16 2 17 1 18
REMARK H PARENT
REMARK Flexibility Score: inf
ROOT
ATOM      1  C   UNL     1       4.106  19.163   4.787  1.00  0.00     0.004 C 
ENDROOT
BRANCH   1   2
ATOM      2  C   UNL     1       4.775  17.904   5.362  1.00  0.00     0.000 C 
BRANCH   2   3
ATOM      3  C   UNL     1       5.798  17.285   4.395  1.00  0.00     0.000 C 
BRANCH   3   4
ATOM      4  C   UNL     1       5.673  15.754   4.290  1.00  0.00     0.000 C 
BRANCH   4   5
ATOM      5  C   UNL     1       6.031  15.159   2.913  1.00  0.00     0.006 C 
BRANCH   5   6
ATOM      6  C   UNL     1       5.024  15.478   1.796  1.00  0.00     0.053 C 
BRANCH   6   7
ATOM      7  C   UNL     1       5.647  15.387   0.437  1.00  0.00     0.041 C 
ATOM      8  O   UNL     1       4.926  15.420  -0.594  1.00  0.00    -0.550 OA
ATOM      9  O   UNL     1       7.027  15.298   0.310  1.00  0.00    -0.550 OA
ENDBRANCH   6   7
ENDBRANCH   5   6
ENDBRANCH   4   5
ENDBRANCH   3   4
ENDBRANCH   2   3
ENDBRANCH   1   2
BRANCH   1  10
ATOM     10  C   UNL     1       4.736  19.614   3.459  1.00  0.00     0.027 C 
BRANCH  10  11
ATOM     11  C   UNL     1       3.736  19.555   2.338  1.00  0.00    -0.031 C 
ATOM     12  C   UNL     1       3.794  18.605   1.393  1.00  0.00    -0.031 C 
BRANCH  12  13
ATOM     13  C   UNL     1       2.773  18.557   0.290  1.00  0.00     0.027 C 
BRANCH  13  14
ATOM     14  C   UNL     1       2.015  17.221   0.293  1.00  0.00     0.004 C 
BRANCH  14  15
ATOM     15  C   UNL     1       0.917  17.175   1.377  1.00  0.00     0.000 C 
BRANCH  15  16
ATOM     16  C   UNL     1       1.089  16.023   2.380  1.00  0.00    -0.000 C 
BRANCH  16  17
ATOM     17  C   UNL     1       1.812  16.450   3.663  1.00  0.00    -0.003 C 
ATOM     18  C   UNL     1       2.017  15.265   4.601  1.00  0.00     0.004 C 
ENDBRANCH  16  17
ENDBRANCH  15  16
ENDBRANCH  14  15
ENDBRANCH  13  14
ENDBRANCH  12  13
ENDBRANCH  10  11
ENDBRANCH   1  10
TORSDOF 13
ENDMDL
MODEL 7
REMARK VINA RESULT:    -4.041      1.435      2.219
REMARK INTER + INTRA:          -9.210
REMARK INTER:                  -7.341
REMARK INTRA:                  -1.870
REMARK UNBOUND:                -2.098
REMARK SMILES CCCCCCC=CCCCCCCCC(=O)[O-]
REMARK SMILES IDX 10 1 11 2 12 3 13 4 14 5 15 6 16 7 17 8 18 9 9 10 8 11 7 12
REMARK SMILES IDX 6 13 5 14 4 15 3 16 2 17 1 18
REMARK H PARENT
REMARK Flexibility Score: inf
ROOT
ATOM      1  C   UNL     1       4.501  19.630   4.282  1.00  0.00     0.004 C 
ENDROOT
BRANCH   1   2
ATOM      2  C   UNL     1       5.302  18.333   4.478  1.00  0.00     0.000 C 
BRANCH   2   3
ATOM      3  C   UNL     1       5.050  17.684   5.849  1.00  0.00     0.000 C 
BRANCH   3   4
ATOM      4  C   UNL     1       6.017  16.524   6.150  1.00  0.00     0.000 C 
BRANCH   4   5
ATOM      5  C   UNL     1       7.301  16.501   5.296  1.00  0.00     0.006 C 
BRANCH   5   6
ATOM      6  C   UNL     1       8.509  15.837   5.975  1.00  0.00     0.053 C 
BRANCH   6   7
ATOM      7  C   UNL     1       9.107  14.759   5.124  1.00  0.00     0.041 C 
ATOM      8  O   UNL     1       8.548  14.417   4.049  1.00  0.00    -0.550 OA
ATOM      9  O   UNL     1      10.300  14.156   5.502  1.00  0.00    -0.550 OA
ENDBRANCH   6   7
ENDBRANCH   5   6
ENDBRANCH   4   5
ENDBRANCH   3   4
ENDBRANCH   2   3
ENDBRANCH   1   2
BRANCH   1  10
ATOM     10  C   UNL     1       4.140  19.886   2.810  1.00  0.00     0.027 C 
BRANCH  10  11
ATOM     11  C   UNL     1       4.158  18.608   2.018  1.00  0.00    -0.031 C 
ATOM     12  C   UNL     1       3.044  18.105   1.467  1.00  0.00    -0.031 C 
BRANCH  12  13
ATOM     13  C   UNL     1       3.091  16.833   0.665  1.00  0.00     0.027 C 
BRANCH  13  14
ATOM     14  C   UNL     1       4.525  16.508   0.225  1.00  0.00     0.004 C 
BRANCH  14  15
ATOM     15  C   UNL     1       4.997  15.132   0.743  1.00  0.00     0.000 C 
BRANCH  15  16
ATOM     16  C   UNL     1       5.696  15.196   2.111  1.00  0.00    -0.000 C 
BRANCH  16  17
ATOM     17  C   UNL     1       4.766  14.831   3.274  1.00  0.00    -0.003 C 
ATOM     18  C   UNL     1       3.808  13.709   2.883  1.00  0.00     0.004 C 
ENDBRANCH  16  17
ENDBRANCH  15  16
ENDBRANCH  14  15
ENDBRANCH  13  14
ENDBRANCH  12  13
ENDBRANCH  10  11
ENDBRANCH   1  10
TORSDOF 13
ENDMDL
MODEL 8
REMARK VINA RESULT:    -3.996      2.492      4.655
REMARK INTER + INTRA:          -9.132
REMARK INTER:                  -6.916
REMARK INTRA:                  -2.216
REMARK UNBOUND:                -2.098
REMARK SMILES CCCCCCC=CCCCCCCCC(=O)[O-]
REMARK SMILES IDX 10 1 11 2 12 3 13 4 14 5 15 6 16 7 17 8 18 9 9 10 8 11 7 12
REMARK SMILES IDX 6 13 5 14 4 15 3 16 2 17 1 18
REMARK H PARENT
REMARK Flexibility Score: inf
ROOT
ATOM      1  C   UNL     1       1.617  17.236   1.513  1.00  0.00     0.004 C 
ENDROOT
BRANCH   1   2
ATOM      2  C   UNL     1       1.866  15.794   1.984  1.00  0.00     0.000 C 
BRANCH   2   3
ATOM      3  C   UNL     1       2.499  15.731   3.384  1.00  0.00     0.000 C 
BRANCH   3   4
ATOM      4  C   UNL     1       3.314  14.445   3.616  1.00  0.00     0.000 C 
BRANCH   4   5
ATOM      5  C   UNL     1       4.269  14.057   2.468  1.00  0.00     0.006 C 
BRANCH   5   6
ATOM      6  C   UNL     1       5.311  15.131   2.113  1.00  0.00     0.053 C 
BRANCH   6   7
ATOM      7  C   UNL     1       5.552  15.209   0.637  1.00  0.00     0.041 C 
ATOM      8  O   UNL     1       4.602  15.032  -0.171  1.00  0.00    -0.550 OA
ATOM      9  O   UNL     1       6.819  15.510   0.154  1.00  0.00    -0.550 OA
ENDBRANCH   6   7
ENDBRANCH   5   6
ENDBRANCH   4   5
ENDBRANCH   3   4
ENDBRANCH   2   3
ENDBRANCH   1   2
BRANCH   1  10
ATOM     10  C   UNL     1       2.754  17.776   0.632  1.00  0.00     0.027 C 
BRANCH  10  11
ATOM     11  C   UNL     1       3.810  18.449   1.463  1.00  0.00    -0.031 C 
ATOM     12  C   UNL     1       3.511  19.074   2.611  1.00  0.00    -0.031 C 
BRANCH  12  13
ATOM     13  C   UNL     1       4.588  19.727   3.433  1.00  0.00     0.027 C 
BRANCH  13  14
ATOM     14  C   UNL     1       5.499  18.678   4.087  1.00  0.00     0.004 C 
BRANCH  14  15
ATOM     15  C   UNL     1       4.761  17.851   5.160  1.00  0.00     0.000 C 
BRANCH  15  16
ATOM     16  C   UNL     1       5.595  16.687   5.723  1.00  0.00    -0.000 C 
BRANCH  16  17
ATOM     17  C   UNL     1       7.094  16.832   5.435  1.00  0.00    -0.003 C 
ATOM     18  C   UNL     1       7.696  15.511   4.967  1.00  0.00     0.004 C 
ENDBRANCH  16  17
ENDBRANCH  15  16
ENDBRANCH  14  15
ENDBRANCH  13  14
ENDBRANCH  12  13
ENDBRANCH  10  11
ENDBRANCH   1  10
TORSDOF 13
ENDMDL
MODEL 9
REMARK VINA RESULT:    -3.987      9.260     11.401
REMARK INTER + INTRA:          -9.116
REMARK INTER:                  -7.052
REMARK INTRA:                  -2.064
REMARK UNBOUND:                -2.098
REMARK SMILES CCCCCCC=CCCCCCCCC(=O)[O-]
REMARK SMILES IDX 10 1 11 2 12 3 13 4 14 5 15 6 16 7 17 8 18 9 9 10 8 11 7 12
REMARK SMILES IDX 6 13 5 14 4 15 3 16 2 17 1 18
REMARK H PARENT
REMARK Flexibility Score: inf
ROOT
ATOM      1  C   UNL     1       9.764  12.344  -4.081  1.00  0.00     0.004 C 
ENDROOT
BRANCH   1   2
ATOM      2  C   UNL     1       9.860  11.795  -2.648  1.00  0.00     0.000 C 
BRANCH   2   3
ATOM      3  C   UNL     1      10.158  12.893  -1.614  1.00  0.00     0.000 C 
BRANCH   3   4
ATOM      4  C   UNL     1      11.660  13.035  -1.306  1.00  0.00     0.000 C 
BRANCH   4   5
ATOM      5  C   UNL     1      12.489  11.744  -1.471  1.00  0.00     0.006 C 
BRANCH   5   6
ATOM      6  C   UNL     1      13.802  11.722  -0.672  1.00  0.00     0.053 C 
BRANCH   6   7
ATOM      7  C   UNL     1      13.695  12.503   0.601  1.00  0.00     0.041 C 
ATOM      8  O   UNL     1      13.126  12.002   1.606  1.00  0.00    -0.550 OA
ATOM      9  O   UNL     1      14.253  13.772   0.687  1.00  0.00    -0.550 OA
ENDBRANCH   6   7
ENDBRANCH   5   6
ENDBRANCH   4   5
ENDBRANCH   3   4
ENDBRANCH   2   3
ENDBRANCH   1   2
BRANCH   1  10
ATOM     10  C   UNL     1      10.805  11.720  -5.024  1.00  0.00     0.027 C 
BRANCH  10  11
ATOM     11  C   UNL     1      12.049  12.560  -5.089  1.00  0.00    -0.031 C 
ATOM     12  C   UNL     1      12.014  13.886  -4.894  1.00  0.00    -0.031 C 
BRANCH  12  13
ATOM     13  C   UNL     1      13.276  14.704  -4.948  1.00  0.00     0.027 C 
BRANCH  13  14
ATOM     14  C   UNL     1      14.450  13.955  -4.302  1.00  0.00     0.004 C 
BRANCH  14  15
ATOM     15  C   UNL     1      14.715  14.423  -2.855  1.00  0.00     0.000 C 
BRANCH  15  16
ATOM     16  C   UNL     1      16.111  14.046  -2.331  1.00  0.00    -0.000 C 
BRANCH  16  17
ATOM     17  C   UNL     1      16.857  13.080  -3.259  1.00  0.00    -0.003 C 
ATOM     18  C   UNL     1      18.210  12.688  -2.674  1.00  0.00     0.004 C 
ENDBRANCH  16  17
ENDBRANCH  15  16
ENDBRANCH  14  15
ENDBRANCH  13  14
ENDBRANCH  12  13
ENDBRANCH  10  11
ENDBRANCH   1  10
TORSDOF 13
ENDMDL
