MODEL 1
REMARK VINA RESULT:    -5.226      0.000      0.000
REMARK INTER + INTRA:          -6.079
REMARK INTER:                  -5.990
REMARK INTRA:                  -0.089
REMARK UNBOUND:                -0.089
REMARK SMILES COc1cc(C(=O)[O-])ccc1O
REMARK SMILES IDX 5 1 9 2 4 3 10 4 3 5 11 6 6 7 7 8 8 9 2 10 1 11 12 12
REMARK H PARENT 12 13
REMARK Flexibility Score: inf
ROOT
ATOM      1  C   UNL     1      21.776  -5.731  18.614  1.00  0.00     0.001 A 
ATOM      2  C   UNL     1      22.389  -6.936  18.995  1.00  0.00     0.014 A 
ATOM      3  C   UNL     1      21.156  -5.646  17.355  1.00  0.00     0.060 A 
ATOM      4  C   UNL     1      22.381  -8.034  18.133  1.00  0.00     0.051 A 
ATOM      5  C   UNL     1      21.145  -6.753  16.481  1.00  0.00     0.161 A 
ATOM      6  C   UNL     1      21.765  -7.951  16.882  1.00  0.00     0.157 A 
ENDROOT
BRANCH   1   7
ATOM      7  C   UNL     1      21.782  -4.564  19.525  1.00  0.00     0.072 C 
ATOM      8  O   UNL     1      21.472  -3.418  19.102  1.00  0.00    -0.545 OA
ATOM      9  O   UNL     1      22.131  -4.716  20.863  1.00  0.00    -0.545 OA
ENDBRANCH   1   7
BRANCH   5  10
ATOM     10  O   UNL     1      20.533  -6.698  15.219  1.00  0.00    -0.493 OA
ATOM     11  C   UNL     1      19.172  -7.033  14.964  1.00  0.00     0.278 C 
ENDBRANCH   5  10
BRANCH   6  12
ATOM     12  O   UNL     1      21.778  -9.070  16.049  1.00  0.00    -0.504 OA
ATOM     13  H   UNL     1      22.541  -9.258  15.411  1.00  0.00     0.293 HD
ENDBRANCH   6  12
TORSDOF 3
ENDMDL
MODEL 2
REMARK VINA RESULT:    -5.222      1.761      5.326
REMARK INTER + INTRA:          -6.075
REMARK INTER:                  -5.989
REMARK INTRA:                  -0.085
REMARK UNBOUND:                -0.089
REMARK SMILES COc1cc(C(=O)[O-])ccc1O
REMARK SMILES IDX 5 1 9 2 4 3 10 4 3 5 11 6 6 7 7 8 8 9 2 10 1 11 12 12
REMARK H PARENT 12 13
REMARK Flexibility Score: inf
ROOT
ATOM      1  C   UNL     1      21.790  -6.010  18.588  1.00  0.00     0.001 A 
ATOM      2  C   UNL     1      21.425  -4.918  17.782  1.00  0.00     0.014 A 
ATOM      3  C   UNL     1      22.175  -5.778  19.920  1.00  0.00     0.060 A 
ATOM      4  C   UNL     1      21.443  -3.622  18.299  1.00  0.00     0.051 A 
ATOM      5  C   UNL     1      22.194  -4.471  20.447  1.00  0.00     0.161 A 
ATOM      6  C   UNL     1      21.824  -3.392  19.623  1.00  0.00     0.157 A 
ENDROOT
BRANCH   1   7
ATOM      7  C   UNL     1      21.773  -7.386  18.042  1.00  0.00     0.072 C 
ATOM      8  O   UNL     1      22.508  -8.281  18.537  1.00  0.00    -0.545 OA
ATOM      9  O   UNL     1      20.943  -7.711  16.974  1.00  0.00    -0.545 OA
ENDBRANCH   1   7
BRANCH   5  10
ATOM     10  O   UNL     1      22.572  -4.209  21.775  1.00  0.00    -0.493 OA
ATOM     11  C   UNL     1      22.160  -4.979  22.899  1.00  0.00     0.278 C 
ENDBRANCH   5  10
BRANCH   6  12
ATOM     12  O   UNL     1      21.829  -2.082  20.104  1.00  0.00    -0.504 OA
ATOM     13  H   UNL     1      21.057  -1.700  20.637  1.00  0.00     0.293 HD
ENDBRANCH   6  12
TORSDOF 3
ENDMDL
MODEL 3
REMARK VINA RESULT:    -4.725     17.886     18.610
REMARK INTER + INTRA:          -5.505
REMARK INTER:                  -5.420
REMARK INTRA:                  -0.085
REMARK UNBOUND:                -0.089
REMARK SMILES COc1cc(C(=O)[O-])ccc1O
REMARK SMILES IDX 5 1 9 2 4 3 10 4 3 5 11 6 6 7 7 8 8 9 2 10 1 11 12 12
REMARK H PARENT 12 13
REMARK Flexibility Score: inf
ROOT
ATOM      1  C   UNL     1      20.074   7.911  29.429  1.00  0.00     0.001 A 
ATOM      2  C   UNL     1      19.553   8.666  28.364  1.00  0.00     0.014 A 
ATOM      3  C   UNL     1      21.428   7.535  29.403  1.00  0.00     0.060 A 
ATOM      4  C   UNL     1      20.371   9.035  27.295  1.00  0.00     0.051 A 
ATOM      5  C   UNL     1      22.259   7.907  28.326  1.00  0.00     0.161 A 
ATOM      6  C   UNL     1      21.717   8.662  27.269  1.00  0.00     0.157 A 
ENDROOT
BRANCH   1   7
ATOM      7  C   UNL     1      19.209   7.517  30.564  1.00  0.00     0.072 C 
ATOM      8  O   UNL     1      19.487   7.879  31.738  1.00  0.00    -0.545 OA
ATOM      9  O   UNL     1      18.075   6.741  30.350  1.00  0.00    -0.545 OA
ENDBRANCH   1   7
BRANCH   5  10
ATOM     10  O   UNL     1      23.615   7.546  28.273  1.00  0.00    -0.493 OA
ATOM     11  C   UNL     1      24.558   7.792  29.311  1.00  0.00     0.278 C 
ENDBRANCH   5  10
BRANCH   6  12
ATOM     12  O   UNL     1      22.503   9.050  26.184  1.00  0.00    -0.504 OA
ATOM     13  H   UNL     1      23.132   9.842  26.230  1.00  0.00     0.293 HD
ENDBRANCH   6  12
TORSDOF 3
ENDMDL
MODEL 4
REMARK VINA RESULT:    -4.608     17.282     18.416
REMARK INTER + INTRA:          -5.371
REMARK INTER:                  -5.289
REMARK INTRA:                  -0.082
REMARK UNBOUND:                -0.089
REMARK SMILES COc1cc(C(=O)[O-])ccc1O
REMARK SMILES IDX 5 1 9 2 4 3 10 4 3 5 11 6 6 7 7 8 8 9 2 10 1 11 12 12
REMARK H PARENT 12 13
REMARK Flexibility Score: inf
ROOT
ATOM      1  C   UNL     1      22.083   7.836  28.209  1.00  0.00     0.001 A 
ATOM      2  C   UNL     1      21.778   8.548  27.037  1.00  0.00     0.014 A 
ATOM      3  C   UNL     1      21.095   7.693  29.199  1.00  0.00     0.060 A 
ATOM      4  C   UNL     1      20.510   9.106  26.860  1.00  0.00     0.051 A 
ATOM      5  C   UNL     1      19.813   8.253  29.025  1.00  0.00     0.161 A 
ATOM      6  C   UNL     1      19.528   8.964  27.844  1.00  0.00     0.157 A 
ENDROOT
BRANCH   1   7
ATOM      7  C   UNL     1      23.426   7.243  28.400  1.00  0.00     0.072 C 
ATOM      8  O   UNL     1      23.958   6.553  27.490  1.00  0.00    -0.545 OA
ATOM      9  O   UNL     1      24.121   7.441  29.588  1.00  0.00    -0.545 OA
ENDBRANCH   1   7
BRANCH   5  10
ATOM     10  O   UNL     1      18.807   8.126  29.996  1.00  0.00    -0.493 OA
ATOM     11  C   UNL     1      18.517   6.927  30.708  1.00  0.00     0.278 C 
ENDBRANCH   5  10
BRANCH   6  12
ATOM     12  O   UNL     1      18.274   9.535  27.631  1.00  0.00    -0.504 OA
ATOM     13  H   UNL     1      17.487   8.996  27.290  1.00  0.00     0.293 HD
ENDBRANCH   6  12
TORSDOF 3
ENDMDL
MODEL 5
REMARK VINA RESULT:    -4.510     11.447     13.492
REMARK INTER + INTRA:          -5.258
REMARK INTER:                  -5.178
REMARK INTRA:                  -0.080
REMARK UNBOUND:                -0.089
REMARK SMILES COc1cc(C(=O)[O-])ccc1O
REMARK SMILES IDX 5 1 9 2 4 3 10 4 3 5 11 6 6 7 7 8 8 9 2 10 1 11 12 12
REMARK H PARENT 12 13
REMARK Flexibility Score: inf
ROOT
ATOM      1  C   UNL     1      27.088   2.776  23.918  1.00  0.00     0.001 A 
ATOM      2  C   UNL     1      27.733   4.025  23.936  1.00  0.00     0.014 A 
ATOM      3  C   UNL     1      25.874   2.623  24.610  1.00  0.00     0.060 A 
ATOM      4  C   UNL     1      27.174   5.097  24.633  1.00  0.00     0.051 A 
ATOM      5  C   UNL     1      25.305   3.704  25.315  1.00  0.00     0.161 A 
ATOM      6  C   UNL     1      25.967   4.946  25.321  1.00  0.00     0.157 A 
ENDROOT
BRANCH   1   7
ATOM      7  C   UNL     1      27.678   1.637  23.181  1.00  0.00     0.072 C 
ATOM      8  O   UNL     1      28.773   1.765  22.570  1.00  0.00    -0.545 OA
ATOM      9  O   UNL     1      27.032   0.406  23.151  1.00  0.00    -0.545 OA
ENDBRANCH   1   7
BRANCH   5  10
ATOM     10  O   UNL     1      24.093   3.581  26.014  1.00  0.00    -0.493 OA
ATOM     11  C   UNL     1      23.379   2.361  26.186  1.00  0.00     0.278 C 
ENDBRANCH   5  10
BRANCH   6  12
ATOM     12  O   UNL     1      25.440   6.041  26.005  1.00  0.00    -0.504 OA
ATOM     13  H   UNL     1      25.439   6.974  25.610  1.00  0.00     0.293 HD
ENDBRANCH   6  12
TORSDOF 3
ENDMDL
MODEL 6
REMARK VINA RESULT:    -4.469     18.265     19.641
REMARK INTER + INTRA:          -5.212
REMARK INTER:                  -5.135
REMARK INTRA:                  -0.077
REMARK UNBOUND:                -0.089
REMARK SMILES COc1cc(C(=O)[O-])ccc1O
REMARK SMILES IDX 5 1 9 2 4 3 10 4 3 5 11 6 6 7 7 8 8 9 2 10 1 11 12 12
REMARK H PARENT 12 13
REMARK Flexibility Score: inf
ROOT
ATOM      1  C   UNL     1      20.097   9.097  28.648  1.00  0.00     0.001 A 
ATOM      2  C   UNL     1      21.062   9.931  29.238  1.00  0.00     0.014 A 
ATOM      3  C   UNL     1      19.544   8.050  29.406  1.00  0.00     0.060 A 
ATOM      4  C   UNL     1      21.464   9.722  30.558  1.00  0.00     0.051 A 
ATOM      5  C   UNL     1      19.946   7.835  30.740  1.00  0.00     0.161 A 
ATOM      6  C   UNL     1      20.914   8.681  31.311  1.00  0.00     0.157 A 
ENDROOT
BRANCH   1   7
ATOM      7  C   UNL     1      19.668   9.315  27.248  1.00  0.00     0.072 C 
ATOM      8  O   UNL     1      18.741  10.125  26.981  1.00  0.00    -0.545 OA
ATOM      9  O   UNL     1      20.284   8.630  26.207  1.00  0.00    -0.545 OA
ENDBRANCH   1   7
BRANCH   5  10
ATOM     10  O   UNL     1      19.409   6.798  31.521  1.00  0.00    -0.493 OA
ATOM     11  C   UNL     1      18.057   6.357  31.462  1.00  0.00     0.278 C 
ENDBRANCH   5  10
BRANCH   6  12
ATOM     12  O   UNL     1      21.341   8.504  32.627  1.00  0.00    -0.504 OA
ATOM     13  H   UNL     1      21.597   9.284  33.220  1.00  0.00     0.293 HD
ENDBRANCH   6  12
TORSDOF 3
ENDMDL
MODEL 7
REMARK VINA RESULT:    -4.461     18.091     19.070
REMARK INTER + INTRA:          -5.202
REMARK INTER:                  -5.108
REMARK INTRA:                  -0.094
REMARK UNBOUND:                -0.089
REMARK SMILES COc1cc(C(=O)[O-])ccc1O
REMARK SMILES IDX 5 1 9 2 4 3 10 4 3 5 11 6 6 7 7 8 8 9 2 10 1 11 12 12
REMARK H PARENT 12 13
REMARK Flexibility Score: inf
ROOT
ATOM      1  C   UNL     1      19.554   7.582  29.962  1.00  0.00     0.001 A 
ATOM      2  C   UNL     1      18.281   7.320  30.496  1.00  0.00     0.014 A 
ATOM      3  C   UNL     1      20.683   7.010  30.575  1.00  0.00     0.060 A 
ATOM      4  C   UNL     1      18.140   6.504  31.619  1.00  0.00     0.051 A 
ATOM      5  C   UNL     1      20.546   6.184  31.709  1.00  0.00     0.161 A 
ATOM      6  C   UNL     1      19.262   5.935  32.228  1.00  0.00     0.157 A 
ENDROOT
BRANCH   1   7
ATOM      7  C   UNL     1      19.706   8.448  28.771  1.00  0.00     0.072 C 
ATOM      8  O   UNL     1      18.789   9.243  28.434  1.00  0.00    -0.545 OA
ATOM      9  O   UNL     1      20.866   8.396  28.006  1.00  0.00    -0.545 OA
ENDBRANCH   1   7
BRANCH   5  10
ATOM     10  O   UNL     1      21.656   5.599  32.341  1.00  0.00    -0.493 OA
ATOM     11  C   UNL     1      22.218   4.340  31.986  1.00  0.00     0.278 C 
ENDBRANCH   5  10
BRANCH   6  12
ATOM     12  O   UNL     1      19.082   5.124  33.348  1.00  0.00    -0.504 OA
ATOM     13  H   UNL     1      19.249   5.460  34.289  1.00  0.00     0.293 HD
ENDBRANCH   6  12
TORSDOF 3
ENDMDL
MODEL 8
REMARK VINA RESULT:    -4.422     17.635     18.495
REMARK INTER + INTRA:          -5.157
REMARK INTER:                  -5.061
REMARK INTRA:                  -0.096
REMARK UNBOUND:                -0.089
REMARK SMILES COc1cc(C(=O)[O-])ccc1O
REMARK SMILES IDX 5 1 9 2 4 3 10 4 3 5 11 6 6 7 7 8 8 9 2 10 1 11 12 12
REMARK H PARENT 12 13
REMARK Flexibility Score: inf
ROOT
ATOM      1  C   UNL     1      21.360   7.361  29.819  1.00  0.00     0.001 A 
ATOM      2  C   UNL     1      22.515   6.921  29.150  1.00  0.00     0.014 A 
ATOM      3  C   UNL     1      20.605   8.408  29.262  1.00  0.00     0.060 A 
ATOM      4  C   UNL     1      22.905   7.515  27.949  1.00  0.00     0.051 A 
ATOM      5  C   UNL     1      20.995   9.012  28.049  1.00  0.00     0.161 A 
ATOM      6  C   UNL     1      22.155   8.556  27.396  1.00  0.00     0.157 A 
ENDROOT
BRANCH   1   7
ATOM      7  C   UNL     1      20.944   6.733  31.093  1.00  0.00     0.072 C 
ATOM      8  O   UNL     1      21.443   5.636  31.460  1.00  0.00    -0.545 OA
ATOM      9  O   UNL     1      19.995   7.345  31.904  1.00  0.00    -0.545 OA
ENDBRANCH   1   7
BRANCH   5  10
ATOM     10  O   UNL     1      20.260  10.059  27.469  1.00  0.00    -0.493 OA
ATOM     11  C   UNL     1      18.906   9.956  27.042  1.00  0.00     0.278 C 
ENDBRANCH   5  10
BRANCH   6  12
ATOM     12  O   UNL     1      22.576   9.125  26.194  1.00  0.00    -0.504 OA
ATOM     13  H   UNL     1      23.057  10.016  26.159  1.00  0.00     0.293 HD
ENDBRANCH   6  12
TORSDOF 3
ENDMDL
MODEL 9
REMARK VINA RESULT:    -4.382     10.980     14.055
REMARK INTER + INTRA:          -5.112
REMARK INTER:                  -5.016
REMARK INTRA:                  -0.096
REMARK UNBOUND:                -0.089
REMARK SMILES COc1cc(C(=O)[O-])ccc1O
REMARK SMILES IDX 5 1 9 2 4 3 10 4 3 5 11 6 6 7 7 8 8 9 2 10 1 11 12 12
REMARK H PARENT 12 13
REMARK Flexibility Score: inf
ROOT
ATOM      1  C   UNL     1      26.637   2.643  23.930  1.00  0.00     0.001 A 
ATOM      2  C   UNL     1      25.449   2.731  24.675  1.00  0.00     0.014 A 
ATOM      3  C   UNL     1      27.505   3.749  23.894  1.00  0.00     0.060 A 
ATOM      4  C   UNL     1      25.137   3.901  25.371  1.00  0.00     0.051 A 
ATOM      5  C   UNL     1      27.195   4.932  24.595  1.00  0.00     0.161 A 
ATOM      6  C   UNL     1      26.000   4.999  25.335  1.00  0.00     0.157 A 
ENDROOT
BRANCH   1   7
ATOM      7  C   UNL     1      26.971   1.405  23.191  1.00  0.00     0.072 C 
ATOM      8  O   UNL     1      27.745   0.547  23.693  1.00  0.00    -0.545 OA
ATOM      9  O   UNL     1      26.433   1.169  21.930  1.00  0.00    -0.545 OA
ENDBRANCH   1   7
BRANCH   5  10
ATOM     10  O   UNL     1      28.043   6.051  24.578  1.00  0.00    -0.493 OA
ATOM     11  C   UNL     1      29.216   6.189  25.374  1.00  0.00     0.278 C 
ENDBRANCH   5  10
BRANCH   6  12
ATOM     12  O   UNL     1      25.654   6.150  26.043  1.00  0.00    -0.504 OA
ATOM     13  H   UNL     1      25.420   7.019  25.578  1.00  0.00     0.293 HD
ENDBRANCH   6  12
TORSDOF 3
ENDMDL
