MODEL 1
REMARK VINA RESULT:    -5.119      0.000      0.000
REMARK INTER + INTRA:         -10.682
REMARK INTER:                  -9.309
REMARK INTRA:                  -1.373
REMARK UNBOUND:                -1.373
REMARK SMILES CCCCCC=CCC=CCCCCCCCC(=O)[O-]
REMARK SMILES IDX 11 1 12 2 13 3 14 4 15 5 16 6 17 7 18 8 19 9 20 10 10 11
REMARK SMILES IDX 9 12 8 13 7 14 6 15 5 16 4 17 3 18 2 19 1 20
REMARK H PARENT
REMARK Flexibility Score: inf
ROOT
ATOM      1  C   UNL     1      11.247  10.128  19.048  1.00  0.00     0.027 C 
ENDROOT
BRANCH   1   2
ATOM      2  C   UNL     1      11.350   8.801  19.810  1.00  0.00     0.004 C 
BRANCH   2   3
ATOM      3  C   UNL     1      11.357   7.591  18.866  1.00  0.00     0.000 C 
BRANCH   3   4
ATOM      4  C   UNL     1      10.521   6.439  19.441  1.00  0.00     0.000 C 
BRANCH   4   5
ATOM      5  C   UNL     1       9.028   6.792  19.574  1.00  0.00     0.000 C 
BRANCH   5   6
ATOM      6  C   UNL     1       8.197   6.607  18.287  1.00  0.00     0.006 C 
BRANCH   6   7
ATOM      7  C   UNL     1       8.528   5.334  17.491  1.00  0.00     0.053 C 
BRANCH   7   8
ATOM      8  C   UNL     1       7.398   4.919  16.601  1.00  0.00     0.041 C 
ATOM      9  O   UNL     1       7.505   3.897  15.874  1.00  0.00    -0.550 OA
ATOM     10  O   UNL     1       6.212   5.643  16.599  1.00  0.00    -0.550 OA
ENDBRANCH   7   8
ENDBRANCH   6   7
ENDBRANCH   5   6
ENDBRANCH   4   5
ENDBRANCH   3   4
ENDBRANCH   2   3
ENDBRANCH   1   2
BRANCH   1  11
ATOM     11  C   UNL     1       9.988  10.878  19.414  1.00  0.00    -0.031 C 
ATOM     12  C   UNL     1       9.939  11.939  20.238  1.00  0.00    -0.027 C 
BRANCH  12  13
ATOM     13  C   UNL     1      11.144  12.496  20.956  1.00  0.00     0.054 C 
BRANCH  13  14
ATOM     14  C   UNL     1      11.387  11.766  22.251  1.00  0.00    -0.027 C 
ATOM     15  C   UNL     1      12.587  11.306  22.651  1.00  0.00    -0.031 C 
BRANCH  15  16
ATOM     16  C   UNL     1      13.879  11.517  21.900  1.00  0.00     0.027 C 
BRANCH  16  17
ATOM     17  C   UNL     1      14.945  12.218  22.759  1.00  0.00     0.004 C 
BRANCH  17  18
ATOM     18  C   UNL     1      15.080  13.730  22.493  1.00  0.00     0.000 C 
BRANCH  18  19
ATOM     19  C   UNL     1      16.399  14.312  23.022  1.00  0.00    -0.003 C 
ATOM     20  C   UNL     1      17.131  13.302  23.901  1.00  0.00     0.004 C 
ENDBRANCH  18  19
ENDBRANCH  17  18
ENDBRANCH  16  17
ENDBRANCH  15  16
ENDBRANCH  13  14
ENDBRANCH  12  13
ENDBRANCH   1  11
TORSDOF 14
ENDMDL
MODEL 2
REMARK VINA RESULT:    -5.056      3.018      5.606
REMARK INTER + INTRA:         -10.566
REMARK INTER:                  -7.536
REMARK INTRA:                  -3.031
REMARK UNBOUND:                -1.373
REMARK SMILES CCCCCC=CCC=CCCCCCCCC(=O)[O-]
REMARK SMILES IDX 11 1 12 2 13 3 14 4 15 5 16 6 17 7 18 8 19 9 20 10 10 11
REMARK SMILES IDX 9 12 8 13 7 14 6 15 5 16 4 17 3 18 2 19 1 20
REMARK H PARENT
REMARK Flexibility Score: inf
ROOT
ATOM      1  C   UNL     1      13.184  13.704  23.750  1.00  0.00     0.027 C 
ENDROOT
BRANCH   1   2
ATOM      2  C   UNL     1      11.719  13.489  23.347  1.00  0.00     0.004 C 
BRANCH   2   3
ATOM      3  C   UNL     1      11.225  12.078  23.697  1.00  0.00     0.000 C 
BRANCH   3   4
ATOM      4  C   UNL     1      10.819  11.309  22.432  1.00  0.00     0.000 C 
BRANCH   4   5
ATOM      5  C   UNL     1      11.034  12.123  21.142  1.00  0.00     0.000 C 
BRANCH   5   6
ATOM      6  C   UNL     1      10.290  11.587  19.901  1.00  0.00     0.006 C 
BRANCH   6   7
ATOM      7  C   UNL     1      11.132  10.671  18.999  1.00  0.00     0.053 C 
BRANCH   7   8
ATOM      8  C   UNL     1      10.928   9.223  19.323  1.00  0.00     0.041 C 
ATOM      9  O   UNL     1      11.919   8.462  19.478  1.00  0.00    -0.550 OA
ATOM     10  O   UNL     1       9.643   8.722  19.488  1.00  0.00    -0.550 OA
ENDBRANCH   7   8
ENDBRANCH   6   7
ENDBRANCH   5   6
ENDBRANCH   4   5
ENDBRANCH   3   4
ENDBRANCH   2   3
ENDBRANCH   1   2
BRANCH   1  11
ATOM     11  C   UNL     1      14.070  13.872  22.538  1.00  0.00    -0.031 C 
ATOM     12  C   UNL     1      15.412  13.938  22.572  1.00  0.00    -0.027 C 
BRANCH  12  13
ATOM     13  C   UNL     1      16.218  13.905  23.847  1.00  0.00     0.054 C 
BRANCH  13  14
ATOM     14  C   UNL     1      17.105  12.688  23.894  1.00  0.00    -0.027 C 
ATOM     15  C   UNL     1      16.800  11.549  24.545  1.00  0.00    -0.031 C 
BRANCH  15  16
ATOM     16  C   UNL     1      15.494  11.294  25.258  1.00  0.00     0.027 C 
BRANCH  16  17
ATOM     17  C   UNL     1      14.536  10.424  24.428  1.00  0.00     0.004 C 
BRANCH  17  18
ATOM     18  C   UNL     1      15.121   9.939  23.087  1.00  0.00     0.000 C 
BRANCH  18  19
ATOM     19  C   UNL     1      14.067   9.860  21.972  1.00  0.00    -0.003 C 
ATOM     20  C   UNL     1      14.498  10.670  20.752  1.00  0.00     0.004 C 
ENDBRANCH  18  19
ENDBRANCH  17  18
ENDBRANCH  16  17
ENDBRANCH  15  16
ENDBRANCH  13  14
ENDBRANCH  12  13
ENDBRANCH   1  11
TORSDOF 14
ENDMDL
MODEL 3
REMARK VINA RESULT:    -5.036      3.655      6.764
REMARK INTER + INTRA:         -10.530
REMARK INTER:                  -8.126
REMARK INTRA:                  -2.404
REMARK UNBOUND:                -1.373
REMARK SMILES CCCCCC=CCC=CCCCCCCCC(=O)[O-]
REMARK SMILES IDX 11 1 12 2 13 3 14 4 15 5 16 6 17 7 18 8 19 9 20 10 10 11
REMARK SMILES IDX 9 12 8 13 7 14 6 15 5 16 4 17 3 18 2 19 1 20
REMARK H PARENT
REMARK Flexibility Score: inf
ROOT
ATOM      1  C   UNL     1      16.002  14.088  23.478  1.00  0.00     0.027 C 
ENDROOT
BRANCH   1   2
ATOM      2  C   UNL     1      14.887  13.890  22.442  1.00  0.00     0.004 C 
BRANCH   2   3
ATOM      3  C   UNL     1      13.506  13.750  23.099  1.00  0.00     0.000 C 
BRANCH   3   4
ATOM      4  C   UNL     1      12.685  12.644  22.421  1.00  0.00     0.000 C 
BRANCH   4   5
ATOM      5  C   UNL     1      11.243  13.079  22.104  1.00  0.00     0.000 C 
BRANCH   5   6
ATOM      6  C   UNL     1      10.594  12.363  20.901  1.00  0.00     0.006 C 
BRANCH   6   7
ATOM      7  C   UNL     1      11.420  11.198  20.331  1.00  0.00     0.053 C 
BRANCH   7   8
ATOM      8  C   UNL     1      10.770  10.585  19.130  1.00  0.00     0.041 C 
ATOM      9  O   UNL     1      11.158   9.468  18.699  1.00  0.00    -0.550 OA
ATOM     10  O   UNL     1       9.712  11.232  18.504  1.00  0.00    -0.550 OA
ENDBRANCH   7   8
ENDBRANCH   6   7
ENDBRANCH   5   6
ENDBRANCH   4   5
ENDBRANCH   3   4
ENDBRANCH   2   3
ENDBRANCH   1   2
BRANCH   1  11
ATOM     11  C   UNL     1      15.594  13.562  24.834  1.00  0.00    -0.031 C 
ATOM     12  C   UNL     1      16.450  13.169  25.793  1.00  0.00    -0.027 C 
BRANCH  12  13
ATOM     13  C   UNL     1      17.949  13.155  25.621  1.00  0.00     0.054 C 
BRANCH  13  14
ATOM     14  C   UNL     1      18.514  11.790  25.919  1.00  0.00    -0.027 C 
ATOM     15  C   UNL     1      18.556  10.774  25.036  1.00  0.00    -0.031 C 
BRANCH  15  16
ATOM     16  C   UNL     1      18.113  10.873  23.596  1.00  0.00     0.027 C 
BRANCH  16  17
ATOM     17  C   UNL     1      17.068   9.805  23.233  1.00  0.00     0.004 C 
BRANCH  17  18
ATOM     18  C   UNL     1      15.699  10.375  22.814  1.00  0.00     0.000 C 
BRANCH  18  19
ATOM     19  C   UNL     1      14.548   9.868  23.696  1.00  0.00    -0.003 C 
ATOM     20  C   UNL     1      14.949   9.855  25.168  1.00  0.00     0.004 C 
ENDBRANCH  18  19
ENDBRANCH  17  18
ENDBRANCH  16  17
ENDBRANCH  15  16
ENDBRANCH  13  14
ENDBRANCH  12  13
ENDBRANCH   1  11
TORSDOF 14
ENDMDL
MODEL 4
REMARK VINA RESULT:    -5.019      5.645      8.544
REMARK INTER + INTRA:         -10.500
REMARK INTER:                  -7.679
REMARK INTRA:                  -2.821
REMARK UNBOUND:                -1.373
REMARK SMILES CCCCCC=CCC=CCCCCCCCC(=O)[O-]
REMARK SMILES IDX 11 1 12 2 13 3 14 4 15 5 16 6 17 7 18 8 19 9 20 10 10 11
REMARK SMILES IDX 9 12 8 13 7 14 6 15 5 16 4 17 3 18 2 19 1 20
REMARK H PARENT
REMARK Flexibility Score: inf
ROOT
ATOM      1  C   UNL     1      10.626  11.898  21.507  1.00  0.00     0.027 C 
ENDROOT
BRANCH   1   2
ATOM      2  C   UNL     1      11.490  13.128  21.817  1.00  0.00     0.004 C 
BRANCH   2   3
ATOM      3  C   UNL     1      11.511  13.456  23.317  1.00  0.00     0.000 C 
BRANCH   3   4
ATOM      4  C   UNL     1      12.932  13.798  23.785  1.00  0.00     0.000 C 
BRANCH   4   5
ATOM      5  C   UNL     1      13.946  13.851  22.627  1.00  0.00     0.000 C 
BRANCH   5   6
ATOM      6  C   UNL     1      15.427  13.892  23.059  1.00  0.00     0.006 C 
BRANCH   6   7
ATOM      7  C   UNL     1      15.659  13.698  24.566  1.00  0.00     0.053 C 
BRANCH   7   8
ATOM      8  C   UNL     1      16.889  12.892  24.845  1.00  0.00     0.041 C 
ATOM      9  O   UNL     1      17.550  13.088  25.899  1.00  0.00    -0.550 OA
ATOM     10  O   UNL     1      17.289  11.902  23.957  1.00  0.00    -0.550 OA
ENDBRANCH   7   8
ENDBRANCH   6   7
ENDBRANCH   5   6
ENDBRANCH   4   5
ENDBRANCH   3   4
ENDBRANCH   2   3
ENDBRANCH   1   2
BRANCH   1  11
ATOM     11  C   UNL     1      10.784  11.462  20.069  1.00  0.00    -0.031 C 
ATOM     12  C   UNL     1      11.651  10.527  19.643  1.00  0.00    -0.027 C 
BRANCH  12  13
ATOM     13  C   UNL     1      12.627   9.818  20.548  1.00  0.00     0.054 C 
BRANCH  13  14
ATOM     14  C   UNL     1      13.944  10.550  20.602  1.00  0.00    -0.027 C 
ATOM     15  C   UNL     1      14.800  10.499  21.640  1.00  0.00    -0.031 C 
BRANCH  15  16
ATOM     16  C   UNL     1      14.606   9.644  22.869  1.00  0.00     0.027 C 
BRANCH  16  17
ATOM     17  C   UNL     1      13.648  10.290  23.884  1.00  0.00     0.004 C 
BRANCH  17  18
ATOM     18  C   UNL     1      12.469   9.391  24.304  1.00  0.00     0.000 C 
BRANCH  18  19
ATOM     19  C   UNL     1      11.185  10.185  24.585  1.00  0.00    -0.003 C 
ATOM     20  C   UNL     1      10.019   9.251  24.894  1.00  0.00     0.004 C 
ENDBRANCH  18  19
ENDBRANCH  17  18
ENDBRANCH  16  17
ENDBRANCH  15  16
ENDBRANCH  13  14
ENDBRANCH  12  13
ENDBRANCH   1  11
TORSDOF 14
ENDMDL
MODEL 5
REMARK VINA RESULT:    -5.006      3.796      6.692
REMARK INTER + INTRA:         -10.477
REMARK INTER:                  -7.350
REMARK INTRA:                  -3.127
REMARK UNBOUND:                -1.373
REMARK SMILES CCCCCC=CCC=CCCCCCCCC(=O)[O-]
REMARK SMILES IDX 11 1 12 2 13 3 14 4 15 5 16 6 17 7 18 8 19 9 20 10 10 11
REMARK SMILES IDX 9 12 8 13 7 14 6 15 5 16 4 17 3 18 2 19 1 20
REMARK H PARENT
REMARK Flexibility Score: inf
ROOT
ATOM      1  C   UNL     1      11.170   9.165  22.430  1.00  0.00     0.027 C 
ENDROOT
BRANCH   1   2
ATOM      2  C   UNL     1      11.894  10.125  21.477  1.00  0.00     0.004 C 
BRANCH   2   3
ATOM      3  C   UNL     1      12.267   9.451  20.150  1.00  0.00     0.000 C 
BRANCH   3   4
ATOM      4  C   UNL     1      11.412   9.996  18.997  1.00  0.00     0.000 C 
BRANCH   4   5
ATOM      5  C   UNL     1      10.574  11.223  19.402  1.00  0.00     0.000 C 
BRANCH   5   6
ATOM      6  C   UNL     1       9.261  11.405  18.613  1.00  0.00     0.006 C 
BRANCH   6   7
ATOM      7  C   UNL     1       8.212  12.285  19.314  1.00  0.00     0.053 C 
BRANCH   7   8
ATOM      8  C   UNL     1       7.275  12.925  18.338  1.00  0.00     0.041 C 
ATOM      9  O   UNL     1       7.253  12.545  17.137  1.00  0.00    -0.550 OA
ATOM     10  O   UNL     1       6.402  13.919  18.760  1.00  0.00    -0.550 OA
ENDBRANCH   7   8
ENDBRANCH   6   7
ENDBRANCH   5   6
ENDBRANCH   4   5
ENDBRANCH   3   4
ENDBRANCH   2   3
ENDBRANCH   1   2
BRANCH   1  11
ATOM     11  C   UNL     1       9.688   9.449  22.479  1.00  0.00    -0.031 C 
ATOM     12  C   UNL     1       8.753   8.765  21.798  1.00  0.00    -0.027 C 
BRANCH  12  13
ATOM     13  C   UNL     1       9.069   7.642  20.842  1.00  0.00     0.054 C 
BRANCH  13  14
ATOM     14  C   UNL     1       8.480   7.907  19.481  1.00  0.00    -0.027 C 
ATOM     15  C   UNL     1       8.797   7.219  18.368  1.00  0.00    -0.031 C 
BRANCH  15  16
ATOM     16  C   UNL     1       9.729   6.033  18.330  1.00  0.00     0.027 C 
BRANCH  16  17
ATOM     17  C   UNL     1      11.163   6.430  17.940  1.00  0.00     0.004 C 
BRANCH  17  18
ATOM     18  C   UNL     1      12.259   5.790  18.814  1.00  0.00     0.000 C 
BRANCH  18  19
ATOM     19  C   UNL     1      11.722   5.273  20.157  1.00  0.00    -0.003 C 
ATOM     20  C   UNL     1      12.449   5.931  21.327  1.00  0.00     0.004 C 
ENDBRANCH  18  19
ENDBRANCH  17  18
ENDBRANCH  16  17
ENDBRANCH  15  16
ENDBRANCH  13  14
ENDBRANCH  12  13
ENDBRANCH   1  11
TORSDOF 14
ENDMDL
MODEL 6
REMARK VINA RESULT:    -4.981      3.844      6.002
REMARK INTER + INTRA:         -10.431
REMARK INTER:                  -7.796
REMARK INTRA:                  -2.635
REMARK UNBOUND:                -1.373
REMARK SMILES CCCCCC=CCC=CCCCCCCCC(=O)[O-]
REMARK SMILES IDX 11 1 12 2 13 3 14 4 15 5 16 6 17 7 18 8 19 9 20 10 10 11
REMARK SMILES IDX 9 12 8 13 7 14 6 15 5 16 4 17 3 18 2 19 1 20
REMARK H PARENT
REMARK Flexibility Score: inf
ROOT
ATOM      1  C   UNL     1      13.331  11.607  24.179  1.00  0.00     0.027 C 
ENDROOT
BRANCH   1   2
ATOM      2  C   UNL     1      11.811  11.677  23.986  1.00  0.00     0.004 C 
BRANCH   2   3
ATOM      3  C   UNL     1      11.327  13.108  23.713  1.00  0.00     0.000 C 
BRANCH   3   4
ATOM      4  C   UNL     1      10.430  13.156  22.468  1.00  0.00     0.000 C 
BRANCH   4   5
ATOM      5  C   UNL     1      11.136  12.635  21.202  1.00  0.00     0.000 C 
BRANCH   5   6
ATOM      6  C   UNL     1      10.308  11.645  20.355  1.00  0.00     0.006 C 
BRANCH   6   7
ATOM      7  C   UNL     1      11.145  10.713  19.464  1.00  0.00     0.053 C 
BRANCH   7   8
ATOM      8  C   UNL     1      11.954   9.744  20.270  1.00  0.00     0.041 C 
ATOM      9  O   UNL     1      13.208   9.721  20.161  1.00  0.00    -0.550 OA
ATOM     10  O   UNL     1      11.326   8.890  21.166  1.00  0.00    -0.550 OA
ENDBRANCH   7   8
ENDBRANCH   6   7
ENDBRANCH   5   6
ENDBRANCH   4   5
ENDBRANCH   3   4
ENDBRANCH   2   3
ENDBRANCH   1   2
BRANCH   1  11
ATOM     11  C   UNL     1      14.055  11.591  22.853  1.00  0.00    -0.031 C 
ATOM     12  C   UNL     1      14.851  12.575  22.402  1.00  0.00    -0.027 C 
BRANCH  12  13
ATOM     13  C   UNL     1      15.090  13.865  23.147  1.00  0.00     0.054 C 
BRANCH  13  14
ATOM     14  C   UNL     1      16.533  14.286  23.051  1.00  0.00    -0.027 C 
ATOM     15  C   UNL     1      17.436  14.138  24.039  1.00  0.00    -0.031 C 
BRANCH  15  16
ATOM     16  C   UNL     1      17.157  13.463  25.360  1.00  0.00     0.027 C 
BRANCH  16  17
ATOM     17  C   UNL     1      17.772  12.055  25.436  1.00  0.00     0.004 C 
BRANCH  17  18
ATOM     18  C   UNL     1      16.742  10.910  25.389  1.00  0.00     0.000 C 
BRANCH  18  19
ATOM     19  C   UNL     1      17.041   9.885  24.284  1.00  0.00    -0.003 C 
ATOM     20  C   UNL     1      17.919  10.494  23.194  1.00  0.00     0.004 C 
ENDBRANCH  18  19
ENDBRANCH  17  18
ENDBRANCH  16  17
ENDBRANCH  15  16
ENDBRANCH  13  14
ENDBRANCH  12  13
ENDBRANCH   1  11
TORSDOF 14
ENDMDL
MODEL 7
REMARK VINA RESULT:    -4.971      3.822      5.706
REMARK INTER + INTRA:         -10.412
REMARK INTER:                  -7.585
REMARK INTRA:                  -2.827
REMARK UNBOUND:                -1.373
REMARK SMILES CCCCCC=CCC=CCCCCCCCC(=O)[O-]
REMARK SMILES IDX 11 1 12 2 13 3 14 4 15 5 16 6 17 7 18 8 19 9 20 10 10 11
REMARK SMILES IDX 9 12 8 13 7 14 6 15 5 16 4 17 3 18 2 19 1 20
REMARK H PARENT
REMARK Flexibility Score: inf
ROOT
ATOM      1  C   UNL     1       9.638   6.086  18.587  1.00  0.00     0.027 C 
ENDROOT
BRANCH   1   2
ATOM      2  C   UNL     1      10.940   6.387  17.834  1.00  0.00     0.004 C 
BRANCH   2   3
ATOM      3  C   UNL     1      12.182   6.012  18.654  1.00  0.00     0.000 C 
BRANCH   3   4
ATOM      4  C   UNL     1      11.787   5.473  20.036  1.00  0.00     0.000 C 
BRANCH   4   5
ATOM      5  C   UNL     1      12.485   6.217  21.189  1.00  0.00     0.000 C 
BRANCH   5   6
ATOM      6  C   UNL     1      12.890   5.332  22.386  1.00  0.00     0.006 C 
BRANCH   6   7
ATOM      7  C   UNL     1      13.544   3.996  21.999  1.00  0.00     0.053 C 
BRANCH   7   8
ATOM      8  C   UNL     1      12.784   2.823  22.537  1.00  0.00     0.041 C 
ATOM      9  O   UNL     1      13.373   1.947  23.223  1.00  0.00    -0.550 OA
ATOM     10  O   UNL     1      11.419   2.715  22.308  1.00  0.00    -0.550 OA
ENDBRANCH   7   8
ENDBRANCH   6   7
ENDBRANCH   5   6
ENDBRANCH   4   5
ENDBRANCH   3   4
ENDBRANCH   2   3
ENDBRANCH   1   2
BRANCH   1  11
ATOM     11  C   UNL     1       8.742   7.301  18.647  1.00  0.00    -0.031 C 
ATOM     12  C   UNL     1       8.501   8.021  19.756  1.00  0.00    -0.027 C 
BRANCH  12  13
ATOM     13  C   UNL     1       9.058   7.677  21.115  1.00  0.00     0.054 C 
BRANCH  13  14
ATOM     14  C   UNL     1       8.828   8.799  22.094  1.00  0.00    -0.027 C 
ATOM     15  C   UNL     1       9.806   9.551  22.632  1.00  0.00    -0.031 C 
BRANCH  15  16
ATOM     16  C   UNL     1      11.269   9.435  22.279  1.00  0.00     0.027 C 
BRANCH  16  17
ATOM     17  C   UNL     1      11.690  10.446  21.199  1.00  0.00     0.004 C 
BRANCH  17  18
ATOM     18  C   UNL     1      11.804   9.850  19.783  1.00  0.00     0.000 C 
BRANCH  18  19
ATOM     19  C   UNL     1      10.877  10.540  18.770  1.00  0.00    -0.003 C 
ATOM     20  C   UNL     1       9.944  11.527  19.465  1.00  0.00     0.004 C 
ENDBRANCH  18  19
ENDBRANCH  17  18
ENDBRANCH  16  17
ENDBRANCH  15  16
ENDBRANCH  13  14
ENDBRANCH  12  13
ENDBRANCH   1  11
TORSDOF 14
ENDMDL
MODEL 8
REMARK VINA RESULT:    -4.950      4.559      6.624
REMARK INTER + INTRA:         -10.375
REMARK INTER:                  -8.283
REMARK INTRA:                  -2.091
REMARK UNBOUND:                -1.373
REMARK SMILES CCCCCC=CCC=CCCCCCCCC(=O)[O-]
REMARK SMILES IDX 11 1 12 2 13 3 14 4 15 5 16 6 17 7 18 8 19 9 20 10 10 11
REMARK SMILES IDX 9 12 8 13 7 14 6 15 5 16 4 17 3 18 2 19 1 20
REMARK H PARENT
REMARK Flexibility Score: inf
ROOT
ATOM      1  C   UNL     1      10.851   6.368  17.853  1.00  0.00     0.027 C 
ENDROOT
BRANCH   1   2
ATOM      2  C   UNL     1      11.874   5.894  18.894  1.00  0.00     0.004 C 
BRANCH   2   3
ATOM      3  C   UNL     1      11.200   5.314  20.145  1.00  0.00     0.000 C 
BRANCH   3   4
ATOM      4  C   UNL     1      12.225   4.611  21.046  1.00  0.00     0.000 C 
BRANCH   4   5
ATOM      5  C   UNL     1      13.069   5.597  21.875  1.00  0.00     0.000 C 
BRANCH   5   6
ATOM      6  C   UNL     1      14.543   5.189  22.072  1.00  0.00     0.006 C 
BRANCH   6   7
ATOM      7  C   UNL     1      14.932   3.859  21.405  1.00  0.00     0.053 C 
BRANCH   7   8
ATOM      8  C   UNL     1      15.076   2.753  22.404  1.00  0.00     0.041 C 
ATOM      9  O   UNL     1      14.057   2.255  22.950  1.00  0.00    -0.550 OA
ATOM     10  O   UNL     1      16.334   2.249  22.708  1.00  0.00    -0.550 OA
ENDBRANCH   7   8
ENDBRANCH   6   7
ENDBRANCH   5   6
ENDBRANCH   4   5
ENDBRANCH   3   4
ENDBRANCH   2   3
ENDBRANCH   1   2
BRANCH   1  11
ATOM     11  C   UNL     1       9.450   5.942  18.224  1.00  0.00    -0.031 C 
ATOM     12  C   UNL     1       8.495   6.768  18.684  1.00  0.00    -0.027 C 
BRANCH  12  13
ATOM     13  C   UNL     1       8.713   8.238  18.943  1.00  0.00     0.054 C 
BRANCH  13  14
ATOM     14  C   UNL     1       9.117   8.481  20.374  1.00  0.00    -0.027 C 
ATOM     15  C   UNL     1      10.316   8.960  20.755  1.00  0.00    -0.031 C 
BRANCH  15  16
ATOM     16  C   UNL     1      11.405   9.396  19.805  1.00  0.00     0.027 C 
BRANCH  16  17
ATOM     17  C   UNL     1      11.261  10.870  19.388  1.00  0.00     0.004 C 
BRANCH  17  18
ATOM     18  C   UNL     1      10.538  11.753  20.424  1.00  0.00     0.000 C 
BRANCH  18  19
ATOM     19  C   UNL     1       9.190  12.285  19.916  1.00  0.00    -0.003 C 
ATOM     20  C   UNL     1       8.935  11.847  18.477  1.00  0.00     0.004 C 
ENDBRANCH  18  19
ENDBRANCH  17  18
ENDBRANCH  16  17
ENDBRANCH  15  16
ENDBRANCH  13  14
ENDBRANCH  12  13
ENDBRANCH   1  11
TORSDOF 14
ENDMDL
MODEL 9
REMARK VINA RESULT:    -4.932      5.514      8.723
REMARK INTER + INTRA:         -10.342
REMARK INTER:                  -7.684
REMARK INTRA:                  -2.658
REMARK UNBOUND:                -1.373
REMARK SMILES CCCCCC=CCC=CCCCCCCCC(=O)[O-]
REMARK SMILES IDX 11 1 12 2 13 3 14 4 15 5 16 6 17 7 18 8 19 9 20 10 10 11
REMARK SMILES IDX 9 12 8 13 7 14 6 15 5 16 4 17 3 18 2 19 1 20
REMARK H PARENT
REMARK Flexibility Score: inf
ROOT
ATOM      1  C   UNL     1      12.101  13.856  23.507  1.00  0.00     0.027 C 
ENDROOT
BRANCH   1   2
ATOM      2  C   UNL     1      13.354  13.035  23.840  1.00  0.00     0.004 C 
BRANCH   2   3
ATOM      3  C   UNL     1      14.190  12.724  22.592  1.00  0.00     0.000 C 
BRANCH   3   4
ATOM      4  C   UNL     1      15.122  13.895  22.248  1.00  0.00     0.000 C 
BRANCH   4   5
ATOM      5  C   UNL     1      15.825  14.482  23.486  1.00  0.00     0.000 C 
BRANCH   5   6
ATOM      6  C   UNL     1      17.278  14.008  23.697  1.00  0.00     0.006 C 
BRANCH   6   7
ATOM      7  C   UNL     1      17.489  13.132  24.943  1.00  0.00     0.053 C 
BRANCH   7   8
ATOM      8  C   UNL     1      17.223  11.686  24.662  1.00  0.00     0.041 C 
ATOM      9  O   UNL     1      16.342  11.065  25.314  1.00  0.00    -0.550 OA
ATOM     10  O   UNL     1      17.924  11.031  23.658  1.00  0.00    -0.550 OA
ENDBRANCH   7   8
ENDBRANCH   6   7
ENDBRANCH   5   6
ENDBRANCH   4   5
ENDBRANCH   3   4
ENDBRANCH   2   3
ENDBRANCH   1   2
BRANCH   1  11
ATOM     11  C   UNL     1      10.862  12.992  23.500  1.00  0.00    -0.031 C 
ATOM     12  C   UNL     1      10.289  12.483  22.396  1.00  0.00    -0.027 C 
BRANCH  12  13
ATOM     13  C   UNL     1      10.785  12.751  20.997  1.00  0.00     0.054 C 
BRANCH  13  14
ATOM     14  C   UNL     1      10.394  11.637  20.061  1.00  0.00    -0.027 C 
ATOM     15  C   UNL     1      11.232  10.674  19.632  1.00  0.00    -0.031 C 
BRANCH  15  16
ATOM     16  C   UNL     1      12.665  10.523  20.082  1.00  0.00     0.027 C 
BRANCH  16  17
ATOM     17  C   UNL     1      12.935   9.149  20.717  1.00  0.00     0.004 C 
BRANCH  17  18
ATOM     18  C   UNL     1      13.420   9.211  22.179  1.00  0.00     0.000 C 
BRANCH  18  19
ATOM     19  C   UNL     1      12.285   9.506  23.171  1.00  0.00    -0.003 C 
ATOM     20  C   UNL     1      11.035   8.700  22.829  1.00  0.00     0.004 C 
ENDBRANCH  18  19
ENDBRANCH  17  18
ENDBRANCH  16  17
ENDBRANCH  15  16
ENDBRANCH  13  14
ENDBRANCH  12  13
ENDBRANCH   1  11
TORSDOF 14
ENDMDL
