MODEL 1
REMARK VINA RESULT:    -7.077      0.000      0.000
REMARK INTER + INTRA:          -8.336
REMARK INTER:                  -8.525
REMARK INTRA:                   0.188
REMARK UNBOUND:                 0.188
REMARK SMILES O=c1c(O)c(-c2ccc(O)c(O)c2)oc2cc(O)cc(O)c12
REMARK SMILES IDX 5 1 3 2 2 3 1 4 22 5 20 6 19 7 17 8 16 9 15 10 14 11 6 12
REMARK SMILES IDX 7 13 8 14 9 15 13 16 11 17 10 18 12 20 4 22 21 24 18 26
REMARK H PARENT 10 19 12 21 4 23 21 25 18 27
REMARK Flexibility Score: inf
ROOT
ATOM      1  C   UNL     1       1.378  17.417  47.130  1.00  0.00     0.180 A 
ATOM      2  C   UNL     1       0.390  16.788  46.352  1.00  0.00     0.208 A 
ATOM      3  C   UNL     1      -0.957  17.120  46.564  1.00  0.00     0.238 A 
ATOM      4  O   UNL     1      -1.833  16.594  45.829  1.00  0.00    -0.285 OA
ATOM      5  C   UNL     1      -1.302  18.063  47.561  1.00  0.00     0.111 A 
ATOM      6  C   UNL     1      -2.637  18.446  47.890  1.00  0.00     0.134 A 
ATOM      7  C   UNL     1      -2.855  19.484  48.803  1.00  0.00     0.093 A 
ATOM      8  C   UNL     1      -1.785  20.110  49.449  1.00  0.00     0.123 A 
ATOM      9  C   UNL     1      -0.481  19.704  49.179  1.00  0.00     0.094 A 
ATOM     10  C   UNL     1      -0.231  18.695  48.246  1.00  0.00     0.146 A 
ATOM     11  O   UNL     1       1.028  18.346  48.012  1.00  0.00    -0.452 OA
ENDROOT
BRANCH   1  12
ATOM     12  C   UNL     1       2.817  17.101  46.982  1.00  0.00     0.025 A 
ATOM     13  C   UNL     1       3.625  17.003  48.126  1.00  0.00     0.016 A 
ATOM     14  C   UNL     1       4.980  16.685  48.011  1.00  0.00     0.051 A 
ATOM     15  C   UNL     1       5.545  16.446  46.751  1.00  0.00     0.157 A 
ATOM     16  C   UNL     1       3.383  16.841  45.720  1.00  0.00     0.062 A 
ATOM     17  C   UNL     1       4.744  16.519  45.605  1.00  0.00     0.158 A 
BRANCH  15  18
ATOM     18  O   UNL     1       6.897  16.130  46.631  1.00  0.00    -0.504 OA
ATOM     19  H   UNL     1       7.401  15.666  47.377  1.00  0.00     0.293 HD
ENDBRANCH  15  18
BRANCH  17  20
ATOM     20  O   UNL     1       5.304  16.268  44.353  1.00  0.00    -0.504 OA
ATOM     21  H   UNL     1       6.115  16.777  44.022  1.00  0.00     0.293 HD
ENDBRANCH  17  20
ENDBRANCH   1  12
BRANCH   2  22
ATOM     22  O   UNL     1       0.754  15.875  45.358  1.00  0.00    -0.502 OA
ATOM     23  H   UNL     1       1.650  15.914  44.887  1.00  0.00     0.293 HD
ENDBRANCH   2  22
BRANCH   6  24
ATOM     24  O   UNL     1      -3.777  17.823  47.372  1.00  0.00    -0.507 OA
ATOM     25  H   UNL     1      -3.767  17.003  46.784  1.00  0.00     0.293 HD
ENDBRANCH   6  24
BRANCH   8  26
ATOM     26  O   UNL     1      -2.011  21.133  50.368  1.00  0.00    -0.508 OA
ATOM     27  H   UNL     1      -2.118  20.941  51.358  1.00  0.00     0.293 HD
ENDBRANCH   8  26
TORSDOF 6
ENDMDL
MODEL 2
REMARK VINA RESULT:    -6.870      1.766      2.836
REMARK INTER + INTRA:          -8.087
REMARK INTER:                  -7.768
REMARK INTRA:                  -0.319
REMARK UNBOUND:                 0.188
REMARK SMILES O=c1c(O)c(-c2ccc(O)c(O)c2)oc2cc(O)cc(O)c12
REMARK SMILES IDX 5 1 3 2 2 3 1 4 22 5 20 6 19 7 17 8 16 9 15 10 14 11 6 12
REMARK SMILES IDX 7 13 8 14 9 15 13 16 11 17 10 18 12 20 4 22 21 24 18 26
REMARK H PARENT 10 19 12 21 4 23 21 25 18 27
REMARK Flexibility Score: inf
ROOT
ATOM      1  C   UNL     1       2.019  18.364  47.151  1.00  0.00     0.180 A 
ATOM      2  C   UNL     1       1.791  19.680  46.713  1.00  0.00     0.208 A 
ATOM      3  C   UNL     1       0.507  20.232  46.852  1.00  0.00     0.238 A 
ATOM      4  O   UNL     1       0.322  21.428  46.508  1.00  0.00    -0.285 OA
ATOM      5  C   UNL     1      -0.536  19.456  47.413  1.00  0.00     0.111 A 
ATOM      6  C   UNL     1      -1.884  19.899  47.565  1.00  0.00     0.134 A 
ATOM      7  C   UNL     1      -2.802  19.095  48.251  1.00  0.00     0.093 A 
ATOM      8  C   UNL     1      -2.437  17.836  48.734  1.00  0.00     0.123 A 
ATOM      9  C   UNL     1      -1.139  17.370  48.539  1.00  0.00     0.094 A 
ATOM     10  C   UNL     1      -0.192  18.164  47.889  1.00  0.00     0.146 A 
ATOM     11  O   UNL     1       1.037  17.685  47.732  1.00  0.00    -0.452 OA
ENDROOT
BRANCH   1  12
ATOM     12  C   UNL     1       3.338  17.706  47.015  1.00  0.00     0.025 A 
ATOM     13  C   UNL     1       3.621  16.956  45.862  1.00  0.00     0.016 A 
ATOM     14  C   UNL     1       4.867  16.345  45.703  1.00  0.00     0.051 A 
ATOM     15  C   UNL     1       5.853  16.486  46.688  1.00  0.00     0.157 A 
ATOM     16  C   UNL     1       4.338  17.862  47.992  1.00  0.00     0.062 A 
ATOM     17  C   UNL     1       5.590  17.249  47.832  1.00  0.00     0.158 A 
BRANCH  15  18
ATOM     18  O   UNL     1       7.097  15.875  46.534  1.00  0.00    -0.504 OA
ATOM     19  H   UNL     1       7.245  14.905  46.783  1.00  0.00     0.293 HD
ENDBRANCH  15  18
BRANCH  17  20
ATOM     20  O   UNL     1       6.578  17.400  48.804  1.00  0.00    -0.504 OA
ATOM     21  H   UNL     1       7.522  17.061  48.660  1.00  0.00     0.293 HD
ENDBRANCH  17  20
ENDBRANCH   1  12
BRANCH   2  22
ATOM     22  O   UNL     1       2.840  20.436  46.182  1.00  0.00    -0.502 OA
ATOM     23  H   UNL     1       3.764  20.451  46.599  1.00  0.00     0.293 HD
ENDBRANCH   2  22
BRANCH   6  24
ATOM     24  O   UNL     1      -2.375  21.098  47.040  1.00  0.00    -0.507 OA
ATOM     25  H   UNL     1      -1.831  21.939  46.921  1.00  0.00     0.293 HD
ENDBRANCH   6  24
BRANCH   8  26
ATOM     26  O   UNL     1      -3.361  17.036  49.402  1.00  0.00    -0.508 OA
ATOM     27  H   UNL     1      -3.141  16.600  50.291  1.00  0.00     0.293 HD
ENDBRANCH   8  26
TORSDOF 6
ENDMDL
MODEL 3
REMARK VINA RESULT:    -6.868      3.958      7.833
REMARK INTER + INTRA:          -8.085
REMARK INTER:                  -7.771
REMARK INTRA:                  -0.314
REMARK UNBOUND:                 0.188
REMARK SMILES O=c1c(O)c(-c2ccc(O)c(O)c2)oc2cc(O)cc(O)c12
REMARK SMILES IDX 5 1 3 2 2 3 1 4 22 5 20 6 19 7 17 8 16 9 15 10 14 11 6 12
REMARK SMILES IDX 7 13 8 14 9 15 13 16 11 17 10 18 12 20 4 22 21 24 18 26
REMARK H PARENT 10 19 12 21 4 23 21 25 18 27
REMARK Flexibility Score: inf
ROOT
ATOM      1  C   UNL     1      -1.611  21.832  49.540  1.00  0.00     0.180 A 
ATOM      2  C   UNL     1      -1.591  22.048  48.150  1.00  0.00     0.208 A 
ATOM      3  C   UNL     1      -1.418  20.949  47.293  1.00  0.00     0.238 A 
ATOM      4  O   UNL     1      -1.454  21.141  46.050  1.00  0.00    -0.285 OA
ATOM      5  C   UNL     1      -1.251  19.653  47.835  1.00  0.00     0.111 A 
ATOM      6  C   UNL     1      -1.028  18.473  47.062  1.00  0.00     0.134 A 
ATOM      7  C   UNL     1      -1.007  17.225  47.696  1.00  0.00     0.093 A 
ATOM      8  C   UNL     1      -1.136  17.120  49.083  1.00  0.00     0.123 A 
ATOM      9  C   UNL     1      -1.295  18.270  49.853  1.00  0.00     0.094 A 
ATOM     10  C   UNL     1      -1.355  19.526  49.245  1.00  0.00     0.146 A 
ATOM     11  O   UNL     1      -1.517  20.596  50.014  1.00  0.00    -0.452 OA
ENDROOT
BRANCH   1  12
ATOM     12  C   UNL     1      -1.764  22.942  50.507  1.00  0.00     0.025 A 
ATOM     13  C   UNL     1      -3.010  23.165  51.113  1.00  0.00     0.016 A 
ATOM     14  C   UNL     1      -3.172  24.193  52.044  1.00  0.00     0.051 A 
ATOM     15  C   UNL     1      -2.086  25.006  52.394  1.00  0.00     0.157 A 
ATOM     16  C   UNL     1      -0.670  23.748  50.876  1.00  0.00     0.062 A 
ATOM     17  C   UNL     1      -0.832  24.779  51.813  1.00  0.00     0.158 A 
BRANCH  15  18
ATOM     18  O   UNL     1      -2.243  26.034  53.322  1.00  0.00    -0.504 OA
ATOM     19  H   UNL     1      -1.466  26.621  53.600  1.00  0.00     0.293 HD
ENDBRANCH  15  18
BRANCH  17  20
ATOM     20  O   UNL     1       0.251  25.580  52.174  1.00  0.00    -0.504 OA
ATOM     21  H   UNL     1       1.177  25.192  52.305  1.00  0.00     0.293 HD
ENDBRANCH  17  20
ENDBRANCH   1  12
BRANCH   2  22
ATOM     22  O   UNL     1      -1.779  23.334  47.636  1.00  0.00    -0.502 OA
ATOM     23  H   UNL     1      -1.184  24.113  47.890  1.00  0.00     0.293 HD
ENDBRANCH   2  22
BRANCH   6  24
ATOM     24  O   UNL     1      -0.795  18.476  45.684  1.00  0.00    -0.507 OA
ATOM     25  H   UNL     1      -1.247  17.862  45.023  1.00  0.00     0.293 HD
ENDBRANCH   6  24
BRANCH   8  26
ATOM     26  O   UNL     1      -1.098  15.875  49.708  1.00  0.00    -0.508 OA
ATOM     27  H   UNL     1      -1.941  15.333  49.862  1.00  0.00     0.293 HD
ENDBRANCH   8  26
TORSDOF 6
ENDMDL
MODEL 4
REMARK VINA RESULT:    -6.843      4.021      8.330
REMARK INTER + INTRA:          -8.055
REMARK INTER:                  -7.867
REMARK INTRA:                  -0.188
REMARK UNBOUND:                 0.188
REMARK SMILES O=c1c(O)c(-c2ccc(O)c(O)c2)oc2cc(O)cc(O)c12
REMARK SMILES IDX 5 1 3 2 2 3 1 4 22 5 20 6 19 7 17 8 16 9 15 10 14 11 6 12
REMARK SMILES IDX 7 13 8 14 9 15 13 16 11 17 10 18 12 20 4 22 21 24 18 26
REMARK H PARENT 10 19 12 21 4 23 21 25 18 27
REMARK Flexibility Score: inf
ROOT
ATOM      1  C   UNL     1      -1.762  22.168  49.776  1.00  0.00     0.180 A 
ATOM      2  C   UNL     1      -1.310  22.505  48.488  1.00  0.00     0.208 A 
ATOM      3  C   UNL     1      -1.036  21.476  47.572  1.00  0.00     0.238 A 
ATOM      4  O   UNL     1      -0.684  21.785  46.404  1.00  0.00    -0.285 OA
ATOM      5  C   UNL     1      -1.199  20.125  47.960  1.00  0.00     0.111 A 
ATOM      6  C   UNL     1      -0.912  19.001  47.128  1.00  0.00     0.134 A 
ATOM      7  C   UNL     1      -1.235  17.713  47.570  1.00  0.00     0.093 A 
ATOM      8  C   UNL     1      -1.775  17.503  48.842  1.00  0.00     0.123 A 
ATOM      9  C   UNL     1      -2.004  18.587  49.684  1.00  0.00     0.094 A 
ATOM     10  C   UNL     1      -1.725  19.888  49.257  1.00  0.00     0.146 A 
ATOM     11  O   UNL     1      -1.968  20.894  50.088  1.00  0.00    -0.452 OA
ENDROOT
BRANCH   1  12
ATOM     12  C   UNL     1      -2.048  23.194  50.803  1.00  0.00     0.025 A 
ATOM     13  C   UNL     1      -1.202  23.313  51.917  1.00  0.00     0.016 A 
ATOM     14  C   UNL     1      -1.441  24.289  52.888  1.00  0.00     0.051 A 
ATOM     15  C   UNL     1      -2.522  25.170  52.752  1.00  0.00     0.157 A 
ATOM     16  C   UNL     1      -3.121  24.094  50.660  1.00  0.00     0.062 A 
ATOM     17  C   UNL     1      -3.360  25.076  51.634  1.00  0.00     0.158 A 
BRANCH  15  18
ATOM     18  O   UNL     1      -2.766  26.144  53.719  1.00  0.00    -0.504 OA
ATOM     19  H   UNL     1      -3.659  26.209  54.192  1.00  0.00     0.293 HD
ENDBRANCH  15  18
BRANCH  17  20
ATOM     20  O   UNL     1      -4.426  25.962  51.493  1.00  0.00    -0.504 OA
ATOM     21  H   UNL     1      -4.837  26.161  50.589  1.00  0.00     0.293 HD
ENDBRANCH  17  20
ENDBRANCH   1  12
BRANCH   2  22
ATOM     22  O   UNL     1      -1.176  23.846  48.118  1.00  0.00    -0.502 OA
ATOM     23  H   UNL     1      -1.017  24.582  48.795  1.00  0.00     0.293 HD
ENDBRANCH   2  22
BRANCH   6  24
ATOM     24  O   UNL     1      -0.289  19.094  45.880  1.00  0.00    -0.507 OA
ATOM     25  H   UNL     1       0.657  18.803  45.686  1.00  0.00     0.293 HD
ENDBRANCH   6  24
BRANCH   8  26
ATOM     26  O   UNL     1      -2.080  16.215  49.280  1.00  0.00    -0.508 OA
ATOM     27  H   UNL     1      -1.671  15.397  48.845  1.00  0.00     0.293 HD
ENDBRANCH   8  26
TORSDOF 6
ENDMDL
MODEL 5
REMARK VINA RESULT:    -6.818      3.640      6.659
REMARK INTER + INTRA:          -8.025
REMARK INTER:                  -7.753
REMARK INTRA:                  -0.272
REMARK UNBOUND:                 0.188
REMARK SMILES O=c1c(O)c(-c2ccc(O)c(O)c2)oc2cc(O)cc(O)c12
REMARK SMILES IDX 5 1 3 2 2 3 1 4 22 5 20 6 19 7 17 8 16 9 15 10 14 11 6 12
REMARK SMILES IDX 7 13 8 14 9 15 13 16 11 17 10 18 12 20 4 22 21 24 18 26
REMARK H PARENT 10 19 12 21 4 23 21 25 18 27
REMARK Flexibility Score: inf
ROOT
ATOM      1  C   UNL     1      -1.777  21.449  49.009  1.00  0.00     0.180 A 
ATOM      2  C   UNL     1      -1.452  22.404  48.028  1.00  0.00     0.208 A 
ATOM      3  C   UNL     1      -1.518  23.767  48.357  1.00  0.00     0.238 A 
ATOM      4  O   UNL     1      -1.175  24.615  47.492  1.00  0.00    -0.285 OA
ATOM      5  C   UNL     1      -1.922  24.160  49.655  1.00  0.00     0.111 A 
ATOM      6  C   UNL     1      -2.063  25.514  50.086  1.00  0.00     0.134 A 
ATOM      7  C   UNL     1      -2.343  25.786  51.431  1.00  0.00     0.093 A 
ATOM      8  C   UNL     1      -2.552  24.751  52.346  1.00  0.00     0.123 A 
ATOM      9  C   UNL     1      -2.475  23.427  51.923  1.00  0.00     0.094 A 
ATOM     10  C   UNL     1      -2.162  23.124  50.596  1.00  0.00     0.146 A 
ATOM     11  O   UNL     1      -2.089  21.848  50.237  1.00  0.00    -0.452 OA
ENDROOT
BRANCH   1  12
ATOM     12  C   UNL     1      -1.755  19.996  48.731  1.00  0.00     0.025 A 
ATOM     13  C   UNL     1      -2.961  19.321  48.482  1.00  0.00     0.016 A 
ATOM     14  C   UNL     1      -2.962  17.954  48.196  1.00  0.00     0.051 A 
ATOM     15  C   UNL     1      -1.756  17.243  48.140  1.00  0.00     0.157 A 
ATOM     16  C   UNL     1      -0.544  19.283  48.654  1.00  0.00     0.062 A 
ATOM     17  C   UNL     1      -0.545  17.910  48.365  1.00  0.00     0.158 A 
BRANCH  15  18
ATOM     18  O   UNL     1      -1.752  15.878  47.857  1.00  0.00    -0.504 OA
ATOM     19  H   UNL     1      -2.392  15.241  48.315  1.00  0.00     0.293 HD
ENDBRANCH  15  18
BRANCH  17  20
ATOM     20  O   UNL     1       0.656  17.204  48.296  1.00  0.00    -0.504 OA
ATOM     21  H   UNL     1       0.732  16.251  48.630  1.00  0.00     0.293 HD
ENDBRANCH  17  20
ENDBRANCH   1  12
BRANCH   2  22
ATOM     22  O   UNL     1      -1.034  21.993  46.759  1.00  0.00    -0.502 OA
ATOM     23  H   UNL     1      -1.145  22.574  45.937  1.00  0.00     0.293 HD
ENDBRANCH   2  22
BRANCH   6  24
ATOM     24  O   UNL     1      -1.966  26.617  49.234  1.00  0.00    -0.507 OA
ATOM     25  H   UNL     1      -1.488  27.477  49.458  1.00  0.00     0.293 HD
ENDBRANCH   6  24
BRANCH   8  26
ATOM     26  O   UNL     1      -2.845  25.030  53.680  1.00  0.00    -0.508 OA
ATOM     27  H   UNL     1      -2.837  25.979  54.037  1.00  0.00     0.293 HD
ENDBRANCH   8  26
TORSDOF 6
ENDMDL
MODEL 6
REMARK VINA RESULT:    -6.733      3.354      6.293
REMARK INTER + INTRA:          -7.922
REMARK INTER:                  -7.646
REMARK INTRA:                  -0.276
REMARK UNBOUND:                 0.188
REMARK SMILES O=c1c(O)c(-c2ccc(O)c(O)c2)oc2cc(O)cc(O)c12
REMARK SMILES IDX 5 1 3 2 2 3 1 4 22 5 20 6 19 7 17 8 16 9 15 10 14 11 6 12
REMARK SMILES IDX 7 13 8 14 9 15 13 16 11 17 10 18 12 20 4 22 21 24 18 26
REMARK H PARENT 10 19 12 21 4 23 21 25 18 27
REMARK Flexibility Score: inf
ROOT
ATOM      1  C   UNL     1      -0.887  20.710  50.044  1.00  0.00     0.180 A 
ATOM      2  C   UNL     1      -2.150  21.328  50.000  1.00  0.00     0.208 A 
ATOM      3  C   UNL     1      -2.395  22.434  50.829  1.00  0.00     0.238 A 
ATOM      4  O   UNL     1      -3.509  23.016  50.746  1.00  0.00    -0.285 OA
ATOM      5  C   UNL     1      -1.383  22.899  51.702  1.00  0.00     0.111 A 
ATOM      6  C   UNL     1      -1.535  23.987  52.614  1.00  0.00     0.134 A 
ATOM      7  C   UNL     1      -0.426  24.444  53.336  1.00  0.00     0.093 A 
ATOM      8  C   UNL     1       0.814  23.811  53.227  1.00  0.00     0.123 A 
ATOM      9  C   UNL     1       0.959  22.712  52.384  1.00  0.00     0.094 A 
ATOM     10  C   UNL     1      -0.121  22.255  51.624  1.00  0.00     0.146 A 
ATOM     11  O   UNL     1       0.063  21.211  50.826  1.00  0.00    -0.452 OA
ENDROOT
BRANCH   1  12
ATOM     12  C   UNL     1      -0.561  19.525  49.220  1.00  0.00     0.025 A 
ATOM     13  C   UNL     1       0.315  19.659  48.131  1.00  0.00     0.016 A 
ATOM     14  C   UNL     1       0.653  18.550  47.352  1.00  0.00     0.051 A 
ATOM     15  C   UNL     1       0.131  17.286  47.659  1.00  0.00     0.157 A 
ATOM     16  C   UNL     1      -1.067  18.250  49.537  1.00  0.00     0.062 A 
ATOM     17  C   UNL     1      -0.725  17.136  48.757  1.00  0.00     0.158 A 
BRANCH  15  18
ATOM     18  O   UNL     1       0.464  16.177  46.884  1.00  0.00    -0.504 OA
ATOM     19  H   UNL     1       1.040  15.428  47.250  1.00  0.00     0.293 HD
ENDBRANCH  15  18
BRANCH  17  20
ATOM     20  O   UNL     1      -1.232  15.875  49.069  1.00  0.00    -0.504 OA
ATOM     21  H   UNL     1      -2.025  15.760  49.689  1.00  0.00     0.293 HD
ENDBRANCH  17  20
ENDBRANCH   1  12
BRANCH   2  22
ATOM     22  O   UNL     1      -3.128  20.865  49.115  1.00  0.00    -0.502 OA
ATOM     23  H   UNL     1      -4.118  20.947  49.309  1.00  0.00     0.293 HD
ENDBRANCH   2  22
BRANCH   6  24
ATOM     24  O   UNL     1      -2.751  24.629  52.866  1.00  0.00    -0.507 OA
ATOM     25  H   UNL     1      -2.852  25.614  53.059  1.00  0.00     0.293 HD
ENDBRANCH   6  24
BRANCH   8  26
ATOM     26  O   UNL     1       1.910  24.262  53.961  1.00  0.00    -0.508 OA
ATOM     27  H   UNL     1       2.607  24.872  53.551  1.00  0.00     0.293 HD
ENDBRANCH   8  26
TORSDOF 6
ENDMDL
MODEL 7
REMARK VINA RESULT:    -6.585      8.737     11.110
REMARK INTER + INTRA:          -7.744
REMARK INTER:                  -7.779
REMARK INTRA:                   0.035
REMARK UNBOUND:                 0.188
REMARK SMILES O=c1c(O)c(-c2ccc(O)c(O)c2)oc2cc(O)cc(O)c12
REMARK SMILES IDX 5 1 3 2 2 3 1 4 22 5 20 6 19 7 17 8 16 9 15 10 14 11 6 12
REMARK SMILES IDX 7 13 8 14 9 15 13 16 11 17 10 18 12 20 4 22 21 24 18 26
REMARK H PARENT 10 19 12 21 4 23 21 25 18 27
REMARK Flexibility Score: inf
ROOT
ATOM      1  C   UNL     1       3.556  23.004  39.950  1.00  0.00     0.180 A 
ATOM      2  C   UNL     1       4.317  22.232  39.054  1.00  0.00     0.208 A 
ATOM      3  C   UNL     1       5.386  21.469  39.551  1.00  0.00     0.238 A 
ATOM      4  O   UNL     1       6.031  20.740  38.754  1.00  0.00    -0.285 OA
ATOM      5  C   UNL     1       5.691  21.500  40.933  1.00  0.00     0.111 A 
ATOM      6  C   UNL     1       6.776  20.799  41.540  1.00  0.00     0.134 A 
ATOM      7  C   UNL     1       6.905  20.797  42.934  1.00  0.00     0.093 A 
ATOM      8  C   UNL     1       6.025  21.526  43.739  1.00  0.00     0.123 A 
ATOM      9  C   UNL     1       4.998  22.261  43.153  1.00  0.00     0.094 A 
ATOM     10  C   UNL     1       4.823  22.253  41.767  1.00  0.00     0.146 A 
ATOM     11  O   UNL     1       3.826  22.960  41.250  1.00  0.00    -0.452 OA
ENDROOT
BRANCH   1  12
ATOM     12  C   UNL     1       2.430  23.852  39.499  1.00  0.00     0.025 A 
ATOM     13  C   UNL     1       1.235  23.865  40.235  1.00  0.00     0.016 A 
ATOM     14  C   UNL     1       0.168  24.675  39.839  1.00  0.00     0.051 A 
ATOM     15  C   UNL     1       0.284  25.494  38.709  1.00  0.00     0.157 A 
ATOM     16  C   UNL     1       2.550  24.691  38.375  1.00  0.00     0.062 A 
ATOM     17  C   UNL     1       1.479  25.506  37.979  1.00  0.00     0.158 A 
BRANCH  15  18
ATOM     18  O   UNL     1      -0.780  26.301  38.309  1.00  0.00    -0.504 OA
ATOM     19  H   UNL     1      -0.627  27.220  37.910  1.00  0.00     0.293 HD
ENDBRANCH  15  18
BRANCH  17  20
ATOM     20  O   UNL     1       1.598  26.332  36.862  1.00  0.00    -0.504 OA
ATOM     21  H   UNL     1       0.810  26.859  36.504  1.00  0.00     0.293 HD
ENDBRANCH  17  20
ENDBRANCH   1  12
BRANCH   2  22
ATOM     22  O   UNL     1       3.985  22.200  37.697  1.00  0.00    -0.502 OA
ATOM     23  H   UNL     1       4.610  22.542  36.977  1.00  0.00     0.293 HD
ENDBRANCH   2  22
BRANCH   6  24
ATOM     24  O   UNL     1       7.763  20.117  40.822  1.00  0.00    -0.507 OA
ATOM     25  H   UNL     1       8.725  20.411  40.746  1.00  0.00     0.293 HD
ENDBRANCH   6  24
BRANCH   8  26
ATOM     26  O   UNL     1       6.169  21.532  45.125  1.00  0.00    -0.508 OA
ATOM     27  H   UNL     1       6.301  20.674  45.648  1.00  0.00     0.293 HD
ENDBRANCH   8  26
TORSDOF 6
ENDMDL
MODEL 8
REMARK VINA RESULT:    -6.495      2.238      7.805
REMARK INTER + INTRA:          -7.635
REMARK INTER:                  -7.454
REMARK INTRA:                  -0.181
REMARK UNBOUND:                 0.188
REMARK SMILES O=c1c(O)c(-c2ccc(O)c(O)c2)oc2cc(O)cc(O)c12
REMARK SMILES IDX 5 1 3 2 2 3 1 4 22 5 20 6 19 7 17 8 16 9 15 10 14 11 6 12
REMARK SMILES IDX 7 13 8 14 9 15 13 16 11 17 10 18 12 20 4 22 21 24 18 26
REMARK H PARENT 10 19 12 21 4 23 21 25 18 27
REMARK Flexibility Score: inf
ROOT
ATOM      1  C   UNL     1       3.670  16.938  45.933  1.00  0.00     0.180 A 
ATOM      2  C   UNL     1       4.404  16.477  47.040  1.00  0.00     0.208 A 
ATOM      3  C   UNL     1       5.806  16.550  47.006  1.00  0.00     0.238 A 
ATOM      4  O   UNL     1       6.455  16.186  48.021  1.00  0.00    -0.285 OA
ATOM      5  C   UNL     1       6.457  17.068  45.861  1.00  0.00     0.111 A 
ATOM      6  C   UNL     1       7.873  17.152  45.701  1.00  0.00     0.134 A 
ATOM      7  C   UNL     1       8.405  17.802  44.581  1.00  0.00     0.093 A 
ATOM      8  C   UNL     1       7.572  18.313  43.583  1.00  0.00     0.123 A 
ATOM      9  C   UNL     1       6.191  18.184  43.701  1.00  0.00     0.094 A 
ATOM     10  C   UNL     1       5.630  17.573  44.824  1.00  0.00     0.146 A 
ATOM     11  O   UNL     1       4.307  17.479  44.901  1.00  0.00    -0.452 OA
ENDROOT
BRANCH   1  12
ATOM     12  C   UNL     1       2.192  16.871  45.884  1.00  0.00     0.025 A 
ATOM     13  C   UNL     1       1.569  15.979  44.998  1.00  0.00     0.016 A 
ATOM     14  C   UNL     1       0.177  15.883  44.951  1.00  0.00     0.051 A 
ATOM     15  C   UNL     1      -0.614  16.669  45.800  1.00  0.00     0.157 A 
ATOM     16  C   UNL     1       1.395  17.644  46.750  1.00  0.00     0.062 A 
ATOM     17  C   UNL     1      -0.003  17.546  46.704  1.00  0.00     0.158 A 
BRANCH  15  18
ATOM     18  O   UNL     1      -2.004  16.578  45.755  1.00  0.00    -0.504 OA
ATOM     19  H   UNL     1      -2.473  15.922  45.142  1.00  0.00     0.293 HD
ENDBRANCH  15  18
BRANCH  17  20
ATOM     20  O   UNL     1      -0.791  18.317  47.558  1.00  0.00    -0.504 OA
ATOM     21  H   UNL     1      -1.798  18.214  47.590  1.00  0.00     0.293 HD
ENDBRANCH  17  20
ENDBRANCH   1  12
BRANCH   2  22
ATOM     22  O   UNL     1       3.740  15.990  48.169  1.00  0.00    -0.502 OA
ATOM     23  H   UNL     1       3.193  15.137  48.152  1.00  0.00     0.293 HD
ENDBRANCH   2  22
BRANCH   6  24
ATOM     24  O   UNL     1       8.793  16.593  46.593  1.00  0.00    -0.507 OA
ATOM     25  H   UNL     1       9.131  15.643  46.551  1.00  0.00     0.293 HD
ENDBRANCH   6  24
BRANCH   8  26
ATOM     26  O   UNL     1       8.110  18.945  42.463  1.00  0.00    -0.508 OA
ATOM     27  H   UNL     1       9.110  19.063  42.351  1.00  0.00     0.293 HD
ENDBRANCH   8  26
TORSDOF 6
ENDMDL
MODEL 9
REMARK VINA RESULT:    -6.400      4.166      7.670
REMARK INTER + INTRA:          -7.522
REMARK INTER:                  -7.190
REMARK INTRA:                  -0.332
REMARK UNBOUND:                 0.188
REMARK SMILES O=c1c(O)c(-c2ccc(O)c(O)c2)oc2cc(O)cc(O)c12
REMARK SMILES IDX 5 1 3 2 2 3 1 4 22 5 20 6 19 7 17 8 16 9 15 10 14 11 6 12
REMARK SMILES IDX 7 13 8 14 9 15 13 16 11 17 10 18 12 20 4 22 21 24 18 26
REMARK H PARENT 10 19 12 21 4 23 21 25 18 27
REMARK Flexibility Score: inf
ROOT
ATOM      1  C   UNL     1      -1.427  22.321  50.073  1.00  0.00     0.180 A 
ATOM      2  C   UNL     1      -0.698  22.319  51.275  1.00  0.00     0.208 A 
ATOM      3  C   UNL     1      -0.634  23.498  52.034  1.00  0.00     0.238 A 
ATOM      4  O   UNL     1      -0.026  23.476  53.136  1.00  0.00    -0.285 OA
ATOM      5  C   UNL     1      -1.284  24.668  51.574  1.00  0.00     0.111 A 
ATOM      6  C   UNL     1      -1.251  25.930  52.241  1.00  0.00     0.134 A 
ATOM      7  C   UNL     1      -2.038  26.985  51.763  1.00  0.00     0.093 A 
ATOM      8  C   UNL     1      -2.805  26.843  50.604  1.00  0.00     0.123 A 
ATOM      9  C   UNL     1      -2.798  25.634  49.913  1.00  0.00     0.094 A 
ATOM     10  C   UNL     1      -2.051  24.553  50.385  1.00  0.00     0.146 A 
ATOM     11  O   UNL     1      -2.080  23.416  49.701  1.00  0.00    -0.452 OA
ENDROOT
BRANCH   1  12
ATOM     12  C   UNL     1      -1.520  21.124  49.207  1.00  0.00     0.025 A 
ATOM     13  C   UNL     1      -2.631  20.273  49.320  1.00  0.00     0.016 A 
ATOM     14  C   UNL     1      -2.750  19.150  48.498  1.00  0.00     0.051 A 
ATOM     15  C   UNL     1      -1.767  18.868  47.540  1.00  0.00     0.157 A 
ATOM     16  C   UNL     1      -0.545  20.849  48.230  1.00  0.00     0.062 A 
ATOM     17  C   UNL     1      -0.666  19.722  47.403  1.00  0.00     0.158 A 
BRANCH  15  18
ATOM     18  O   UNL     1      -1.880  17.747  46.720  1.00  0.00    -0.504 OA
ATOM     19  H   UNL     1      -2.773  17.460  46.335  1.00  0.00     0.293 HD
ENDBRANCH  15  18
BRANCH  17  20
ATOM     20  O   UNL     1       0.305  19.448  46.440  1.00  0.00    -0.504 OA
ATOM     21  H   UNL     1       0.355  18.548  45.977  1.00  0.00     0.293 HD
ENDBRANCH  17  20
ENDBRANCH   1  12
BRANCH   2  22
ATOM     22  O   UNL     1      -0.082  21.146  51.722  1.00  0.00    -0.502 OA
ATOM     23  H   UNL     1      -0.479  20.570  52.455  1.00  0.00     0.293 HD
ENDBRANCH   2  22
BRANCH   6  24
ATOM     24  O   UNL     1      -0.448  26.205  53.351  1.00  0.00    -0.507 OA
ATOM     25  H   UNL     1       0.191  25.549  53.775  1.00  0.00     0.293 HD
ENDBRANCH   6  24
BRANCH   8  26
ATOM     26  O   UNL     1      -3.573  27.903  50.127  1.00  0.00    -0.508 OA
ATOM     27  H   UNL     1      -3.252  28.862  50.192  1.00  0.00     0.293 HD
ENDBRANCH   8  26
TORSDOF 6
ENDMDL
