MODEL 1
REMARK VINA RESULT:    -3.898      0.000      0.000
REMARK INTER + INTRA:          -4.971
REMARK INTER:                  -5.493
REMARK INTRA:                   0.523
REMARK UNBOUND:                 0.523
REMARK SMILES CC1=CCC(=C(C)C)C(=O)CC(C)=CCC1
REMARK SMILES IDX 12 1 14 2 13 3 15 4 16 5 2 6 1 7 3 8 11 10 9 11 10 12 5 13
REMARK SMILES IDX 6 14 7 15 8 16 4 17
REMARK H PARENT
REMARK Flexibility Score: 60.00
ROOT
ATOM      1  C   UNL     1       6.829   4.117  -5.461  1.00  0.00    -0.070 C 
ATOM      2  C   UNL     1       7.881   4.005  -4.620  1.00  0.00    -0.027 C 
ATOM      3  C   UNL     1       6.374   5.503  -5.840  1.00  0.00     0.039 C 
ENDROOT
BRANCH   2   4
ATOM      4  C   UNL     1       8.421   2.711  -4.048  1.00  0.00     0.032 C 
BRANCH   4   5
ATOM      5  C   UNL     1       9.824   2.315  -4.557  1.00  0.00     0.034 C 
BRANCH   5   6
ATOM      6  C   UNL     1       9.788   1.243  -5.631  1.00  0.00    -0.077 C 
ATOM      7  C   UNL     1      10.112  -0.171  -5.222  1.00  0.00     0.039 C 
ATOM      8  C   UNL     1       9.553   1.486  -6.944  1.00  0.00    -0.023 CG0
ATOM      9  G   UNL     1       9.190   2.813  -7.579  1.00  0.00     0.000 G0
ENDBRANCH   5   6
ENDBRANCH   4   5
ENDBRANCH   2   4
BRANCH   1  10
ATOM     10  C   UNL     1       6.034   2.928  -5.961  1.00  0.00     0.111 C 
BRANCH  10  11
ATOM     11  C   UNL     1       6.750   2.211  -7.076  1.00  0.00     0.163 C 
ATOM     12  O   UNL     1       6.550   0.974  -7.209  1.00  0.00    -0.294 OA
BRANCH  11  13
ATOM     13  C   UNL     1       7.724   2.898  -7.975  1.00  0.00    -0.002 C 
ATOM     14  C   UNL     1       7.303   3.512  -9.123  1.00  0.00    -0.069 C 
ATOM     15  C   UNL     1       5.830   3.653  -9.442  1.00  0.00     0.039 C 
ATOM     16  C   UNL     1       8.278   4.077 -10.132  1.00  0.00     0.039 C 
BRANCH  13  17
ATOM     17  C   UNL     1       9.196   2.802  -7.611  1.00  0.00     0.066 CG0
ATOM     18  G   UNL     1       9.543   1.480  -6.955  1.00  0.00     0.000 G0
ENDBRANCH  13  17
ENDBRANCH  11  13
ENDBRANCH  10  11
ENDBRANCH   1  10
TORSDOF 0
ENDMDL
MODEL 2
REMARK VINA RESULT:    -3.869      1.960      2.943
REMARK INTER + INTRA:          -4.929
REMARK INTER:                  -5.306
REMARK INTRA:                   0.377
REMARK UNBOUND:                 0.523
REMARK SMILES CC1=CCC(=C(C)C)C(=O)CC(C)=CCC1
REMARK SMILES IDX 12 1 14 2 13 3 15 4 16 5 2 6 1 7 3 8 11 10 9 11 10 12 5 13
REMARK SMILES IDX 6 14 7 15 8 16 4 17
REMARK H PARENT
REMARK Flexibility Score: 60.00
ROOT
ATOM      1  C   UNL     1       6.688   6.242  -7.082  1.00  0.00    -0.070 C 
ATOM      2  C   UNL     1       6.432   5.732  -5.857  1.00  0.00    -0.027 C 
ATOM      3  C   UNL     1       6.045   7.555  -7.448  1.00  0.00     0.039 C 
ENDROOT
BRANCH   2   4
ATOM      4  C   UNL     1       6.902   4.388  -5.343  1.00  0.00     0.032 C 
BRANCH   4   5
ATOM      5  C   UNL     1       6.167   3.172  -5.945  1.00  0.00     0.034 C 
BRANCH   5   6
ATOM      6  C   UNL     1       7.102   2.041  -6.334  1.00  0.00    -0.077 C 
ATOM      7  C   UNL     1       7.960   1.437  -5.251  1.00  0.00     0.039 C 
ATOM      8  C   UNL     1       7.266   1.586  -7.600  1.00  0.00    -0.023 CG0
ATOM      9  G   UNL     1       6.506   2.026  -8.836  1.00  0.00     0.000 G0
ENDBRANCH   5   6
ENDBRANCH   4   5
ENDBRANCH   2   4
BRANCH   1  10
ATOM     10  C   UNL     1       7.506   5.516  -8.131  1.00  0.00     0.111 C 
BRANCH  10  11
ATOM     11  C   UNL     1       6.649   4.615  -8.980  1.00  0.00     0.163 C 
ATOM     12  O   UNL     1       5.471   4.985  -9.235  1.00  0.00    -0.294 OA
BRANCH  11  13
ATOM     13  C   UNL     1       7.121   3.285  -9.468  1.00  0.00    -0.002 C 
ATOM     14  C   UNL     1       8.011   3.196 -10.502  1.00  0.00    -0.069 C 
ATOM     15  C   UNL     1       8.665   4.432 -11.083  1.00  0.00     0.039 C 
ATOM     16  C   UNL     1       8.387   1.869 -11.124  1.00  0.00     0.039 C 
BRANCH  13  17
ATOM     17  C   UNL     1       6.502   2.050  -8.834  1.00  0.00     0.066 CG0
ATOM     18  G   UNL     1       7.265   1.587  -7.609  1.00  0.00     0.000 G0
ENDBRANCH  13  17
ENDBRANCH  11  13
ENDBRANCH  10  11
ENDBRANCH   1  10
TORSDOF 0
ENDMDL
MODEL 3
REMARK VINA RESULT:    -3.811      1.612      3.662
REMARK INTER + INTRA:          -4.848
REMARK INTER:                  -5.419
REMARK INTRA:                   0.571
REMARK UNBOUND:                 0.523
REMARK SMILES CC1=CCC(=C(C)C)C(=O)CC(C)=CCC1
REMARK SMILES IDX 12 1 14 2 13 3 15 4 16 5 2 6 1 7 3 8 11 10 9 11 10 12 5 13
REMARK SMILES IDX 6 14 7 15 8 16 4 17
REMARK H PARENT
REMARK Flexibility Score: 60.00
ROOT
ATOM      1  C   UNL     1       9.218   1.445  -5.520  1.00  0.00    -0.070 C 
ATOM      2  C   UNL     1       8.654   2.127  -4.498  1.00  0.00    -0.027 C 
ATOM      3  C   UNL     1       9.671   0.031  -5.260  1.00  0.00     0.039 C 
ENDROOT
BRANCH   2   4
ATOM      4  C   UNL     1       8.227   3.578  -4.533  1.00  0.00     0.032 C 
BRANCH   4   5
ATOM      5  C   UNL     1       6.773   3.815  -4.994  1.00  0.00     0.034 C 
BRANCH   5   6
ATOM      6  C   UNL     1       6.677   4.582  -6.300  1.00  0.00    -0.077 C 
ATOM      7  C   UNL     1       6.718   6.087  -6.235  1.00  0.00     0.039 C 
ATOM      8  C   UNL     1       6.488   4.004  -7.512  1.00  0.00    -0.023 CG0
ATOM      9  G   UNL     1       6.434   2.522  -7.822  1.00  0.00     0.000 G0
ENDBRANCH   5   6
ENDBRANCH   4   5
ENDBRANCH   2   4
BRANCH   1  10
ATOM     10  C   UNL     1       9.498   2.061  -6.876  1.00  0.00     0.111 C 
BRANCH  10  11
ATOM     11  C   UNL     1       8.728   1.371  -7.970  1.00  0.00     0.163 C 
ATOM     12  O   UNL     1       9.107   0.224  -8.330  1.00  0.00    -0.294 OA
BRANCH  11  13
ATOM     13  C   UNL     1       7.582   2.019  -8.675  1.00  0.00    -0.002 C 
ATOM     14  C   UNL     1       7.625   2.235 -10.025  1.00  0.00    -0.069 C 
ATOM     15  C   UNL     1       8.755   1.689 -10.872  1.00  0.00     0.039 C 
ATOM     16  C   UNL     1       6.555   3.028 -10.743  1.00  0.00     0.039 C 
BRANCH  13  17
ATOM     17  C   UNL     1       6.424   2.507  -7.821  1.00  0.00     0.066 CG0
ATOM     18  G   UNL     1       6.509   3.991  -7.527  1.00  0.00     0.000 G0
ENDBRANCH  13  17
ENDBRANCH  11  13
ENDBRANCH  10  11
ENDBRANCH   1  10
TORSDOF 0
ENDMDL
MODEL 4
REMARK VINA RESULT:    -3.751      1.547      1.645
REMARK INTER + INTRA:          -4.763
REMARK INTER:                  -5.165
REMARK INTRA:                   0.402
REMARK UNBOUND:                 0.523
REMARK SMILES CC1=CCC(=C(C)C)C(=O)CC(C)=CCC1
REMARK SMILES IDX 12 1 14 2 13 3 15 4 16 5 2 6 1 7 3 8 11 10 9 11 10 12 5 13
REMARK SMILES IDX 6 14 7 15 8 16 4 17
REMARK H PARENT
REMARK Flexibility Score: 60.00
ROOT
ATOM      1  C   UNL     1       6.750   4.732  -5.921  1.00  0.00    -0.070 C 
ATOM      2  C   UNL     1       7.435   4.331  -4.828  1.00  0.00    -0.027 C 
ATOM      3  C   UNL     1       6.344   6.182  -6.007  1.00  0.00     0.039 C 
ENDROOT
BRANCH   2   4
ATOM      4  C   UNL     1       7.843   2.908  -4.514  1.00  0.00     0.032 C 
BRANCH   4   5
ATOM      5  C   UNL     1       9.270   2.528  -4.966  1.00  0.00     0.034 C 
BRANCH   5   6
ATOM      6  C   UNL     1       9.309   1.285  -5.836  1.00  0.00    -0.077 C 
ATOM      7  C   UNL     1       9.338  -0.054  -5.144  1.00  0.00     0.039 C 
ATOM      8  C   UNL     1       9.390   1.301  -7.189  1.00  0.00    -0.023 CG0
ATOM      9  G   UNL     1       9.358   2.517  -8.093  1.00  0.00     0.000 G0
ENDBRANCH   5   6
ENDBRANCH   4   5
ENDBRANCH   2   4
BRANCH   1  10
ATOM     10  C   UNL     1       6.292   3.783  -7.011  1.00  0.00     0.111 C 
BRANCH  10  11
ATOM     11  C   UNL     1       7.169   3.876  -8.232  1.00  0.00     0.163 C 
ATOM     12  O   UNL     1       7.166   4.955  -8.884  1.00  0.00    -0.294 OA
BRANCH  11  13
ATOM     13  C   UNL     1       7.981   2.725  -8.725  1.00  0.00    -0.002 C 
ATOM     14  C   UNL     1       7.471   1.853  -9.647  1.00  0.00    -0.069 C 
ATOM     15  C   UNL     1       6.137   2.108 -10.314  1.00  0.00     0.039 C 
ATOM     16  C   UNL     1       8.204   0.591 -10.047  1.00  0.00     0.039 C 
BRANCH  13  17
ATOM     17  C   UNL     1       9.347   2.514  -8.092  1.00  0.00     0.066 CG0
ATOM     18  G   UNL     1       9.387   1.290  -7.199  1.00  0.00     0.000 G0
ENDBRANCH  13  17
ENDBRANCH  11  13
ENDBRANCH  10  11
ENDBRANCH   1  10
TORSDOF 0
ENDMDL
MODEL 5
REMARK VINA RESULT:    -3.717      2.136      4.035
REMARK INTER + INTRA:          -4.715
REMARK INTER:                  -5.131
REMARK INTRA:                   0.416
REMARK UNBOUND:                 0.523
REMARK SMILES CC1=CCC(=C(C)C)C(=O)CC(C)=CCC1
REMARK SMILES IDX 12 1 14 2 13 3 15 4 16 5 2 6 1 7 3 8 11 10 9 11 10 12 5 13
REMARK SMILES IDX 6 14 7 15 8 16 4 17
REMARK H PARENT
REMARK Flexibility Score: 60.00
ROOT
ATOM      1  C   UNL     1       6.722   4.268  -5.389  1.00  0.00    -0.070 C 
ATOM      2  C   UNL     1       6.872   5.605  -5.521  1.00  0.00    -0.027 C 
ATOM      3  C   UNL     1       7.453   3.585  -4.261  1.00  0.00     0.039 C 
ENDROOT
BRANCH   2   4
ATOM      4  C   UNL     1       6.302   6.451  -6.639  1.00  0.00     0.032 C 
BRANCH   4   5
ATOM      5  C   UNL     1       7.317   6.850  -7.731  1.00  0.00     0.034 C 
BRANCH   5   6
ATOM      6  C   UNL     1       6.944   6.336  -9.110  1.00  0.00    -0.077 C 
ATOM      7  C   UNL     1       6.145   7.248 -10.006  1.00  0.00     0.039 C 
ATOM      8  C   UNL     1       7.222   5.088  -9.561  1.00  0.00    -0.023 CG0
ATOM      9  G   UNL     1       8.021   4.015  -8.850  1.00  0.00     0.000 G0
ENDBRANCH   5   6
ENDBRANCH   4   5
ENDBRANCH   2   4
BRANCH   1  10
ATOM     10  C   UNL     1       5.937   3.418  -6.367  1.00  0.00     0.111 C 
BRANCH  10  11
ATOM     11  C   UNL     1       6.837   2.498  -7.149  1.00  0.00     0.163 C 
ATOM     12  O   UNL     1       7.326   1.500  -6.555  1.00  0.00    -0.294 OA
BRANCH  11  13
ATOM     13  C   UNL     1       7.213   2.762  -8.570  1.00  0.00    -0.002 C 
ATOM     14  C   UNL     1       6.896   1.868  -9.555  1.00  0.00    -0.069 C 
ATOM     15  C   UNL     1       6.024   0.664  -9.270  1.00  0.00     0.039 C 
ATOM     16  C   UNL     1       7.399   2.027 -10.973  1.00  0.00     0.039 C 
BRANCH  13  17
ATOM     17  C   UNL     1       8.036   4.008  -8.853  1.00  0.00     0.066 CG0
ATOM     18  G   UNL     1       7.233   5.082  -9.560  1.00  0.00     0.000 G0
ENDBRANCH  13  17
ENDBRANCH  11  13
ENDBRANCH  10  11
ENDBRANCH   1  10
TORSDOF 0
ENDMDL
MODEL 6
REMARK VINA RESULT:    -3.686      1.952      5.159
REMARK INTER + INTRA:          -4.672
REMARK INTER:                  -4.851
REMARK INTRA:                   0.179
REMARK UNBOUND:                 0.523
REMARK SMILES CC1=CCC(=C(C)C)C(=O)CC(C)=CCC1
REMARK SMILES IDX 12 1 14 2 13 3 15 4 16 5 2 6 1 7 3 8 11 10 9 11 10 12 5 13
REMARK SMILES IDX 6 14 7 15 8 16 4 17
REMARK H PARENT
REMARK Flexibility Score: 60.00
ROOT
ATOM      1  C   UNL     1       6.414   2.320 -10.569  1.00  0.00    -0.070 C 
ATOM      2  C   UNL     1       5.939   3.528 -10.945  1.00  0.00    -0.027 C 
ATOM      3  C   UNL     1       5.725   1.092 -11.107  1.00  0.00     0.039 C 
ENDROOT
BRANCH   2   4
ATOM      4  C   UNL     1       6.430   4.867 -10.439  1.00  0.00     0.032 C 
BRANCH   4   5
ATOM      5  C   UNL     1       5.624   5.448  -9.257  1.00  0.00     0.034 C 
BRANCH   5   6
ATOM      6  C   UNL     1       6.496   5.846  -8.080  1.00  0.00    -0.077 C 
ATOM      7  C   UNL     1       7.167   7.195  -8.128  1.00  0.00     0.039 C 
ATOM      8  C   UNL     1       6.764   5.042  -7.022  1.00  0.00    -0.023 CG0
ATOM      9  G   UNL     1       6.193   3.664  -6.752  1.00  0.00     0.000 G0
ENDBRANCH   5   6
ENDBRANCH   4   5
ENDBRANCH   2   4
BRANCH   1  10
ATOM     10  C   UNL     1       7.538   2.144  -9.567  1.00  0.00     0.111 C 
BRANCH  10  11
ATOM     11  C   UNL     1       7.017   1.727  -8.217  1.00  0.00     0.163 C 
ATOM     12  O   UNL     1       6.340   0.666  -8.144  1.00  0.00    -0.294 OA
BRANCH  11  13
ATOM     13  C   UNL     1       7.221   2.552  -6.989  1.00  0.00    -0.002 C 
ATOM     14  C   UNL     1       8.226   2.260  -6.109  1.00  0.00    -0.069 C 
ATOM     15  C   UNL     1       9.257   1.197  -6.421  1.00  0.00     0.039 C 
ATOM     16  C   UNL     1       8.362   2.974  -4.782  1.00  0.00     0.039 C 
BRANCH  13  17
ATOM     17  C   UNL     1       6.214   3.658  -6.718  1.00  0.00     0.066 CG0
ATOM     18  G   UNL     1       6.775   5.034  -7.020  1.00  0.00     0.000 G0
ENDBRANCH  13  17
ENDBRANCH  11  13
ENDBRANCH  10  11
ENDBRANCH   1  10
TORSDOF 0
ENDMDL
MODEL 7
REMARK VINA RESULT:    -3.671      2.611      5.513
REMARK INTER + INTRA:          -4.650
REMARK INTER:                  -4.787
REMARK INTRA:                   0.136
REMARK UNBOUND:                 0.523
REMARK SMILES CC1=CCC(=C(C)C)C(=O)CC(C)=CCC1
REMARK SMILES IDX 12 1 14 2 13 3 15 4 16 5 2 6 1 7 3 8 11 10 9 11 10 12 5 13
REMARK SMILES IDX 6 14 7 15 8 16 4 17
REMARK H PARENT
REMARK Flexibility Score: 60.00
ROOT
ATOM      1  C   UNL     1       4.287   1.111 -11.035  1.00  0.00    -0.070 C 
ATOM      2  C   UNL     1       3.673   2.314 -11.069  1.00  0.00    -0.027 C 
ATOM      3  C   UNL     1       3.422  -0.122 -10.985  1.00  0.00     0.039 C 
ENDROOT
BRANCH   2   4
ATOM      4  C   UNL     1       4.363   3.661 -11.023  1.00  0.00     0.032 C 
BRANCH   4   5
ATOM      5  C   UNL     1       4.525   4.258  -9.609  1.00  0.00     0.034 C 
BRANCH   5   6
ATOM      6  C   UNL     1       5.927   4.773  -9.336  1.00  0.00    -0.077 C 
ATOM      7  C   UNL     1       6.299   6.123  -9.895  1.00  0.00     0.039 C 
ATOM      8  C   UNL     1       6.885   4.071  -8.684  1.00  0.00    -0.023 CG0
ATOM      9  G   UNL     1       6.737   2.713  -8.026  1.00  0.00     0.000 G0
ENDBRANCH   5   6
ENDBRANCH   4   5
ENDBRANCH   2   4
BRANCH   1  10
ATOM     10  C   UNL     1       5.792   0.948 -10.952  1.00  0.00     0.111 C 
BRANCH  10  11
ATOM     11  C   UNL     1       6.246   0.702  -9.537  1.00  0.00     0.163 C 
ATOM     12  O   UNL     1       5.703  -0.236  -8.894  1.00  0.00    -0.294 OA
BRANCH  11  13
ATOM     13  C   UNL     1       7.260   1.564  -8.860  1.00  0.00    -0.002 C 
ATOM     14  C   UNL     1       8.594   1.273  -8.945  1.00  0.00    -0.069 C 
ATOM     15  C   UNL     1       9.100   0.169  -9.849  1.00  0.00     0.039 C 
ATOM     16  C   UNL     1       9.631   2.028  -8.144  1.00  0.00     0.039 C 
BRANCH  13  17
ATOM     17  C   UNL     1       6.742   2.708  -8.004  1.00  0.00     0.066 CG0
ATOM     18  G   UNL     1       6.879   4.051  -8.693  1.00  0.00     0.000 G0
ENDBRANCH  13  17
ENDBRANCH  11  13
ENDBRANCH  10  11
ENDBRANCH   1  10
TORSDOF 0
ENDMDL
MODEL 8
REMARK VINA RESULT:    -3.513      1.833      5.255
REMARK INTER + INTRA:          -4.428
REMARK INTER:                  -5.023
REMARK INTRA:                   0.594
REMARK UNBOUND:                 0.523
REMARK SMILES CC1=CCC(=C(C)C)C(=O)CC(C)=CCC1
REMARK SMILES IDX 12 1 14 2 13 3 15 4 16 5 2 6 1 7 3 8 11 10 9 11 10 12 5 13
REMARK SMILES IDX 6 14 7 15 8 16 4 17
REMARK H PARENT
REMARK Flexibility Score: 60.00
ROOT
ATOM      1  C   UNL     1       8.828   2.071 -10.127  1.00  0.00    -0.070 C 
ATOM      2  C   UNL     1       8.096   2.793 -11.004  1.00  0.00    -0.027 C 
ATOM      3  C   UNL     1       9.008   0.600 -10.401  1.00  0.00     0.039 C 
ENDROOT
BRANCH   2   4
ATOM      4  C   UNL     1       7.724   4.253 -10.853  1.00  0.00     0.032 C 
BRANCH   4   5
ATOM      5  C   UNL     1       6.210   4.523 -10.716  1.00  0.00     0.034 C 
BRANCH   5   6
ATOM      6  C   UNL     1       5.517   3.570  -9.760  1.00  0.00    -0.077 C 
ATOM      7  C   UNL     1       4.415   2.701 -10.310  1.00  0.00     0.039 C 
ATOM      8  C   UNL     1       5.777   3.499  -8.431  1.00  0.00    -0.023 CG0
ATOM      9  G   UNL     1       6.843   4.256  -7.665  1.00  0.00     0.000 G0
ENDBRANCH   5   6
ENDBRANCH   4   5
ENDBRANCH   2   4
BRANCH   1  10
ATOM     10  C   UNL     1       9.392   2.646  -8.843  1.00  0.00     0.111 C 
BRANCH  10  11
ATOM     11  C   UNL     1       8.523   2.316  -7.658  1.00  0.00     0.163 C 
ATOM     12  O   UNL     1       8.374   1.103  -7.351  1.00  0.00    -0.294 OA
BRANCH  11  13
ATOM     13  C   UNL     1       7.791   3.363  -6.885  1.00  0.00    -0.002 C 
ATOM     14  C   UNL     1       7.903   3.433  -5.523  1.00  0.00    -0.069 C 
ATOM     15  C   UNL     1       8.885   2.561  -4.771  1.00  0.00     0.039 C 
ATOM     16  C   UNL     1       7.055   4.376  -4.698  1.00  0.00     0.039 C 
BRANCH  13  17
ATOM     17  C   UNL     1       6.854   4.275  -7.660  1.00  0.00     0.066 CG0
ATOM     18  G   UNL     1       5.790   3.502  -8.414  1.00  0.00     0.000 G0
ENDBRANCH  13  17
ENDBRANCH  11  13
ENDBRANCH  10  11
ENDBRANCH   1  10
TORSDOF 0
ENDMDL
MODEL 9
REMARK VINA RESULT:    -3.480     16.867     18.490
REMARK INTER + INTRA:          -4.381
REMARK INTER:                  -5.017
REMARK INTRA:                   0.635
REMARK UNBOUND:                 0.523
REMARK SMILES CC1=CCC(=C(C)C)C(=O)CC(C)=CCC1
REMARK SMILES IDX 12 1 14 2 13 3 15 4 16 5 2 6 1 7 3 8 11 10 9 11 10 12 5 13
REMARK SMILES IDX 6 14 7 15 8 16 4 17
REMARK H PARENT
REMARK Flexibility Score: 60.00
ROOT
ATOM      1  C   UNL     1      -6.071  13.735  -3.429  1.00  0.00    -0.070 C 
ATOM      2  C   UNL     1      -7.300  13.668  -2.873  1.00  0.00    -0.027 C 
ATOM      3  C   UNL     1      -4.878  13.713  -2.507  1.00  0.00     0.039 C 
ENDROOT
BRANCH   2   4
ATOM      4  C   UNL     1      -8.614  13.775  -3.618  1.00  0.00     0.032 C 
BRANCH   4   5
ATOM      5  C   UNL     1      -9.595  12.609  -3.371  1.00  0.00     0.034 C 
BRANCH   5   6
ATOM      6  C   UNL     1      -9.111  11.290  -3.946  1.00  0.00    -0.077 C 
ATOM      7  C   UNL     1      -9.193  10.069  -3.066  1.00  0.00     0.039 C 
ATOM      8  C   UNL     1      -8.547  11.152  -5.171  1.00  0.00    -0.023 CG0
ATOM      9  G   UNL     1      -8.377  12.226  -6.226  1.00  0.00     0.000 G0
ENDBRANCH   5   6
ENDBRANCH   4   5
ENDBRANCH   2   4
BRANCH   1  10
ATOM     10  C   UNL     1      -5.838  13.925  -4.914  1.00  0.00     0.111 C 
BRANCH  10  11
ATOM     11  C   UNL     1      -5.884  12.614  -5.655  1.00  0.00     0.163 C 
ATOM     12  O   UNL     1      -4.981  11.767  -5.418  1.00  0.00    -0.294 OA
BRANCH  11  13
ATOM     13  C   UNL     1      -6.914  12.316  -6.694  1.00  0.00    -0.002 C 
ATOM     14  C   UNL     1      -6.570  12.223  -8.014  1.00  0.00    -0.069 C 
ATOM     15  C   UNL     1      -5.121  12.262  -8.451  1.00  0.00     0.039 C 
ATOM     16  C   UNL     1      -7.608  12.080  -9.105  1.00  0.00     0.039 C 
BRANCH  13  17
ATOM     17  C   UNL     1      -8.360  12.217  -6.233  1.00  0.00     0.066 CG0
ATOM     18  G   UNL     1      -8.554  11.159  -5.166  1.00  0.00     0.000 G0
ENDBRANCH  13  17
ENDBRANCH  11  13
ENDBRANCH  10  11
ENDBRANCH   1  10
TORSDOF 0
ENDMDL
