MODEL 1
REMARK VINA RESULT:    -3.920      0.000      0.000
REMARK INTER + INTRA:          -8.711
REMARK INTER:                  -6.899
REMARK INTRA:                  -1.811
REMARK UNBOUND:                -1.811
REMARK SMILES CCCCCCCCCCCCCCC(=O)[O-]
REMARK SMILES IDX 9 1 10 2 11 3 12 4 13 5 14 6 15 7 16 8 17 9 8 10 7 11 6 12
REMARK SMILES IDX 5 13 4 14 3 15 2 16 1 17
REMARK H PARENT
REMARK Flexibility Score: inf
ROOT
ATOM      1  C   UNL     1      10.591   2.530  50.403  1.00  0.00     0.000 C 
ENDROOT
BRANCH   1   2
ATOM      2  C   UNL     1       9.114   2.125  50.560  1.00  0.00     0.000 C 
BRANCH   2   3
ATOM      3  C   UNL     1       8.143   3.136  49.932  1.00  0.00     0.000 C 
BRANCH   3   4
ATOM      4  C   UNL     1       6.871   3.275  50.777  1.00  0.00     0.000 C 
BRANCH   4   5
ATOM      5  C   UNL     1       6.329   4.708  50.725  1.00  0.00     0.006 C 
BRANCH   5   6
ATOM      6  C   UNL     1       5.268   4.934  51.806  1.00  0.00     0.053 C 
BRANCH   6   7
ATOM      7  C   UNL     1       4.087   5.656  51.238  1.00  0.00     0.041 C 
ATOM      8  O   UNL     1       3.031   5.027  50.966  1.00  0.00    -0.550 OA
ATOM      9  O   UNL     1       4.169   7.015  50.963  1.00  0.00    -0.550 OA
ENDBRANCH   6   7
ENDBRANCH   5   6
ENDBRANCH   4   5
ENDBRANCH   3   4
ENDBRANCH   2   3
ENDBRANCH   1   2
BRANCH   1  10
ATOM     10  C   UNL     1      11.338   2.809  51.721  1.00  0.00     0.000 C 
BRANCH  10  11
ATOM     11  C   UNL     1      11.927   4.228  51.787  1.00  0.00    -0.000 C 
BRANCH  11  12
ATOM     12  C   UNL     1      11.179   5.228  50.886  1.00  0.00    -0.000 C 
BRANCH  12  13
ATOM     13  C   UNL     1       9.982   5.941  51.548  1.00  0.00    -0.000 C 
BRANCH  13  14
ATOM     14  C   UNL     1       9.865   5.747  53.073  1.00  0.00    -0.000 C 
BRANCH  14  15
ATOM     15  C   UNL     1       8.708   4.839  53.526  1.00  0.00    -0.000 C 
BRANCH  15  16
ATOM     16  C   UNL     1       8.212   5.169  54.941  1.00  0.00    -0.003 C 
ATOM     17  C   UNL     1       6.815   4.604  55.179  1.00  0.00     0.004 C 
ENDBRANCH  15  16
ENDBRANCH  14  15
ENDBRANCH  13  14
ENDBRANCH  12  13
ENDBRANCH  11  12
ENDBRANCH  10  11
ENDBRANCH   1  10
TORSDOF 13
ENDMDL
MODEL 2
REMARK VINA RESULT:    -3.729      2.164      4.309
REMARK INTER + INTRA:          -8.373
REMARK INTER:                  -6.850
REMARK INTRA:                  -1.523
REMARK UNBOUND:                -1.811
REMARK SMILES CCCCCCCCCCCCCCC(=O)[O-]
REMARK SMILES IDX 9 1 10 2 11 3 12 4 13 5 14 6 15 7 16 8 17 9 8 10 7 11 6 12
REMARK SMILES IDX 5 13 4 14 3 15 2 16 1 17
REMARK H PARENT
REMARK Flexibility Score: inf
ROOT
ATOM      1  C   UNL     1      11.900   4.067  51.759  1.00  0.00     0.000 C 
ENDROOT
BRANCH   1   2
ATOM      2  C   UNL     1      11.303   5.151  50.843  1.00  0.00     0.000 C 
BRANCH   2   3
ATOM      3  C   UNL     1      10.208   5.981  51.528  1.00  0.00     0.000 C 
BRANCH   3   4
ATOM      4  C   UNL     1      10.213   5.754  53.044  1.00  0.00     0.000 C 
BRANCH   4   5
ATOM      5  C   UNL     1       8.915   5.080  53.505  1.00  0.00     0.006 C 
BRANCH   5   6
ATOM      6  C   UNL     1       8.547   5.512  54.927  1.00  0.00     0.053 C 
BRANCH   6   7
ATOM      7  C   UNL     1       7.373   4.729  55.425  1.00  0.00     0.041 C 
ATOM      8  O   UNL     1       6.392   4.509  54.669  1.00  0.00    -0.550 OA
ATOM      9  O   UNL     1       7.343   4.284  56.741  1.00  0.00    -0.550 OA
ENDBRANCH   6   7
ENDBRANCH   5   6
ENDBRANCH   4   5
ENDBRANCH   3   4
ENDBRANCH   2   3
ENDBRANCH   1   2
BRANCH   1  10
ATOM     10  C   UNL     1      11.156   2.718  51.750  1.00  0.00     0.000 C 
BRANCH  10  11
ATOM     11  C   UNL     1      10.369   2.476  50.451  1.00  0.00    -0.000 C 
BRANCH  11  12
ATOM     12  C   UNL     1       8.857   2.311  50.690  1.00  0.00    -0.000 C 
BRANCH  12  13
ATOM     13  C   UNL     1       7.983   3.486  50.206  1.00  0.00    -0.000 C 
BRANCH  13  14
ATOM     14  C   UNL     1       6.710   3.742  51.037  1.00  0.00    -0.000 C 
BRANCH  14  15
ATOM     15  C   UNL     1       6.223   5.202  51.047  1.00  0.00    -0.000 C 
BRANCH  15  16
ATOM     16  C   UNL     1       4.733   5.329  51.396  1.00  0.00    -0.003 C 
ATOM     17  C   UNL     1       4.176   6.677  50.947  1.00  0.00     0.004 C 
ENDBRANCH  15  16
ENDBRANCH  14  15
ENDBRANCH  13  14
ENDBRANCH  12  13
ENDBRANCH  11  12
ENDBRANCH  10  11
ENDBRANCH   1  10
TORSDOF 13
ENDMDL
MODEL 3
REMARK VINA RESULT:    -3.563      1.853      3.825
REMARK INTER + INTRA:          -8.081
REMARK INTER:                  -6.869
REMARK INTRA:                  -1.212
REMARK UNBOUND:                -1.811
REMARK SMILES CCCCCCCCCCCCCCC(=O)[O-]
REMARK SMILES IDX 9 1 10 2 11 3 12 4 13 5 14 6 15 7 16 8 17 9 8 10 7 11 6 12
REMARK SMILES IDX 5 13 4 14 3 15 2 16 1 17
REMARK H PARENT
REMARK Flexibility Score: inf
ROOT
ATOM      1  C   UNL     1       6.491   4.139  52.688  1.00  0.00     0.000 C 
ENDROOT
BRANCH   1   2
ATOM      2  C   UNL     1       5.924   4.208  51.258  1.00  0.00     0.000 C 
BRANCH   2   3
ATOM      3  C   UNL     1       5.919   5.632  50.681  1.00  0.00     0.000 C 
BRANCH   3   4
ATOM      4  C   UNL     1       4.534   6.276  50.818  1.00  0.00     0.000 C 
BRANCH   4   5
ATOM      5  C   UNL     1       3.454   5.213  51.051  1.00  0.00     0.006 C 
BRANCH   5   6
ATOM      6  C   UNL     1       2.170   5.559  50.292  1.00  0.00     0.053 C 
BRANCH   6   7
ATOM      7  C   UNL     1       1.054   4.654  50.709  1.00  0.00     0.041 C 
ATOM      8  O   UNL     1       1.296   3.469  51.054  1.00  0.00    -0.550 OA
ATOM      9  O   UNL     1      -0.259   5.106  50.668  1.00  0.00    -0.550 OA
ENDBRANCH   6   7
ENDBRANCH   5   6
ENDBRANCH   4   5
ENDBRANCH   3   4
ENDBRANCH   2   3
ENDBRANCH   1   2
BRANCH   1  10
ATOM     10  C   UNL     1       8.026   4.218  52.790  1.00  0.00     0.000 C 
BRANCH  10  11
ATOM     11  C   UNL     1       8.742   3.365  51.730  1.00  0.00    -0.000 C 
BRANCH  11  12
ATOM     12  C   UNL     1      10.114   2.852  52.203  1.00  0.00    -0.000 C 
BRANCH  12  13
ATOM     13  C   UNL     1      11.301   3.206  51.284  1.00  0.00    -0.000 C 
BRANCH  13  14
ATOM     14  C   UNL     1      12.088   4.469  51.685  1.00  0.00    -0.000 C 
BRANCH  14  15
ATOM     15  C   UNL     1      11.764   5.726  50.859  1.00  0.00    -0.000 C 
BRANCH  15  16
ATOM     16  C   UNL     1      10.602   6.541  51.446  1.00  0.00    -0.003 C 
ATOM     17  C   UNL     1       9.494   6.738  50.416  1.00  0.00     0.004 C 
ENDBRANCH  15  16
ENDBRANCH  14  15
ENDBRANCH  13  14
ENDBRANCH  12  13
ENDBRANCH  11  12
ENDBRANCH  10  11
ENDBRANCH   1  10
TORSDOF 13
ENDMDL
MODEL 4
REMARK VINA RESULT:    -3.526      2.430      4.706
REMARK INTER + INTRA:          -8.016
REMARK INTER:                  -6.605
REMARK INTRA:                  -1.411
REMARK UNBOUND:                -1.811
REMARK SMILES CCCCCCCCCCCCCCC(=O)[O-]
REMARK SMILES IDX 9 1 10 2 11 3 12 4 13 5 14 6 15 7 16 8 17 9 8 10 7 11 6 12
REMARK SMILES IDX 5 13 4 14 3 15 2 16 1 17
REMARK H PARENT
REMARK Flexibility Score: inf
ROOT
ATOM      1  C   UNL     1       8.027   1.875  50.199  1.00  0.00     0.000 C 
ENDROOT
BRANCH   1   2
ATOM      2  C   UNL     1       9.261   2.793  50.278  1.00  0.00     0.000 C 
BRANCH   2   3
ATOM      3  C   UNL     1       9.924   2.792  51.664  1.00  0.00     0.000 C 
BRANCH   3   4
ATOM      4  C   UNL     1      11.452   2.788  51.542  1.00  0.00     0.000 C 
BRANCH   4   5
ATOM      5  C   UNL     1      12.049   4.103  52.056  1.00  0.00     0.006 C 
BRANCH   5   6
ATOM      6  C   UNL     1      11.867   5.227  51.032  1.00  0.00     0.053 C 
BRANCH   6   7
ATOM      7  C   UNL     1      10.954   6.284  51.570  1.00  0.00     0.041 C 
ATOM      8  O   UNL     1      11.280   6.939  52.594  1.00  0.00    -0.550 OA
ATOM      9  O   UNL     1       9.723   6.510  50.968  1.00  0.00    -0.550 OA
ENDBRANCH   6   7
ENDBRANCH   5   6
ENDBRANCH   4   5
ENDBRANCH   3   4
ENDBRANCH   2   3
ENDBRANCH   1   2
BRANCH   1  10
ATOM     10  C   UNL     1       6.673   2.603  50.106  1.00  0.00     0.000 C 
BRANCH  10  11
ATOM     11  C   UNL     1       6.820   4.119  49.900  1.00  0.00    -0.000 C 
BRANCH  11  12
ATOM     12  C   UNL     1       6.723   4.913  51.216  1.00  0.00    -0.000 C 
BRANCH  12  13
ATOM     13  C   UNL     1       6.032   4.174  52.380  1.00  0.00    -0.000 C 
BRANCH  13  14
ATOM     14  C   UNL     1       6.783   4.224  53.726  1.00  0.00    -0.000 C 
BRANCH  14  15
ATOM     15  C   UNL     1       8.216   4.782  53.650  1.00  0.00    -0.000 C 
BRANCH  15  16
ATOM     16  C   UNL     1       8.644   5.497  54.940  1.00  0.00    -0.003 C 
ATOM     17  C   UNL     1       7.941   4.903  56.157  1.00  0.00     0.004 C 
ENDBRANCH  15  16
ENDBRANCH  14  15
ENDBRANCH  13  14
ENDBRANCH  12  13
ENDBRANCH  11  12
ENDBRANCH  10  11
ENDBRANCH   1  10
TORSDOF 13
ENDMDL
MODEL 5
REMARK VINA RESULT:    -3.509      3.515      6.789
REMARK INTER + INTRA:          -7.986
REMARK INTER:                  -7.223
REMARK INTRA:                  -0.763
REMARK UNBOUND:                -1.811
REMARK SMILES CCCCCCCCCCCCCCC(=O)[O-]
REMARK SMILES IDX 9 1 10 2 11 3 12 4 13 5 14 6 15 7 16 8 17 9 8 10 7 11 6 12
REMARK SMILES IDX 5 13 4 14 3 15 2 16 1 17
REMARK H PARENT
REMARK Flexibility Score: inf
ROOT
ATOM      1  C   UNL     1       6.822   4.362  53.467  1.00  0.00     0.000 C 
ENDROOT
BRANCH   1   2
ATOM      2  C   UNL     1       8.355   4.475  53.376  1.00  0.00     0.000 C 
BRANCH   2   3
ATOM      3  C   UNL     1       8.830   5.201  52.108  1.00  0.00     0.000 C 
BRANCH   3   4
ATOM      4  C   UNL     1      10.204   5.844  52.325  1.00  0.00     0.000 C 
BRANCH   4   5
ATOM      5  C   UNL     1      11.248   5.249  51.373  1.00  0.00     0.006 C 
BRANCH   5   6
ATOM      6  C   UNL     1      12.135   4.232  52.098  1.00  0.00     0.053 C 
BRANCH   6   7
ATOM      7  C   UNL     1      11.674   2.837  51.811  1.00  0.00     0.041 C 
ATOM      8  O   UNL     1      12.105   1.875  52.499  1.00  0.00    -0.550 OA
ATOM      9  O   UNL     1      10.808   2.595  50.753  1.00  0.00    -0.550 OA
ENDBRANCH   6   7
ENDBRANCH   5   6
ENDBRANCH   4   5
ENDBRANCH   3   4
ENDBRANCH   2   3
ENDBRANCH   1   2
BRANCH   1  10
ATOM     10  C   UNL     1       6.172   3.411  52.445  1.00  0.00     0.000 C 
BRANCH  10  11
ATOM     11  C   UNL     1       5.488   4.153  51.286  1.00  0.00    -0.000 C 
BRANCH  11  12
ATOM     12  C   UNL     1       4.609   5.325  51.762  1.00  0.00    -0.000 C 
BRANCH  12  13
ATOM     13  C   UNL     1       4.027   6.209  50.640  1.00  0.00    -0.000 C 
BRANCH  13  14
ATOM     14  C   UNL     1       2.556   5.925  50.278  1.00  0.00    -0.000 C 
BRANCH  14  15
ATOM     15  C   UNL     1       2.068   4.504  50.610  1.00  0.00    -0.000 C 
BRANCH  15  16
ATOM     16  C   UNL     1       0.537   4.380  50.584  1.00  0.00    -0.003 C 
ATOM     17  C   UNL     1      -0.115   5.703  50.195  1.00  0.00     0.004 C 
ENDBRANCH  15  16
ENDBRANCH  14  15
ENDBRANCH  13  14
ENDBRANCH  12  13
ENDBRANCH  11  12
ENDBRANCH  10  11
ENDBRANCH   1  10
TORSDOF 13
ENDMDL
MODEL 6
REMARK VINA RESULT:    -3.502      2.242      4.228
REMARK INTER + INTRA:          -7.975
REMARK INTER:                  -6.604
REMARK INTRA:                  -1.371
REMARK UNBOUND:                -1.811
REMARK SMILES CCCCCCCCCCCCCCC(=O)[O-]
REMARK SMILES IDX 9 1 10 2 11 3 12 4 13 5 14 6 15 7 16 8 17 9 8 10 7 11 6 12
REMARK SMILES IDX 5 13 4 14 3 15 2 16 1 17
REMARK H PARENT
REMARK Flexibility Score: inf
ROOT
ATOM      1  C   UNL     1       5.974   4.403  50.213  1.00  0.00     0.000 C 
ENDROOT
BRANCH   1   2
ATOM      2  C   UNL     1       5.688   5.849  50.657  1.00  0.00     0.000 C 
BRANCH   2   3
ATOM      3  C   UNL     1       4.282   6.030  51.249  1.00  0.00     0.000 C 
BRANCH   3   4
ATOM      4  C   UNL     1       3.203   5.704  50.210  1.00  0.00     0.000 C 
BRANCH   4   5
ATOM      5  C   UNL     1       2.237   4.635  50.734  1.00  0.00     0.006 C 
BRANCH   5   6
ATOM      6  C   UNL     1       0.785   5.009  50.429  1.00  0.00     0.053 C 
BRANCH   6   7
ATOM      7  C   UNL     1      -0.083   3.790  50.433  1.00  0.00     0.041 C 
ATOM      8  O   UNL     1       0.435   2.645  50.507  1.00  0.00    -0.550 OA
ATOM      9  O   UNL     1      -1.461   3.917  50.307  1.00  0.00    -0.550 OA
ENDBRANCH   6   7
ENDBRANCH   5   6
ENDBRANCH   4   5
ENDBRANCH   3   4
ENDBRANCH   2   3
ENDBRANCH   1   2
BRANCH   1  10
ATOM     10  C   UNL     1       5.704   3.324  51.279  1.00  0.00     0.000 C 
BRANCH  10  11
ATOM     11  C   UNL     1       6.829   2.280  51.374  1.00  0.00    -0.000 C 
BRANCH  11  12
ATOM     12  C   UNL     1       8.106   2.708  50.628  1.00  0.00    -0.000 C 
BRANCH  12  13
ATOM     13  C   UNL     1       9.262   3.192  51.527  1.00  0.00    -0.000 C 
BRANCH  13  14
ATOM     14  C   UNL     1       9.449   4.721  51.589  1.00  0.00    -0.000 C 
BRANCH  14  15
ATOM     15  C   UNL     1       9.287   5.339  52.990  1.00  0.00    -0.000 C 
BRANCH  15  16
ATOM     16  C   UNL     1       8.124   4.722  53.781  1.00  0.00    -0.003 C 
ATOM     17  C   UNL     1       8.148   5.176  55.237  1.00  0.00     0.004 C 
ENDBRANCH  15  16
ENDBRANCH  14  15
ENDBRANCH  13  14
ENDBRANCH  12  13
ENDBRANCH  11  12
ENDBRANCH  10  11
ENDBRANCH   1  10
TORSDOF 13
ENDMDL
MODEL 7
REMARK VINA RESULT:    -3.378      1.321      3.279
REMARK INTER + INTRA:          -7.757
REMARK INTER:                  -6.343
REMARK INTRA:                  -1.414
REMARK UNBOUND:                -1.811
REMARK SMILES CCCCCCCCCCCCCCC(=O)[O-]
REMARK SMILES IDX 9 1 10 2 11 3 12 4 13 5 14 6 15 7 16 8 17 9 8 10 7 11 6 12
REMARK SMILES IDX 5 13 4 14 3 15 2 16 1 17
REMARK H PARENT
REMARK Flexibility Score: inf
ROOT
ATOM      1  C   UNL     1       7.012   4.225  53.560  1.00  0.00     0.000 C 
ENDROOT
BRANCH   1   2
ATOM      2  C   UNL     1       6.092   3.382  52.658  1.00  0.00     0.000 C 
BRANCH   2   3
ATOM      3  C   UNL     1       6.854   2.642  51.547  1.00  0.00     0.000 C 
BRANCH   3   4
ATOM      4  C   UNL     1       6.508   3.216  50.168  1.00  0.00     0.000 C 
BRANCH   4   5
ATOM      5  C   UNL     1       4.991   3.358  49.995  1.00  0.00     0.006 C 
BRANCH   5   6
ATOM      6  C   UNL     1       4.582   4.831  49.922  1.00  0.00     0.053 C 
BRANCH   6   7
ATOM      7  C   UNL     1       3.185   5.013  50.427  1.00  0.00     0.041 C 
ATOM      8  O   UNL     1       2.658   4.136  51.160  1.00  0.00    -0.550 OA
ATOM      9  O   UNL     1       2.448   6.128  50.048  1.00  0.00    -0.550 OA
ENDBRANCH   6   7
ENDBRANCH   5   6
ENDBRANCH   4   5
ENDBRANCH   3   4
ENDBRANCH   2   3
ENDBRANCH   1   2
BRANCH   1  10
ATOM     10  C   UNL     1       8.503   4.208  53.176  1.00  0.00     0.000 C 
BRANCH  10  11
ATOM     11  C   UNL     1       8.930   5.449  52.375  1.00  0.00    -0.000 C 
BRANCH  11  12
ATOM     12  C   UNL     1      10.342   5.942  52.744  1.00  0.00    -0.000 C 
BRANCH  12  13
ATOM     13  C   UNL     1      11.307   6.121  51.554  1.00  0.00    -0.000 C 
BRANCH  13  14
ATOM     14  C   UNL     1      11.860   4.812  50.955  1.00  0.00    -0.000 C 
BRANCH  14  15
ATOM     15  C   UNL     1      12.081   3.676  51.970  1.00  0.00    -0.000 C 
BRANCH  15  16
ATOM     16  C   UNL     1      11.265   2.417  51.640  1.00  0.00    -0.003 C 
ATOM     17  C   UNL     1      10.411   2.628  50.393  1.00  0.00     0.004 C 
ENDBRANCH  15  16
ENDBRANCH  14  15
ENDBRANCH  13  14
ENDBRANCH  12  13
ENDBRANCH  11  12
ENDBRANCH  10  11
ENDBRANCH   1  10
TORSDOF 13
ENDMDL
MODEL 8
REMARK VINA RESULT:    -3.375      2.873      6.139
REMARK INTER + INTRA:          -7.752
REMARK INTER:                  -6.691
REMARK INTRA:                  -1.061
REMARK UNBOUND:                -1.811
REMARK SMILES CCCCCCCCCCCCCCC(=O)[O-]
REMARK SMILES IDX 9 1 10 2 11 3 12 4 13 5 14 6 15 7 16 8 17 9 8 10 7 11 6 12
REMARK SMILES IDX 5 13 4 14 3 15 2 16 1 17
REMARK H PARENT
REMARK Flexibility Score: inf
ROOT
ATOM      1  C   UNL     1       8.078   4.588  52.323  1.00  0.00     0.000 C 
ENDROOT
BRANCH   1   2
ATOM      2  C   UNL     1       9.232   3.586  52.508  1.00  0.00     0.000 C 
BRANCH   2   3
ATOM      3  C   UNL     1       9.487   2.726  51.260  1.00  0.00     0.000 C 
BRANCH   3   4
ATOM      4  C   UNL     1      10.724   3.215  50.498  1.00  0.00     0.000 C 
BRANCH   4   5
ATOM      5  C   UNL     1      11.757   3.821  51.456  1.00  0.00     0.006 C 
BRANCH   5   6
ATOM      6  C   UNL     1      12.271   5.164  50.932  1.00  0.00     0.053 C 
BRANCH   6   7
ATOM      7  C   UNL     1      11.279   6.250  51.211  1.00  0.00     0.041 C 
ATOM      8  O   UNL     1      11.160   6.714  52.374  1.00  0.00    -0.550 OA
ATOM      9  O   UNL     1      10.452   6.714  50.195  1.00  0.00    -0.550 OA
ENDBRANCH   6   7
ENDBRANCH   5   6
ENDBRANCH   4   5
ENDBRANCH   3   4
ENDBRANCH   2   3
ENDBRANCH   1   2
BRANCH   1  10
ATOM     10  C   UNL     1       6.754   4.197  53.005  1.00  0.00     0.000 C 
BRANCH  10  11
ATOM     11  C   UNL     1       5.838   3.357  52.100  1.00  0.00    -0.000 C 
BRANCH  11  12
ATOM     12  C   UNL     1       5.207   4.179  50.961  1.00  0.00    -0.000 C 
BRANCH  12  13
ATOM     13  C   UNL     1       4.601   5.533  51.384  1.00  0.00    -0.000 C 
BRANCH  13  14
ATOM     14  C   UNL     1       3.325   5.947  50.625  1.00  0.00    -0.000 C 
BRANCH  14  15
ATOM     15  C   UNL     1       2.549   4.786  49.977  1.00  0.00    -0.000 C 
BRANCH  15  16
ATOM     16  C   UNL     1       1.396   4.278  50.856  1.00  0.00    -0.003 C 
ATOM     17  C   UNL     1       0.108   5.042  50.567  1.00  0.00     0.004 C 
ENDBRANCH  15  16
ENDBRANCH  14  15
ENDBRANCH  13  14
ENDBRANCH  12  13
ENDBRANCH  11  12
ENDBRANCH  10  11
ENDBRANCH   1  10
TORSDOF 13
ENDMDL
MODEL 9
REMARK VINA RESULT:    -3.284      2.132      4.139
REMARK INTER + INTRA:          -7.591
REMARK INTER:                  -6.475
REMARK INTRA:                  -1.116
REMARK UNBOUND:                -1.811
REMARK SMILES CCCCCCCCCCCCCCC(=O)[O-]
REMARK SMILES IDX 9 1 10 2 11 3 12 4 13 5 14 6 15 7 16 8 17 9 8 10 7 11 6 12
REMARK SMILES IDX 5 13 4 14 3 15 2 16 1 17
REMARK H PARENT
REMARK Flexibility Score: inf
ROOT
ATOM      1  C   UNL     1       6.032   3.279  51.910  1.00  0.00     0.000 C 
ENDROOT
BRANCH   1   2
ATOM      2  C   UNL     1       5.296   4.108  50.842  1.00  0.00     0.000 C 
BRANCH   2   3
ATOM      3  C   UNL     1       4.459   5.250  51.439  1.00  0.00     0.000 C 
BRANCH   3   4
ATOM      4  C   UNL     1       3.876   6.139  50.334  1.00  0.00     0.000 C 
BRANCH   4   5
ATOM      5  C   UNL     1       2.360   5.944  50.212  1.00  0.00     0.006 C 
BRANCH   5   6
ATOM      6  C   UNL     1       1.944   4.555  50.704  1.00  0.00     0.053 C 
BRANCH   6   7
ATOM      7  C   UNL     1       0.461   4.386  50.602  1.00  0.00     0.041 C 
ATOM      8  O   UNL     1      -0.033   3.247  50.392  1.00  0.00    -0.550 OA
ATOM      9  O   UNL     1      -0.373   5.493  50.690  1.00  0.00    -0.550 OA
ENDBRANCH   6   7
ENDBRANCH   5   6
ENDBRANCH   4   5
ENDBRANCH   3   4
ENDBRANCH   2   3
ENDBRANCH   1   2
BRANCH   1  10
ATOM     10  C   UNL     1       6.667   4.095  53.052  1.00  0.00     0.000 C 
BRANCH  10  11
ATOM     11  C   UNL     1       8.195   4.209  52.930  1.00  0.00    -0.000 C 
BRANCH  11  12
ATOM     12  C   UNL     1       8.774   3.322  51.813  1.00  0.00    -0.000 C 
BRANCH  12  13
ATOM     13  C   UNL     1       9.303   4.081  50.578  1.00  0.00    -0.000 C 
BRANCH  13  14
ATOM     14  C   UNL     1       8.672   5.467  50.340  1.00  0.00    -0.000 C 
BRANCH  14  15
ATOM     15  C   UNL     1       9.622   6.659  50.558  1.00  0.00    -0.000 C 
BRANCH  15  16
ATOM     16  C   UNL     1      11.003   6.232  51.076  1.00  0.00    -0.003 C 
ATOM     17  C   UNL     1      11.131   6.491  52.575  1.00  0.00     0.004 C 
ENDBRANCH  15  16
ENDBRANCH  14  15
ENDBRANCH  13  14
ENDBRANCH  12  13
ENDBRANCH  11  12
ENDBRANCH  10  11
ENDBRANCH   1  10
TORSDOF 13
ENDMDL
