MODEL 1
REMARK VINA RESULT:    -3.044      0.000      0.000
REMARK INTER + INTRA:          -3.375
REMARK INTER:                  -3.222
REMARK INTRA:                  -0.152
REMARK UNBOUND:                -0.152
REMARK SMILES CC(C)[C@H]1CC[C@@H](C)CC1=O
REMARK SMILES IDX 8 1 7 2 6 3 5 4 4 5 10 6 11 7 9 8 2 9 1 10 3 11
REMARK H PARENT
REMARK Flexibility Score: inf
ROOT
ATOM      1  C   UNL     1     119.843 114.748 112.127  1.00  0.00     0.008 C 
ATOM      2  C   UNL     1     119.267 115.075 113.514  1.00  0.00    -0.007 C 
ATOM      3  C   UNL     1     118.079 114.157 113.882  1.00  0.00     0.004 C 
ATOM      4  C   UNL     1     116.827 114.453 113.039  1.00  0.00     0.012 C 
ATOM      5  C   UNL     1     116.393 115.930 113.161  1.00  0.00     0.058 C 
ATOM      6  C   UNL     1     117.584 116.837 112.896  1.00  0.00     0.136 C 
ATOM      7  O   UNL     1     117.498 117.826 112.186  1.00  0.00    -0.299 OA
ATOM      8  C   UNL     1     118.873 116.559 113.623  1.00  0.00     0.079 C 
ENDROOT
BRANCH   5   9
ATOM      9  C   UNL     1     115.108 116.225 112.322  1.00  0.00    -0.007 C 
ATOM     10  C   UNL     1     114.108 117.180 113.001  1.00  0.00     0.008 C 
ATOM     11  C   UNL     1     114.403 114.934 111.875  1.00  0.00     0.008 C 
ENDBRANCH   5   9
TORSDOF 1
ENDMDL
MODEL 2
REMARK VINA RESULT:    -3.041      1.772      3.267
REMARK INTER + INTRA:          -3.371
REMARK INTER:                  -3.188
REMARK INTRA:                  -0.183
REMARK UNBOUND:                -0.152
REMARK SMILES CC(C)[C@H]1CC[C@@H](C)CC1=O
REMARK SMILES IDX 8 1 7 2 6 3 5 4 4 5 10 6 11 7 9 8 2 9 1 10 3 11
REMARK H PARENT
REMARK Flexibility Score: inf
ROOT
ATOM      1  C   UNL     1     117.367 114.262 114.275  1.00  0.00     0.008 C 
ATOM      2  C   UNL     1     118.061 114.537 112.932  1.00  0.00    -0.007 C 
ATOM      3  C   UNL     1     119.250 115.513 113.080  1.00  0.00     0.004 C 
ATOM      4  C   UNL     1     118.795 116.947 113.401  1.00  0.00     0.012 C 
ATOM      5  C   UNL     1     117.817 117.487 112.334  1.00  0.00     0.058 C 
ATOM      6  C   UNL     1     116.696 116.484 112.114  1.00  0.00     0.136 C 
ATOM      7  O   UNL     1     115.528 116.826 112.036  1.00  0.00    -0.299 OA
ATOM      8  C   UNL     1     117.060 115.042 111.876  1.00  0.00     0.079 C 
ENDROOT
BRANCH   5   9
ATOM      9  C   UNL     1     117.372 118.952 112.649  1.00  0.00    -0.007 C 
ATOM     10  C   UNL     1     118.288 120.038 112.056  1.00  0.00     0.008 C 
ATOM     11  C   UNL     1     117.169 119.181 114.156  1.00  0.00     0.008 C 
ENDBRANCH   5   9
TORSDOF 1
ENDMDL
MODEL 3
REMARK VINA RESULT:    -3.023      2.378      3.480
REMARK INTER + INTRA:          -3.352
REMARK INTER:                  -3.179
REMARK INTRA:                  -0.174
REMARK UNBOUND:                -0.152
REMARK SMILES CC(C)[C@H]1CC[C@@H](C)CC1=O
REMARK SMILES IDX 8 1 7 2 6 3 5 4 4 5 10 6 11 7 9 8 2 9 1 10 3 11
REMARK H PARENT
REMARK Flexibility Score: inf
ROOT
ATOM      1  C   UNL     1     117.136 114.415 114.272  1.00  0.00     0.008 C 
ATOM      2  C   UNL     1     115.923 114.059 113.399  1.00  0.00    -0.007 C 
ATOM      3  C   UNL     1     115.935 114.813 112.050  1.00  0.00     0.004 C 
ATOM      4  C   UNL     1     115.662 116.317 112.217  1.00  0.00     0.012 C 
ATOM      5  C   UNL     1     114.321 116.577 112.940  1.00  0.00     0.058 C 
ATOM      6  C   UNL     1     114.265 115.760 114.221  1.00  0.00     0.136 C 
ATOM      7  O   UNL     1     113.872 116.234 115.274  1.00  0.00    -0.299 OA
ATOM      8  C   UNL     1     114.601 114.293 114.152  1.00  0.00     0.079 C 
ENDROOT
BRANCH   5   9
ATOM      9  C   UNL     1     114.034 118.106 113.091  1.00  0.00    -0.007 C 
ATOM     10  C   UNL     1     112.878 118.626 112.217  1.00  0.00     0.008 C 
ATOM     11  C   UNL     1     115.298 118.953 112.874  1.00  0.00     0.008 C 
ENDBRANCH   5   9
TORSDOF 1
ENDMDL
MODEL 4
REMARK VINA RESULT:    -3.023      2.160      3.818
REMARK INTER + INTRA:          -3.352
REMARK INTER:                  -3.173
REMARK INTRA:                  -0.180
REMARK UNBOUND:                -0.152
REMARK SMILES CC(C)[C@H]1CC[C@@H](C)CC1=O
REMARK SMILES IDX 8 1 7 2 6 3 5 4 4 5 10 6 11 7 9 8 2 9 1 10 3 11
REMARK H PARENT
REMARK Flexibility Score: inf
ROOT
ATOM      1  C   UNL     1     115.887 119.072 114.319  1.00  0.00     0.008 C 
ATOM      2  C   UNL     1     115.112 118.855 113.011  1.00  0.00    -0.007 C 
ATOM      3  C   UNL     1     113.912 117.898 113.197  1.00  0.00     0.004 C 
ATOM      4  C   UNL     1     114.354 116.446 113.444  1.00  0.00     0.012 C 
ATOM      5  C   UNL     1     115.258 115.922 112.306  1.00  0.00     0.058 C 
ATOM      6  C   UNL     1     116.385 116.911 112.053  1.00  0.00     0.136 C 
ATOM      7  O   UNL     1     117.540 116.549 111.896  1.00  0.00    -0.299 OA
ATOM      8  C   UNL     1     116.039 118.366 111.882  1.00  0.00     0.079 C 
ENDROOT
BRANCH   5   9
ATOM      9  C   UNL     1     115.690 114.440 112.547  1.00  0.00    -0.007 C 
ATOM     10  C   UNL     1     114.694 113.392 112.016  1.00  0.00     0.008 C 
ATOM     11  C   UNL     1     116.021 114.170 114.024  1.00  0.00     0.008 C 
ENDBRANCH   5   9
TORSDOF 1
ENDMDL
MODEL 5
REMARK VINA RESULT:    -3.003      2.283      3.164
REMARK INTER + INTRA:          -3.331
REMARK INTER:                  -3.171
REMARK INTRA:                  -0.161
REMARK UNBOUND:                -0.152
REMARK SMILES CC(C)[C@H]1CC[C@@H](C)CC1=O
REMARK SMILES IDX 8 1 7 2 6 3 5 4 4 5 10 6 11 7 9 8 2 9 1 10 3 11
REMARK H PARENT
REMARK Flexibility Score: inf
ROOT
ATOM      1  C   UNL     1     118.860 117.771 114.425  1.00  0.00     0.008 C 
ATOM      2  C   UNL     1     118.670 118.390 113.031  1.00  0.00    -0.007 C 
ATOM      3  C   UNL     1     117.652 119.553 113.044  1.00  0.00     0.004 C 
ATOM      4  C   UNL     1     116.211 119.068 113.276  1.00  0.00     0.012 C 
ATOM      5  C   UNL     1     115.784 118.022 112.222  1.00  0.00     0.058 C 
ATOM      6  C   UNL     1     116.834 116.925 112.137  1.00  0.00     0.136 C 
ATOM      7  O   UNL     1     116.532 115.743 112.092  1.00  0.00    -0.299 OA
ATOM      8  C   UNL     1     118.278 117.324 111.991  1.00  0.00     0.079 C 
ENDROOT
BRANCH   5   9
ATOM      9  C   UNL     1     114.313 117.545 112.446  1.00  0.00    -0.007 C 
ATOM     10  C   UNL     1     113.242 118.494 111.877  1.00  0.00     0.008 C 
ATOM     11  C   UNL     1     114.027 117.233 113.924  1.00  0.00     0.008 C 
ENDBRANCH   5   9
TORSDOF 1
ENDMDL
MODEL 6
REMARK VINA RESULT:    -2.956      1.170      4.012
REMARK INTER + INTRA:          -3.281
REMARK INTER:                  -3.098
REMARK INTRA:                  -0.183
REMARK UNBOUND:                -0.152
REMARK SMILES CC(C)[C@H]1CC[C@@H](C)CC1=O
REMARK SMILES IDX 8 1 7 2 6 3 5 4 4 5 10 6 11 7 9 8 2 9 1 10 3 11
REMARK H PARENT
REMARK Flexibility Score: inf
ROOT
ATOM      1  C   UNL     1     114.248 115.983 114.709  1.00  0.00     0.008 C 
ATOM      2  C   UNL     1     114.297 115.257 113.357  1.00  0.00    -0.007 C 
ATOM      3  C   UNL     1     115.144 113.965 113.420  1.00  0.00     0.004 C 
ATOM      4  C   UNL     1     116.646 114.255 113.578  1.00  0.00     0.012 C 
ATOM      5  C   UNL     1     117.174 115.161 112.443  1.00  0.00     0.058 C 
ATOM      6  C   UNL     1     116.285 116.388 112.313  1.00  0.00     0.136 C 
ATOM      7  O   UNL     1     116.746 117.509 112.179  1.00  0.00    -0.299 OA
ATOM      8  C   UNL     1     114.794 116.189 112.236  1.00  0.00     0.079 C 
ENDROOT
BRANCH   5   9
ATOM      9  C   UNL     1     118.705 115.439 112.592  1.00  0.00    -0.007 C 
ATOM     10  C   UNL     1     119.610 114.419 111.877  1.00  0.00     0.008 C 
ATOM     11  C   UNL     1     119.121 115.591 114.064  1.00  0.00     0.008 C 
ENDBRANCH   5   9
TORSDOF 1
ENDMDL
