MODEL 1
REMARK VINA RESULT:    -4.945      0.000      0.000
REMARK INTER + INTRA:          -6.179
REMARK INTER:                  -5.957
REMARK INTRA:                  -0.222
REMARK UNBOUND:                -0.222
REMARK SMILES NC(=O)C[C@H]([NH3+])C(=O)[O-]
REMARK SMILES IDX 4 1 5 2 6 3 7 7 8 8 9 9 2 10 3 11 1 12
REMARK H PARENT 6 4 6 5 6 6 1 13 1 14
REMARK Flexibility Score: inf
ROOT
ATOM      1  C   UNL     1      11.044  -1.976 -33.089  1.00  0.00     0.171 C 
ENDROOT
BRANCH   1   2
ATOM      2  C   UNL     1       9.816  -1.816 -32.170  1.00  0.00     0.237 C 
BRANCH   2   3
ATOM      3  N   UNL     1       8.954  -3.001 -32.255  1.00  0.00    -0.350 N 
ATOM      4  H   UNL     1       9.209  -3.697 -31.516  1.00  0.00     0.345 HD
ATOM      5  H   UNL     1       7.955  -2.722 -32.132  1.00  0.00     0.345 HD
ATOM      6  H   UNL     1       9.055  -3.447 -33.196  1.00  0.00     0.345 HD
ENDBRANCH   2   3
BRANCH   2   7
ATOM      7  C   UNL     1       9.032  -0.580 -32.530  1.00  0.00     0.100 C 
ATOM      8  O   UNL     1       8.669  -0.386 -33.720  1.00  0.00    -0.544 OA
ATOM      9  O   UNL     1       8.695   0.346 -31.551  1.00  0.00    -0.544 OA
ENDBRANCH   2   7
ENDBRANCH   1   2
BRANCH   1  10
ATOM     10  C   UNL     1      11.821  -3.218 -32.762  1.00  0.00     0.223 C 
ATOM     11  O   UNL     1      11.305  -4.351 -32.963  1.00  0.00    -0.275 OA
ATOM     12  N   UNL     1      13.124  -3.129 -32.188  1.00  0.00    -0.369 N 
ATOM     13  H   UNL     1      13.656  -3.995 -31.949  1.00  0.00     0.159 HD
ATOM     14  H   UNL     1      13.560  -2.199 -31.996  1.00  0.00     0.159 HD
ENDBRANCH   1  10
TORSDOF 4
ENDMDL
MODEL 2
REMARK VINA RESULT:    -4.493      7.584      9.266
REMARK INTER + INTRA:          -5.634
REMARK INTER:                  -5.389
REMARK INTRA:                  -0.246
REMARK UNBOUND:                -0.222
REMARK SMILES NC(=O)C[C@H]([NH3+])C(=O)[O-]
REMARK SMILES IDX 4 1 5 2 6 3 7 7 8 8 9 9 2 10 3 11 1 12
REMARK H PARENT 6 4 6 5 6 6 1 13 1 14
REMARK Flexibility Score: inf
ROOT
ATOM      1  C   UNL     1       4.481   1.599 -25.895  1.00  0.00     0.171 C 
ENDROOT
BRANCH   1   2
ATOM      2  C   UNL     1       5.829   1.892 -26.583  1.00  0.00     0.237 C 
BRANCH   2   3
ATOM      3  N   UNL     1       5.783   3.189 -27.269  1.00  0.00    -0.350 N 
ATOM      4  H   UNL     1       6.059   3.086 -28.273  1.00  0.00     0.345 HD
ATOM      5  H   UNL     1       4.816   3.582 -27.219  1.00  0.00     0.345 HD
ATOM      6  H   UNL     1       6.434   3.862 -26.800  1.00  0.00     0.345 HD
ENDBRANCH   2   3
BRANCH   2   7
ATOM      7  C   UNL     1       6.181   0.801 -27.562  1.00  0.00     0.100 C 
ATOM      8  O   UNL     1       7.133   0.961 -28.370  1.00  0.00    -0.544 OA
ATOM      9  O   UNL     1       5.466  -0.391 -27.571  1.00  0.00    -0.544 OA
ENDBRANCH   2   7
ENDBRANCH   1   2
BRANCH   1  10
ATOM     10  C   UNL     1       4.671   0.887 -24.586  1.00  0.00     0.223 C 
ATOM     11  O   UNL     1       4.851   1.554 -23.532  1.00  0.00    -0.275 OA
ATOM     12  N   UNL     1       4.690  -0.538 -24.532  1.00  0.00    -0.369 N 
ATOM     13  H   UNL     1       4.837  -1.030 -23.622  1.00  0.00     0.159 HD
ATOM     14  H   UNL     1       4.562  -1.108 -25.399  1.00  0.00     0.159 HD
ENDBRANCH   1  10
TORSDOF 4
ENDMDL
MODEL 3
REMARK VINA RESULT:    -4.416      1.867      3.983
REMARK INTER + INTRA:          -5.542
REMARK INTER:                  -5.204
REMARK INTRA:                  -0.338
REMARK UNBOUND:                -0.222
REMARK SMILES NC(=O)C[C@H]([NH3+])C(=O)[O-]
REMARK SMILES IDX 4 1 5 2 6 3 7 7 8 8 9 9 2 10 3 11 1 12
REMARK H PARENT 6 4 6 5 6 6 1 13 1 14
REMARK Flexibility Score: inf
ROOT
ATOM      1  C   UNL     1       9.505  -2.208 -32.447  1.00  0.00     0.171 C 
ENDROOT
BRANCH   1   2
ATOM      2  C   UNL     1      10.884  -2.230 -31.757  1.00  0.00     0.237 C 
BRANCH   2   3
ATOM      3  N   UNL     1      11.283  -0.873 -31.365  1.00  0.00    -0.350 N 
ATOM      4  H   UNL     1      10.465  -0.342 -30.986  1.00  0.00     0.345 HD
ATOM      5  H   UNL     1      12.028  -0.920 -30.633  1.00  0.00     0.345 HD
ATOM      6  H   UNL     1      11.670  -0.363 -32.193  1.00  0.00     0.345 HD
ENDBRANCH   2   3
BRANCH   2   7
ATOM      7  C   UNL     1      11.928  -2.835 -32.660  1.00  0.00     0.100 C 
ATOM      8  O   UNL     1      11.775  -4.000 -33.111  1.00  0.00    -0.544 OA
ATOM      9  O   UNL     1      13.058  -2.106 -33.011  1.00  0.00    -0.544 OA
ENDBRANCH   2   7
ENDBRANCH   1   2
BRANCH   1  10
ATOM     10  C   UNL     1       9.190  -0.852 -33.008  1.00  0.00     0.223 C 
ATOM     11  O   UNL     1       8.631   0.012 -32.281  1.00  0.00    -0.275 OA
ATOM     12  N   UNL     1       9.481  -0.546 -34.372  1.00  0.00    -0.369 N 
ATOM     13  H   UNL     1       9.248   0.393 -34.763  1.00  0.00     0.159 HD
ATOM     14  H   UNL     1       9.926  -1.257 -34.995  1.00  0.00     0.159 HD
ENDBRANCH   1  10
TORSDOF 4
ENDMDL
MODEL 4
REMARK VINA RESULT:    -4.269      1.380      1.706
REMARK INTER + INTRA:          -5.365
REMARK INTER:                  -5.260
REMARK INTRA:                  -0.104
REMARK UNBOUND:                -0.222
REMARK SMILES NC(=O)C[C@H]([NH3+])C(=O)[O-]
REMARK SMILES IDX 4 1 5 2 6 3 7 7 8 8 9 9 2 10 3 11 1 12
REMARK H PARENT 6 4 6 5 6 6 1 13 1 14
REMARK Flexibility Score: inf
ROOT
ATOM      1  C   UNL     1      10.731  -2.702 -32.279  1.00  0.00     0.171 C 
ENDROOT
BRANCH   1   2
ATOM      2  C   UNL     1      10.649  -1.164 -32.201  1.00  0.00     0.237 C 
BRANCH   2   3
ATOM      3  N   UNL     1      10.642  -0.722 -30.801  1.00  0.00    -0.350 N 
ATOM      4  H   UNL     1      10.209  -1.448 -30.185  1.00  0.00     0.345 HD
ATOM      5  H   UNL     1      11.621  -0.542 -30.482  1.00  0.00     0.345 HD
ATOM      6  H   UNL     1      10.102   0.170 -30.713  1.00  0.00     0.345 HD
ENDBRANCH   2   3
BRANCH   2   7
ATOM      7  C   UNL     1       9.420  -0.655 -32.910  1.00  0.00     0.100 C 
ATOM      8  O   UNL     1       8.393  -0.344 -32.251  1.00  0.00    -0.544 OA
ATOM      9  O   UNL     1       9.417  -0.512 -34.292  1.00  0.00    -0.544 OA
ENDBRANCH   2   7
ENDBRANCH   1   2
BRANCH   1  10
ATOM     10  C   UNL     1      12.004  -3.155 -32.933  1.00  0.00     0.223 C 
ATOM     11  O   UNL     1      12.102  -4.336 -33.362  1.00  0.00    -0.275 OA
ATOM     12  N   UNL     1      13.120  -2.272 -33.036  1.00  0.00    -0.369 N 
ATOM     13  H   UNL     1      14.010  -2.595 -33.479  1.00  0.00     0.159 HD
ATOM     14  H   UNL     1      13.065  -1.296 -32.668  1.00  0.00     0.159 HD
ENDBRANCH   1  10
TORSDOF 4
ENDMDL
MODEL 5
REMARK VINA RESULT:    -4.253      1.843      2.129
REMARK INTER + INTRA:          -5.346
REMARK INTER:                  -5.223
REMARK INTRA:                  -0.123
REMARK UNBOUND:                -0.222
REMARK SMILES NC(=O)C[C@H]([NH3+])C(=O)[O-]
REMARK SMILES IDX 4 1 5 2 6 3 7 7 8 8 9 9 2 10 3 11 1 12
REMARK H PARENT 6 4 6 5 6 6 1 13 1 14
REMARK Flexibility Score: inf
ROOT
ATOM      1  C   UNL     1       9.377  -2.039 -32.402  1.00  0.00     0.171 C 
ENDROOT
BRANCH   1   2
ATOM      2  C   UNL     1       9.391  -0.505 -32.556  1.00  0.00     0.237 C 
BRANCH   2   3
ATOM      3  N   UNL     1       8.704   0.130 -31.425  1.00  0.00    -0.350 N 
ATOM      4  H   UNL     1       8.941  -0.355 -30.529  1.00  0.00     0.345 HD
ATOM      5  H   UNL     1       8.987   1.134 -31.357  1.00  0.00     0.345 HD
ATOM      6  H   UNL     1       7.668   0.093 -31.572  1.00  0.00     0.345 HD
ENDBRANCH   2   3
BRANCH   2   7
ATOM      7  C   UNL     1       8.745  -0.089 -33.853  1.00  0.00     0.100 C 
ATOM      8  O   UNL     1       9.311  -0.338 -34.949  1.00  0.00    -0.544 OA
ATOM      9  O   UNL     1       7.516   0.561 -33.847  1.00  0.00    -0.544 OA
ENDBRANCH   2   7
ENDBRANCH   1   2
BRANCH   1  10
ATOM     10  C   UNL     1      10.767  -2.602 -32.339  1.00  0.00     0.223 C 
ATOM     11  O   UNL     1      11.752  -1.824 -32.223  1.00  0.00    -0.275 OA
ATOM     12  N   UNL     1      10.987  -4.007 -32.451  1.00  0.00    -0.369 N 
ATOM     13  H   UNL     1      11.956  -4.394 -32.421  1.00  0.00     0.159 HD
ATOM     14  H   UNL     1      10.184  -4.666 -32.568  1.00  0.00     0.159 HD
ENDBRANCH   1  10
TORSDOF 4
ENDMDL
MODEL 6
REMARK VINA RESULT:    -4.236      2.550      3.582
REMARK INTER + INTRA:          -5.325
REMARK INTER:                  -5.045
REMARK INTRA:                  -0.280
REMARK UNBOUND:                -0.222
REMARK SMILES NC(=O)C[C@H]([NH3+])C(=O)[O-]
REMARK SMILES IDX 4 1 5 2 6 3 7 7 8 8 9 9 2 10 3 11 1 12
REMARK H PARENT 6 4 6 5 6 6 1 13 1 14
REMARK Flexibility Score: inf
ROOT
ATOM      1  C   UNL     1       8.579  -0.171 -33.026  1.00  0.00     0.171 C 
ENDROOT
BRANCH   1   2
ATOM      2  C   UNL     1       8.220  -0.075 -34.522  1.00  0.00     0.237 C 
BRANCH   2   3
ATOM      3  N   UNL     1       9.381  -0.420 -35.352  1.00  0.00    -0.350 N 
ATOM      4  H   UNL     1       9.096  -1.036 -36.149  1.00  0.00     0.345 HD
ATOM      5  H   UNL     1       9.817   0.451 -35.730  1.00  0.00     0.345 HD
ATOM      6  H   UNL     1      10.096  -0.918 -34.772  1.00  0.00     0.345 HD
ENDBRANCH   2   3
BRANCH   2   7
ATOM      7  C   UNL     1       7.728   1.306 -34.870  1.00  0.00     0.100 C 
ATOM      8  O   UNL     1       6.697   1.769 -34.315  1.00  0.00    -0.544 OA
ATOM      9  O   UNL     1       8.416   2.082 -35.796  1.00  0.00    -0.544 OA
ENDBRANCH   2   7
ENDBRANCH   1   2
BRANCH   1  10
ATOM     10  C   UNL     1       9.407  -1.388 -32.733  1.00  0.00     0.223 C 
ATOM     11  O   UNL     1      10.662  -1.332 -32.836  1.00  0.00    -0.275 OA
ATOM     12  N   UNL     1       8.782  -2.621 -32.376  1.00  0.00    -0.369 N 
ATOM     13  H   UNL     1       9.360  -3.470 -32.186  1.00  0.00     0.159 HD
ATOM     14  H   UNL     1       7.743  -2.692 -32.304  1.00  0.00     0.159 HD
ENDBRANCH   1  10
TORSDOF 4
ENDMDL
MODEL 7
REMARK VINA RESULT:    -4.173      7.312      8.614
REMARK INTER + INTRA:          -5.249
REMARK INTER:                  -5.012
REMARK INTRA:                  -0.237
REMARK UNBOUND:                -0.222
REMARK SMILES NC(=O)C[C@H]([NH3+])C(=O)[O-]
REMARK SMILES IDX 4 1 5 2 6 3 7 7 8 8 9 9 2 10 3 11 1 12
REMARK H PARENT 6 4 6 5 6 6 1 13 1 14
REMARK Flexibility Score: inf
ROOT
ATOM      1  C   UNL     1       5.822   0.878 -27.011  1.00  0.00     0.171 C 
ENDROOT
BRANCH   1   2
ATOM      2  C   UNL     1       6.544   2.241 -27.032  1.00  0.00     0.237 C 
BRANCH   2   3
ATOM      3  N   UNL     1       5.623   3.303 -27.456  1.00  0.00    -0.350 N 
ATOM      4  H   UNL     1       6.090   4.237 -27.409  1.00  0.00     0.345 HD
ATOM      5  H   UNL     1       5.306   3.127 -28.437  1.00  0.00     0.345 HD
ATOM      6  H   UNL     1       4.778   3.308 -26.838  1.00  0.00     0.345 HD
ENDBRANCH   2   3
BRANCH   2   7
ATOM      7  C   UNL     1       7.742   2.201 -27.945  1.00  0.00     0.100 C 
ATOM      8  O   UNL     1       8.763   2.888 -27.679  1.00  0.00    -0.544 OA
ATOM      9  O   UNL     1       7.733   1.396 -29.078  1.00  0.00    -0.544 OA
ENDBRANCH   2   7
ENDBRANCH   1   2
BRANCH   1  10
ATOM     10  C   UNL     1       4.881   0.769 -25.846  1.00  0.00     0.223 C 
ATOM     11  O   UNL     1       4.152   1.749 -25.536  1.00  0.00    -0.275 OA
ATOM     12  N   UNL     1       4.834  -0.423 -25.062  1.00  0.00    -0.369 N 
ATOM     13  H   UNL     1       4.188  -0.491 -24.244  1.00  0.00     0.159 HD
ATOM     14  H   UNL     1       5.445  -1.238 -25.292  1.00  0.00     0.159 HD
ENDBRANCH   1  10
TORSDOF 4
ENDMDL
MODEL 8
REMARK VINA RESULT:    -4.131      6.806      8.160
REMARK INTER + INTRA:          -5.198
REMARK INTER:                  -4.911
REMARK INTRA:                  -0.287
REMARK UNBOUND:                -0.222
REMARK SMILES NC(=O)C[C@H]([NH3+])C(=O)[O-]
REMARK SMILES IDX 4 1 5 2 6 3 7 7 8 8 9 9 2 10 3 11 1 12
REMARK H PARENT 6 4 6 5 6 6 1 13 1 14
REMARK Flexibility Score: inf
ROOT
ATOM      1  C   UNL     1       6.389   0.776 -27.600  1.00  0.00     0.171 C 
ENDROOT
BRANCH   1   2
ATOM      2  C   UNL     1       5.690   1.760 -26.639  1.00  0.00     0.237 C 
BRANCH   2   3
ATOM      3  N   UNL     1       6.681   2.597 -25.953  1.00  0.00    -0.350 N 
ATOM      4  H   UNL     1       7.542   2.045 -25.730  1.00  0.00     0.345 HD
ATOM      5  H   UNL     1       6.942   3.408 -26.559  1.00  0.00     0.345 HD
ATOM      6  H   UNL     1       6.275   2.973 -25.064  1.00  0.00     0.345 HD
ENDBRANCH   2   3
BRANCH   2   7
ATOM      7  C   UNL     1       4.850   1.020 -25.630  1.00  0.00     0.100 C 
ATOM      8  O   UNL     1       4.175   0.018 -25.982  1.00  0.00    -0.544 OA
ATOM      9  O   UNL     1       4.826   1.431 -24.303  1.00  0.00    -0.544 OA
ENDBRANCH   2   7
ENDBRANCH   1   2
BRANCH   1  10
ATOM     10  C   UNL     1       7.586   1.401 -28.256  1.00  0.00     0.223 C 
ATOM     11  O   UNL     1       7.449   2.454 -28.936  1.00  0.00    -0.275 OA
ATOM     12  N   UNL     1       8.872   0.792 -28.150  1.00  0.00    -0.369 N 
ATOM     13  H   UNL     1       9.700   1.221 -28.620  1.00  0.00     0.159 HD
ATOM     14  H   UNL     1       9.001  -0.091 -27.608  1.00  0.00     0.159 HD
ENDBRANCH   1  10
TORSDOF 4
ENDMDL
MODEL 9
REMARK VINA RESULT:    -4.111      7.103      8.750
REMARK INTER + INTRA:          -5.175
REMARK INTER:                  -4.918
REMARK INTRA:                  -0.257
REMARK UNBOUND:                -0.222
REMARK SMILES NC(=O)C[C@H]([NH3+])C(=O)[O-]
REMARK SMILES IDX 4 1 5 2 6 3 7 7 8 8 9 9 2 10 3 11 1 12
REMARK H PARENT 6 4 6 5 6 6 1 13 1 14
REMARK Flexibility Score: inf
ROOT
ATOM      1  C   UNL     1       5.878   1.981 -26.007  1.00  0.00     0.171 C 
ENDROOT
BRANCH   1   2
ATOM      2  C   UNL     1       6.309   1.625 -27.444  1.00  0.00     0.237 C 
BRANCH   2   3
ATOM      3  N   UNL     1       6.847   0.260 -27.494  1.00  0.00    -0.350 N 
ATOM      4  H   UNL     1       6.420  -0.276 -28.285  1.00  0.00     0.345 HD
ATOM      5  H   UNL     1       7.884   0.292 -27.622  1.00  0.00     0.345 HD
ATOM      6  H   UNL     1       6.644  -0.235 -26.594  1.00  0.00     0.345 HD
ENDBRANCH   2   3
BRANCH   2   7
ATOM      7  C   UNL     1       7.335   2.604 -27.955  1.00  0.00     0.100 C 
ATOM      8  O   UNL     1       7.405   2.861 -29.186  1.00  0.00    -0.544 OA
ATOM      9  O   UNL     1       8.201   3.237 -27.072  1.00  0.00    -0.544 OA
ENDBRANCH   2   7
ENDBRANCH   1   2
BRANCH   1  10
ATOM     10  C   UNL     1       4.510   1.448 -25.692  1.00  0.00     0.223 C 
ATOM     11  O   UNL     1       4.164   0.317 -26.127  1.00  0.00    -0.275 OA
ATOM     12  N   UNL     1       3.584   2.228 -24.938  1.00  0.00    -0.369 N 
ATOM     13  H   UNL     1       2.628   1.860 -24.733  1.00  0.00     0.159 HD
ATOM     14  H   UNL     1       3.846   3.176 -24.586  1.00  0.00     0.159 HD
ENDBRANCH   1  10
TORSDOF 4
ENDMDL
