MODEL 1
REMARK VINA RESULT:    -3.892      0.000      0.000
REMARK INTER + INTRA:          -6.567
REMARK INTER:                  -5.940
REMARK INTRA:                  -0.627
REMARK UNBOUND:                -0.627
REMARK SMILES O=C([O-])CCCCCCCCC(=O)[O-]
REMARK SMILES IDX 7 1 6 2 5 3 4 4 2 5 1 6 3 7 8 8 9 9 10 10 11 11 12 12 13 13
REMARK SMILES IDX 14 14
REMARK H PARENT
REMARK Flexibility Score: inf
ROOT
ATOM      1  C   UNL     1      27.318  29.894 -13.733  1.00  0.00     0.000 C 
ENDROOT
BRANCH   1   2
ATOM      2  C   UNL     1      28.622  30.504 -13.196  1.00  0.00     0.000 C 
BRANCH   2   3
ATOM      3  C   UNL     1      29.005  29.879 -11.849  1.00  0.00     0.006 C 
BRANCH   3   4
ATOM      4  C   UNL     1      28.104  30.398 -10.726  1.00  0.00     0.053 C 
BRANCH   4   5
ATOM      5  C   UNL     1      27.521  29.257  -9.953  1.00  0.00     0.041 C 
ATOM      6  O   UNL     1      27.113  28.229 -10.553  1.00  0.00    -0.550 OA
ATOM      7  O   UNL     1      27.474  29.309  -8.566  1.00  0.00    -0.550 OA
ENDBRANCH   4   5
ENDBRANCH   3   4
ENDBRANCH   2   3
ENDBRANCH   1   2
BRANCH   1   8
ATOM      8  C   UNL     1      26.364  30.951 -14.311  1.00  0.00     0.000 C 
BRANCH   8   9
ATOM      9  C   UNL     1      25.346  31.458 -13.279  1.00  0.00     0.000 C 
BRANCH   9  10
ATOM     10  C   UNL     1      24.547  32.645 -13.833  1.00  0.00     0.006 C 
BRANCH  10  11
ATOM     11  C   UNL     1      23.800  32.257 -15.112  1.00  0.00     0.053 C 
BRANCH  11  12
ATOM     12  C   UNL     1      22.758  31.226 -14.818  1.00  0.00     0.041 C 
ATOM     13  O   UNL     1      21.797  31.498 -14.051  1.00  0.00    -0.550 OA
ATOM     14  O   UNL     1      22.821  29.980 -15.429  1.00  0.00    -0.550 OA
ENDBRANCH  11  12
ENDBRANCH  10  11
ENDBRANCH   9  10
ENDBRANCH   8   9
ENDBRANCH   1   8
TORSDOF 9
ENDMDL
MODEL 2
REMARK VINA RESULT:    -3.866      1.984      4.963
REMARK INTER + INTRA:          -6.526
REMARK INTER:                  -5.422
REMARK INTRA:                  -1.104
REMARK UNBOUND:                -0.627
REMARK SMILES O=C([O-])CCCCCCCCC(=O)[O-]
REMARK SMILES IDX 7 1 6 2 5 3 4 4 2 5 1 6 3 7 8 8 9 9 10 10 11 11 12 12 13 13
REMARK SMILES IDX 14 14
REMARK H PARENT
REMARK Flexibility Score: inf
ROOT
ATOM      1  C   UNL     1      25.201  30.461 -14.664  1.00  0.00     0.000 C 
ENDROOT
BRANCH   1   2
ATOM      2  C   UNL     1      25.312  31.938 -14.256  1.00  0.00     0.000 C 
BRANCH   2   3
ATOM      3  C   UNL     1      24.381  32.253 -13.079  1.00  0.00     0.006 C 
BRANCH   3   4
ATOM      4  C   UNL     1      25.000  31.804 -11.752  1.00  0.00     0.053 C 
BRANCH   4   5
ATOM      5  C   UNL     1      24.140  30.770 -11.097  1.00  0.00     0.041 C 
ATOM      6  O   UNL     1      23.222  31.116 -10.310  1.00  0.00    -0.550 OA
ATOM      7  O   UNL     1      24.322  29.425 -11.395  1.00  0.00    -0.550 OA
ENDBRANCH   4   5
ENDBRANCH   3   4
ENDBRANCH   2   3
ENDBRANCH   1   2
BRANCH   1   8
ATOM      8  C   UNL     1      26.449  29.647 -14.289  1.00  0.00     0.000 C 
BRANCH   8   9
ATOM      9  C   UNL     1      27.729  30.496 -14.278  1.00  0.00     0.000 C 
BRANCH   9  10
ATOM     10  C   UNL     1      28.446  30.390 -12.926  1.00  0.00     0.006 C 
BRANCH  10  11
ATOM     11  C   UNL     1      27.837  29.281 -12.064  1.00  0.00     0.053 C 
BRANCH  11  12
ATOM     12  C   UNL     1      27.864  29.665 -10.619  1.00  0.00     0.041 C 
ATOM     13  O   UNL     1      27.463  28.857  -9.741  1.00  0.00    -0.550 OA
ATOM     14  O   UNL     1      28.378  30.898 -10.238  1.00  0.00    -0.550 OA
ENDBRANCH  11  12
ENDBRANCH  10  11
ENDBRANCH   9  10
ENDBRANCH   8   9
ENDBRANCH   1   8
TORSDOF 9
ENDMDL
MODEL 3
REMARK VINA RESULT:    -3.839      2.353      3.597
REMARK INTER + INTRA:          -6.486
REMARK INTER:                  -5.494
REMARK INTRA:                  -0.992
REMARK UNBOUND:                -0.627
REMARK SMILES O=C([O-])CCCCCCCCC(=O)[O-]
REMARK SMILES IDX 7 1 6 2 5 3 4 4 2 5 1 6 3 7 8 8 9 9 10 10 11 11 12 12 13 13
REMARK SMILES IDX 14 14
REMARK H PARENT
REMARK Flexibility Score: inf
ROOT
ATOM      1  C   UNL     1      28.236  30.498 -10.649  1.00  0.00     0.000 C 
ENDROOT
BRANCH   1   2
ATOM      2  C   UNL     1      27.638  29.390  -9.767  1.00  0.00     0.000 C 
BRANCH   2   3
ATOM      3  C   UNL     1      26.266  28.953 -10.292  1.00  0.00     0.006 C 
BRANCH   3   4
ATOM      4  C   UNL     1      26.259  27.461 -10.635  1.00  0.00     0.053 C 
BRANCH   4   5
ATOM      5  C   UNL     1      26.196  27.264 -12.117  1.00  0.00     0.041 C 
ATOM      6  O   UNL     1      25.087  27.273 -12.711  1.00  0.00    -0.550 OA
ATOM      7  O   UNL     1      27.368  27.121 -12.849  1.00  0.00    -0.550 OA
ENDBRANCH   4   5
ENDBRANCH   3   4
ENDBRANCH   2   3
ENDBRANCH   1   2
BRANCH   1   8
ATOM      8  C   UNL     1      29.215  29.954 -11.701  1.00  0.00     0.000 C 
BRANCH   8   9
ATOM      9  C   UNL     1      28.916  30.476 -13.114  1.00  0.00     0.000 C 
BRANCH   9  10
ATOM     10  C   UNL     1      27.405  30.587 -13.351  1.00  0.00     0.006 C 
BRANCH  10  11
ATOM     11  C   UNL     1      27.034  30.129 -14.765  1.00  0.00     0.053 C 
BRANCH  11  12
ATOM     12  C   UNL     1      25.548  30.077 -14.925  1.00  0.00     0.041 C 
ATOM     13  O   UNL     1      25.041  29.695 -16.013  1.00  0.00    -0.550 OA
ATOM     14  O   UNL     1      24.722  30.404 -13.857  1.00  0.00    -0.550 OA
ENDBRANCH  11  12
ENDBRANCH  10  11
ENDBRANCH   9  10
ENDBRANCH   8   9
ENDBRANCH   1   8
TORSDOF 9
ENDMDL
MODEL 4
REMARK VINA RESULT:    -3.827      1.409      5.408
REMARK INTER + INTRA:          -6.468
REMARK INTER:                  -5.727
REMARK INTRA:                  -0.741
REMARK UNBOUND:                -0.627
REMARK SMILES O=C([O-])CCCCCCCCC(=O)[O-]
REMARK SMILES IDX 7 1 6 2 5 3 4 4 2 5 1 6 3 7 8 8 9 9 10 10 11 11 12 12 13 13
REMARK SMILES IDX 14 14
REMARK H PARENT
REMARK Flexibility Score: inf
ROOT
ATOM      1  C   UNL     1      27.718  30.613 -13.222  1.00  0.00     0.000 C 
ENDROOT
BRANCH   1   2
ATOM      2  C   UNL     1      27.308  30.198 -14.644  1.00  0.00     0.000 C 
BRANCH   2   3
ATOM      3  C   UNL     1      25.790  30.005 -14.742  1.00  0.00     0.006 C 
BRANCH   3   4
ATOM      4  C   UNL     1      25.059  30.841 -13.688  1.00  0.00     0.053 C 
BRANCH   4   5
ATOM      5  C   UNL     1      24.376  32.008 -14.327  1.00  0.00     0.041 C 
ATOM      6  O   UNL     1      25.054  32.936 -14.840  1.00  0.00    -0.550 OA
ATOM      7  O   UNL     1      22.989  32.048 -14.399  1.00  0.00    -0.550 OA
ENDBRANCH   4   5
ENDBRANCH   3   4
ENDBRANCH   2   3
ENDBRANCH   1   2
BRANCH   1   8
ATOM      8  C   UNL     1      29.104  30.080 -12.826  1.00  0.00     0.000 C 
BRANCH   8   9
ATOM      9  C   UNL     1      29.360  30.159 -11.314  1.00  0.00     0.000 C 
BRANCH   9  10
ATOM     10  C   UNL     1      28.053  30.399 -10.547  1.00  0.00     0.006 C 
BRANCH  10  11
ATOM     11  C   UNL     1      27.608  29.133  -9.810  1.00  0.00     0.053 C 
BRANCH  11  12
ATOM     12  C   UNL     1      26.539  28.426 -10.581  1.00  0.00     0.041 C 
ATOM     13  O   UNL     1      25.362  28.872 -10.586  1.00  0.00    -0.550 OA
ATOM     14  O   UNL     1      26.854  27.302 -11.335  1.00  0.00    -0.550 OA
ENDBRANCH  11  12
ENDBRANCH  10  11
ENDBRANCH   9  10
ENDBRANCH   8   9
ENDBRANCH   1   8
TORSDOF 9
ENDMDL
MODEL 5
REMARK VINA RESULT:    -3.729      2.163      3.019
REMARK INTER + INTRA:          -6.317
REMARK INTER:                  -5.370
REMARK INTRA:                  -0.947
REMARK UNBOUND:                -0.627
REMARK SMILES O=C([O-])CCCCCCCCC(=O)[O-]
REMARK SMILES IDX 7 1 6 2 5 3 4 4 2 5 1 6 3 7 8 8 9 9 10 10 11 11 12 12 13 13
REMARK SMILES IDX 14 14
REMARK H PARENT
REMARK Flexibility Score: inf
ROOT
ATOM      1  C   UNL     1      24.606  30.328 -11.038  1.00  0.00     0.000 C 
ENDROOT
BRANCH   1   2
ATOM      2  C   UNL     1      25.259  29.032 -11.542  1.00  0.00     0.000 C 
BRANCH   2   3
ATOM      3  C   UNL     1      26.692  28.898 -11.012  1.00  0.00     0.006 C 
BRANCH   3   4
ATOM      4  C   UNL     1      27.702  28.865 -12.162  1.00  0.00     0.053 C 
BRANCH   4   5
ATOM      5  C   UNL     1      28.632  30.033 -12.077  1.00  0.00     0.041 C 
ATOM      6  O   UNL     1      29.242  30.434 -13.102  1.00  0.00    -0.550 OA
ATOM      7  O   UNL     1      28.787  30.711 -10.874  1.00  0.00    -0.550 OA
ENDBRANCH   4   5
ENDBRANCH   3   4
ENDBRANCH   2   3
ENDBRANCH   1   2
BRANCH   1   8
ATOM      8  C   UNL     1      25.155  31.580 -11.740  1.00  0.00     0.000 C 
BRANCH   8   9
ATOM      9  C   UNL     1      24.133  32.225 -12.688  1.00  0.00     0.000 C 
BRANCH   9  10
ATOM     10  C   UNL     1      24.702  32.350 -14.106  1.00  0.00     0.006 C 
BRANCH  10  11
ATOM     11  C   UNL     1      25.891  31.405 -14.308  1.00  0.00     0.053 C 
BRANCH  11  12
ATOM     12  C   UNL     1      25.470  30.191 -15.073  1.00  0.00     0.041 C 
ATOM     13  O   UNL     1      26.282  29.246 -15.258  1.00  0.00    -0.550 OA
ATOM     14  O   UNL     1      24.167  30.081 -15.541  1.00  0.00    -0.550 OA
ENDBRANCH  11  12
ENDBRANCH  10  11
ENDBRANCH   9  10
ENDBRANCH   8   9
ENDBRANCH   1   8
TORSDOF 9
ENDMDL
MODEL 6
REMARK VINA RESULT:    -3.727      1.827      5.810
REMARK INTER + INTRA:          -6.315
REMARK INTER:                  -5.568
REMARK INTRA:                  -0.747
REMARK UNBOUND:                -0.627
REMARK SMILES O=C([O-])CCCCCCCCC(=O)[O-]
REMARK SMILES IDX 7 1 6 2 5 3 4 4 2 5 1 6 3 7 8 8 9 9 10 10 11 11 12 12 13 13
REMARK SMILES IDX 14 14
REMARK H PARENT
REMARK Flexibility Score: inf
ROOT
ATOM      1  C   UNL     1      26.253  29.326 -15.186  1.00  0.00     0.000 C 
ENDROOT
BRANCH   1   2
ATOM      2  C   UNL     1      24.831  29.586 -14.666  1.00  0.00     0.000 C 
BRANCH   2   3
ATOM      3  C   UNL     1      24.056  30.502 -15.622  1.00  0.00     0.006 C 
BRANCH   3   4
ATOM      4  C   UNL     1      23.302  31.588 -14.851  1.00  0.00     0.053 C 
BRANCH   4   5
ATOM      5  C   UNL     1      24.262  32.558 -14.238  1.00  0.00     0.041 C 
ATOM      6  O   UNL     1      25.126  33.131 -14.952  1.00  0.00    -0.550 OA
ATOM      7  O   UNL     1      24.170  32.867 -12.887  1.00  0.00    -0.550 OA
ENDBRANCH   4   5
ENDBRANCH   3   4
ENDBRANCH   2   3
ENDBRANCH   1   2
BRANCH   1   8
ATOM      8  C   UNL     1      27.251  30.410 -14.751  1.00  0.00     0.000 C 
BRANCH   8   9
ATOM      9  C   UNL     1      27.251  30.640 -13.232  1.00  0.00     0.000 C 
BRANCH   9  10
ATOM     10  C   UNL     1      28.263  29.720 -12.538  1.00  0.00     0.006 C 
BRANCH  10  11
ATOM     11  C   UNL     1      27.622  28.992 -11.353  1.00  0.00     0.053 C 
BRANCH  11  12
ATOM     12  C   UNL     1      27.808  29.777 -10.093  1.00  0.00     0.041 C 
ATOM     13  O   UNL     1      27.325  29.358  -9.009  1.00  0.00    -0.550 OA
ATOM     14  O   UNL     1      28.556  30.948 -10.108  1.00  0.00    -0.550 OA
ENDBRANCH  11  12
ENDBRANCH  10  11
ENDBRANCH   9  10
ENDBRANCH   8   9
ENDBRANCH   1   8
TORSDOF 9
ENDMDL
MODEL 7
REMARK VINA RESULT:    -3.717      2.532      3.698
REMARK INTER + INTRA:          -6.300
REMARK INTER:                  -5.346
REMARK INTRA:                  -0.953
REMARK UNBOUND:                -0.627
REMARK SMILES O=C([O-])CCCCCCCCC(=O)[O-]
REMARK SMILES IDX 7 1 6 2 5 3 4 4 2 5 1 6 3 7 8 8 9 9 10 10 11 11 12 12 13 13
REMARK SMILES IDX 14 14
REMARK H PARENT
REMARK Flexibility Score: inf
ROOT
ATOM      1  C   UNL     1      26.186  31.188 -13.881  1.00  0.00     0.000 C 
ENDROOT
BRANCH   1   2
ATOM      2  C   UNL     1      27.474  30.468 -14.312  1.00  0.00     0.000 C 
BRANCH   2   3
ATOM      3  C   UNL     1      28.467  30.377 -13.148  1.00  0.00     0.006 C 
BRANCH   3   4
ATOM      4  C   UNL     1      28.060  29.280 -12.162  1.00  0.00     0.053 C 
BRANCH   4   5
ATOM      5  C   UNL     1      28.163  29.776 -10.754  1.00  0.00     0.041 C 
ATOM      6  O   UNL     1      28.556  30.949 -10.523  1.00  0.00    -0.550 OA
ATOM      7  O   UNL     1      27.777  28.959  -9.699  1.00  0.00    -0.550 OA
ENDBRANCH   4   5
ENDBRANCH   3   4
ENDBRANCH   2   3
ENDBRANCH   1   2
BRANCH   1   8
ATOM      8  C   UNL     1      24.916  30.471 -14.368  1.00  0.00     0.000 C 
BRANCH   8   9
ATOM      9  C   UNL     1      24.318  29.538 -13.305  1.00  0.00     0.000 C 
BRANCH   9  10
ATOM     10  C   UNL     1      24.138  28.119 -13.858  1.00  0.00     0.006 C 
BRANCH  10  11
ATOM     11  C   UNL     1      25.150  27.153 -13.235  1.00  0.00     0.053 C 
BRANCH  11  12
ATOM     12  C   UNL     1      26.214  26.798 -14.224  1.00  0.00     0.041 C 
ATOM     13  O   UNL     1      26.200  27.304 -15.378  1.00  0.00    -0.550 OA
ATOM     14  O   UNL     1      27.248  25.946 -13.858  1.00  0.00    -0.550 OA
ENDBRANCH  11  12
ENDBRANCH  10  11
ENDBRANCH   9  10
ENDBRANCH   8   9
ENDBRANCH   1   8
TORSDOF 9
ENDMDL
MODEL 8
REMARK VINA RESULT:    -3.697      3.246      5.218
REMARK INTER + INTRA:          -6.270
REMARK INTER:                  -5.467
REMARK INTRA:                  -0.803
REMARK UNBOUND:                -0.627
REMARK SMILES O=C([O-])CCCCCCCCC(=O)[O-]
REMARK SMILES IDX 7 1 6 2 5 3 4 4 2 5 1 6 3 7 8 8 9 9 10 10 11 11 12 12 13 13
REMARK SMILES IDX 14 14
REMARK H PARENT
REMARK Flexibility Score: inf
ROOT
ATOM      1  C   UNL     1      25.361  29.303 -15.260  1.00  0.00     0.000 C 
ENDROOT
BRANCH   1   2
ATOM      2  C   UNL     1      25.336  27.773 -15.401  1.00  0.00     0.000 C 
BRANCH   2   3
ATOM      3  C   UNL     1      25.579  27.093 -14.048  1.00  0.00     0.006 C 
BRANCH   3   4
ATOM      4  C   UNL     1      26.739  26.098 -14.133  1.00  0.00     0.053 C 
BRANCH   4   5
ATOM      5  C   UNL     1      26.966  25.444 -12.807  1.00  0.00     0.041 C 
ATOM      6  O   UNL     1      27.497  24.305 -12.745  1.00  0.00    -0.550 OA
ATOM      7  O   UNL     1      26.635  26.114 -11.636  1.00  0.00    -0.550 OA
ENDBRANCH   4   5
ENDBRANCH   3   4
ENDBRANCH   2   3
ENDBRANCH   1   2
BRANCH   1   8
ATOM      8  C   UNL     1      26.121  29.770 -14.008  1.00  0.00     0.000 C 
BRANCH   8   9
ATOM      9  C   UNL     1      27.424  30.509 -14.347  1.00  0.00     0.000 C 
BRANCH   9  10
ATOM     10  C   UNL     1      28.420  30.428 -13.184  1.00  0.00     0.006 C 
BRANCH  10  11
ATOM     11  C   UNL     1      28.076  29.269 -12.244  1.00  0.00     0.053 C 
BRANCH  11  12
ATOM     12  C   UNL     1      28.182  29.703 -10.817  1.00  0.00     0.041 C 
ATOM     13  O   UNL     1      27.790  28.943  -9.893  1.00  0.00    -0.550 OA
ATOM     14  O   UNL     1      28.759  30.927 -10.503  1.00  0.00    -0.550 OA
ENDBRANCH  11  12
ENDBRANCH  10  11
ENDBRANCH   9  10
ENDBRANCH   8   9
ENDBRANCH   1   8
TORSDOF 9
ENDMDL
MODEL 9
REMARK VINA RESULT:    -3.631      2.680      4.937
REMARK INTER + INTRA:          -6.168
REMARK INTER:                  -5.252
REMARK INTRA:                  -0.916
REMARK UNBOUND:                -0.627
REMARK SMILES O=C([O-])CCCCCCCCC(=O)[O-]
REMARK SMILES IDX 7 1 6 2 5 3 4 4 2 5 1 6 3 7 8 8 9 9 10 10 11 11 12 12 13 13
REMARK SMILES IDX 14 14
REMARK H PARENT
REMARK Flexibility Score: inf
ROOT
ATOM      1  C   UNL     1      29.206  30.095 -11.665  1.00  0.00     0.000 C 
ENDROOT
BRANCH   1   2
ATOM      2  C   UNL     1      28.882  30.469 -13.120  1.00  0.00     0.000 C 
BRANCH   2   3
ATOM      3  C   UNL     1      27.367  30.491 -13.356  1.00  0.00     0.006 C 
BRANCH   3   4
ATOM      4  C   UNL     1      27.034  30.176 -14.817  1.00  0.00     0.053 C 
BRANCH   4   5
ATOM      5  C   UNL     1      25.924  29.176 -14.897  1.00  0.00     0.041 C 
ATOM      6  O   UNL     1      24.774  29.472 -14.480  1.00  0.00    -0.550 OA
ATOM      7  O   UNL     1      26.148  27.934 -15.477  1.00  0.00    -0.550 OA
ENDBRANCH   4   5
ENDBRANCH   3   4
ENDBRANCH   2   3
ENDBRANCH   1   2
BRANCH   1   8
ATOM      8  C   UNL     1      28.024  30.339 -10.714  1.00  0.00     0.000 C 
BRANCH   8   9
ATOM      9  C   UNL     1      27.657  29.094  -9.893  1.00  0.00     0.000 C 
BRANCH   9  10
ATOM     10  C   UNL     1      26.366  28.452 -10.416  1.00  0.00     0.006 C 
BRANCH  10  11
ATOM     11  C   UNL     1      26.672  27.349 -11.433  1.00  0.00     0.053 C 
BRANCH  11  12
ATOM     12  C   UNL     1      25.410  26.852 -12.062  1.00  0.00     0.041 C 
ATOM     13  O   UNL     1      24.315  27.427 -11.824  1.00  0.00    -0.550 OA
ATOM     14  O   UNL     1      25.449  25.783 -12.948  1.00  0.00    -0.550 OA
ENDBRANCH  11  12
ENDBRANCH  10  11
ENDBRANCH   9  10
ENDBRANCH   8   9
ENDBRANCH   1   8
TORSDOF 9
ENDMDL
