MODEL 1
REMARK VINA RESULT:    -8.168      0.000      0.000
REMARK INTER + INTRA:          -9.922
REMARK INTER:                  -9.601
REMARK INTRA:                  -0.322
REMARK UNBOUND:                -0.322
REMARK SMILES O=c1c(O)c(-c2ccc(O)c(O)c2)oc2cc(O)ccc12
REMARK SMILES IDX 5 1 3 2 2 3 1 4 21 5 15 6 14 7 16 8 17 9 19 10 20 11 6 12
REMARK SMILES IDX 7 13 8 14 9 15 13 16 11 17 10 18 12 20 4 22 18 24
REMARK H PARENT 10 19 12 21 4 23 18 25
REMARK Flexibility Score: inf
ROOT
ATOM      1  C   UNL     1      80.387 -26.761  84.572  1.00  0.00     0.180 A 
ATOM      2  C   UNL     1      81.717 -27.123  84.871  1.00  0.00     0.208 A 
ATOM      3  C   UNL     1      82.404 -26.413  85.868  1.00  0.00     0.235 A 
ATOM      4  O   UNL     1      83.598 -26.711  86.145  1.00  0.00    -0.285 OA
ATOM      5  C   UNL     1      81.748 -25.377  86.553  1.00  0.00     0.069 A 
ATOM      6  C   UNL     1      80.409 -25.091  86.211  1.00  0.00     0.142 A 
ATOM      7  O   UNL     1      79.797 -25.783  85.256  1.00  0.00    -0.452 OA
ATOM      8  C   UNL     1      79.718 -24.074  86.878  1.00  0.00     0.094 A 
ATOM      9  C   UNL     1      80.349 -23.334  87.884  1.00  0.00     0.119 A 
ATOM     10  C   UNL     1      81.680 -23.614  88.225  1.00  0.00     0.047 A 
ATOM     11  C   UNL     1      82.378 -24.630  87.565  1.00  0.00     0.020 A 
ENDROOT
BRANCH   1  12
ATOM     12  C   UNL     1      79.602 -27.449  83.522  1.00  0.00     0.025 A 
ATOM     13  C   UNL     1      79.664 -27.045  82.177  1.00  0.00     0.016 A 
ATOM     14  C   UNL     1      78.895 -27.694  81.207  1.00  0.00     0.051 A 
ATOM     15  C   UNL     1      78.045 -28.747  81.567  1.00  0.00     0.157 A 
ATOM     16  C   UNL     1      78.731 -28.492  83.881  1.00  0.00     0.062 A 
ATOM     17  C   UNL     1      77.961 -29.146  82.913  1.00  0.00     0.158 A 
BRANCH  15  18
ATOM     18  O   UNL     1      77.282 -29.394  80.598  1.00  0.00    -0.504 OA
ATOM     19  H   UNL     1      77.706 -29.804  79.773  1.00  0.00     0.293 HD
ENDBRANCH  15  18
BRANCH  17  20
ATOM     20  O   UNL     1      77.119 -30.185  83.306  1.00  0.00    -0.504 OA
ATOM     21  H   UNL     1      76.420 -30.574  82.684  1.00  0.00     0.293 HD
ENDBRANCH  17  20
ENDBRANCH   1  12
BRANCH   2  22
ATOM     22  O   UNL     1      82.326 -28.190  84.206  1.00  0.00    -0.502 OA
ATOM     23  H   UNL     1      83.153 -28.651  84.566  1.00  0.00     0.293 HD
ENDBRANCH   2  22
BRANCH   9  24
ATOM     24  O   UNL     1      79.648 -22.325  88.538  1.00  0.00    -0.508 OA
ATOM     25  H   UNL     1      80.055 -21.810  89.309  1.00  0.00     0.293 HD
ENDBRANCH   9  24
TORSDOF 5
ENDMDL
MODEL 2
REMARK VINA RESULT:    -7.968      3.055      4.861
REMARK INTER + INTRA:          -9.687
REMARK INTER:                  -9.382
REMARK INTRA:                  -0.305
REMARK UNBOUND:                -0.322
REMARK SMILES O=c1c(O)c(-c2ccc(O)c(O)c2)oc2cc(O)ccc12
REMARK SMILES IDX 5 1 3 2 2 3 1 4 21 5 15 6 14 7 16 8 17 9 19 10 20 11 6 12
REMARK SMILES IDX 7 13 8 14 9 15 13 16 11 17 10 18 12 20 4 22 18 24
REMARK H PARENT 10 19 12 21 4 23 18 25
REMARK Flexibility Score: inf
ROOT
ATOM      1  C   UNL     1      79.002 -25.745  86.346  1.00  0.00     0.180 A 
ATOM      2  C   UNL     1      79.628 -24.724  87.091  1.00  0.00     0.208 A 
ATOM      3  C   UNL     1      81.024 -24.750  87.234  1.00  0.00     0.235 A 
ATOM      4  O   UNL     1      81.605 -23.853  87.905  1.00  0.00    -0.285 OA
ATOM      5  C   UNL     1      81.762 -25.774  86.621  1.00  0.00     0.069 A 
ATOM      6  C   UNL     1      81.064 -26.747  85.873  1.00  0.00     0.142 A 
ATOM      7  O   UNL     1      79.740 -26.691  85.768  1.00  0.00    -0.452 OA
ATOM      8  C   UNL     1      81.764 -27.778  85.238  1.00  0.00     0.094 A 
ATOM      9  C   UNL     1      83.157 -27.853  85.343  1.00  0.00     0.119 A 
ATOM     10  C   UNL     1      83.854 -26.890  86.086  1.00  0.00     0.047 A 
ATOM     11  C   UNL     1      83.163 -25.855  86.722  1.00  0.00     0.020 A 
ENDROOT
BRANCH   1  12
ATOM     12  C   UNL     1      77.533 -25.799  86.164  1.00  0.00     0.025 A 
ATOM     13  C   UNL     1      76.690 -26.313  87.163  1.00  0.00     0.016 A 
ATOM     14  C   UNL     1      75.309 -26.376  86.959  1.00  0.00     0.051 A 
ATOM     15  C   UNL     1      74.752 -25.939  85.751  1.00  0.00     0.157 A 
ATOM     16  C   UNL     1      76.972 -25.382  84.945  1.00  0.00     0.062 A 
ATOM     17  C   UNL     1      75.589 -25.441  84.738  1.00  0.00     0.158 A 
BRANCH  15  18
ATOM     18  O   UNL     1      73.374 -26.000  85.551  1.00  0.00    -0.504 OA
ATOM     19  H   UNL     1      72.974 -26.048  84.621  1.00  0.00     0.293 HD
ENDBRANCH  15  18
BRANCH  17  20
ATOM     20  O   UNL     1      75.068 -25.005  83.520  1.00  0.00    -0.504 OA
ATOM     21  H   UNL     1      74.839 -25.649  82.772  1.00  0.00     0.293 HD
ENDBRANCH  17  20
ENDBRANCH   1  12
BRANCH   2  22
ATOM     22  O   UNL     1      78.871 -23.690  87.648  1.00  0.00    -0.502 OA
ATOM     23  H   UNL     1      79.062 -22.714  87.454  1.00  0.00     0.293 HD
ENDBRANCH   2  22
BRANCH   9  24
ATOM     24  O   UNL     1      83.840 -28.886  84.705  1.00  0.00    -0.508 OA
ATOM     25  H   UNL     1      83.684 -29.100  83.727  1.00  0.00     0.293 HD
ENDBRANCH   9  24
TORSDOF 5
ENDMDL
MODEL 3
REMARK VINA RESULT:    -7.912      3.290      3.914
REMARK INTER + INTRA:          -9.621
REMARK INTER:                  -9.669
REMARK INTRA:                   0.047
REMARK UNBOUND:                -0.322
REMARK SMILES O=c1c(O)c(-c2ccc(O)c(O)c2)oc2cc(O)ccc12
REMARK SMILES IDX 5 1 3 2 2 3 1 4 21 5 15 6 14 7 16 8 17 9 19 10 20 11 6 12
REMARK SMILES IDX 7 13 8 14 9 15 13 16 11 17 10 18 12 20 4 22 18 24
REMARK H PARENT 10 19 12 21 4 23 18 25
REMARK Flexibility Score: inf
ROOT
ATOM      1  C   UNL     1      78.615 -26.441  85.728  1.00  0.00     0.180 A 
ATOM      2  C   UNL     1      79.354 -27.368  84.962  1.00  0.00     0.208 A 
ATOM      3  C   UNL     1      80.738 -27.468  85.173  1.00  0.00     0.235 A 
ATOM      4  O   UNL     1      81.422 -28.281  84.493  1.00  0.00    -0.285 OA
ATOM      5  C   UNL     1      81.348 -26.661  86.147  1.00  0.00     0.069 A 
ATOM      6  C   UNL     1      80.536 -25.775  86.887  1.00  0.00     0.142 A 
ATOM      7  O   UNL     1      79.230 -25.706  86.652  1.00  0.00    -0.452 OA
ATOM      8  C   UNL     1      81.105 -24.963  87.874  1.00  0.00     0.094 A 
ATOM      9  C   UNL     1      82.479 -25.022  88.131  1.00  0.00     0.119 A 
ATOM     10  C   UNL     1      83.289 -25.899  87.396  1.00  0.00     0.047 A 
ATOM     11  C   UNL     1      82.730 -26.716  86.410  1.00  0.00     0.020 A 
ENDROOT
BRANCH   1  12
ATOM     12  C   UNL     1      77.156 -26.263  85.553  1.00  0.00     0.025 A 
ATOM     13  C   UNL     1      76.577 -26.166  84.275  1.00  0.00     0.016 A 
ATOM     14  C   UNL     1      75.200 -25.974  84.135  1.00  0.00     0.051 A 
ATOM     15  C   UNL     1      74.383 -25.864  85.268  1.00  0.00     0.157 A 
ATOM     16  C   UNL     1      76.335 -26.131  86.685  1.00  0.00     0.062 A 
ATOM     17  C   UNL     1      74.955 -25.940  86.549  1.00  0.00     0.158 A 
BRANCH  15  18
ATOM     18  O   UNL     1      73.010 -25.675  85.125  1.00  0.00    -0.504 OA
ATOM     19  H   UNL     1      72.617 -24.762  84.927  1.00  0.00     0.293 HD
ENDBRANCH  15  18
BRANCH  17  20
ATOM     20  O   UNL     1      74.171 -25.827  87.697  1.00  0.00    -0.504 OA
ATOM     21  H   UNL     1      73.410 -25.161  87.764  1.00  0.00     0.293 HD
ENDBRANCH  17  20
ENDBRANCH   1  12
BRANCH   2  22
ATOM     22  O   UNL     1      78.711 -28.191  84.035  1.00  0.00    -0.502 OA
ATOM     23  H   UNL     1      79.214 -28.677  83.302  1.00  0.00     0.293 HD
ENDBRANCH   2  22
BRANCH   9  24
ATOM     24  O   UNL     1      83.029 -24.206  89.116  1.00  0.00    -0.508 OA
ATOM     25  H   UNL     1      83.452 -23.314  88.891  1.00  0.00     0.293 HD
ENDBRANCH   9  24
TORSDOF 5
ENDMDL
MODEL 4
REMARK VINA RESULT:    -7.677      1.252      2.783
REMARK INTER + INTRA:          -9.345
REMARK INTER:                  -9.303
REMARK INTRA:                  -0.042
REMARK UNBOUND:                -0.322
REMARK SMILES O=c1c(O)c(-c2ccc(O)c(O)c2)oc2cc(O)ccc12
REMARK SMILES IDX 5 1 3 2 2 3 1 4 21 5 15 6 14 7 16 8 17 9 19 10 20 11 6 12
REMARK SMILES IDX 7 13 8 14 9 15 13 16 11 17 10 18 12 20 4 22 18 24
REMARK H PARENT 10 19 12 21 4 23 18 25
REMARK Flexibility Score: inf
ROOT
ATOM      1  C   UNL     1      79.733 -26.243  84.452  1.00  0.00     0.180 A 
ATOM      2  C   UNL     1      78.860 -25.493  85.267  1.00  0.00     0.208 A 
ATOM      3  C   UNL     1      79.398 -24.749  86.329  1.00  0.00     0.235 A 
ATOM      4  O   UNL     1      78.636 -24.079  87.079  1.00  0.00    -0.285 OA
ATOM      5  C   UNL     1      80.785 -24.755  86.542  1.00  0.00     0.069 A 
ATOM      6  C   UNL     1      81.594 -25.513  85.668  1.00  0.00     0.142 A 
ATOM      7  O   UNL     1      81.044 -26.210  84.679  1.00  0.00    -0.452 OA
ATOM      8  C   UNL     1      82.982 -25.536  85.841  1.00  0.00     0.094 A 
ATOM      9  C   UNL     1      83.576 -24.811  86.880  1.00  0.00     0.119 A 
ATOM     10  C   UNL     1      82.776 -24.058  87.751  1.00  0.00     0.047 A 
ATOM     11  C   UNL     1      81.388 -24.028  87.585  1.00  0.00     0.020 A 
ENDROOT
BRANCH   1  12
ATOM     12  C   UNL     1      79.241 -27.068  83.324  1.00  0.00     0.025 A 
ATOM     13  C   UNL     1      79.706 -26.867  82.013  1.00  0.00     0.016 A 
ATOM     14  C   UNL     1      79.209 -27.641  80.961  1.00  0.00     0.051 A 
ATOM     15  C   UNL     1      78.235 -28.618  81.201  1.00  0.00     0.157 A 
ATOM     16  C   UNL     1      78.249 -28.035  83.556  1.00  0.00     0.062 A 
ATOM     17  C   UNL     1      77.750 -28.813  82.506  1.00  0.00     0.158 A 
BRANCH  15  18
ATOM     18  O   UNL     1      77.744 -29.391  80.150  1.00  0.00    -0.504 OA
ATOM     19  H   UNL     1      77.875 -29.117  79.183  1.00  0.00     0.293 HD
ENDBRANCH  15  18
BRANCH  17  20
ATOM     20  O   UNL     1      76.775 -29.772  82.777  1.00  0.00    -0.504 OA
ATOM     21  H   UNL     1      75.997 -29.940  82.150  1.00  0.00     0.293 HD
ENDBRANCH  17  20
ENDBRANCH   1  12
BRANCH   2  22
ATOM     22  O   UNL     1      77.489 -25.468  85.000  1.00  0.00    -0.502 OA
ATOM     23  H   UNL     1      76.954 -24.607  84.993  1.00  0.00     0.293 HD
ENDBRANCH   2  22
BRANCH   9  24
ATOM     24  O   UNL     1      84.959 -24.845  87.038  1.00  0.00    -0.508 OA
ATOM     25  H   UNL     1      85.387 -25.201  87.884  1.00  0.00     0.293 HD
ENDBRANCH   9  24
TORSDOF 5
ENDMDL
MODEL 5
REMARK VINA RESULT:    -7.549      1.940      7.053
REMARK INTER + INTRA:          -9.195
REMARK INTER:                  -8.878
REMARK INTRA:                  -0.317
REMARK UNBOUND:                -0.322
REMARK SMILES O=c1c(O)c(-c2ccc(O)c(O)c2)oc2cc(O)ccc12
REMARK SMILES IDX 5 1 3 2 2 3 1 4 21 5 15 6 14 7 16 8 17 9 19 10 20 11 6 12
REMARK SMILES IDX 7 13 8 14 9 15 13 16 11 17 10 18 12 20 4 22 18 24
REMARK H PARENT 10 19 12 21 4 23 18 25
REMARK Flexibility Score: inf
ROOT
ATOM      1  C   UNL     1      79.907 -26.429  85.540  1.00  0.00     0.180 A 
ATOM      2  C   UNL     1      78.595 -26.194  86.000  1.00  0.00     0.208 A 
ATOM      3  C   UNL     1      77.515 -26.634  85.219  1.00  0.00     0.235 A 
ATOM      4  O   UNL     1      76.332 -26.425  85.603  1.00  0.00    -0.285 OA
ATOM      5  C   UNL     1      77.766 -27.312  84.015  1.00  0.00     0.069 A 
ATOM      6  C   UNL     1      79.108 -27.529  83.636  1.00  0.00     0.142 A 
ATOM      7  O   UNL     1      80.102 -27.089  84.400  1.00  0.00    -0.452 OA
ATOM      8  C   UNL     1      79.399 -28.210  82.449  1.00  0.00     0.094 A 
ATOM      9  C   UNL     1      78.364 -28.676  81.631  1.00  0.00     0.119 A 
ATOM     10  C   UNL     1      77.029 -28.461  82.003  1.00  0.00     0.047 A 
ATOM     11  C   UNL     1      76.729 -27.783  83.188  1.00  0.00     0.020 A 
ENDROOT
BRANCH   1  12
ATOM     12  C   UNL     1      81.098 -25.979  86.297  1.00  0.00     0.025 A 
ATOM     13  C   UNL     1      81.714 -26.805  87.252  1.00  0.00     0.016 A 
ATOM     14  C   UNL     1      82.822 -26.350  87.972  1.00  0.00     0.051 A 
ATOM     15  C   UNL     1      83.324 -25.060  87.756  1.00  0.00     0.157 A 
ATOM     16  C   UNL     1      81.592 -24.679  86.099  1.00  0.00     0.062 A 
ATOM     17  C   UNL     1      82.703 -24.220  86.816  1.00  0.00     0.158 A 
BRANCH  15  18
ATOM     18  O   UNL     1      84.431 -24.610  88.472  1.00  0.00    -0.504 OA
ATOM     19  H   UNL     1      84.737 -25.070  89.322  1.00  0.00     0.293 HD
ENDBRANCH  15  18
BRANCH  17  20
ATOM     20  O   UNL     1      83.172 -22.928  86.583  1.00  0.00    -0.504 OA
ATOM     21  H   UNL     1      83.963 -22.544  87.087  1.00  0.00     0.293 HD
ENDBRANCH  17  20
ENDBRANCH   1  12
BRANCH   2  22
ATOM     22  O   UNL     1      78.378 -25.560  87.226  1.00  0.00    -0.502 OA
ATOM     23  H   UNL     1      77.889 -26.012  87.990  1.00  0.00     0.293 HD
ENDBRANCH   2  22
BRANCH   9  24
ATOM     24  O   UNL     1      78.671 -29.352  80.452  1.00  0.00    -0.508 OA
ATOM     25  H   UNL     1      79.185 -30.224  80.460  1.00  0.00     0.293 HD
ENDBRANCH   9  24
TORSDOF 5
ENDMDL
MODEL 6
REMARK VINA RESULT:    -7.300      2.820      6.186
REMARK INTER + INTRA:          -8.901
REMARK INTER:                  -8.585
REMARK INTRA:                  -0.316
REMARK UNBOUND:                -0.322
REMARK SMILES O=c1c(O)c(-c2ccc(O)c(O)c2)oc2cc(O)ccc12
REMARK SMILES IDX 5 1 3 2 2 3 1 4 21 5 15 6 14 7 16 8 17 9 19 10 20 11 6 12
REMARK SMILES IDX 7 13 8 14 9 15 13 16 11 17 10 18 12 20 4 22 18 24
REMARK H PARENT 10 19 12 21 4 23 18 25
REMARK Flexibility Score: inf
ROOT
ATOM      1  C   UNL     1      79.753 -25.677  85.372  1.00  0.00     0.180 A 
ATOM      2  C   UNL     1      79.736 -26.379  84.149  1.00  0.00     0.208 A 
ATOM      3  C   UNL     1      78.498 -26.737  83.592  1.00  0.00     0.235 A 
ATOM      4  O   UNL     1      78.457 -27.374  82.504  1.00  0.00    -0.285 OA
ATOM      5  C   UNL     1      77.314 -26.373  84.252  1.00  0.00     0.069 A 
ATOM      6  C   UNL     1      77.415 -25.651  85.461  1.00  0.00     0.142 A 
ATOM      7  O   UNL     1      78.607 -25.338  85.958  1.00  0.00    -0.452 OA
ATOM      8  C   UNL     1      76.258 -25.262  86.143  1.00  0.00     0.094 A 
ATOM      9  C   UNL     1      74.996 -25.587  85.634  1.00  0.00     0.119 A 
ATOM     10  C   UNL     1      74.890 -26.305  84.435  1.00  0.00     0.047 A 
ATOM     11  C   UNL     1      76.041 -26.697  83.745  1.00  0.00     0.020 A 
ENDROOT
BRANCH   1  12
ATOM     12  C   UNL     1      81.018 -25.280  86.033  1.00  0.00     0.025 A 
ATOM     13  C   UNL     1      81.620 -24.036  85.777  1.00  0.00     0.016 A 
ATOM     14  C   UNL     1      82.826 -23.694  86.394  1.00  0.00     0.051 A 
ATOM     15  C   UNL     1      83.454 -24.592  87.266  1.00  0.00     0.157 A 
ATOM     16  C   UNL     1      81.662 -26.185  86.893  1.00  0.00     0.062 A 
ATOM     17  C   UNL     1      82.869 -25.846  87.514  1.00  0.00     0.158 A 
BRANCH  15  18
ATOM     18  O   UNL     1      84.654 -24.246  87.883  1.00  0.00    -0.504 OA
ATOM     19  H   UNL     1      85.319 -23.622  87.439  1.00  0.00     0.293 HD
ENDBRANCH  15  18
BRANCH  17  20
ATOM     20  O   UNL     1      83.472 -26.765  88.371  1.00  0.00    -0.504 OA
ATOM     21  H   UNL     1      84.360 -26.578  88.822  1.00  0.00     0.293 HD
ENDBRANCH  17  20
ENDBRANCH   1  12
BRANCH   2  22
ATOM     22  O   UNL     1      80.930 -26.683  83.491  1.00  0.00    -0.502 OA
ATOM     23  H   UNL     1      81.624 -27.305  83.888  1.00  0.00     0.293 HD
ENDBRANCH   2  22
BRANCH   9  24
ATOM     24  O   UNL     1      73.853 -25.191  86.326  1.00  0.00    -0.508 OA
ATOM     25  H   UNL     1      72.984 -24.993  85.844  1.00  0.00     0.293 HD
ENDBRANCH   9  24
TORSDOF 5
ENDMDL
MODEL 7
REMARK VINA RESULT:    -7.252      2.679      6.963
REMARK INTER + INTRA:          -8.846
REMARK INTER:                  -8.702
REMARK INTRA:                  -0.144
REMARK UNBOUND:                -0.322
REMARK SMILES O=c1c(O)c(-c2ccc(O)c(O)c2)oc2cc(O)ccc12
REMARK SMILES IDX 5 1 3 2 2 3 1 4 21 5 15 6 14 7 16 8 17 9 19 10 20 11 6 12
REMARK SMILES IDX 7 13 8 14 9 15 13 16 11 17 10 18 12 20 4 22 18 24
REMARK H PARENT 10 19 12 21 4 23 18 25
REMARK Flexibility Score: inf
ROOT
ATOM      1  C   UNL     1      82.338 -25.462  86.909  1.00  0.00     0.180 A 
ATOM      2  C   UNL     1      82.413 -26.456  85.911  1.00  0.00     0.208 A 
ATOM      3  C   UNL     1      81.243 -26.810  85.220  1.00  0.00     0.235 A 
ATOM      4  O   UNL     1      81.281 -27.704  84.331  1.00  0.00    -0.285 OA
ATOM      5  C   UNL     1      80.038 -26.156  85.524  1.00  0.00     0.069 A 
ATOM      6  C   UNL     1      80.052 -25.155  86.519  1.00  0.00     0.142 A 
ATOM      7  O   UNL     1      81.179 -24.856  87.156  1.00  0.00    -0.452 OA
ATOM      8  C   UNL     1      78.874 -24.473  86.843  1.00  0.00     0.094 A 
ATOM      9  C   UNL     1      77.678 -24.779  86.185  1.00  0.00     0.119 A 
ATOM     10  C   UNL     1      77.660 -25.774  85.197  1.00  0.00     0.047 A 
ATOM     11  C   UNL     1      78.832 -26.459  84.865  1.00  0.00     0.020 A 
ENDROOT
BRANCH   1  12
ATOM     12  C   UNL     1      83.523 -25.047  87.695  1.00  0.00     0.025 A 
ATOM     13  C   UNL     1      83.578 -25.226  89.088  1.00  0.00     0.016 A 
ATOM     14  C   UNL     1      84.697 -24.804  89.811  1.00  0.00     0.051 A 
ATOM     15  C   UNL     1      85.770 -24.187  89.157  1.00  0.00     0.157 A 
ATOM     16  C   UNL     1      84.593 -24.409  87.046  1.00  0.00     0.062 A 
ATOM     17  C   UNL     1      85.717 -23.986  87.767  1.00  0.00     0.158 A 
BRANCH  15  18
ATOM     18  O   UNL     1      86.886 -23.770  89.880  1.00  0.00    -0.504 OA
ATOM     19  H   UNL     1      87.007 -22.803  90.159  1.00  0.00     0.293 HD
ENDBRANCH  15  18
BRANCH  17  20
ATOM     20  O   UNL     1      86.765 -23.369  87.086  1.00  0.00    -0.504 OA
ATOM     21  H   UNL     1      86.907 -23.495  86.091  1.00  0.00     0.293 HD
ENDBRANCH  17  20
ENDBRANCH   1  12
BRANCH   2  22
ATOM     22  O   UNL     1      83.635 -27.054  85.598  1.00  0.00    -0.502 OA
ATOM     23  H   UNL     1      83.823 -28.033  85.783  1.00  0.00     0.293 HD
ENDBRANCH   2  22
BRANCH   9  24
ATOM     24  O   UNL     1      76.514 -24.091  86.519  1.00  0.00    -0.508 OA
ATOM     25  H   UNL     1      75.597 -24.473  86.320  1.00  0.00     0.293 HD
ENDBRANCH   9  24
TORSDOF 5
ENDMDL
MODEL 8
REMARK VINA RESULT:    -7.215      2.548      7.507
REMARK INTER + INTRA:          -8.802
REMARK INTER:                  -8.646
REMARK INTRA:                  -0.155
REMARK UNBOUND:                -0.322
REMARK SMILES O=c1c(O)c(-c2ccc(O)c(O)c2)oc2cc(O)ccc12
REMARK SMILES IDX 5 1 3 2 2 3 1 4 21 5 15 6 14 7 16 8 17 9 19 10 20 11 6 12
REMARK SMILES IDX 7 13 8 14 9 15 13 16 11 17 10 18 12 20 4 22 18 24
REMARK H PARENT 10 19 12 21 4 23 18 25
REMARK Flexibility Score: inf
ROOT
ATOM      1  C   UNL     1      82.215 -25.087  86.933  1.00  0.00     0.180 A 
ATOM      2  C   UNL     1      80.999 -24.433  87.222  1.00  0.00     0.208 A 
ATOM      3  C   UNL     1      79.835 -24.840  86.552  1.00  0.00     0.235 A 
ATOM      4  O   UNL     1      78.738 -24.263  86.786  1.00  0.00    -0.285 OA
ATOM      5  C   UNL     1      79.904 -25.896  85.629  1.00  0.00     0.069 A 
ATOM      6  C   UNL     1      81.154 -26.515  85.412  1.00  0.00     0.142 A 
ATOM      7  O   UNL     1      82.234 -26.094  86.062  1.00  0.00    -0.452 OA
ATOM      8  C   UNL     1      81.261 -27.577  84.508  1.00  0.00     0.094 A 
ATOM      9  C   UNL     1      80.135 -28.030  83.814  1.00  0.00     0.119 A 
ATOM     10  C   UNL     1      78.892 -27.416  84.025  1.00  0.00     0.047 A 
ATOM     11  C   UNL     1      78.774 -26.355  84.927  1.00  0.00     0.020 A 
ENDROOT
BRANCH   1  12
ATOM     12  C   UNL     1      83.489 -24.704  87.583  1.00  0.00     0.025 A 
ATOM     13  C   UNL     1      84.565 -24.190  86.840  1.00  0.00     0.016 A 
ATOM     14  C   UNL     1      85.766 -23.858  87.473  1.00  0.00     0.051 A 
ATOM     15  C   UNL     1      85.914 -24.045  88.853  1.00  0.00     0.157 A 
ATOM     16  C   UNL     1      83.649 -24.910  88.964  1.00  0.00     0.062 A 
ATOM     17  C   UNL     1      84.849 -24.577  89.601  1.00  0.00     0.158 A 
BRANCH  15  18
ATOM     18  O   UNL     1      87.111 -23.711  89.481  1.00  0.00    -0.504 OA
ATOM     19  H   UNL     1      87.262 -22.792  89.882  1.00  0.00     0.293 HD
ENDBRANCH  15  18
BRANCH  17  20
ATOM     20  O   UNL     1      84.966 -24.782  90.976  1.00  0.00    -0.504 OA
ATOM     21  H   UNL     1      85.174 -25.694  91.366  1.00  0.00     0.293 HD
ENDBRANCH  17  20
ENDBRANCH   1  12
BRANCH   2  22
ATOM     22  O   UNL     1      80.953 -23.419  88.182  1.00  0.00    -0.502 OA
ATOM     23  H   UNL     1      80.445 -23.520  89.052  1.00  0.00     0.293 HD
ENDBRANCH   2  22
BRANCH   9  24
ATOM     24  O   UNL     1      80.259 -29.088  82.917  1.00  0.00    -0.508 OA
ATOM     25  H   UNL     1      81.038 -29.734  82.964  1.00  0.00     0.293 HD
ENDBRANCH   9  24
TORSDOF 5
ENDMDL
MODEL 9
REMARK VINA RESULT:    -6.771      3.385      3.990
REMARK INTER + INTRA:          -8.280
REMARK INTER:                  -7.974
REMARK INTRA:                  -0.306
REMARK UNBOUND:                -0.322
REMARK SMILES O=c1c(O)c(-c2ccc(O)c(O)c2)oc2cc(O)ccc12
REMARK SMILES IDX 5 1 3 2 2 3 1 4 21 5 15 6 14 7 16 8 17 9 19 10 20 11 6 12
REMARK SMILES IDX 7 13 8 14 9 15 13 16 11 17 10 18 12 20 4 22 18 24
REMARK H PARENT 10 19 12 21 4 23 18 25
REMARK Flexibility Score: inf
ROOT
ATOM      1  C   UNL     1      78.145 -25.363  86.116  1.00  0.00     0.180 A 
ATOM      2  C   UNL     1      79.109 -26.316  85.724  1.00  0.00     0.208 A 
ATOM      3  C   UNL     1      80.463 -26.055  85.988  1.00  0.00     0.235 A 
ATOM      4  O   UNL     1      81.345 -26.886  85.637  1.00  0.00    -0.285 OA
ATOM      5  C   UNL     1      80.821 -24.869  86.648  1.00  0.00     0.069 A 
ATOM      6  C   UNL     1      79.795 -23.978  87.029  1.00  0.00     0.142 A 
ATOM      7  O   UNL     1      78.525 -24.258  86.753  1.00  0.00    -0.452 OA
ATOM      8  C   UNL     1      80.111 -22.791  87.698  1.00  0.00     0.094 A 
ATOM      9  C   UNL     1      81.443 -22.479  87.991  1.00  0.00     0.119 A 
ATOM     10  C   UNL     1      82.465 -23.360  87.614  1.00  0.00     0.047 A 
ATOM     11  C   UNL     1      82.159 -24.550  86.946  1.00  0.00     0.020 A 
ENDROOT
BRANCH   1  12
ATOM     12  C   UNL     1      76.699 -25.556  85.857  1.00  0.00     0.025 A 
ATOM     13  C   UNL     1      75.851 -26.122  86.824  1.00  0.00     0.016 A 
ATOM     14  C   UNL     1      74.495 -26.316  86.548  1.00  0.00     0.051 A 
ATOM     15  C   UNL     1      73.969 -25.959  85.300  1.00  0.00     0.157 A 
ATOM     16  C   UNL     1      76.172 -25.219  84.599  1.00  0.00     0.062 A 
ATOM     17  C   UNL     1      74.814 -25.410  84.320  1.00  0.00     0.158 A 
BRANCH  15  18
ATOM     18  O   UNL     1      72.616 -26.151  85.029  1.00  0.00    -0.504 OA
ATOM     19  H   UNL     1      72.008 -25.377  84.786  1.00  0.00     0.293 HD
ENDBRANCH  15  18
BRANCH  17  20
ATOM     20  O   UNL     1      74.324 -25.052  83.064  1.00  0.00    -0.504 OA
ATOM     21  H   UNL     1      74.407 -25.663  82.261  1.00  0.00     0.293 HD
ENDBRANCH  17  20
ENDBRANCH   1  12
BRANCH   2  22
ATOM     22  O   UNL     1      78.717 -27.509  85.113  1.00  0.00    -0.502 OA
ATOM     23  H   UNL     1      77.812 -27.619  84.672  1.00  0.00     0.293 HD
ENDBRANCH   2  22
BRANCH   9  24
ATOM     24  O   UNL     1      81.740 -21.293  88.658  1.00  0.00    -0.508 OA
ATOM     25  H   UNL     1      82.696 -20.985  88.792  1.00  0.00     0.293 HD
ENDBRANCH   9  24
TORSDOF 5
ENDMDL
