MODEL 1
REMARK VINA RESULT:    -5.635      0.000      0.000
REMARK INTER + INTRA:          -5.997
REMARK INTER:                  -5.964
REMARK INTRA:                  -0.033
REMARK UNBOUND:                -0.033
REMARK SMILES COc1ccc2ccc(=O)oc2c1
REMARK SMILES IDX 3 1 13 2 12 3 6 4 5 5 4 6 7 7 8 8 9 9 10 10 11 11 2 12 1 13
REMARK H PARENT
REMARK Flexibility Score: inf
ROOT
ATOM      1  C   UNL     1     -29.372  -4.442  -0.840  1.00  0.00     0.122 A 
ATOM      2  C   UNL     1     -29.763  -5.213   0.274  1.00  0.00     0.094 A 
ATOM      3  C   UNL     1     -29.403  -6.563   0.358  1.00  0.00     0.142 A 
ATOM      4  C   UNL     1     -28.646  -7.155  -0.676  1.00  0.00     0.018 A 
ATOM      5  C   UNL     1     -28.257  -6.389  -1.781  1.00  0.00     0.016 A 
ATOM      6  C   UNL     1     -28.621  -5.041  -1.860  1.00  0.00     0.047 A 
ATOM      7  C   UNL     1     -28.302  -8.505  -0.562  1.00  0.00     0.019 A 
ATOM      8  C   UNL     1     -28.713  -9.224   0.560  1.00  0.00     0.094 A 
ATOM      9  C   UNL     1     -29.462  -8.571   1.546  1.00  0.00     0.336 A 
ATOM     10  O   UNL     1     -29.843  -9.203   2.566  1.00  0.00    -0.246 OA
ATOM     11  O   UNL     1     -29.776  -7.285   1.412  1.00  0.00    -0.423 OA
ENDROOT
BRANCH   1  12
ATOM     12  O   UNL     1     -29.708  -3.087  -0.970  1.00  0.00    -0.497 OA
ATOM     13  C   UNL     1     -30.828  -2.603  -1.706  1.00  0.00     0.278 C 
ENDBRANCH   1  12
TORSDOF 1
ENDMDL
MODEL 2
REMARK VINA RESULT:    -5.601      1.791      5.346
REMARK INTER + INTRA:          -5.962
REMARK INTER:                  -5.931
REMARK INTRA:                  -0.031
REMARK UNBOUND:                -0.033
REMARK SMILES COc1ccc2ccc(=O)oc2c1
REMARK SMILES IDX 3 1 13 2 12 3 6 4 5 5 4 6 7 7 8 8 9 9 10 10 11 11 2 12 1 13
REMARK H PARENT
REMARK Flexibility Score: inf
ROOT
ATOM      1  C   UNL     1     -28.658  -9.259   0.609  1.00  0.00     0.122 A 
ATOM      2  C   UNL     1     -28.196  -8.615  -0.556  1.00  0.00     0.094 A 
ATOM      3  C   UNL     1     -28.496  -7.267  -0.782  1.00  0.00     0.142 A 
ATOM      4  C   UNL     1     -29.265  -6.549   0.161  1.00  0.00     0.018 A 
ATOM      5  C   UNL     1     -29.723  -7.190   1.318  1.00  0.00     0.016 A 
ATOM      6  C   UNL     1     -29.420  -8.537   1.538  1.00  0.00     0.047 A 
ATOM      7  C   UNL     1     -29.546  -5.205  -0.094  1.00  0.00     0.019 A 
ATOM      8  C   UNL     1     -29.066  -4.613  -1.262  1.00  0.00     0.094 A 
ATOM      9  C   UNL     1     -28.310  -5.386  -2.151  1.00  0.00     0.336 A 
ATOM     10  O   UNL     1     -27.868  -4.871  -3.211  1.00  0.00    -0.246 OA
ATOM     11  O   UNL     1     -28.057  -6.665  -1.884  1.00  0.00    -0.423 OA
ENDROOT
BRANCH   1  12
ATOM     12  O   UNL     1     -28.384 -10.608   0.881  1.00  0.00    -0.497 OA
ATOM     13  C   UNL     1     -27.481 -11.058   1.886  1.00  0.00     0.278 C 
ENDBRANCH   1  12
TORSDOF 1
ENDMDL
MODEL 3
REMARK VINA RESULT:    -5.584      1.036      4.675
REMARK INTER + INTRA:          -5.944
REMARK INTER:                  -5.908
REMARK INTRA:                  -0.035
REMARK UNBOUND:                -0.033
REMARK SMILES COc1ccc2ccc(=O)oc2c1
REMARK SMILES IDX 3 1 13 2 12 3 6 4 5 5 4 6 7 7 8 8 9 9 10 10 11 11 2 12 1 13
REMARK H PARENT
REMARK Flexibility Score: inf
ROOT
ATOM      1  C   UNL     1     -29.371  -8.553   1.208  1.00  0.00     0.122 A 
ATOM      2  C   UNL     1     -29.732  -7.191   1.227  1.00  0.00     0.094 A 
ATOM      3  C   UNL     1     -29.340  -6.343   0.186  1.00  0.00     0.142 A 
ATOM      4  C   UNL     1     -28.578  -6.854  -0.888  1.00  0.00     0.018 A 
ATOM      5  C   UNL     1     -28.219  -8.207  -0.906  1.00  0.00     0.016 A 
ATOM      6  C   UNL     1     -28.614  -9.049   0.137  1.00  0.00     0.047 A 
ATOM      7  C   UNL     1     -28.201  -5.982  -1.913  1.00  0.00     0.019 A 
ATOM      8  C   UNL     1     -28.584  -4.642  -1.848  1.00  0.00     0.094 A 
ATOM      9  C   UNL     1     -29.339  -4.206  -0.753  1.00  0.00     0.336 A 
ATOM     10  O   UNL     1     -29.695  -3.001  -0.675  1.00  0.00    -0.246 OA
ATOM     11  O   UNL     1     -29.684  -5.058   0.209  1.00  0.00    -0.423 OA
ENDROOT
BRANCH   1  12
ATOM     12  O   UNL     1     -29.740  -9.443   2.228  1.00  0.00    -0.497 OA
ATOM     13  C   UNL     1     -31.066  -9.586   2.729  1.00  0.00     0.278 C 
ENDBRANCH   1  12
TORSDOF 1
ENDMDL
MODEL 4
REMARK VINA RESULT:    -5.516      9.147     11.051
REMARK INTER + INTRA:          -5.872
REMARK INTER:                  -5.834
REMARK INTRA:                  -0.037
REMARK UNBOUND:                -0.033
REMARK SMILES COc1ccc2ccc(=O)oc2c1
REMARK SMILES IDX 3 1 13 2 12 3 6 4 5 5 4 6 7 7 8 8 9 9 10 10 11 11 2 12 1 13
REMARK H PARENT
REMARK Flexibility Score: inf
ROOT
ATOM      1  C   UNL     1     -35.182 -15.376   4.026  1.00  0.00     0.122 A 
ATOM      2  C   UNL     1     -34.100 -14.658   3.477  1.00  0.00     0.094 A 
ATOM      3  C   UNL     1     -32.806 -14.841   3.976  1.00  0.00     0.142 A 
ATOM      4  C   UNL     1     -32.582 -15.749   5.035  1.00  0.00     0.018 A 
ATOM      5  C   UNL     1     -33.657 -16.462   5.580  1.00  0.00     0.016 A 
ATOM      6  C   UNL     1     -34.947 -16.274   5.077  1.00  0.00     0.047 A 
ATOM      7  C   UNL     1     -31.278 -15.909   5.511  1.00  0.00     0.019 A 
ATOM      8  C   UNL     1     -30.243 -15.175   4.933  1.00  0.00     0.094 A 
ATOM      9  C   UNL     1     -30.539 -14.294   3.887  1.00  0.00     0.336 A 
ATOM     10  O   UNL     1     -29.619 -13.622   3.352  1.00  0.00    -0.246 OA
ATOM     11  O   UNL     1     -31.790 -14.160   3.453  1.00  0.00    -0.423 OA
ENDROOT
BRANCH   1  12
ATOM     12  O   UNL     1     -36.496 -15.228   3.560  1.00  0.00    -0.497 OA
ATOM     13  C   UNL     1     -37.041 -14.008   3.066  1.00  0.00     0.278 C 
ENDBRANCH   1  12
TORSDOF 1
ENDMDL
MODEL 5
REMARK VINA RESULT:    -5.505      9.886     11.715
REMARK INTER + INTRA:          -5.860
REMARK INTER:                  -5.827
REMARK INTRA:                  -0.034
REMARK UNBOUND:                -0.033
REMARK SMILES COc1ccc2ccc(=O)oc2c1
REMARK SMILES IDX 3 1 13 2 12 3 6 4 5 5 4 6 7 7 8 8 9 9 10 10 11 11 2 12 1 13
REMARK H PARENT
REMARK Flexibility Score: inf
ROOT
ATOM      1  C   UNL     1     -35.110 -16.184   4.978  1.00  0.00     0.122 A 
ATOM      2  C   UNL     1     -33.878 -16.447   5.610  1.00  0.00     0.094 A 
ATOM      3  C   UNL     1     -32.713 -15.803   5.178  1.00  0.00     0.142 A 
ATOM      4  C   UNL     1     -32.771 -14.887   4.105  1.00  0.00     0.018 A 
ATOM      5  C   UNL     1     -33.996 -14.626   3.478  1.00  0.00     0.016 A 
ATOM      6  C   UNL     1     -35.155 -15.273   3.914  1.00  0.00     0.047 A 
ATOM      7  C   UNL     1     -31.590 -14.260   3.698  1.00  0.00     0.019 A 
ATOM      8  C   UNL     1     -30.397 -14.555   4.356  1.00  0.00     0.094 A 
ATOM      9  C   UNL     1     -30.414 -15.474   5.412  1.00  0.00     0.336 A 
ATOM     10  O   UNL     1     -29.347 -15.753   6.018  1.00  0.00    -0.246 OA
ATOM     11  O   UNL     1     -31.553 -16.056   5.779  1.00  0.00    -0.423 OA
ENDROOT
BRANCH   1  12
ATOM     12  O   UNL     1     -36.304 -16.803   5.374  1.00  0.00    -0.497 OA
ATOM     13  C   UNL     1     -37.489 -16.103   5.743  1.00  0.00     0.278 C 
ENDBRANCH   1  12
TORSDOF 1
ENDMDL
MODEL 6
REMARK VINA RESULT:    -5.479     10.033     11.640
REMARK INTER + INTRA:          -5.833
REMARK INTER:                  -5.793
REMARK INTRA:                  -0.040
REMARK UNBOUND:                -0.033
REMARK SMILES COc1ccc2ccc(=O)oc2c1
REMARK SMILES IDX 3 1 13 2 12 3 6 4 5 5 4 6 7 7 8 8 9 9 10 10 11 11 2 12 1 13
REMARK H PARENT
REMARK Flexibility Score: inf
ROOT
ATOM      1  C   UNL     1     -31.145 -15.518   5.351  1.00  0.00     0.122 A 
ATOM      2  C   UNL     1     -32.342 -16.174   5.702  1.00  0.00     0.094 A 
ATOM      3  C   UNL     1     -33.536 -15.863   5.042  1.00  0.00     0.142 A 
ATOM      4  C   UNL     1     -33.543 -14.888   4.022  1.00  0.00     0.018 A 
ATOM      5  C   UNL     1     -32.354 -14.236   3.673  1.00  0.00     0.016 A 
ATOM      6  C   UNL     1     -31.165 -14.551   4.336  1.00  0.00     0.047 A 
ATOM      7  C   UNL     1     -34.752 -14.601   3.382  1.00  0.00     0.019 A 
ATOM      8  C   UNL     1     -35.908 -15.278   3.766  1.00  0.00     0.094 A 
ATOM      9  C   UNL     1     -35.827 -16.233   4.786  1.00  0.00     0.336 A 
ATOM     10  O   UNL     1     -36.859 -16.855   5.147  1.00  0.00    -0.246 OA
ATOM     11  O   UNL     1     -34.663 -16.487   5.379  1.00  0.00    -0.423 OA
ENDROOT
BRANCH   1  12
ATOM     12  O   UNL     1     -29.924 -15.794   5.982  1.00  0.00    -0.497 OA
ATOM     13  C   UNL     1     -28.759 -14.981   5.871  1.00  0.00     0.278 C 
ENDBRANCH   1  12
TORSDOF 1
ENDMDL
MODEL 7
REMARK VINA RESULT:    -5.464      2.026      2.652
REMARK INTER + INTRA:          -5.816
REMARK INTER:                  -5.779
REMARK INTRA:                  -0.037
REMARK UNBOUND:                -0.033
REMARK SMILES COc1ccc2ccc(=O)oc2c1
REMARK SMILES IDX 3 1 13 2 12 3 6 4 5 5 4 6 7 7 8 8 9 9 10 10 11 11 2 12 1 13
REMARK H PARENT
REMARK Flexibility Score: inf
ROOT
ATOM      1  C   UNL     1     -29.073  -4.965  -0.897  1.00  0.00     0.122 A 
ATOM      2  C   UNL     1     -28.199  -5.883  -1.512  1.00  0.00     0.094 A 
ATOM      3  C   UNL     1     -28.067  -7.180  -1.004  1.00  0.00     0.142 A 
ATOM      4  C   UNL     1     -28.812  -7.570   0.130  1.00  0.00     0.018 A 
ATOM      5  C   UNL     1     -29.680  -6.658   0.741  1.00  0.00     0.016 A 
ATOM      6  C   UNL     1     -29.807  -5.364   0.229  1.00  0.00     0.047 A 
ATOM      7  C   UNL     1     -28.658  -8.873   0.613  1.00  0.00     0.019 A 
ATOM      8  C   UNL     1     -27.780  -9.743  -0.032  1.00  0.00     0.094 A 
ATOM      9  C   UNL     1     -27.074  -9.287  -1.151  1.00  0.00     0.336 A 
ATOM     10  O   UNL     1     -26.277 -10.057  -1.747  1.00  0.00    -0.246 OA
ATOM     11  O   UNL     1     -27.240  -8.042  -1.590  1.00  0.00    -0.423 OA
ENDROOT
BRANCH   1  12
ATOM     12  O   UNL     1     -29.241  -3.655  -1.368  1.00  0.00    -0.497 OA
ATOM     13  C   UNL     1     -30.465  -2.928  -1.308  1.00  0.00     0.278 C 
ENDBRANCH   1  12
TORSDOF 1
ENDMDL
MODEL 8
REMARK VINA RESULT:    -5.419      2.092      3.087
REMARK INTER + INTRA:          -5.769
REMARK INTER:                  -5.729
REMARK INTRA:                  -0.040
REMARK UNBOUND:                -0.033
REMARK SMILES COc1ccc2ccc(=O)oc2c1
REMARK SMILES IDX 3 1 13 2 12 3 6 4 5 5 4 6 7 7 8 8 9 9 10 10 11 11 2 12 1 13
REMARK H PARENT
REMARK Flexibility Score: inf
ROOT
ATOM      1  C   UNL     1     -28.429  -7.135  -1.025  1.00  0.00     0.122 A 
ATOM      2  C   UNL     1     -28.338  -8.482  -0.621  1.00  0.00     0.094 A 
ATOM      3  C   UNL     1     -28.912  -8.896   0.586  1.00  0.00     0.142 A 
ATOM      4  C   UNL     1     -29.585  -7.960   1.402  1.00  0.00     0.018 A 
ATOM      5  C   UNL     1     -29.676  -6.622   1.000  1.00  0.00     0.016 A 
ATOM      6  C   UNL     1     -29.099  -6.216  -0.207  1.00  0.00     0.047 A 
ATOM      7  C   UNL     1     -30.149  -8.405   2.601  1.00  0.00     0.019 A 
ATOM      8  C   UNL     1     -30.031  -9.748   2.957  1.00  0.00     0.094 A 
ATOM      9  C   UNL     1     -29.350 -10.619   2.099  1.00  0.00     0.336 A 
ATOM     10  O   UNL     1     -29.233 -11.835   2.401  1.00  0.00    -0.246 OA
ATOM     11  O   UNL     1     -28.823 -10.169   0.963  1.00  0.00    -0.423 OA
ENDROOT
BRANCH   1  12
ATOM     12  O   UNL     1     -27.870  -6.672  -2.225  1.00  0.00    -0.497 OA
ATOM     13  C   UNL     1     -28.158  -5.405  -2.810  1.00  0.00     0.278 C 
ENDBRANCH   1  12
TORSDOF 1
ENDMDL
MODEL 9
REMARK VINA RESULT:    -5.378      7.780     10.202
REMARK INTER + INTRA:          -5.726
REMARK INTER:                  -5.690
REMARK INTRA:                  -0.036
REMARK UNBOUND:                -0.033
REMARK SMILES COc1ccc2ccc(=O)oc2c1
REMARK SMILES IDX 3 1 13 2 12 3 6 4 5 5 4 6 7 7 8 8 9 9 10 10 11 11 2 12 1 13
REMARK H PARENT
REMARK Flexibility Score: inf
ROOT
ATOM      1  C   UNL     1     -32.252 -13.289   2.636  1.00  0.00     0.122 A 
ATOM      2  C   UNL     1     -33.526 -13.865   2.812  1.00  0.00     0.094 A 
ATOM      3  C   UNL     1     -33.735 -14.821   3.812  1.00  0.00     0.142 A 
ATOM      4  C   UNL     1     -32.666 -15.210   4.648  1.00  0.00     0.018 A 
ATOM      5  C   UNL     1     -31.401 -14.637   4.473  1.00  0.00     0.016 A 
ATOM      6  C   UNL     1     -31.198 -13.683   3.472  1.00  0.00     0.047 A 
ATOM      7  C   UNL     1     -32.908 -16.167   5.638  1.00  0.00     0.019 A 
ATOM      8  C   UNL     1     -34.186 -16.707   5.771  1.00  0.00     0.094 A 
ATOM      9  C   UNL     1     -35.198 -16.274   4.906  1.00  0.00     0.336 A 
ATOM     10  O   UNL     1     -36.359 -16.749   5.010  1.00  0.00    -0.246 OA
ATOM     11  O   UNL     1     -34.941 -15.361   3.973  1.00  0.00    -0.423 OA
ENDROOT
BRANCH   1  12
ATOM     12  O   UNL     1     -31.992 -12.327   1.649  1.00  0.00    -0.497 OA
ATOM     13  C   UNL     1     -32.839 -11.217   1.364  1.00  0.00     0.278 C 
ENDBRANCH   1  12
TORSDOF 1
ENDMDL
