MODEL 1
REMARK VINA RESULT:    -4.286      0.000      0.000
REMARK INTER + INTRA:          -6.926
REMARK INTER:                  -6.541
REMARK INTRA:                  -0.384
REMARK UNBOUND:                -0.384
REMARK SMILES O=C([O-])CCCCCCCCC(=O)[O-]
REMARK SMILES IDX 7 1 6 2 5 3 4 4 2 5 1 6 3 7 8 8 9 9 10 10 11 11 12 12 13 13
REMARK SMILES IDX 14 14
REMARK H PARENT
REMARK Flexibility Score: inf
ROOT
ATOM      1  C   UNL     1     -14.376  -4.781 -31.938  1.00  0.00     0.000 C 
ENDROOT
BRANCH   1   2
ATOM      2  C   UNL     1     -14.363  -3.962 -33.238  1.00  0.00     0.000 C 
BRANCH   2   3
ATOM      3  C   UNL     1     -15.616  -3.081 -33.342  1.00  0.00     0.006 C 
BRANCH   3   4
ATOM      4  C   UNL     1     -15.294  -1.668 -33.846  1.00  0.00     0.053 C 
BRANCH   4   5
ATOM      5  C   UNL     1     -15.236  -0.677 -32.724  1.00  0.00     0.041 C 
ATOM      6  O   UNL     1     -14.870   0.507 -32.943  1.00  0.00    -0.550 OA
ATOM      7  O   UNL     1     -15.556  -1.070 -31.431  1.00  0.00    -0.550 OA
ENDBRANCH   4   5
ENDBRANCH   3   4
ENDBRANCH   2   3
ENDBRANCH   1   2
BRANCH   1   8
ATOM      8  C   UNL     1     -15.640  -5.644 -31.791  1.00  0.00     0.000 C 
BRANCH   8   9
ATOM      9  C   UNL     1     -15.416  -6.872 -30.891  1.00  0.00     0.000 C 
BRANCH   9  10
ATOM     10  C   UNL     1     -14.018  -6.888 -30.253  1.00  0.00     0.006 C 
BRANCH  10  11
ATOM     11  C   UNL     1     -13.619  -8.275 -29.734  1.00  0.00     0.053 C 
BRANCH  11  12
ATOM     12  C   UNL     1     -12.498  -8.162 -28.750  1.00  0.00     0.041 C 
ATOM     13  O   UNL     1     -11.477  -7.479 -29.026  1.00  0.00    -0.550 OA
ATOM     14  O   UNL     1     -12.603  -8.770 -27.504  1.00  0.00    -0.550 OA
ENDBRANCH  11  12
ENDBRANCH  10  11
ENDBRANCH   9  10
ENDBRANCH   8   9
ENDBRANCH   1   8
TORSDOF 9
ENDMDL
MODEL 2
REMARK VINA RESULT:    -4.257      1.478      2.426
REMARK INTER + INTRA:          -6.882
REMARK INTER:                  -6.306
REMARK INTRA:                  -0.576
REMARK UNBOUND:                -0.384
REMARK SMILES O=C([O-])CCCCCCCCC(=O)[O-]
REMARK SMILES IDX 7 1 6 2 5 3 4 4 2 5 1 6 3 7 8 8 9 9 10 10 11 11 12 12 13 13
REMARK SMILES IDX 14 14
REMARK H PARENT
REMARK Flexibility Score: inf
ROOT
ATOM      1  C   UNL     1     -14.627  -3.390 -33.519  1.00  0.00     0.000 C 
ENDROOT
BRANCH   1   2
ATOM      2  C   UNL     1     -14.678  -2.016 -34.205  1.00  0.00     0.000 C 
BRANCH   2   3
ATOM      3  C   UNL     1     -15.623  -1.064 -33.455  1.00  0.00     0.006 C 
BRANCH   3   4
ATOM      4  C   UNL     1     -14.902   0.194 -32.952  1.00  0.00     0.053 C 
BRANCH   4   5
ATOM      5  C   UNL     1     -14.281  -0.023 -31.605  1.00  0.00     0.041 C 
ATOM      6  O   UNL     1     -14.794  -0.839 -30.796  1.00  0.00    -0.550 OA
ATOM      7  O   UNL     1     -13.156   0.701 -31.234  1.00  0.00    -0.550 OA
ENDBRANCH   4   5
ENDBRANCH   3   4
ENDBRANCH   2   3
ENDBRANCH   1   2
BRANCH   1   8
ATOM      8  C   UNL     1     -15.932  -3.736 -32.782  1.00  0.00     0.000 C 
BRANCH   8   9
ATOM      9  C   UNL     1     -15.681  -4.400 -31.417  1.00  0.00     0.000 C 
BRANCH   9  10
ATOM     10  C   UNL     1     -14.737  -5.608 -31.514  1.00  0.00     0.006 C 
BRANCH  10  11
ATOM     11  C   UNL     1     -15.338  -6.881 -30.904  1.00  0.00     0.053 C 
BRANCH  11  12
ATOM     12  C   UNL     1     -14.270  -7.707 -30.260  1.00  0.00     0.041 C 
ATOM     13  O   UNL     1     -14.336  -8.964 -30.288  1.00  0.00    -0.550 OA
ATOM     14  O   UNL     1     -13.173  -7.088 -29.671  1.00  0.00    -0.550 OA
ENDBRANCH  11  12
ENDBRANCH  10  11
ENDBRANCH   9  10
ENDBRANCH   8   9
ENDBRANCH   1   8
TORSDOF 9
ENDMDL
MODEL 3
REMARK VINA RESULT:    -4.233      1.284      7.466
REMARK INTER + INTRA:          -6.845
REMARK INTER:                  -6.461
REMARK INTRA:                  -0.384
REMARK UNBOUND:                -0.384
REMARK SMILES O=C([O-])CCCCCCCCC(=O)[O-]
REMARK SMILES IDX 7 1 6 2 5 3 4 4 2 5 1 6 3 7 8 8 9 9 10 10 11 11 12 12 13 13
REMARK SMILES IDX 14 14
REMARK H PARENT
REMARK Flexibility Score: inf
ROOT
ATOM      1  C   UNL     1     -15.501  -6.562 -30.743  1.00  0.00     0.000 C 
ENDROOT
BRANCH   1   2
ATOM      2  C   UNL     1     -14.745  -7.893 -30.612  1.00  0.00     0.000 C 
BRANCH   2   3
ATOM      3  C   UNL     1     -13.547  -7.751 -29.661  1.00  0.00     0.006 C 
BRANCH   3   4
ATOM      4  C   UNL     1     -13.057  -9.106 -29.135  1.00  0.00     0.053 C 
BRANCH   4   5
ATOM      5  C   UNL     1     -12.309  -8.965 -27.845  1.00  0.00     0.041 C 
ATOM      6  O   UNL     1     -11.072  -8.737 -27.852  1.00  0.00    -0.550 OA
ATOM      7  O   UNL     1     -12.974  -9.116 -26.635  1.00  0.00    -0.550 OA
ENDBRANCH   4   5
ENDBRANCH   3   4
ENDBRANCH   2   3
ENDBRANCH   1   2
BRANCH   1   8
ATOM      8  C   UNL     1     -14.565  -5.342 -30.726  1.00  0.00     0.000 C 
BRANCH   8   9
ATOM      9  C   UNL     1     -14.229  -4.835 -32.140  1.00  0.00     0.000 C 
BRANCH   9  10
ATOM     10  C   UNL     1     -15.424  -4.147 -32.819  1.00  0.00     0.006 C 
BRANCH  10  11
ATOM     11  C   UNL     1     -15.715  -2.757 -32.241  1.00  0.00     0.053 C 
BRANCH  11  12
ATOM     12  C   UNL     1     -15.182  -1.692 -33.146  1.00  0.00     0.041 C 
ATOM     13  O   UNL     1     -15.035  -0.515 -32.724  1.00  0.00    -0.550 OA
ATOM     14  O   UNL     1     -14.799  -2.010 -34.444  1.00  0.00    -0.550 OA
ENDBRANCH  11  12
ENDBRANCH  10  11
ENDBRANCH   9  10
ENDBRANCH   8   9
ENDBRANCH   1   8
TORSDOF 9
ENDMDL
MODEL 4
REMARK VINA RESULT:    -4.192     24.352     25.336
REMARK INTER + INTRA:          -6.782
REMARK INTER:                  -5.893
REMARK INTRA:                  -0.889
REMARK UNBOUND:                -0.384
REMARK SMILES O=C([O-])CCCCCCCCC(=O)[O-]
REMARK SMILES IDX 7 1 6 2 5 3 4 4 2 5 1 6 3 7 8 8 9 9 10 10 11 11 12 12 13 13
REMARK SMILES IDX 14 14
REMARK H PARENT
REMARK Flexibility Score: inf
ROOT
ATOM      1  C   UNL     1       1.882  10.460 -18.131  1.00  0.00     0.000 C 
ENDROOT
BRANCH   1   2
ATOM      2  C   UNL     1       3.368  10.144 -17.904  1.00  0.00     0.000 C 
BRANCH   2   3
ATOM      3  C   UNL     1       3.935   9.314 -19.065  1.00  0.00     0.006 C 
BRANCH   3   4
ATOM      4  C   UNL     1       2.878   9.011 -20.135  1.00  0.00     0.053 C 
BRANCH   4   5
ATOM      5  C   UNL     1       3.499   8.515 -21.405  1.00  0.00     0.041 C 
ATOM      6  O   UNL     1       3.565   9.267 -22.413  1.00  0.00    -0.550 OA
ATOM      7  O   UNL     1       3.976   7.214 -21.485  1.00  0.00    -0.550 OA
ENDBRANCH   4   5
ENDBRANCH   3   4
ENDBRANCH   2   3
ENDBRANCH   1   2
BRANCH   1   8
ATOM      8  C   UNL     1       1.116  10.694 -16.818  1.00  0.00     0.000 C 
BRANCH   8   9
ATOM      9  C   UNL     1       1.809  10.048 -15.606  1.00  0.00     0.000 C 
BRANCH   9  10
ATOM     10  C   UNL     1       1.134   8.739 -15.169  1.00  0.00     0.006 C 
BRANCH  10  11
ATOM     11  C   UNL     1       1.820   7.496 -15.751  1.00  0.00     0.053 C 
BRANCH  11  12
ATOM     12  C   UNL     1       1.080   7.006 -16.955  1.00  0.00     0.041 C 
ATOM     13  O   UNL     1      -0.142   7.274 -17.102  1.00  0.00    -0.550 OA
ATOM     14  O   UNL     1       1.751   6.295 -17.943  1.00  0.00    -0.550 OA
ENDBRANCH  11  12
ENDBRANCH  10  11
ENDBRANCH   9  10
ENDBRANCH   8   9
ENDBRANCH   1   8
TORSDOF 9
ENDMDL
MODEL 5
REMARK VINA RESULT:    -4.153     24.324     25.563
REMARK INTER + INTRA:          -6.723
REMARK INTER:                  -5.869
REMARK INTRA:                  -0.853
REMARK UNBOUND:                -0.384
REMARK SMILES O=C([O-])CCCCCCCCC(=O)[O-]
REMARK SMILES IDX 7 1 6 2 5 3 4 4 2 5 1 6 3 7 8 8 9 9 10 10 11 11 12 12 13 13
REMARK SMILES IDX 14 14
REMARK H PARENT
REMARK Flexibility Score: inf
ROOT
ATOM      1  C   UNL     1       1.114  10.567 -16.832  1.00  0.00     0.000 C 
ENDROOT
BRANCH   1   2
ATOM      2  C   UNL     1       1.785   9.891 -15.626  1.00  0.00     0.000 C 
BRANCH   2   3
ATOM      3  C   UNL     1       1.073   8.578 -15.269  1.00  0.00     0.006 C 
BRANCH   3   4
ATOM      4  C   UNL     1       1.688   7.368 -15.984  1.00  0.00     0.053 C 
BRANCH   4   5
ATOM      5  C   UNL     1       0.823   6.890 -17.111  1.00  0.00     0.041 C 
ATOM      6  O   UNL     1       1.246   6.008 -17.902  1.00  0.00    -0.550 OA
ATOM      7  O   UNL     1      -0.436   7.443 -17.305  1.00  0.00    -0.550 OA
ENDBRANCH   4   5
ENDBRANCH   3   4
ENDBRANCH   2   3
ENDBRANCH   1   2
BRANCH   1   8
ATOM      8  C   UNL     1       1.916  10.396 -18.132  1.00  0.00     0.000 C 
BRANCH   8   9
ATOM      9  C   UNL     1       3.416  10.166 -17.876  1.00  0.00     0.000 C 
BRANCH   9  10
ATOM     10  C   UNL     1       4.125   9.516 -19.075  1.00  0.00     0.006 C 
BRANCH  10  11
ATOM     11  C   UNL     1       3.272   8.438 -19.755  1.00  0.00     0.053 C 
BRANCH  11  12
ATOM     12  C   UNL     1       3.777   8.167 -21.137  1.00  0.00     0.041 C 
ATOM     13  O   UNL     1       4.021   6.987 -21.503  1.00  0.00    -0.550 OA
ATOM     14  O   UNL     1       3.931   9.213 -22.039  1.00  0.00    -0.550 OA
ENDBRANCH  11  12
ENDBRANCH  10  11
ENDBRANCH   9  10
ENDBRANCH   8   9
ENDBRANCH   1   8
TORSDOF 9
ENDMDL
MODEL 6
REMARK VINA RESULT:    -4.096      1.278      1.706
REMARK INTER + INTRA:          -6.636
REMARK INTER:                  -6.376
REMARK INTRA:                  -0.259
REMARK UNBOUND:                -0.384
REMARK SMILES O=C([O-])CCCCCCCCC(=O)[O-]
REMARK SMILES IDX 7 1 6 2 5 3 4 4 2 5 1 6 3 7 8 8 9 9 10 10 11 11 12 12 13 13
REMARK SMILES IDX 14 14
REMARK H PARENT
REMARK Flexibility Score: inf
ROOT
ATOM      1  C   UNL     1     -14.860  -5.672 -31.328  1.00  0.00     0.000 C 
ENDROOT
BRANCH   1   2
ATOM      2  C   UNL     1     -15.879  -4.862 -32.143  1.00  0.00     0.000 C 
BRANCH   2   3
ATOM      3  C   UNL     1     -15.183  -3.747 -32.938  1.00  0.00     0.006 C 
BRANCH   3   4
ATOM      4  C   UNL     1     -15.418  -2.360 -32.325  1.00  0.00     0.053 C 
BRANCH   4   5
ATOM      5  C   UNL     1     -15.273  -1.271 -33.344  1.00  0.00     0.041 C 
ATOM      6  O   UNL     1     -15.073  -0.084 -32.976  1.00  0.00    -0.550 OA
ATOM      7  O   UNL     1     -15.392  -1.562 -34.696  1.00  0.00    -0.550 OA
ENDBRANCH   4   5
ENDBRANCH   3   4
ENDBRANCH   2   3
ENDBRANCH   1   2
BRANCH   1   8
ATOM      8  C   UNL     1     -15.418  -7.023 -30.851  1.00  0.00     0.000 C 
BRANCH   8   9
ATOM      9  C   UNL     1     -14.321  -7.960 -30.316  1.00  0.00     0.000 C 
BRANCH   9  10
ATOM     10  C   UNL     1     -13.211  -7.203 -29.571  1.00  0.00     0.006 C 
BRANCH  10  11
ATOM     11  C   UNL     1     -12.496  -8.073 -28.529  1.00  0.00     0.053 C 
BRANCH  11  12
ATOM     12  C   UNL     1     -11.018  -8.060 -28.763  1.00  0.00     0.041 C 
ATOM     13  O   UNL     1     -10.471  -7.067 -29.311  1.00  0.00    -0.550 OA
ATOM     14  O   UNL     1     -10.237  -9.125 -28.331  1.00  0.00    -0.550 OA
ENDBRANCH  11  12
ENDBRANCH  10  11
ENDBRANCH   9  10
ENDBRANCH   8   9
ENDBRANCH   1   8
TORSDOF 9
ENDMDL
MODEL 7
REMARK VINA RESULT:    -4.095      1.483      6.925
REMARK INTER + INTRA:          -6.634
REMARK INTER:                  -6.223
REMARK INTRA:                  -0.411
REMARK UNBOUND:                -0.384
REMARK SMILES O=C([O-])CCCCCCCCC(=O)[O-]
REMARK SMILES IDX 7 1 6 2 5 3 4 4 2 5 1 6 3 7 8 8 9 9 10 10 11 11 12 12 13 13
REMARK SMILES IDX 14 14
REMARK H PARENT
REMARK Flexibility Score: inf
ROOT
ATOM      1  C   UNL     1     -15.381  -7.302 -30.635  1.00  0.00     0.000 C 
ENDROOT
BRANCH   1   2
ATOM      2  C   UNL     1     -14.258  -8.277 -30.249  1.00  0.00     0.000 C 
BRANCH   2   3
ATOM      3  C   UNL     1     -13.158  -7.557 -29.455  1.00  0.00     0.006 C 
BRANCH   3   4
ATOM      4  C   UNL     1     -12.399  -8.508 -28.519  1.00  0.00     0.053 C 
BRANCH   4   5
ATOM      5  C   UNL     1     -10.919  -8.280 -28.577  1.00  0.00     0.041 C 
ATOM      6  O   UNL     1     -10.450  -7.343 -29.273  1.00  0.00    -0.550 OA
ATOM      7  O   UNL     1     -10.058  -9.125 -27.889  1.00  0.00    -0.550 OA
ENDBRANCH   4   5
ENDBRANCH   3   4
ENDBRANCH   2   3
ENDBRANCH   1   2
BRANCH   1   8
ATOM      8  C   UNL     1     -14.852  -6.010 -31.280  1.00  0.00     0.000 C 
BRANCH   8   9
ATOM      9  C   UNL     1     -15.975  -5.006 -31.598  1.00  0.00     0.000 C 
BRANCH   9  10
ATOM     10  C   UNL     1     -15.717  -4.227 -32.897  1.00  0.00     0.006 C 
BRANCH  10  11
ATOM     11  C   UNL     1     -14.265  -3.747 -33.022  1.00  0.00     0.053 C 
BRANCH  11  12
ATOM     12  C   UNL     1     -14.065  -2.481 -32.250  1.00  0.00     0.041 C 
ATOM     13  O   UNL     1     -14.759  -1.463 -32.509  1.00  0.00    -0.550 OA
ATOM     14  O   UNL     1     -13.146  -2.441 -31.208  1.00  0.00    -0.550 OA
ENDBRANCH  11  12
ENDBRANCH  10  11
ENDBRANCH   9  10
ENDBRANCH   8   9
ENDBRANCH   1   8
TORSDOF 9
ENDMDL
MODEL 8
REMARK VINA RESULT:    -4.085      1.641      6.727
REMARK INTER + INTRA:          -6.619
REMARK INTER:                  -6.139
REMARK INTRA:                  -0.481
REMARK UNBOUND:                -0.384
REMARK SMILES O=C([O-])CCCCCCCCC(=O)[O-]
REMARK SMILES IDX 7 1 6 2 5 3 4 4 2 5 1 6 3 7 8 8 9 9 10 10 11 11 12 12 13 13
REMARK SMILES IDX 14 14
REMARK H PARENT
REMARK Flexibility Score: inf
ROOT
ATOM      1  C   UNL     1     -15.144  -7.198 -30.711  1.00  0.00     0.000 C 
ENDROOT
BRANCH   1   2
ATOM      2  C   UNL     1     -13.730  -7.146 -30.114  1.00  0.00     0.000 C 
BRANCH   2   3
ATOM      3  C   UNL     1     -13.395  -5.730 -29.620  1.00  0.00     0.006 C 
BRANCH   3   4
ATOM      4  C   UNL     1     -12.079  -5.684 -28.832  1.00  0.00     0.053 C 
BRANCH   4   5
ATOM      5  C   UNL     1     -10.960  -6.338 -29.582  1.00  0.00     0.041 C 
ATOM      6  O   UNL     1     -10.418  -7.380 -29.129  1.00  0.00    -0.550 OA
ATOM      7  O   UNL     1     -10.493  -5.779 -30.765  1.00  0.00    -0.550 OA
ENDBRANCH   4   5
ENDBRANCH   3   4
ENDBRANCH   2   3
ENDBRANCH   1   2
BRANCH   1   8
ATOM      8  C   UNL     1     -15.814  -5.815 -30.775  1.00  0.00     0.000 C 
BRANCH   8   9
ATOM      9  C   UNL     1     -15.980  -5.304 -32.218  1.00  0.00     0.000 C 
BRANCH   9  10
ATOM     10  C   UNL     1     -15.924  -3.772 -32.310  1.00  0.00     0.006 C 
BRANCH  10  11
ATOM     11  C   UNL     1     -14.867  -3.275 -33.304  1.00  0.00     0.053 C 
BRANCH  11  12
ATOM     12  C   UNL     1     -15.169  -1.874 -33.733  1.00  0.00     0.041 C 
ATOM     13  O   UNL     1     -15.539  -1.018 -32.887  1.00  0.00    -0.550 OA
ATOM     14  O   UNL     1     -14.992  -1.499 -35.059  1.00  0.00    -0.550 OA
ENDBRANCH  11  12
ENDBRANCH  10  11
ENDBRANCH   9  10
ENDBRANCH   8   9
ENDBRANCH   1   8
TORSDOF 9
ENDMDL
MODEL 9
REMARK VINA RESULT:    -4.085      1.063      6.908
REMARK INTER + INTRA:          -6.619
REMARK INTER:                  -6.130
REMARK INTRA:                  -0.489
REMARK UNBOUND:                -0.384
REMARK SMILES O=C([O-])CCCCCCCCC(=O)[O-]
REMARK SMILES IDX 7 1 6 2 5 3 4 4 2 5 1 6 3 7 8 8 9 9 10 10 11 11 12 12 13 13
REMARK SMILES IDX 14 14
REMARK H PARENT
REMARK Flexibility Score: inf
ROOT
ATOM      1  C   UNL     1     -15.194  -5.320 -30.488  1.00  0.00     0.000 C 
ENDROOT
BRANCH   1   2
ATOM      2  C   UNL     1     -15.417  -6.798 -30.844  1.00  0.00     0.000 C 
BRANCH   2   3
ATOM      3  C   UNL     1     -14.306  -7.678 -30.253  1.00  0.00     0.006 C 
BRANCH   3   4
ATOM      4  C   UNL     1     -13.102  -6.854 -29.778  1.00  0.00     0.053 C 
BRANCH   4   5
ATOM      5  C   UNL     1     -12.360  -7.540 -28.672  1.00  0.00     0.041 C 
ATOM      6  O   UNL     1     -12.274  -7.001 -27.538  1.00  0.00    -0.550 OA
ATOM      7  O   UNL     1     -11.737  -8.760 -28.903  1.00  0.00    -0.550 OA
ENDBRANCH   4   5
ENDBRANCH   3   4
ENDBRANCH   2   3
ENDBRANCH   1   2
BRANCH   1   8
ATOM      8  C   UNL     1     -16.091  -4.370 -31.300  1.00  0.00     0.000 C 
BRANCH   8   9
ATOM      9  C   UNL     1     -15.794  -4.423 -32.809  1.00  0.00     0.000 C 
BRANCH   9  10
ATOM     10  C   UNL     1     -14.695  -3.434 -33.228  1.00  0.00     0.006 C 
BRANCH  10  11
ATOM     11  C   UNL     1     -15.257  -2.088 -33.701  1.00  0.00     0.053 C 
BRANCH  11  12
ATOM     12  C   UNL     1     -14.935  -1.011 -32.713  1.00  0.00     0.041 C 
ATOM     13  O   UNL     1     -15.257   0.183 -32.949  1.00  0.00    -0.550 OA
ATOM     14  O   UNL     1     -14.323  -1.333 -31.508  1.00  0.00    -0.550 OA
ENDBRANCH  11  12
ENDBRANCH  10  11
ENDBRANCH   9  10
ENDBRANCH   8   9
ENDBRANCH   1   8
TORSDOF 9
ENDMDL
