MODEL 1
REMARK VINA RESULT:    -4.139      0.000      0.000
REMARK INTER + INTRA:          -8.659
REMARK INTER:                  -7.043
REMARK INTRA:                  -1.616
REMARK UNBOUND:                -1.616
REMARK SMILES CCCCCCCCCCCCCC(=O)[O-]
REMARK SMILES IDX 8 1 9 2 10 3 11 4 12 5 13 6 14 7 15 8 16 9 7 10 6 11 5 12
REMARK SMILES IDX 4 13 3 14 2 15 1 16
REMARK H PARENT
REMARK Flexibility Score: inf
ROOT
ATOM      1  C   UNL     1      -8.537  -1.306   2.955  1.00  0.00     0.000 C 
ENDROOT
BRANCH   1   2
ATOM      2  C   UNL     1      -9.628  -2.341   2.633  1.00  0.00     0.000 C 
BRANCH   2   3
ATOM      3  C   UNL     1      -9.578  -3.561   3.568  1.00  0.00     0.000 C 
BRANCH   3   4
ATOM      4  C   UNL     1      -8.633  -3.361   4.766  1.00  0.00     0.000 C 
BRANCH   4   5
ATOM      5  C   UNL     1      -8.805  -4.377   5.915  1.00  0.00     0.006 C 
BRANCH   5   6
ATOM      6  C   UNL     1      -9.894  -5.434   5.676  1.00  0.00     0.053 C 
BRANCH   6   7
ATOM      7  C   UNL     1      -9.339  -6.826   5.698  1.00  0.00     0.041 C 
ATOM      8  O   UNL     1      -8.822  -7.285   6.750  1.00  0.00    -0.550 OA
ATOM      9  O   UNL     1      -9.424  -7.627   4.567  1.00  0.00    -0.550 OA
ENDBRANCH   6   7
ENDBRANCH   5   6
ENDBRANCH   4   5
ENDBRANCH   3   4
ENDBRANCH   2   3
ENDBRANCH   1   2
BRANCH   1  10
ATOM     10  C   UNL     1      -8.797   0.055   2.291  1.00  0.00     0.000 C 
BRANCH  10  11
ATOM     11  C   UNL     1     -10.285   0.421   2.356  1.00  0.00    -0.000 C 
BRANCH  11  12
ATOM     12  C   UNL     1     -10.644   1.027   3.722  1.00  0.00    -0.000 C 
BRANCH  12  13
ATOM     13  C   UNL     1     -11.518   0.094   4.575  1.00  0.00    -0.000 C 
BRANCH  13  14
ATOM     14  C   UNL     1     -12.696  -0.499   3.783  1.00  0.00    -0.000 C 
BRANCH  14  15
ATOM     15  C   UNL     1     -12.991  -1.957   4.170  1.00  0.00    -0.003 C 
ATOM     16  C   UNL     1     -12.441  -2.328   5.546  1.00  0.00     0.004 C 
ENDBRANCH  14  15
ENDBRANCH  13  14
ENDBRANCH  12  13
ENDBRANCH  11  12
ENDBRANCH  10  11
ENDBRANCH   1  10
TORSDOF 12
ENDMDL
MODEL 2
REMARK VINA RESULT:    -4.057      3.603      5.830
REMARK INTER + INTRA:          -8.519
REMARK INTER:                  -6.580
REMARK INTRA:                  -1.939
REMARK UNBOUND:                -1.616
REMARK SMILES CCCCCCCCCCCCCC(=O)[O-]
REMARK SMILES IDX 8 1 9 2 10 3 11 4 12 5 13 6 14 7 15 8 16 9 7 10 6 11 5 12
REMARK SMILES IDX 4 13 3 14 2 15 1 16
REMARK H PARENT
REMARK Flexibility Score: inf
ROOT
ATOM      1  C   UNL     1      -8.711  -3.720   5.769  1.00  0.00     0.000 C 
ENDROOT
BRANCH   1   2
ATOM      2  C   UNL     1      -8.559  -3.606   4.244  1.00  0.00     0.000 C 
BRANCH   2   3
ATOM      3  C   UNL     1      -9.218  -2.337   3.677  1.00  0.00     0.000 C 
BRANCH   3   4
ATOM      4  C   UNL     1     -10.196  -2.632   2.525  1.00  0.00     0.000 C 
BRANCH   4   5
ATOM      5  C   UNL     1     -10.963  -1.407   1.986  1.00  0.00     0.006 C 
BRANCH   5   6
ATOM      6  C   UNL     1     -10.124  -0.125   1.875  1.00  0.00     0.053 C 
BRANCH   6   7
ATOM      7  C   UNL     1     -10.761   1.026   2.592  1.00  0.00     0.041 C 
ATOM      8  O   UNL     1     -10.848   1.019   3.848  1.00  0.00    -0.550 OA
ATOM      9  O   UNL     1     -11.226   2.121   1.876  1.00  0.00    -0.550 OA
ENDBRANCH   6   7
ENDBRANCH   5   6
ENDBRANCH   4   5
ENDBRANCH   3   4
ENDBRANCH   2   3
ENDBRANCH   1   2
BRANCH   1  10
ATOM     10  C   UNL     1      -9.177  -5.115   6.216  1.00  0.00     0.000 C 
BRANCH  10  11
ATOM     11  C   UNL     1     -10.015  -5.789   5.123  1.00  0.00    -0.000 C 
BRANCH  11  12
ATOM     12  C   UNL     1     -11.517  -5.611   5.394  1.00  0.00    -0.000 C 
BRANCH  12  13
ATOM     13  C   UNL     1     -12.316  -5.285   4.122  1.00  0.00    -0.000 C 
BRANCH  13  14
ATOM     14  C   UNL     1     -13.201  -4.037   4.284  1.00  0.00    -0.000 C 
BRANCH  14  15
ATOM     15  C   UNL     1     -12.966  -3.318   5.621  1.00  0.00    -0.003 C 
ATOM     16  C   UNL     1     -12.368  -1.923   5.448  1.00  0.00     0.004 C 
ENDBRANCH  14  15
ENDBRANCH  13  14
ENDBRANCH  12  13
ENDBRANCH  11  12
ENDBRANCH  10  11
ENDBRANCH   1  10
TORSDOF 12
ENDMDL
MODEL 3
REMARK VINA RESULT:    -4.047      1.211      2.979
REMARK INTER + INTRA:          -8.503
REMARK INTER:                  -6.899
REMARK INTRA:                  -1.604
REMARK UNBOUND:                -1.616
REMARK SMILES CCCCCCCCCCCCCC(=O)[O-]
REMARK SMILES IDX 8 1 9 2 10 3 11 4 12 5 13 6 14 7 15 8 16 9 7 10 6 11 5 12
REMARK SMILES IDX 4 13 3 14 2 15 1 16
REMARK H PARENT
REMARK Flexibility Score: inf
ROOT
ATOM      1  C   UNL     1     -10.876  -3.092   2.759  1.00  0.00     0.000 C 
ENDROOT
BRANCH   1   2
ATOM      2  C   UNL     1      -9.538  -3.583   3.337  1.00  0.00     0.000 C 
BRANCH   2   3
ATOM      3  C   UNL     1      -9.214  -2.946   4.699  1.00  0.00     0.000 C 
BRANCH   3   4
ATOM      4  C   UNL     1      -8.691  -3.965   5.728  1.00  0.00     0.000 C 
BRANCH   4   5
ATOM      5  C   UNL     1      -9.620  -5.168   5.992  1.00  0.00     0.006 C 
BRANCH   5   6
ATOM      6  C   UNL     1      -9.082  -6.515   5.486  1.00  0.00     0.053 C 
BRANCH   6   7
ATOM      7  C   UNL     1     -10.182  -7.500   5.233  1.00  0.00     0.041 C 
ATOM      8  O   UNL     1     -11.353  -7.097   5.007  1.00  0.00    -0.550 OA
ATOM      9  O   UNL     1      -9.907  -8.861   5.214  1.00  0.00    -0.550 OA
ENDBRANCH   6   7
ENDBRANCH   5   6
ENDBRANCH   4   5
ENDBRANCH   3   4
ENDBRANCH   2   3
ENDBRANCH   1   2
BRANCH   1  10
ATOM     10  C   UNL     1     -11.972  -2.963   3.829  1.00  0.00     0.000 C 
BRANCH  10  11
ATOM     11  C   UNL     1     -12.493  -1.523   3.909  1.00  0.00    -0.000 C 
BRANCH  11  12
ATOM     12  C   UNL     1     -12.085  -0.721   2.663  1.00  0.00    -0.000 C 
BRANCH  12  13
ATOM     13  C   UNL     1     -11.405   0.613   3.012  1.00  0.00    -0.000 C 
BRANCH  13  14
ATOM     14  C   UNL     1      -9.885   0.471   3.199  1.00  0.00    -0.000 C 
BRANCH  14  15
ATOM     15  C   UNL     1      -9.161   0.116   1.891  1.00  0.00    -0.003 C 
ATOM     16  C   UNL     1      -7.765  -0.461   2.123  1.00  0.00     0.004 C 
ENDBRANCH  14  15
ENDBRANCH  13  14
ENDBRANCH  12  13
ENDBRANCH  11  12
ENDBRANCH  10  11
ENDBRANCH   1  10
TORSDOF 12
ENDMDL
MODEL 4
REMARK VINA RESULT:    -4.034      3.655      5.999
REMARK INTER + INTRA:          -8.480
REMARK INTER:                  -7.060
REMARK INTRA:                  -1.420
REMARK UNBOUND:                -1.616
REMARK SMILES CCCCCCCCCCCCCC(=O)[O-]
REMARK SMILES IDX 8 1 9 2 10 3 11 4 12 5 13 6 14 7 15 8 16 9 7 10 6 11 5 12
REMARK SMILES IDX 4 13 3 14 2 15 1 16
REMARK H PARENT
REMARK Flexibility Score: inf
ROOT
ATOM      1  C   UNL     1      -9.621  -1.609   1.909  1.00  0.00     0.000 C 
ENDROOT
BRANCH   1   2
ATOM      2  C   UNL     1      -9.027  -0.387   2.629  1.00  0.00     0.000 C 
BRANCH   2   3
ATOM      3  C   UNL     1     -10.077   0.701   2.911  1.00  0.00     0.000 C 
BRANCH   3   4
ATOM      4  C   UNL     1     -10.563   0.701   4.371  1.00  0.00     0.000 C 
BRANCH   4   5
ATOM      5  C   UNL     1     -11.707  -0.287   4.683  1.00  0.00     0.006 C 
BRANCH   5   6
ATOM      6  C   UNL     1     -12.699  -0.501   3.530  1.00  0.00     0.053 C 
BRANCH   6   7
ATOM      7  C   UNL     1     -13.716   0.597   3.454  1.00  0.00     0.041 C 
ATOM      8  O   UNL     1     -14.711   0.592   4.226  1.00  0.00    -0.550 OA
ATOM      9  O   UNL     1     -13.546   1.642   2.556  1.00  0.00    -0.550 OA
ENDBRANCH   6   7
ENDBRANCH   5   6
ENDBRANCH   4   5
ENDBRANCH   3   4
ENDBRANCH   2   3
ENDBRANCH   1   2
BRANCH   1  10
ATOM     10  C   UNL     1      -9.729  -2.841   2.822  1.00  0.00     0.000 C 
BRANCH  10  11
ATOM     11  C   UNL     1      -8.772  -2.724   4.015  1.00  0.00    -0.000 C 
BRANCH  11  12
ATOM     12  C   UNL     1      -9.427  -3.259   5.298  1.00  0.00    -0.000 C 
BRANCH  12  13
ATOM     13  C   UNL     1      -8.455  -4.079   6.162  1.00  0.00    -0.000 C 
BRANCH  13  14
ATOM     14  C   UNL     1      -8.963  -5.506   6.431  1.00  0.00    -0.000 C 
BRANCH  14  15
ATOM     15  C   UNL     1     -10.203  -5.857   5.593  1.00  0.00    -0.003 C 
ATOM     16  C   UNL     1     -10.224  -7.319   5.149  1.00  0.00     0.004 C 
ENDBRANCH  14  15
ENDBRANCH  13  14
ENDBRANCH  12  13
ENDBRANCH  11  12
ENDBRANCH  10  11
ENDBRANCH   1  10
TORSDOF 12
ENDMDL
MODEL 5
REMARK VINA RESULT:    -4.029      1.330      2.236
REMARK INTER + INTRA:          -8.471
REMARK INTER:                  -6.737
REMARK INTRA:                  -1.734
REMARK UNBOUND:                -1.616
REMARK SMILES CCCCCCCCCCCCCC(=O)[O-]
REMARK SMILES IDX 8 1 9 2 10 3 11 4 12 5 13 6 14 7 15 8 16 9 7 10 6 11 5 12
REMARK SMILES IDX 4 13 3 14 2 15 1 16
REMARK H PARENT
REMARK Flexibility Score: inf
ROOT
ATOM      1  C   UNL     1     -10.179  -2.690   2.557  1.00  0.00     0.000 C 
ENDROOT
BRANCH   1   2
ATOM      2  C   UNL     1      -9.018  -2.124   3.390  1.00  0.00     0.000 C 
BRANCH   2   3
ATOM      3  C   UNL     1      -8.376  -3.181   4.304  1.00  0.00     0.000 C 
BRANCH   3   4
ATOM      4  C   UNL     1      -9.390  -3.856   5.245  1.00  0.00     0.000 C 
BRANCH   4   5
ATOM      5  C   UNL     1      -8.774  -4.755   6.338  1.00  0.00     0.006 C 
BRANCH   5   6
ATOM      6  C   UNL     1      -9.552  -6.051   6.613  1.00  0.00     0.053 C 
BRANCH   6   7
ATOM      7  C   UNL     1      -9.012  -7.206   5.826  1.00  0.00     0.041 C 
ATOM      8  O   UNL     1      -8.181  -7.994   6.348  1.00  0.00    -0.550 OA
ATOM      9  O   UNL     1      -9.454  -7.432   4.529  1.00  0.00    -0.550 OA
ENDBRANCH   6   7
ENDBRANCH   5   6
ENDBRANCH   4   5
ENDBRANCH   3   4
ENDBRANCH   2   3
ENDBRANCH   1   2
BRANCH   1  10
ATOM     10  C   UNL     1     -11.171  -1.605   2.108  1.00  0.00     0.000 C 
BRANCH  10  11
ATOM     11  C   UNL     1     -11.811  -0.914   3.317  1.00  0.00    -0.000 C 
BRANCH  11  12
ATOM     12  C   UNL     1     -12.979  -1.745   3.871  1.00  0.00    -0.000 C 
BRANCH  12  13
ATOM     13  C   UNL     1     -12.757  -2.185   5.327  1.00  0.00    -0.000 C 
BRANCH  13  14
ATOM     14  C   UNL     1     -12.936  -3.700   5.520  1.00  0.00    -0.000 C 
BRANCH  14  15
ATOM     15  C   UNL     1     -12.997  -4.461   4.186  1.00  0.00    -0.003 C 
ATOM     16  C   UNL     1     -12.597  -5.929   4.322  1.00  0.00     0.004 C 
ENDBRANCH  14  15
ENDBRANCH  13  14
ENDBRANCH  12  13
ENDBRANCH  11  12
ENDBRANCH  10  11
ENDBRANCH   1  10
TORSDOF 12
ENDMDL
MODEL 6
REMARK VINA RESULT:    -3.996      3.715      6.292
REMARK INTER + INTRA:          -8.415
REMARK INTER:                  -7.169
REMARK INTRA:                  -1.246
REMARK UNBOUND:                -1.616
REMARK SMILES CCCCCCCCCCCCCC(=O)[O-]
REMARK SMILES IDX 8 1 9 2 10 3 11 4 12 5 13 6 14 7 15 8 16 9 7 10 6 11 5 12
REMARK SMILES IDX 4 13 3 14 2 15 1 16
REMARK H PARENT
REMARK Flexibility Score: inf
ROOT
ATOM      1  C   UNL     1     -10.166  -3.317   3.042  1.00  0.00     0.000 C 
ENDROOT
BRANCH   1   2
ATOM      2  C   UNL     1     -10.369  -2.027   2.231  1.00  0.00     0.000 C 
BRANCH   2   3
ATOM      3  C   UNL     1      -9.044  -1.308   1.924  1.00  0.00     0.000 C 
BRANCH   3   4
ATOM      4  C   UNL     1      -9.039   0.162   2.381  1.00  0.00     0.000 C 
BRANCH   4   5
ATOM      5  C   UNL     1     -10.420   0.734   2.765  1.00  0.00     0.006 C 
BRANCH   5   6
ATOM      6  C   UNL     1     -10.510   1.276   4.200  1.00  0.00     0.053 C 
BRANCH   6   7
ATOM      7  C   UNL     1     -11.895   1.738   4.539  1.00  0.00     0.041 C 
ATOM      8  O   UNL     1     -12.666   0.994   5.199  1.00  0.00    -0.550 OA
ATOM      9  O   UNL     1     -12.320   3.003   4.155  1.00  0.00    -0.550 OA
ENDBRANCH   6   7
ENDBRANCH   5   6
ENDBRANCH   4   5
ENDBRANCH   3   4
ENDBRANCH   2   3
ENDBRANCH   1   2
BRANCH   1  10
ATOM     10  C   UNL     1      -9.913  -3.047   4.534  1.00  0.00     0.000 C 
BRANCH  10  11
ATOM     11  C   UNL     1      -8.476  -3.414   4.921  1.00  0.00    -0.000 C 
BRANCH  11  12
ATOM     12  C   UNL     1      -8.419  -3.979   6.349  1.00  0.00    -0.000 C 
BRANCH  12  13
ATOM     13  C   UNL     1      -9.430  -5.114   6.580  1.00  0.00    -0.000 C 
BRANCH  13  14
ATOM     14  C   UNL     1      -8.918  -6.473   6.071  1.00  0.00    -0.000 C 
BRANCH  14  15
ATOM     15  C   UNL     1      -9.758  -7.020   4.906  1.00  0.00    -0.003 C 
ATOM     16  C   UNL     1     -11.224  -6.599   4.983  1.00  0.00     0.004 C 
ENDBRANCH  14  15
ENDBRANCH  13  14
ENDBRANCH  12  13
ENDBRANCH  11  12
ENDBRANCH  10  11
ENDBRANCH   1  10
TORSDOF 12
ENDMDL
MODEL 7
REMARK VINA RESULT:    -3.973      2.451      4.467
REMARK INTER + INTRA:          -8.376
REMARK INTER:                  -6.949
REMARK INTRA:                  -1.427
REMARK UNBOUND:                -1.616
REMARK SMILES CCCCCCCCCCCCCC(=O)[O-]
REMARK SMILES IDX 8 1 9 2 10 3 11 4 12 5 13 6 14 7 15 8 16 9 7 10 6 11 5 12
REMARK SMILES IDX 4 13 3 14 2 15 1 16
REMARK H PARENT
REMARK Flexibility Score: inf
ROOT
ATOM      1  C   UNL     1      -8.485  -4.451   6.305  1.00  0.00     0.000 C 
ENDROOT
BRANCH   1   2
ATOM      2  C   UNL     1      -9.360  -5.598   6.836  1.00  0.00     0.000 C 
BRANCH   2   3
ATOM      3  C   UNL     1      -9.249  -6.871   5.980  1.00  0.00     0.000 C 
BRANCH   3   4
ATOM      4  C   UNL     1     -10.318  -6.947   4.876  1.00  0.00     0.000 C 
BRANCH   4   5
ATOM      5  C   UNL     1     -11.677  -6.310   5.234  1.00  0.00     0.006 C 
BRANCH   5   6
ATOM      6  C   UNL     1     -12.267  -5.405   4.141  1.00  0.00     0.053 C 
BRANCH   6   7
ATOM      7  C   UNL     1     -13.695  -5.746   3.840  1.00  0.00     0.041 C 
ATOM      8  O   UNL     1     -13.990  -6.875   3.367  1.00  0.00    -0.550 OA
ATOM      9  O   UNL     1     -14.702  -4.830   4.116  1.00  0.00    -0.550 OA
ENDBRANCH   6   7
ENDBRANCH   5   6
ENDBRANCH   4   5
ENDBRANCH   3   4
ENDBRANCH   2   3
ENDBRANCH   1   2
BRANCH   1  10
ATOM     10  C   UNL     1      -9.286  -3.418   5.496  1.00  0.00     0.000 C 
BRANCH  10  11
ATOM     11  C   UNL     1      -8.606  -3.126   4.153  1.00  0.00    -0.000 C 
BRANCH  11  12
ATOM     12  C   UNL     1      -9.621  -3.178   3.001  1.00  0.00    -0.000 C 
BRANCH  12  13
ATOM     13  C   UNL     1      -9.731  -1.844   2.245  1.00  0.00    -0.000 C 
BRANCH  13  14
ATOM     14  C   UNL     1      -8.802  -0.761   2.820  1.00  0.00    -0.000 C 
BRANCH  14  15
ATOM     15  C   UNL     1      -9.565   0.503   3.246  1.00  0.00    -0.003 C 
ATOM     16  C   UNL     1     -10.593   0.235   4.344  1.00  0.00     0.004 C 
ENDBRANCH  14  15
ENDBRANCH  13  14
ENDBRANCH  12  13
ENDBRANCH  11  12
ENDBRANCH  10  11
ENDBRANCH   1  10
TORSDOF 12
ENDMDL
MODEL 8
REMARK VINA RESULT:    -3.962      1.729      4.072
REMARK INTER + INTRA:          -8.358
REMARK INTER:                  -6.473
REMARK INTRA:                  -1.885
REMARK UNBOUND:                -1.616
REMARK SMILES CCCCCCCCCCCCCC(=O)[O-]
REMARK SMILES IDX 8 1 9 2 10 3 11 4 12 5 13 6 14 7 15 8 16 9 7 10 6 11 5 12
REMARK SMILES IDX 4 13 3 14 2 15 1 16
REMARK H PARENT
REMARK Flexibility Score: inf
ROOT
ATOM      1  C   UNL     1     -10.254   0.530   2.643  1.00  0.00     0.000 C 
ENDROOT
BRANCH   1   2
ATOM      2  C   UNL     1     -10.504   0.823   4.132  1.00  0.00     0.000 C 
BRANCH   2   3
ATOM      3  C   UNL     1     -11.445  -0.203   4.785  1.00  0.00     0.000 C 
BRANCH   3   4
ATOM      4  C   UNL     1     -12.632  -0.587   3.885  1.00  0.00     0.000 C 
BRANCH   4   5
ATOM      5  C   UNL     1     -13.176  -2.017   4.089  1.00  0.00     0.006 C 
BRANCH   5   6
ATOM      6  C   UNL     1     -12.781  -2.666   5.425  1.00  0.00     0.053 C 
BRANCH   6   7
ATOM      7  C   UNL     1     -12.824  -4.162   5.356  1.00  0.00     0.041 C 
ATOM      8  O   UNL     1     -12.738  -4.847   6.409  1.00  0.00    -0.550 OA
ATOM      9  O   UNL     1     -12.993  -4.798   4.133  1.00  0.00    -0.550 OA
ENDBRANCH   6   7
ENDBRANCH   5   6
ENDBRANCH   4   5
ENDBRANCH   3   4
ENDBRANCH   2   3
ENDBRANCH   1   2
BRANCH   1  10
ATOM     10  C   UNL     1      -8.774   0.255   2.334  1.00  0.00     0.000 C 
BRANCH  10  11
ATOM     11  C   UNL     1      -8.403  -1.193   2.676  1.00  0.00    -0.000 C 
BRANCH  11  12
ATOM     12  C   UNL     1      -9.559  -2.150   2.343  1.00  0.00    -0.000 C 
BRANCH  12  13
ATOM     13  C   UNL     1      -9.733  -3.260   3.392  1.00  0.00    -0.000 C 
BRANCH  13  14
ATOM     14  C   UNL     1      -8.676  -3.189   4.508  1.00  0.00    -0.000 C 
BRANCH  14  15
ATOM     15  C   UNL     1      -9.132  -3.890   5.796  1.00  0.00    -0.003 C 
ATOM     16  C   UNL     1      -9.351  -5.391   5.609  1.00  0.00     0.004 C 
ENDBRANCH  14  15
ENDBRANCH  13  14
ENDBRANCH  12  13
ENDBRANCH  11  12
ENDBRANCH  10  11
ENDBRANCH   1  10
TORSDOF 12
ENDMDL
MODEL 9
REMARK VINA RESULT:    -3.954      1.494      2.476
REMARK INTER + INTRA:          -8.345
REMARK INTER:                  -6.637
REMARK INTRA:                  -1.708
REMARK UNBOUND:                -1.616
REMARK SMILES CCCCCCCCCCCCCC(=O)[O-]
REMARK SMILES IDX 8 1 9 2 10 3 11 4 12 5 13 6 14 7 15 8 16 9 7 10 6 11 5 12
REMARK SMILES IDX 4 13 3 14 2 15 1 16
REMARK H PARENT
REMARK Flexibility Score: inf
ROOT
ATOM      1  C   UNL     1      -9.833   0.571   3.668  1.00  0.00     0.000 C 
ENDROOT
BRANCH   1   2
ATOM      2  C   UNL     1      -9.013   0.171   2.430  1.00  0.00     0.000 C 
BRANCH   2   3
ATOM      3  C   UNL     1      -8.653  -1.325   2.418  1.00  0.00     0.000 C 
BRANCH   3   4
ATOM      4  C   UNL     1      -9.889  -2.239   2.493  1.00  0.00     0.000 C 
BRANCH   4   5
ATOM      5  C   UNL     1      -9.832  -3.332   3.580  1.00  0.00     0.006 C 
BRANCH   5   6
ATOM      6  C   UNL     1      -8.575  -3.291   4.463  1.00  0.00     0.053 C 
BRANCH   6   7
ATOM      7  C   UNL     1      -8.715  -4.154   5.680  1.00  0.00     0.041 C 
ATOM      8  O   UNL     1      -8.185  -3.806   6.767  1.00  0.00    -0.550 OA
ATOM      9  O   UNL     1      -9.460  -5.324   5.621  1.00  0.00    -0.550 OA
ENDBRANCH   6   7
ENDBRANCH   5   6
ENDBRANCH   4   5
ENDBRANCH   3   4
ENDBRANCH   2   3
ENDBRANCH   1   2
BRANCH   1  10
ATOM     10  C   UNL     1     -10.867   1.666   3.366  1.00  0.00     0.000 C 
BRANCH  10  11
ATOM     11  C   UNL     1     -11.521   1.439   1.997  1.00  0.00    -0.000 C 
BRANCH  11  12
ATOM     12  C   UNL     1     -13.019   1.131   2.149  1.00  0.00    -0.000 C 
BRANCH  12  13
ATOM     13  C   UNL     1     -13.493   1.193   3.610  1.00  0.00    -0.000 C 
BRANCH  13  14
ATOM     14  C   UNL     1     -14.180  -0.107   4.064  1.00  0.00    -0.000 C 
BRANCH  14  15
ATOM     15  C   UNL     1     -13.228  -1.313   4.049  1.00  0.00    -0.003 C 
ATOM     16  C   UNL     1     -12.417  -1.445   5.337  1.00  0.00     0.004 C 
ENDBRANCH  14  15
ENDBRANCH  13  14
ENDBRANCH  12  13
ENDBRANCH  11  12
ENDBRANCH  10  11
ENDBRANCH   1  10
TORSDOF 12
ENDMDL
