MODEL 1
REMARK VINA RESULT:    -3.672      0.000      0.000
REMARK INTER + INTRA:          -6.449
REMARK INTER:                  -5.174
REMARK INTRA:                  -1.274
REMARK UNBOUND:                -1.274
REMARK SMILES COc1c(O[C@@H]2O[C@H](C(=O)[O-])[C@@H](O)[C@H](O)[C@H]2O)cc(O)c2c(=O)cc(-c3ccccc3)oc12
REMARK SMILES IDX 5 1 6 2 8 3 12 4 7 5 14 6 16 7 9 8 10 9 11 10 13 11 15 13
REMARK SMILES IDX 17 15 4 17 3 18 18 19 33 20 19 21 21 22 32 23 22 24 25 25
REMARK SMILES IDX 24 26 23 27 2 28 1 29 20 30 26 32 27 33 31 34 28 35 30 36
REMARK SMILES IDX 29 37
REMARK H PARENT 13 12 15 14 17 16 20 31
REMARK Flexibility Score: inf
ROOT
ATOM      1  O   UNL     1       1.268  55.818  59.959  1.00  0.00    -0.458 OA
ENDROOT
BRANCH   1   2
ATOM      2  C   UNL     1       2.233  56.458  60.796  1.00  0.00     0.339 C 
ATOM      3  C   UNL     1       2.780  56.795  63.039  1.00  0.00     0.199 C 
ATOM      4  C   UNL     1       3.423  58.173  62.681  1.00  0.00     0.180 C 
ATOM      5  O   UNL     1       1.762  56.404  62.129  1.00  0.00    -0.328 OA
ATOM      6  C   UNL     1       2.643  58.882  61.555  1.00  0.00     0.181 C 
ATOM      7  C   UNL     1       2.399  57.938  60.354  1.00  0.00     0.214 C 
BRANCH   3   8
ATOM      8  C   UNL     1       2.192  56.851  64.422  1.00  0.00     0.073 C 
ATOM      9  O   UNL     1       1.371  57.759  64.723  1.00  0.00    -0.547 OA
ATOM     10  O   UNL     1       2.645  55.980  65.403  1.00  0.00    -0.547 OA
ENDBRANCH   3   8
BRANCH   4  11
ATOM     11  O   UNL     1       4.760  57.980  62.292  1.00  0.00    -0.387 OA
ATOM     12  H   UNL     1       4.889  57.004  62.176  1.00  0.00     0.211 HD
ENDBRANCH   4  11
BRANCH   6  13
ATOM     13  O   UNL     1       1.397  59.308  62.051  1.00  0.00    -0.387 OA
ATOM     14  H   UNL     1       1.000  59.904  61.362  1.00  0.00     0.211 HD
ENDBRANCH   6  13
BRANCH   7  15
ATOM     15  O   UNL     1       3.410  58.066  59.379  1.00  0.00    -0.384 OA
ATOM     16  H   UNL     1       4.281  57.876  59.818  1.00  0.00     0.211 HD
ENDBRANCH   7  15
ENDBRANCH   1   2
BRANCH   1  17
ATOM     17  C   UNL     1       1.583  54.832  59.012  1.00  0.00     0.172 A 
ATOM     18  C   UNL     1       1.408  53.488  59.355  1.00  0.00     0.205 A 
ATOM     19  C   UNL     1       2.050  55.178  57.741  1.00  0.00     0.097 A 
ATOM     20  C   UNL     1       1.595  52.485  58.371  1.00  0.00     0.188 A 
ATOM     21  C   UNL     1       2.309  54.207  56.776  1.00  0.00     0.134 A 
ATOM     22  C   UNL     1       2.012  52.842  57.057  1.00  0.00     0.111 A 
ATOM     23  O   UNL     1       1.346  51.209  58.663  1.00  0.00    -0.452 OA
ATOM     24  C   UNL     1       2.078  51.808  56.092  1.00  0.00     0.197 A 
ATOM     25  C   UNL     1       1.438  50.213  57.784  1.00  0.00     0.138 A 
ATOM     26  C   UNL     1       1.820  50.495  56.465  1.00  0.00     0.100 A 
ATOM     27  O   UNL     1       2.297  52.040  54.875  1.00  0.00    -0.289 OA
BRANCH  18  28
ATOM     28  O   UNL     1       1.015  53.233  60.681  1.00  0.00    -0.490 OA
ATOM     29  C   UNL     1      -0.307  52.999  61.144  1.00  0.00     0.278 C 
ENDBRANCH  18  28
BRANCH  21  30
ATOM     30  O   UNL     1       2.884  54.656  55.580  1.00  0.00    -0.507 OA
ATOM     31  H   UNL     1       3.610  55.351  55.506  1.00  0.00     0.293 HD
ENDBRANCH  21  30
BRANCH  25  32
ATOM     32  C   UNL     1       1.078  48.833  58.208  1.00  0.00     0.017 A 
ATOM     33  C   UNL     1       0.228  48.591  59.305  1.00  0.00     0.012 A 
ATOM     34  C   UNL     1       1.617  47.729  57.524  1.00  0.00     0.012 A 
ATOM     35  C   UNL     1      -0.038  47.283  59.725  1.00  0.00     0.001 A 
ATOM     36  C   UNL     1       1.345  46.421  57.944  1.00  0.00     0.001 A 
ATOM     37  C   UNL     1       0.527  46.198  59.050  1.00  0.00     0.000 A 
ENDBRANCH  25  32
ENDBRANCH   1  17
TORSDOF 9
ENDMDL
MODEL 2
REMARK VINA RESULT:    -3.659      1.486      1.855
REMARK INTER + INTRA:          -6.431
REMARK INTER:                  -5.077
REMARK INTRA:                  -1.354
REMARK UNBOUND:                -1.274
REMARK SMILES COc1c(O[C@@H]2O[C@H](C(=O)[O-])[C@@H](O)[C@H](O)[C@H]2O)cc(O)c2c(=O)cc(-c3ccccc3)oc12
REMARK SMILES IDX 5 1 6 2 8 3 12 4 7 5 14 6 16 7 9 8 10 9 11 10 13 11 15 13
REMARK SMILES IDX 17 15 4 17 3 18 18 19 33 20 19 21 21 22 32 23 22 24 25 25
REMARK SMILES IDX 24 26 23 27 2 28 1 29 20 30 26 32 27 33 31 34 28 35 30 36
REMARK SMILES IDX 29 37
REMARK H PARENT 13 12 15 14 17 16 20 31
REMARK Flexibility Score: inf
ROOT
ATOM      1  O   UNL     1       1.499  56.573  59.675  1.00  0.00    -0.458 OA
ENDROOT
BRANCH   1   2
ATOM      2  C   UNL     1       2.557  57.434  60.103  1.00  0.00     0.339 C 
ATOM      3  C   UNL     1       3.739  58.077  62.010  1.00  0.00     0.199 C 
ATOM      4  C   UNL     1       3.977  59.492  61.391  1.00  0.00     0.180 C 
ATOM      5  O   UNL     1       2.564  57.447  61.518  1.00  0.00    -0.328 OA
ATOM      6  C   UNL     1       2.759  59.956  60.565  1.00  0.00     0.181 C 
ATOM      7  C   UNL     1       2.306  58.868  59.563  1.00  0.00     0.214 C 
BRANCH   3   8
ATOM      8  C   UNL     1       3.634  58.187  63.505  1.00  0.00     0.073 C 
ATOM      9  O   UNL     1       4.217  57.347  64.244  1.00  0.00    -0.547 OA
ATOM     10  O   UNL     1       2.796  59.137  64.073  1.00  0.00    -0.547 OA
ENDBRANCH   3   8
BRANCH   4  11
ATOM     11  O   UNL     1       5.125  59.462  60.581  1.00  0.00    -0.387 OA
ATOM     12  H   UNL     1       5.074  58.633  60.039  1.00  0.00     0.211 HD
ENDBRANCH   4  11
BRANCH   6  13
ATOM     13  O   UNL     1       1.690  60.240  61.434  1.00  0.00    -0.387 OA
ATOM     14  H   UNL     1       1.550  61.224  61.408  1.00  0.00     0.211 HD
ENDBRANCH   6  13
BRANCH   7  15
ATOM     15  O   UNL     1       2.904  59.045  58.298  1.00  0.00    -0.384 OA
ATOM     16  H   UNL     1       2.242  58.774  57.608  1.00  0.00     0.211 HD
ENDBRANCH   7  15
ENDBRANCH   1   2
BRANCH   1  17
ATOM     17  C   UNL     1       1.702  55.309  59.102  1.00  0.00     0.172 A 
ATOM     18  C   UNL     1       1.248  54.179  59.788  1.00  0.00     0.205 A 
ATOM     19  C   UNL     1       2.330  55.173  57.861  1.00  0.00     0.097 A 
ATOM     20  C   UNL     1       1.325  52.906  59.167  1.00  0.00     0.188 A 
ATOM     21  C   UNL     1       2.482  53.926  57.259  1.00  0.00     0.134 A 
ATOM     22  C   UNL     1       1.910  52.776  57.875  1.00  0.00     0.111 A 
ATOM     23  O   UNL     1       0.817  51.835  59.775  1.00  0.00    -0.452 OA
ATOM     24  C   UNL     1       1.862  51.499  57.265  1.00  0.00     0.197 A 
ATOM     25  C   UNL     1       0.793  50.617  59.240  1.00  0.00     0.138 A 
ATOM     26  C   UNL     1       1.331  50.419  57.960  1.00  0.00     0.100 A 
ATOM     27  O   UNL     1       2.222  51.311  56.075  1.00  0.00    -0.289 OA
BRANCH  18  28
ATOM     28  O   UNL     1       0.705  54.405  61.064  1.00  0.00    -0.490 OA
ATOM     29  C   UNL     1       1.370  54.247  62.310  1.00  0.00     0.278 C 
ENDBRANCH  18  28
BRANCH  21  30
ATOM     30  O   UNL     1       3.229  53.893  56.075  1.00  0.00    -0.507 OA
ATOM     31  H   UNL     1       2.884  53.602  55.174  1.00  0.00     0.293 HD
ENDBRANCH  21  30
BRANCH  25  32
ATOM     32  C   UNL     1       0.146  49.505  59.987  1.00  0.00     0.017 A 
ATOM     33  C   UNL     1      -0.084  49.579  61.376  1.00  0.00     0.012 A 
ATOM     34  C   UNL     1      -0.225  48.331  59.310  1.00  0.00     0.012 A 
ATOM     35  C   UNL     1      -0.631  48.491  62.066  1.00  0.00     0.001 A 
ATOM     36  C   UNL     1      -0.777  47.246  60.003  1.00  0.00     0.001 A 
ATOM     37  C   UNL     1      -0.970  47.321  61.381  1.00  0.00     0.000 A 
ENDBRANCH  25  32
ENDBRANCH   1  17
TORSDOF 9
ENDMDL
MODEL 3
REMARK VINA RESULT:    -3.646      2.618      9.092
REMARK INTER + INTRA:          -6.412
REMARK INTER:                  -5.359
REMARK INTRA:                  -1.053
REMARK UNBOUND:                -1.274
REMARK SMILES COc1c(O[C@@H]2O[C@H](C(=O)[O-])[C@@H](O)[C@H](O)[C@H]2O)cc(O)c2c(=O)cc(-c3ccccc3)oc12
REMARK SMILES IDX 5 1 6 2 8 3 12 4 7 5 14 6 16 7 9 8 10 9 11 10 13 11 15 13
REMARK SMILES IDX 17 15 4 17 3 18 18 19 33 20 19 21 21 22 32 23 22 24 25 25
REMARK SMILES IDX 24 26 23 27 2 28 1 29 20 30 26 32 27 33 31 34 28 35 30 36
REMARK SMILES IDX 29 37
REMARK H PARENT 13 12 15 14 17 16 20 31
REMARK Flexibility Score: inf
ROOT
ATOM      1  O   UNL     1      -0.081  50.563  56.798  1.00  0.00    -0.458 OA
ENDROOT
BRANCH   1   2
ATOM      2  C   UNL     1       0.559  49.346  56.405  1.00  0.00     0.339 C 
ATOM      3  C   UNL     1       0.752  47.100  57.004  1.00  0.00     0.199 C 
ATOM      4  C   UNL     1       2.198  47.061  56.414  1.00  0.00     0.180 C 
ATOM      5  O   UNL     1       0.363  48.396  57.435  1.00  0.00    -0.328 OA
ATOM      6  C   UNL     1       2.937  48.396  56.648  1.00  0.00     0.181 C 
ATOM      7  C   UNL     1       2.078  49.604  56.205  1.00  0.00     0.214 C 
BRANCH   3   8
ATOM      8  C   UNL     1       0.654  46.157  58.171  1.00  0.00     0.073 C 
ATOM      9  O   UNL     1      -0.055  45.118  58.087  1.00  0.00    -0.547 OA
ATOM     10  O   UNL     1       1.243  46.491  59.383  1.00  0.00    -0.547 OA
ENDBRANCH   3   8
BRANCH   4  11
ATOM     11  O   UNL     1       2.136  46.781  55.038  1.00  0.00    -0.387 OA
ATOM     12  H   UNL     1       1.858  47.619  54.586  1.00  0.00     0.211 HD
ENDBRANCH   4  11
BRANCH   6  13
ATOM     13  O   UNL     1       3.229  48.530  58.017  1.00  0.00    -0.387 OA
ATOM     14  H   UNL     1       2.491  48.088  58.515  1.00  0.00     0.211 HD
ENDBRANCH   6  13
BRANCH   7  15
ATOM     15  O   UNL     1       2.357  49.981  54.876  1.00  0.00    -0.384 OA
ATOM     16  H   UNL     1       2.906  49.261  54.464  1.00  0.00     0.211 HD
ENDBRANCH   7  15
ENDBRANCH   1   2
BRANCH   1  17
ATOM     17  C   UNL     1       0.250  51.283  57.956  1.00  0.00     0.172 A 
ATOM     18  C   UNL     1       0.795  52.562  57.820  1.00  0.00     0.205 A 
ATOM     19  C   UNL     1       0.026  50.745  59.227  1.00  0.00     0.097 A 
ATOM     20  C   UNL     1       1.013  53.357  58.975  1.00  0.00     0.188 A 
ATOM     21  C   UNL     1       0.296  51.478  60.380  1.00  0.00     0.134 A 
ATOM     22  C   UNL     1       0.728  52.831  60.267  1.00  0.00     0.111 A 
ATOM     23  O   UNL     1       1.451  54.609  58.850  1.00  0.00    -0.452 OA
ATOM     24  C   UNL     1       0.865  53.708  61.370  1.00  0.00     0.197 A 
ATOM     25  C   UNL     1       1.625  55.441  59.874  1.00  0.00     0.138 A 
ATOM     26  C   UNL     1       1.341  54.999  61.174  1.00  0.00     0.100 A 
ATOM     27  O   UNL     1       0.504  53.386  62.531  1.00  0.00    -0.289 OA
BRANCH  18  28
ATOM     28  O   UNL     1       1.062  52.986  56.506  1.00  0.00    -0.490 OA
ATOM     29  C   UNL     1       2.335  53.299  55.958  1.00  0.00     0.278 C 
ENDBRANCH  18  28
BRANCH  21  30
ATOM     30  O   UNL     1       0.147  50.800  61.597  1.00  0.00    -0.507 OA
ATOM     31  H   UNL     1       0.015  51.236  62.496  1.00  0.00     0.293 HD
ENDBRANCH  21  30
BRANCH  25  32
ATOM     32  C   UNL     1       2.063  56.838  59.611  1.00  0.00     0.017 A 
ATOM     33  C   UNL     1       2.945  57.516  60.476  1.00  0.00     0.012 A 
ATOM     34  C   UNL     1       1.568  57.525  58.488  1.00  0.00     0.012 A 
ATOM     35  C   UNL     1       3.285  58.853  60.242  1.00  0.00     0.001 A 
ATOM     36  C   UNL     1       1.914  58.862  58.254  1.00  0.00     0.001 A 
ATOM     37  C   UNL     1       2.763  59.529  59.136  1.00  0.00     0.000 A 
ENDBRANCH  25  32
ENDBRANCH   1  17
TORSDOF 9
ENDMDL
MODEL 4
REMARK VINA RESULT:    -3.625      3.137      5.502
REMARK INTER + INTRA:          -6.383
REMARK INTER:                  -5.068
REMARK INTRA:                  -1.315
REMARK UNBOUND:                -1.274
REMARK SMILES COc1c(O[C@@H]2O[C@H](C(=O)[O-])[C@@H](O)[C@H](O)[C@H]2O)cc(O)c2c(=O)cc(-c3ccccc3)oc12
REMARK SMILES IDX 5 1 6 2 8 3 12 4 7 5 14 6 16 7 9 8 10 9 11 10 13 11 15 13
REMARK SMILES IDX 17 15 4 17 3 18 18 19 33 20 19 21 21 22 32 23 22 24 25 25
REMARK SMILES IDX 24 26 23 27 2 28 1 29 20 30 26 32 27 33 31 34 28 35 30 36
REMARK SMILES IDX 29 37
REMARK H PARENT 13 12 15 14 17 16 20 31
REMARK Flexibility Score: inf
ROOT
ATOM      1  O   UNL     1       0.821  52.138  56.334  1.00  0.00    -0.458 OA
ENDROOT
BRANCH   1   2
ATOM      2  C   UNL     1       1.315  53.238  57.101  1.00  0.00     0.339 C 
ATOM      3  C   UNL     1       0.642  54.828  58.671  1.00  0.00     0.199 C 
ATOM      4  C   UNL     1       1.702  55.832  58.116  1.00  0.00     0.180 C 
ATOM      5  O   UNL     1       0.209  53.886  57.699  1.00  0.00    -0.328 OA
ATOM      6  C   UNL     1       1.857  55.700  56.587  1.00  0.00     0.181 C 
ATOM      7  C   UNL     1       2.062  54.226  56.163  1.00  0.00     0.214 C 
BRANCH   3   8
ATOM      8  C   UNL     1      -0.557  55.581  59.177  1.00  0.00     0.073 C 
ATOM      9  O   UNL     1      -1.089  56.474  58.465  1.00  0.00    -0.547 OA
ATOM     10  O   UNL     1      -1.003  55.380  60.476  1.00  0.00    -0.547 OA
ENDBRANCH   3   8
BRANCH   4  11
ATOM     11  O   UNL     1       2.939  55.604  58.745  1.00  0.00    -0.387 OA
ATOM     12  H   UNL     1       3.288  56.490  59.023  1.00  0.00     0.211 HD
ENDBRANCH   4  11
BRANCH   6  13
ATOM     13  O   UNL     1       0.696  56.190  55.960  1.00  0.00    -0.387 OA
ATOM     14  H   UNL     1       0.473  55.554  55.229  1.00  0.00     0.211 HD
ENDBRANCH   6  13
BRANCH   7  15
ATOM     15  O   UNL     1       3.430  53.899  56.068  1.00  0.00    -0.384 OA
ATOM     16  H   UNL     1       3.879  54.226  56.893  1.00  0.00     0.211 HD
ENDBRANCH   7  15
ENDBRANCH   1   2
BRANCH   1  17
ATOM     17  C   UNL     1       0.857  50.803  56.766  1.00  0.00     0.172 A 
ATOM     18  C   UNL     1      -0.348  50.112  56.916  1.00  0.00     0.205 A 
ATOM     19  C   UNL     1       2.072  50.165  57.029  1.00  0.00     0.097 A 
ATOM     20  C   UNL     1      -0.327  48.727  57.224  1.00  0.00     0.188 A 
ATOM     21  C   UNL     1       2.118  48.823  57.401  1.00  0.00     0.134 A 
ATOM     22  C   UNL     1       0.915  48.061  57.432  1.00  0.00     0.111 A 
ATOM     23  O   UNL     1      -1.466  48.039  57.283  1.00  0.00    -0.452 OA
ATOM     24  C   UNL     1       0.875  46.660  57.630  1.00  0.00     0.197 A 
ATOM     25  C   UNL     1      -1.533  46.729  57.506  1.00  0.00     0.138 A 
ATOM     26  C   UNL     1      -0.348  46.004  57.697  1.00  0.00     0.100 A 
ATOM     27  O   UNL     1       1.919  45.961  57.682  1.00  0.00    -0.289 OA
BRANCH  18  28
ATOM     28  O   UNL     1      -1.521  50.859  56.711  1.00  0.00    -0.490 OA
ATOM     29  C   UNL     1      -2.349  51.430  57.714  1.00  0.00     0.278 C 
ENDBRANCH  18  28
BRANCH  21  30
ATOM     30  O   UNL     1       3.376  48.318  57.754  1.00  0.00    -0.507 OA
ATOM     31  H   UNL     1       3.604  47.877  58.631  1.00  0.00     0.293 HD
ENDBRANCH  21  30
BRANCH  25  32
ATOM     32  C   UNL     1      -2.859  46.055  57.492  1.00  0.00     0.017 A 
ATOM     33  C   UNL     1      -3.661  46.019  56.334  1.00  0.00     0.012 A 
ATOM     34  C   UNL     1      -3.353  45.459  58.666  1.00  0.00     0.012 A 
ATOM     35  C   UNL     1      -4.935  45.439  56.368  1.00  0.00     0.001 A 
ATOM     36  C   UNL     1      -4.625  44.876  58.695  1.00  0.00     0.001 A 
ATOM     37  C   UNL     1      -5.420  44.875  57.551  1.00  0.00     0.000 A 
ENDBRANCH  25  32
ENDBRANCH   1  17
TORSDOF 9
ENDMDL
MODEL 5
REMARK VINA RESULT:    -3.553      1.707      2.755
REMARK INTER + INTRA:          -6.281
REMARK INTER:                  -5.012
REMARK INTRA:                  -1.269
REMARK UNBOUND:                -1.274
REMARK SMILES COc1c(O[C@@H]2O[C@H](C(=O)[O-])[C@@H](O)[C@H](O)[C@H]2O)cc(O)c2c(=O)cc(-c3ccccc3)oc12
REMARK SMILES IDX 5 1 6 2 8 3 12 4 7 5 14 6 16 7 9 8 10 9 11 10 13 11 15 13
REMARK SMILES IDX 17 15 4 17 3 18 18 19 33 20 19 21 21 22 32 23 22 24 25 25
REMARK SMILES IDX 24 26 23 27 2 28 1 29 20 30 26 32 27 33 31 34 28 35 30 36
REMARK SMILES IDX 29 37
REMARK H PARENT 13 12 15 14 17 16 20 31
REMARK Flexibility Score: inf
ROOT
ATOM      1  O   UNL     1       0.017  55.573  61.015  1.00  0.00    -0.458 OA
ENDROOT
BRANCH   1   2
ATOM      2  C   UNL     1       0.685  56.112  62.159  1.00  0.00     0.339 C 
ATOM      3  C   UNL     1       0.940  58.089  63.371  1.00  0.00     0.199 C 
ATOM      4  C   UNL     1       2.382  57.654  63.786  1.00  0.00     0.180 C 
ATOM      5  O   UNL     1       0.521  57.517  62.140  1.00  0.00    -0.328 OA
ATOM      6  C   UNL     1       3.088  56.888  62.648  1.00  0.00     0.181 C 
ATOM      7  C   UNL     1       2.195  55.755  62.089  1.00  0.00     0.214 C 
BRANCH   3   8
ATOM      8  C   UNL     1       0.875  59.586  63.252  1.00  0.00     0.073 C 
ATOM      9  O   UNL     1       1.590  60.185  62.403  1.00  0.00    -0.547 OA
ATOM     10  O   UNL     1       0.120  60.321  64.157  1.00  0.00    -0.547 OA
ENDBRANCH   3   8
BRANCH   4  11
ATOM     11  O   UNL     1       2.318  56.851  64.938  1.00  0.00    -0.387 OA
ATOM     12  H   UNL     1       1.572  56.211  64.802  1.00  0.00     0.211 HD
ENDBRANCH   4  11
BRANCH   6  13
ATOM     13  O   UNL     1       3.387  57.781  61.603  1.00  0.00    -0.387 OA
ATOM     14  H   UNL     1       3.147  58.691  61.924  1.00  0.00     0.211 HD
ENDBRANCH   6  13
BRANCH   7  15
ATOM     15  O   UNL     1       2.456  54.525  62.728  1.00  0.00    -0.384 OA
ATOM     16  H   UNL     1       3.236  54.654  63.331  1.00  0.00     0.211 HD
ENDBRANCH   7  15
ENDBRANCH   1   2
BRANCH   1  17
ATOM     17  C   UNL     1       0.657  55.274  59.803  1.00  0.00     0.172 A 
ATOM     18  C   UNL     1       0.959  53.940  59.514  1.00  0.00     0.205 A 
ATOM     19  C   UNL     1       0.976  56.282  58.890  1.00  0.00     0.097 A 
ATOM     20  C   UNL     1       1.485  53.603  58.240  1.00  0.00     0.188 A 
ATOM     21  C   UNL     1       1.557  55.986  57.659  1.00  0.00     0.134 A 
ATOM     22  C   UNL     1       1.753  54.625  57.285  1.00  0.00     0.111 A 
ATOM     23  O   UNL     1       1.695  52.327  57.921  1.00  0.00    -0.452 OA
ATOM     24  C   UNL     1       2.176  54.216  55.997  1.00  0.00     0.197 A 
ATOM     25  C   UNL     1       2.129  51.919  56.731  1.00  0.00     0.138 A 
ATOM     26  C   UNL     1       2.391  52.868  55.734  1.00  0.00     0.100 A 
ATOM     27  O   UNL     1       2.302  55.027  55.044  1.00  0.00    -0.289 OA
BRANCH  18  28
ATOM     28  O   UNL     1       0.678  53.007  60.526  1.00  0.00    -0.490 OA
ATOM     29  C   UNL     1      -0.278  51.958  60.471  1.00  0.00     0.278 C 
ENDBRANCH  18  28
BRANCH  21  30
ATOM     30  O   UNL     1       1.942  57.079  56.873  1.00  0.00    -0.507 OA
ATOM     31  H   UNL     1       2.777  57.131  56.312  1.00  0.00     0.293 HD
ENDBRANCH  21  30
BRANCH  25  32
ATOM     32  C   UNL     1       2.270  50.461  56.468  1.00  0.00     0.017 A 
ATOM     33  C   UNL     1       2.308  49.518  57.515  1.00  0.00     0.012 A 
ATOM     34  C   UNL     1       2.402  49.999  55.147  1.00  0.00     0.012 A 
ATOM     35  C   UNL     1       2.513  48.161  57.243  1.00  0.00     0.001 A 
ATOM     36  C   UNL     1       2.602  48.639  54.878  1.00  0.00     0.001 A 
ATOM     37  C   UNL     1       2.668  47.722  55.926  1.00  0.00     0.000 A 
ENDBRANCH  25  32
ENDBRANCH   1  17
TORSDOF 9
ENDMDL
MODEL 6
REMARK VINA RESULT:    -3.419      3.234      8.880
REMARK INTER + INTRA:          -6.092
REMARK INTER:                  -4.658
REMARK INTRA:                  -1.433
REMARK UNBOUND:                -1.274
REMARK SMILES COc1c(O[C@@H]2O[C@H](C(=O)[O-])[C@@H](O)[C@H](O)[C@H]2O)cc(O)c2c(=O)cc(-c3ccccc3)oc12
REMARK SMILES IDX 5 1 6 2 8 3 12 4 7 5 14 6 16 7 9 8 10 9 11 10 13 11 15 13
REMARK SMILES IDX 17 15 4 17 3 18 18 19 33 20 19 21 21 22 32 23 22 24 25 25
REMARK SMILES IDX 24 26 23 27 2 28 1 29 20 30 26 32 27 33 31 34 28 35 30 36
REMARK SMILES IDX 29 37
REMARK H PARENT 13 12 15 14 17 16 20 31
REMARK Flexibility Score: inf
ROOT
ATOM      1  O   UNL     1       0.357  50.799  57.363  1.00  0.00    -0.458 OA
ENDROOT
BRANCH   1   2
ATOM      2  C   UNL     1       0.826  49.584  57.952  1.00  0.00     0.339 C 
ATOM      3  C   UNL     1       2.069  47.670  57.465  1.00  0.00     0.199 C 
ATOM      4  C   UNL     1       1.225  46.853  58.495  1.00  0.00     0.180 C 
ATOM      5  O   UNL     1       1.363  48.777  56.922  1.00  0.00    -0.328 OA
ATOM      6  C   UNL     1      -0.248  47.313  58.505  1.00  0.00     0.181 C 
ATOM      7  C   UNL     1      -0.362  48.850  58.634  1.00  0.00     0.214 C 
BRANCH   3   8
ATOM      8  C   UNL     1       2.500  46.775  56.337  1.00  0.00     0.073 C 
ATOM      9  O   UNL     1       1.647  46.088  55.713  1.00  0.00    -0.547 OA
ATOM     10  O   UNL     1       3.851  46.610  56.062  1.00  0.00    -0.547 OA
ENDBRANCH   3   8
BRANCH   4  11
ATOM     11  O   UNL     1       1.782  46.997  59.778  1.00  0.00    -0.387 OA
ATOM     12  H   UNL     1       1.689  46.120  60.231  1.00  0.00     0.211 HD
ENDBRANCH   4  11
BRANCH   6  13
ATOM     13  O   UNL     1      -0.866  46.917  57.305  1.00  0.00    -0.387 OA
ATOM     14  H   UNL     1      -0.154  46.529  56.728  1.00  0.00     0.211 HD
ENDBRANCH   6  13
BRANCH   7  15
ATOM     15  O   UNL     1      -0.499  49.250  59.979  1.00  0.00    -0.384 OA
ATOM     16  H   UNL     1      -1.424  49.029  60.270  1.00  0.00     0.211 HD
ENDBRANCH   7  15
ENDBRANCH   1   2
BRANCH   1  17
ATOM     17  C   UNL     1       0.591  52.072  57.904  1.00  0.00     0.172 A 
ATOM     18  C   UNL     1      -0.421  52.682  58.651  1.00  0.00     0.205 A 
ATOM     19  C   UNL     1       1.816  52.720  57.719  1.00  0.00     0.097 A 
ATOM     20  C   UNL     1      -0.159  53.908  59.315  1.00  0.00     0.188 A 
ATOM     21  C   UNL     1       2.075  53.958  58.303  1.00  0.00     0.134 A 
ATOM     22  C   UNL     1       1.110  54.538  59.176  1.00  0.00     0.111 A 
ATOM     23  O   UNL     1      -1.087  54.453  60.099  1.00  0.00    -0.452 OA
ATOM     24  C   UNL     1       1.346  55.701  59.947  1.00  0.00     0.197 A 
ATOM     25  C   UNL     1      -0.904  55.567  60.804  1.00  0.00     0.138 A 
ATOM     26  C   UNL     1       0.330  56.228  60.734  1.00  0.00     0.100 A 
ATOM     27  O   UNL     1       2.477  56.250  60.004  1.00  0.00    -0.289 OA
BRANCH  18  28
ATOM     28  O   UNL     1      -1.646  51.994  58.713  1.00  0.00    -0.490 OA
ATOM     29  C   UNL     1      -2.773  52.192  57.872  1.00  0.00     0.278 C 
ENDBRANCH  18  28
BRANCH  21  30
ATOM     30  O   UNL     1       3.287  54.567  57.955  1.00  0.00    -0.507 OA
ATOM     31  H   UNL     1       3.675  54.609  57.026  1.00  0.00     0.293 HD
ENDBRANCH  21  30
BRANCH  25  32
ATOM     32  C   UNL     1      -1.993  56.053  61.694  1.00  0.00     0.017 A 
ATOM     33  C   UNL     1      -1.871  56.030  63.098  1.00  0.00     0.012 A 
ATOM     34  C   UNL     1      -3.195  56.522  61.136  1.00  0.00     0.012 A 
ATOM     35  C   UNL     1      -2.938  56.427  63.912  1.00  0.00     0.001 A 
ATOM     36  C   UNL     1      -4.259  56.924  61.953  1.00  0.00     0.001 A 
ATOM     37  C   UNL     1      -4.135  56.866  63.340  1.00  0.00     0.000 A 
ENDBRANCH  25  32
ENDBRANCH   1  17
TORSDOF 9
ENDMDL
MODEL 7
REMARK VINA RESULT:    -3.394      2.576      9.047
REMARK INTER + INTRA:          -6.057
REMARK INTER:                  -5.130
REMARK INTRA:                  -0.927
REMARK UNBOUND:                -1.274
REMARK SMILES COc1c(O[C@@H]2O[C@H](C(=O)[O-])[C@@H](O)[C@H](O)[C@H]2O)cc(O)c2c(=O)cc(-c3ccccc3)oc12
REMARK SMILES IDX 5 1 6 2 8 3 12 4 7 5 14 6 16 7 9 8 10 9 11 10 13 11 15 13
REMARK SMILES IDX 17 15 4 17 3 18 18 19 33 20 19 21 21 22 32 23 22 24 25 25
REMARK SMILES IDX 24 26 23 27 2 28 1 29 20 30 26 32 27 33 31 34 28 35 30 36
REMARK SMILES IDX 29 37
REMARK H PARENT 13 12 15 14 17 16 20 31
REMARK Flexibility Score: inf
ROOT
ATOM      1  O   UNL     1      -0.028  50.824  56.919  1.00  0.00    -0.458 OA
ENDROOT
BRANCH   1   2
ATOM      2  C   UNL     1       0.544  49.605  56.439  1.00  0.00     0.339 C 
ATOM      3  C   UNL     1       0.647  47.321  56.902  1.00  0.00     0.199 C 
ATOM      4  C   UNL     1       2.075  47.252  56.272  1.00  0.00     0.180 C 
ATOM      5  O   UNL     1       0.329  48.606  57.417  1.00  0.00    -0.328 OA
ATOM      6  C   UNL     1       2.880  48.535  56.563  1.00  0.00     0.181 C 
ATOM      7  C   UNL     1       2.068  49.805  56.214  1.00  0.00     0.214 C 
BRANCH   3   8
ATOM      8  C   UNL     1       0.532  46.316  58.014  1.00  0.00     0.073 C 
ATOM      9  O   UNL     1       1.328  46.360  58.991  1.00  0.00    -0.547 OA
ATOM     10  O   UNL     1      -0.368  45.265  57.908  1.00  0.00    -0.547 OA
ENDBRANCH   3   8
BRANCH   4  11
ATOM     11  O   UNL     1       1.967  47.056  54.884  1.00  0.00    -0.387 OA
ATOM     12  H   UNL     1       2.592  47.695  54.454  1.00  0.00     0.211 HD
ENDBRANCH   4  11
BRANCH   6  13
ATOM     13  O   UNL     1       3.211  48.575  57.930  1.00  0.00    -0.387 OA
ATOM     14  H   UNL     1       2.515  49.124  58.379  1.00  0.00     0.211 HD
ENDBRANCH   6  13
BRANCH   7  15
ATOM     15  O   UNL     1       2.333  50.247  54.902  1.00  0.00    -0.384 OA
ATOM     16  H   UNL     1       1.483  50.590  54.519  1.00  0.00     0.211 HD
ENDBRANCH   7  15
ENDBRANCH   1   2
BRANCH   1  17
ATOM     17  C   UNL     1       0.066  51.264  58.248  1.00  0.00     0.172 A 
ATOM     18  C   UNL     1       0.801  52.420  58.524  1.00  0.00     0.205 A 
ATOM     19  C   UNL     1      -0.574  50.573  59.281  1.00  0.00     0.097 A 
ATOM     20  C   UNL     1       0.799  52.953  59.838  1.00  0.00     0.188 A 
ATOM     21  C   UNL     1      -0.534  51.037  60.594  1.00  0.00     0.134 A 
ATOM     22  C   UNL     1       0.096  52.283  60.879  1.00  0.00     0.111 A 
ATOM     23  O   UNL     1       1.424  54.102  60.093  1.00  0.00    -0.452 OA
ATOM     24  C   UNL     1       0.044  52.920  62.143  1.00  0.00     0.197 A 
ATOM     25  C   UNL     1       1.422  54.701  61.281  1.00  0.00     0.138 A 
ATOM     26  C   UNL     1       0.731  54.110  62.347  1.00  0.00     0.100 A 
ATOM     27  O   UNL     1      -0.666  52.483  63.084  1.00  0.00    -0.289 OA
BRANCH  18  28
ATOM     28  O   UNL     1       1.477  52.999  57.436  1.00  0.00    -0.490 OA
ATOM     29  C   UNL     1       1.084  54.154  56.709  1.00  0.00     0.278 C 
ENDBRANCH  18  28
BRANCH  21  30
ATOM     30  O   UNL     1      -1.107  50.207  61.565  1.00  0.00    -0.507 OA
ATOM     31  H   UNL     1      -2.095  50.064  61.702  1.00  0.00     0.293 HD
ENDBRANCH  21  30
BRANCH  25  32
ATOM     32  C   UNL     1       2.106  56.014  61.435  1.00  0.00     0.017 A 
ATOM     33  C   UNL     1       2.406  56.830  60.325  1.00  0.00     0.012 A 
ATOM     34  C   UNL     1       2.497  56.453  62.712  1.00  0.00     0.012 A 
ATOM     35  C   UNL     1       3.112  58.026  60.492  1.00  0.00     0.001 A 
ATOM     36  C   UNL     1       3.199  57.653  62.875  1.00  0.00     0.001 A 
ATOM     37  C   UNL     1       3.516  58.434  61.766  1.00  0.00     0.000 A 
ENDBRANCH  25  32
ENDBRANCH   1  17
TORSDOF 9
ENDMDL
MODEL 8
REMARK VINA RESULT:    -3.352      2.270      4.557
REMARK INTER + INTRA:          -5.998
REMARK INTER:                  -4.481
REMARK INTRA:                  -1.516
REMARK UNBOUND:                -1.274
REMARK SMILES COc1c(O[C@@H]2O[C@H](C(=O)[O-])[C@@H](O)[C@H](O)[C@H]2O)cc(O)c2c(=O)cc(-c3ccccc3)oc12
REMARK SMILES IDX 5 1 6 2 8 3 12 4 7 5 14 6 16 7 9 8 10 9 11 10 13 11 15 13
REMARK SMILES IDX 17 15 4 17 3 18 18 19 33 20 19 21 21 22 32 23 22 24 25 25
REMARK SMILES IDX 24 26 23 27 2 28 1 29 20 30 26 32 27 33 31 34 28 35 30 36
REMARK SMILES IDX 29 37
REMARK H PARENT 13 12 15 14 17 16 20 31
REMARK Flexibility Score: inf
ROOT
ATOM      1  O   UNL     1      -0.443  53.278  58.644  1.00  0.00    -0.458 OA
ENDROOT
BRANCH   1   2
ATOM      2  C   UNL     1       0.566  54.242  58.951  1.00  0.00     0.339 C 
ATOM      3  C   UNL     1       1.089  55.926  60.480  1.00  0.00     0.199 C 
ATOM      4  C   UNL     1       1.890  56.687  59.376  1.00  0.00     0.180 C 
ATOM      5  O   UNL     1       0.057  55.105  59.950  1.00  0.00    -0.328 OA
ATOM      6  C   UNL     1       1.224  56.537  57.992  1.00  0.00     0.181 C 
ATOM      7  C   UNL     1       0.907  55.057  57.673  1.00  0.00     0.214 C 
BRANCH   3   8
ATOM      8  C   UNL     1       0.475  56.912  61.434  1.00  0.00     0.073 C 
ATOM      9  O   UNL     1      -0.328  57.787  61.010  1.00  0.00    -0.547 OA
ATOM     10  O   UNL     1       0.884  56.940  62.760  1.00  0.00    -0.547 OA
ENDBRANCH   3   8
BRANCH   4  11
ATOM     11  O   UNL     1       3.207  56.197  59.330  1.00  0.00    -0.387 OA
ATOM     12  H   UNL     1       3.619  56.395  60.210  1.00  0.00     0.211 HD
ENDBRANCH   4  11
BRANCH   6  13
ATOM     13  O   UNL     1       0.021  57.267  57.976  1.00  0.00    -0.387 OA
ATOM     14  H   UNL     1      -0.295  57.282  57.034  1.00  0.00     0.211 HD
ENDBRANCH   6  13
BRANCH   7  15
ATOM     15  O   UNL     1       1.951  54.447  56.948  1.00  0.00    -0.384 OA
ATOM     16  H   UNL     1       1.772  53.470  56.919  1.00  0.00     0.211 HD
ENDBRANCH   7  15
ENDBRANCH   1   2
BRANCH   1  17
ATOM     17  C   UNL     1      -0.315  51.903  58.896  1.00  0.00     0.172 A 
ATOM     18  C   UNL     1       0.369  51.110  57.971  1.00  0.00     0.205 A 
ATOM     19  C   UNL     1      -0.845  51.332  60.057  1.00  0.00     0.097 A 
ATOM     20  C   UNL     1       0.623  49.747  58.270  1.00  0.00     0.188 A 
ATOM     21  C   UNL     1      -0.670  49.980  60.342  1.00  0.00     0.134 A 
ATOM     22  C   UNL     1       0.135  49.180  59.482  1.00  0.00     0.111 A 
ATOM     23  O   UNL     1       1.349  49.005  57.436  1.00  0.00    -0.452 OA
ATOM     24  C   UNL     1       0.512  47.846  59.772  1.00  0.00     0.197 A 
ATOM     25  C   UNL     1       1.683  47.738  57.667  1.00  0.00     0.138 A 
ATOM     26  C   UNL     1       1.258  47.121  58.851  1.00  0.00     0.100 A 
ATOM     27  O   UNL     1       0.253  47.302  60.876  1.00  0.00    -0.289 OA
BRANCH  18  28
ATOM     28  O   UNL     1       0.793  51.755  56.796  1.00  0.00    -0.490 OA
ATOM     29  C   UNL     1       0.123  51.762  55.543  1.00  0.00     0.278 C 
ENDBRANCH  18  28
BRANCH  21  30
ATOM     30  O   UNL     1      -1.342  49.490  61.469  1.00  0.00    -0.507 OA
ATOM     31  H   UNL     1      -0.908  49.228  62.340  1.00  0.00     0.293 HD
ENDBRANCH  21  30
BRANCH  25  32
ATOM     32  C   UNL     1       2.549  47.023  56.690  1.00  0.00     0.017 A 
ATOM     33  C   UNL     1       2.659  45.618  56.683  1.00  0.00     0.012 A 
ATOM     34  C   UNL     1       3.308  47.757  55.762  1.00  0.00     0.012 A 
ATOM     35  C   UNL     1       3.534  44.977  55.799  1.00  0.00     0.001 A 
ATOM     36  C   UNL     1       4.179  47.112  54.875  1.00  0.00     0.001 A 
ATOM     37  C   UNL     1       4.300  45.724  54.901  1.00  0.00     0.000 A 
ENDBRANCH  25  32
ENDBRANCH   1  17
TORSDOF 9
ENDMDL
