MODEL 1
REMARK VINA RESULT:    -6.362      0.000      0.000
REMARK INTER + INTRA:          -7.574
REMARK INTER:                  -7.292
REMARK INTRA:                  -0.282
REMARK UNBOUND:                -0.282
REMARK SMILES O=C1C[C@@H](c2ccc(O)cc2)Oc2cc(O)cc(O)c21
REMARK SMILES IDX 3 1 4 2 12 3 13 4 14 5 15 6 17 7 18 8 20 9 2 10 1 11 5 12
REMARK SMILES IDX 6 13 11 14 7 15 10 16 8 17 9 18 19 20 16 22
REMARK H PARENT 9 19 19 21 16 23
REMARK Flexibility Score: inf
ROOT
ATOM      1  C   UNL     1      -9.241 -12.860  19.095  1.00  0.00     0.131 C 
ATOM      2  C   UNL     1      -9.113 -14.222  18.398  1.00  0.00     0.211 C 
ATOM      3  O   UNL     1      -8.617 -15.209  19.309  1.00  0.00    -0.484 OA
ATOM      4  C   UNL     1      -9.017 -15.267  20.651  1.00  0.00     0.138 A 
ATOM      5  C   UNL     1      -8.714 -16.407  21.398  1.00  0.00     0.093 A 
ATOM      6  C   UNL     1      -9.111 -16.502  22.733  1.00  0.00     0.123 A 
ATOM      7  C   UNL     1      -9.791 -15.436  23.332  1.00  0.00     0.093 A 
ATOM      8  C   UNL     1     -10.071 -14.267  22.614  1.00  0.00     0.133 A 
ATOM      9  C   UNL     1      -9.710 -14.188  21.242  1.00  0.00     0.102 A 
ATOM     10  C   UNL     1     -10.017 -13.030  20.367  1.00  0.00     0.174 C 
ATOM     11  O   UNL     1     -10.945 -12.223  20.636  1.00  0.00    -0.294 OA
ENDROOT
BRANCH   2  12
ATOM     12  C   UNL     1      -8.204 -14.125  17.197  1.00  0.00    -0.007 A 
ATOM     13  C   UNL     1      -7.213 -13.130  17.129  1.00  0.00     0.011 A 
ATOM     14  C   UNL     1      -8.378 -14.995  16.107  1.00  0.00     0.011 A 
ATOM     15  C   UNL     1      -6.394 -13.024  16.000  1.00  0.00     0.046 A 
ATOM     16  C   UNL     1      -7.556 -14.887  14.979  1.00  0.00     0.046 A 
ATOM     17  C   UNL     1      -6.564 -13.904  14.924  1.00  0.00     0.115 A 
BRANCH  17  18
ATOM     18  O   UNL     1      -5.753 -13.809  13.795  1.00  0.00    -0.508 OA
ATOM     19  H   UNL     1      -5.944 -14.346  12.958  1.00  0.00     0.293 HD
ENDBRANCH  17  18
ENDBRANCH   2  12
BRANCH   8  20
ATOM     20  O   UNL     1     -10.668 -13.214  23.308  1.00  0.00    -0.507 OA
ATOM     21  H   UNL     1     -10.652 -13.118  24.313  1.00  0.00     0.293 HD
ENDBRANCH   8  20
BRANCH   6  22
ATOM     22  O   UNL     1      -8.819 -17.656  23.456  1.00  0.00    -0.508 OA
ATOM     23  H   UNL     1      -9.450 -18.010  24.166  1.00  0.00     0.293 HD
ENDBRANCH   6  22
TORSDOF 4
ENDMDL
MODEL 2
REMARK VINA RESULT:    -6.345      9.524     11.641
REMARK INTER + INTRA:          -7.554
REMARK INTER:                  -7.250
REMARK INTRA:                  -0.304
REMARK UNBOUND:                -0.282
REMARK SMILES O=C1C[C@@H](c2ccc(O)cc2)Oc2cc(O)cc(O)c21
REMARK SMILES IDX 3 1 4 2 12 3 13 4 14 5 15 6 17 7 18 8 20 9 2 10 1 11 5 12
REMARK SMILES IDX 6 13 11 14 7 15 10 16 8 17 9 18 19 20 16 22
REMARK H PARENT 9 19 19 21 16 23
REMARK Flexibility Score: inf
ROOT
ATOM      1  C   UNL     1     -16.752 -19.600  16.906  1.00  0.00     0.131 C 
ATOM      2  C   UNL     1     -17.469 -18.838  18.029  1.00  0.00     0.211 C 
ATOM      3  O   UNL     1     -17.826 -17.521  17.595  1.00  0.00    -0.484 OA
ATOM      4  C   UNL     1     -18.298 -17.253  16.303  1.00  0.00     0.138 A 
ATOM      5  C   UNL     1     -18.883 -16.013  16.040  1.00  0.00     0.093 A 
ATOM      6  C   UNL     1     -19.376 -15.721  14.768  1.00  0.00     0.123 A 
ATOM      7  C   UNL     1     -19.258 -16.667  13.744  1.00  0.00     0.093 A 
ATOM      8  C   UNL     1     -18.640 -17.902  13.974  1.00  0.00     0.133 A 
ATOM      9  C   UNL     1     -18.180 -18.219  15.280  1.00  0.00     0.102 A 
ATOM     10  C   UNL     1     -17.574 -19.521  15.655  1.00  0.00     0.174 C 
ATOM     11  O   UNL     1     -17.777 -20.566  14.983  1.00  0.00    -0.294 OA
ENDROOT
BRANCH   2  12
ATOM     12  C   UNL     1     -16.601 -18.758  19.261  1.00  0.00    -0.007 A 
ATOM     13  C   UNL     1     -15.698 -17.694  19.433  1.00  0.00     0.011 A 
ATOM     14  C   UNL     1     -16.646 -19.781  20.224  1.00  0.00     0.011 A 
ATOM     15  C   UNL     1     -14.873 -17.642  20.560  1.00  0.00     0.046 A 
ATOM     16  C   UNL     1     -15.819 -19.725  21.352  1.00  0.00     0.046 A 
ATOM     17  C   UNL     1     -14.934 -18.657  21.524  1.00  0.00     0.115 A 
BRANCH  17  18
ATOM     18  O   UNL     1     -14.117 -18.615  22.652  1.00  0.00    -0.508 OA
ATOM     19  H   UNL     1     -14.320 -19.171  23.473  1.00  0.00     0.293 HD
ENDBRANCH  17  18
ENDBRANCH   2  12
BRANCH   8  20
ATOM     20  O   UNL     1     -18.476 -18.753  12.880  1.00  0.00    -0.507 OA
ATOM     21  H   UNL     1     -19.177 -19.408  12.563  1.00  0.00     0.293 HD
ENDBRANCH   8  20
BRANCH   6  22
ATOM     22  O   UNL     1     -19.976 -14.487  14.531  1.00  0.00    -0.508 OA
ATOM     23  H   UNL     1     -20.112 -14.136  13.589  1.00  0.00     0.293 HD
ENDBRANCH   6  22
TORSDOF 4
ENDMDL
MODEL 3
REMARK VINA RESULT:    -6.334      3.689      4.442
REMARK INTER + INTRA:          -7.542
REMARK INTER:                  -7.238
REMARK INTRA:                  -0.304
REMARK UNBOUND:                -0.282
REMARK SMILES O=C1C[C@@H](c2ccc(O)cc2)Oc2cc(O)cc(O)c21
REMARK SMILES IDX 3 1 4 2 12 3 13 4 14 5 15 6 17 7 18 8 20 9 2 10 1 11 5 12
REMARK SMILES IDX 6 13 11 14 7 15 10 16 8 17 9 18 19 20 16 22
REMARK H PARENT 9 19 19 21 16 23
REMARK Flexibility Score: inf
ROOT
ATOM      1  C   UNL     1      -5.825 -13.590  21.846  1.00  0.00     0.131 C 
ATOM      2  C   UNL     1      -5.820 -13.723  20.316  1.00  0.00     0.211 C 
ATOM      3  O   UNL     1      -7.123 -14.074  19.837  1.00  0.00    -0.484 OA
ATOM      4  C   UNL     1      -8.298 -13.536  20.380  1.00  0.00     0.138 A 
ATOM      5  C   UNL     1      -9.500 -13.705  19.691  1.00  0.00     0.093 A 
ATOM      6  C   UNL     1     -10.684 -13.168  20.198  1.00  0.00     0.123 A 
ATOM      7  C   UNL     1     -10.671 -12.482  21.417  1.00  0.00     0.093 A 
ATOM      8  C   UNL     1      -9.483 -12.335  22.145  1.00  0.00     0.133 A 
ATOM      9  C   UNL     1      -8.268 -12.839  21.608  1.00  0.00     0.102 A 
ATOM     10  C   UNL     1      -6.944 -12.679  22.256  1.00  0.00     0.174 C 
ATOM     11  O   UNL     1      -6.721 -11.769  23.096  1.00  0.00    -0.294 OA
ENDROOT
BRANCH   2  12
ATOM     12  C   UNL     1      -4.812 -14.754  19.872  1.00  0.00    -0.007 A 
ATOM     13  C   UNL     1      -3.479 -14.387  19.611  1.00  0.00     0.011 A 
ATOM     14  C   UNL     1      -5.209 -16.086  19.660  1.00  0.00     0.011 A 
ATOM     15  C   UNL     1      -2.557 -15.340  19.170  1.00  0.00     0.046 A 
ATOM     16  C   UNL     1      -4.282 -17.037  19.219  1.00  0.00     0.046 A 
ATOM     17  C   UNL     1      -2.957 -16.668  18.975  1.00  0.00     0.115 A 
BRANCH  17  18
ATOM     18  O   UNL     1      -2.045 -17.626  18.537  1.00  0.00    -0.508 OA
ATOM     19  H   UNL     1      -2.040 -18.565  18.916  1.00  0.00     0.293 HD
ENDBRANCH  17  18
ENDBRANCH   2  12
BRANCH   8  20
ATOM     20  O   UNL     1      -9.568 -11.721  23.395  1.00  0.00    -0.507 OA
ATOM     21  H   UNL     1      -9.375 -10.743  23.559  1.00  0.00     0.293 HD
ENDBRANCH   8  20
BRANCH   6  22
ATOM     22  O   UNL     1     -11.871 -13.328  19.485  1.00  0.00    -0.508 OA
ATOM     23  H   UNL     1     -12.513 -12.556  19.345  1.00  0.00     0.293 HD
ENDBRANCH   6  22
TORSDOF 4
ENDMDL
MODEL 4
REMARK VINA RESULT:    -6.300      4.990      6.738
REMARK INTER + INTRA:          -7.503
REMARK INTER:                  -7.196
REMARK INTRA:                  -0.308
REMARK UNBOUND:                -0.282
REMARK SMILES O=C1C[C@@H](c2ccc(O)cc2)Oc2cc(O)cc(O)c21
REMARK SMILES IDX 3 1 4 2 12 3 13 4 14 5 15 6 17 7 18 8 20 9 2 10 1 11 5 12
REMARK SMILES IDX 6 13 11 14 7 15 10 16 8 17 9 18 19 20 16 22
REMARK H PARENT 9 19 19 21 16 23
REMARK Flexibility Score: inf
ROOT
ATOM      1  C   UNL     1     -13.153 -15.651  20.010  1.00  0.00     0.131 C 
ATOM      2  C   UNL     1     -11.955 -16.410  20.599  1.00  0.00     0.211 C 
ATOM      3  O   UNL     1     -12.398 -17.408  21.524  1.00  0.00    -0.484 OA
ATOM      4  C   UNL     1     -13.542 -18.187  21.305  1.00  0.00     0.138 A 
ATOM      5  C   UNL     1     -13.754 -19.316  22.100  1.00  0.00     0.093 A 
ATOM      6  C   UNL     1     -14.875 -20.121  21.897  1.00  0.00     0.123 A 
ATOM      7  C   UNL     1     -15.807 -19.778  20.911  1.00  0.00     0.093 A 
ATOM      8  C   UNL     1     -15.635 -18.629  20.129  1.00  0.00     0.133 A 
ATOM      9  C   UNL     1     -14.470 -17.835  20.301  1.00  0.00     0.102 A 
ATOM     10  C   UNL     1     -14.151 -16.639  19.484  1.00  0.00     0.174 C 
ATOM     11  O   UNL     1     -14.651 -16.462  18.342  1.00  0.00    -0.294 OA
ENDROOT
BRANCH   2  12
ATOM     12  C   UNL     1     -11.003 -15.459  21.281  1.00  0.00    -0.007 A 
ATOM     13  C   UNL     1      -9.996 -15.944  22.135  1.00  0.00     0.011 A 
ATOM     14  C   UNL     1     -11.149 -14.071  21.114  1.00  0.00     0.011 A 
ATOM     15  C   UNL     1      -9.136 -15.056  22.789  1.00  0.00     0.046 A 
ATOM     16  C   UNL     1     -10.286 -13.186  21.770  1.00  0.00     0.046 A 
ATOM     17  C   UNL     1      -9.279 -13.675  22.606  1.00  0.00     0.115 A 
BRANCH  17  18
ATOM     18  O   UNL     1      -8.427 -12.782  23.253  1.00  0.00    -0.508 OA
ATOM     19  H   UNL     1      -7.755 -13.095  23.943  1.00  0.00     0.293 HD
ENDBRANCH  17  18
ENDBRANCH   2  12
BRANCH   8  20
ATOM     20  O   UNL     1     -16.654 -18.304  19.232  1.00  0.00    -0.507 OA
ATOM     21  H   UNL     1     -16.498 -17.877  18.330  1.00  0.00     0.293 HD
ENDBRANCH   8  20
BRANCH   6  22
ATOM     22  O   UNL     1     -15.059 -21.255  22.685  1.00  0.00    -0.508 OA
ATOM     23  H   UNL     1     -15.457 -22.106  22.304  1.00  0.00     0.293 HD
ENDBRANCH   6  22
TORSDOF 4
ENDMDL
MODEL 5
REMARK VINA RESULT:    -6.168      4.471      7.356
REMARK INTER + INTRA:          -7.352
REMARK INTER:                  -7.040
REMARK INTRA:                  -0.312
REMARK UNBOUND:                -0.282
REMARK SMILES O=C1C[C@@H](c2ccc(O)cc2)Oc2cc(O)cc(O)c21
REMARK SMILES IDX 3 1 4 2 12 3 13 4 14 5 15 6 17 7 18 8 20 9 2 10 1 11 5 12
REMARK SMILES IDX 6 13 11 14 7 15 10 16 8 17 9 18 19 20 16 22
REMARK H PARENT 9 19 19 21 16 23
REMARK Flexibility Score: inf
ROOT
ATOM      1  C   UNL     1     -11.463 -17.492  21.972  1.00  0.00     0.131 C 
ATOM      2  C   UNL     1     -12.242 -17.267  20.668  1.00  0.00     0.211 C 
ATOM      3  O   UNL     1     -12.487 -15.871  20.463  1.00  0.00    -0.484 OA
ATOM      4  C   UNL     1     -11.537 -14.885  20.762  1.00  0.00     0.138 A 
ATOM      5  C   UNL     1     -11.734 -13.589  20.283  1.00  0.00     0.093 A 
ATOM      6  C   UNL     1     -10.799 -12.588  20.551  1.00  0.00     0.123 A 
ATOM      7  C   UNL     1      -9.673 -12.880  21.329  1.00  0.00     0.093 A 
ATOM      8  C   UNL     1      -9.475 -14.163  21.853  1.00  0.00     0.133 A 
ATOM      9  C   UNL     1     -10.401 -15.195  21.542  1.00  0.00     0.102 A 
ATOM     10  C   UNL     1     -10.255 -16.604  21.983  1.00  0.00     0.174 C 
ATOM     11  O   UNL     1      -9.139 -17.084  22.311  1.00  0.00    -0.294 OA
ENDROOT
BRANCH   2  12
ATOM     12  C   UNL     1     -13.547 -18.023  20.688  1.00  0.00    -0.007 A 
ATOM     13  C   UNL     1     -13.658 -19.243  21.380  1.00  0.00     0.011 A 
ATOM     14  C   UNL     1     -14.653 -17.543  19.965  1.00  0.00     0.011 A 
ATOM     15  C   UNL     1     -14.860 -19.955  21.368  1.00  0.00     0.046 A 
ATOM     16  C   UNL     1     -15.856 -18.259  19.956  1.00  0.00     0.046 A 
ATOM     17  C   UNL     1     -15.963 -19.463  20.658  1.00  0.00     0.115 A 
BRANCH  17  18
ATOM     18  O   UNL     1     -17.166 -20.165  20.641  1.00  0.00    -0.508 OA
ATOM     19  H   UNL     1     -17.815 -20.085  19.867  1.00  0.00     0.293 HD
ENDBRANCH  17  18
ENDBRANCH   2  12
BRANCH   8  20
ATOM     20  O   UNL     1      -8.378 -14.351  22.696  1.00  0.00    -0.507 OA
ATOM     21  H   UNL     1      -8.450 -14.633  23.663  1.00  0.00     0.293 HD
ENDBRANCH   8  20
BRANCH   6  22
ATOM     22  O   UNL     1     -11.002 -11.306  20.046  1.00  0.00    -0.508 OA
ATOM     23  H   UNL     1     -11.753 -11.105  19.395  1.00  0.00     0.293 HD
ENDBRANCH   6  22
TORSDOF 4
ENDMDL
MODEL 6
REMARK VINA RESULT:    -6.157      8.315     10.383
REMARK INTER + INTRA:          -7.339
REMARK INTER:                  -7.029
REMARK INTRA:                  -0.310
REMARK UNBOUND:                -0.282
REMARK SMILES O=C1C[C@@H](c2ccc(O)cc2)Oc2cc(O)cc(O)c21
REMARK SMILES IDX 3 1 4 2 12 3 13 4 14 5 15 6 17 7 18 8 20 9 2 10 1 11 5 12
REMARK SMILES IDX 6 13 11 14 7 15 10 16 8 17 9 18 19 20 16 22
REMARK H PARENT 9 19 19 21 16 23
REMARK Flexibility Score: inf
ROOT
ATOM      1  C   UNL     1     -17.070 -18.954  18.971  1.00  0.00     0.131 C 
ATOM      2  C   UNL     1     -16.223 -17.676  19.054  1.00  0.00     0.211 C 
ATOM      3  O   UNL     1     -15.717 -17.323  17.762  1.00  0.00    -0.484 OA
ATOM      4  C   UNL     1     -16.477 -17.454  16.592  1.00  0.00     0.138 A 
ATOM      5  C   UNL     1     -16.029 -16.838  15.422  1.00  0.00     0.093 A 
ATOM      6  C   UNL     1     -16.770 -16.936  14.244  1.00  0.00     0.123 A 
ATOM      7  C   UNL     1     -17.954 -17.681  14.229  1.00  0.00     0.093 A 
ATOM      8  C   UNL     1     -18.403 -18.340  15.381  1.00  0.00     0.133 A 
ATOM      9  C   UNL     1     -17.675 -18.201  16.593  1.00  0.00     0.102 A 
ATOM     10  C   UNL     1     -18.093 -18.795  17.886  1.00  0.00     0.174 C 
ATOM     11  O   UNL     1     -19.288 -19.117  18.114  1.00  0.00    -0.294 OA
ENDROOT
BRANCH   2  12
ATOM     12  C   UNL     1     -15.081 -17.854  20.025  1.00  0.00    -0.007 A 
ATOM     13  C   UNL     1     -15.182 -18.768  21.089  1.00  0.00     0.011 A 
ATOM     14  C   UNL     1     -13.924 -17.064  19.908  1.00  0.00     0.011 A 
ATOM     15  C   UNL     1     -14.134 -18.906  22.004  1.00  0.00     0.046 A 
ATOM     16  C   UNL     1     -12.877 -17.206  20.825  1.00  0.00     0.046 A 
ATOM     17  C   UNL     1     -12.978 -18.126  21.872  1.00  0.00     0.115 A 
BRANCH  17  18
ATOM     18  O   UNL     1     -11.927 -18.256  22.778  1.00  0.00    -0.508 OA
ATOM     19  H   UNL     1     -11.142 -17.615  22.774  1.00  0.00     0.293 HD
ENDBRANCH  17  18
ENDBRANCH   2  12
BRANCH   8  20
ATOM     20  O   UNL     1     -19.542 -19.138  15.262  1.00  0.00    -0.507 OA
ATOM     21  H   UNL     1     -19.653 -19.864  14.567  1.00  0.00     0.293 HD
ENDBRANCH   8  20
BRANCH   6  22
ATOM     22  O   UNL     1     -16.318 -16.297  13.092  1.00  0.00    -0.508 OA
ATOM     23  H   UNL     1     -16.748 -16.465  12.189  1.00  0.00     0.293 HD
ENDBRANCH   6  22
TORSDOF 4
ENDMDL
MODEL 7
REMARK VINA RESULT:    -6.123      1.349      2.807
REMARK INTER + INTRA:          -7.300
REMARK INTER:                  -7.003
REMARK INTRA:                  -0.297
REMARK UNBOUND:                -0.282
REMARK SMILES O=C1C[C@@H](c2ccc(O)cc2)Oc2cc(O)cc(O)c21
REMARK SMILES IDX 3 1 4 2 12 3 13 4 14 5 15 6 17 7 18 8 20 9 2 10 1 11 5 12
REMARK SMILES IDX 6 13 11 14 7 15 10 16 8 17 9 18 19 20 16 22
REMARK H PARENT 9 19 19 21 16 23
REMARK Flexibility Score: inf
ROOT
ATOM      1  C   UNL     1      -7.869 -15.748  18.573  1.00  0.00     0.131 C 
ATOM      2  C   UNL     1      -7.275 -14.332  18.531  1.00  0.00     0.211 C 
ATOM      3  O   UNL     1      -8.146 -13.402  19.182  1.00  0.00    -0.484 OA
ATOM      4  C   UNL     1      -8.845 -13.716  20.357  1.00  0.00     0.138 A 
ATOM      5  C   UNL     1      -9.448 -12.685  21.080  1.00  0.00     0.093 A 
ATOM      6  C   UNL     1     -10.138 -12.963  22.261  1.00  0.00     0.123 A 
ATOM      7  C   UNL     1     -10.251 -14.285  22.705  1.00  0.00     0.093 A 
ATOM      8  C   UNL     1      -9.688 -15.339  21.974  1.00  0.00     0.133 A 
ATOM      9  C   UNL     1      -8.945 -15.053  20.798  1.00  0.00     0.102 A 
ATOM     10  C   UNL     1      -8.248 -16.080  19.985  1.00  0.00     0.174 C 
ATOM     11  O   UNL     1      -7.920 -17.197  20.465  1.00  0.00    -0.294 OA
ENDROOT
BRANCH   2  12
ATOM     12  C   UNL     1      -7.028 -13.898  17.107  1.00  0.00    -0.007 A 
ATOM     13  C   UNL     1      -6.476 -12.634  16.830  1.00  0.00     0.011 A 
ATOM     14  C   UNL     1      -7.400 -14.732  16.039  1.00  0.00     0.011 A 
ATOM     15  C   UNL     1      -6.278 -12.225  15.508  1.00  0.00     0.046 A 
ATOM     16  C   UNL     1      -7.200 -14.319  14.717  1.00  0.00     0.046 A 
ATOM     17  C   UNL     1      -6.638 -13.068  14.449  1.00  0.00     0.115 A 
BRANCH  17  18
ATOM     18  O   UNL     1      -6.444 -12.670  13.128  1.00  0.00    -0.508 OA
ATOM     19  H   UNL     1      -7.194 -12.705  12.448  1.00  0.00     0.293 HD
ENDBRANCH  17  18
ENDBRANCH   2  12
BRANCH   8  20
ATOM     20  O   UNL     1      -9.924 -16.636  22.432  1.00  0.00    -0.507 OA
ATOM     21  H   UNL     1     -10.560 -17.284  21.991  1.00  0.00     0.293 HD
ENDBRANCH   8  20
BRANCH   6  22
ATOM     22  O   UNL     1     -10.715 -11.919  22.981  1.00  0.00    -0.508 OA
ATOM     23  H   UNL     1     -11.656 -11.597  22.786  1.00  0.00     0.293 HD
ENDBRANCH   6  22
TORSDOF 4
ENDMDL
MODEL 8
REMARK VINA RESULT:    -6.098      8.136      8.976
REMARK INTER + INTRA:          -7.271
REMARK INTER:                  -6.960
REMARK INTRA:                  -0.311
REMARK UNBOUND:                -0.282
REMARK SMILES O=C1C[C@@H](c2ccc(O)cc2)Oc2cc(O)cc(O)c21
REMARK SMILES IDX 3 1 4 2 12 3 13 4 14 5 15 6 17 7 18 8 20 9 2 10 1 11 5 12
REMARK SMILES IDX 6 13 11 14 7 15 10 16 8 17 9 18 19 20 16 22
REMARK H PARENT 9 19 19 21 16 23
REMARK Flexibility Score: inf
ROOT
ATOM      1  C   UNL     1     -15.270 -16.789  18.177  1.00  0.00     0.131 C 
ATOM      2  C   UNL     1     -16.674 -17.309  18.517  1.00  0.00     0.211 C 
ATOM      3  O   UNL     1     -16.592 -18.541  19.242  1.00  0.00    -0.484 OA
ATOM      4  C   UNL     1     -15.620 -18.777  20.224  1.00  0.00     0.138 A 
ATOM      5  C   UNL     1     -15.770 -19.874  21.074  1.00  0.00     0.093 A 
ATOM      6  C   UNL     1     -14.828 -20.128  22.071  1.00  0.00     0.123 A 
ATOM      7  C   UNL     1     -13.712 -19.293  22.201  1.00  0.00     0.093 A 
ATOM      8  C   UNL     1     -13.521 -18.210  21.334  1.00  0.00     0.133 A 
ATOM      9  C   UNL     1     -14.503 -17.922  20.349  1.00  0.00     0.102 A 
ATOM     10  C   UNL     1     -14.439 -16.763  19.426  1.00  0.00     0.174 C 
ATOM     11  O   UNL     1     -13.753 -15.741  19.689  1.00  0.00    -0.294 OA
ENDROOT
BRANCH   2  12
ATOM     12  C   UNL     1     -17.491 -17.501  17.263  1.00  0.00    -0.007 A 
ATOM     13  C   UNL     1     -17.732 -18.791  16.756  1.00  0.00     0.011 A 
ATOM     14  C   UNL     1     -17.972 -16.386  16.555  1.00  0.00     0.011 A 
ATOM     15  C   UNL     1     -18.463 -18.961  15.577  1.00  0.00     0.046 A 
ATOM     16  C   UNL     1     -18.703 -16.560  15.376  1.00  0.00     0.046 A 
ATOM     17  C   UNL     1     -18.952 -17.845  14.885  1.00  0.00     0.115 A 
BRANCH  17  18
ATOM     18  O   UNL     1     -19.682 -18.003  13.709  1.00  0.00    -0.508 OA
ATOM     19  H   UNL     1     -19.986 -17.207  13.163  1.00  0.00     0.293 HD
ENDBRANCH  17  18
ENDBRANCH   2  12
BRANCH   8  20
ATOM     20  O   UNL     1     -12.337 -17.482  21.468  1.00  0.00    -0.507 OA
ATOM     21  H   UNL     1     -12.062 -16.999  22.311  1.00  0.00     0.293 HD
ENDBRANCH   8  20
BRANCH   6  22
ATOM     22  O   UNL     1     -15.005 -21.215  22.924  1.00  0.00    -0.508 OA
ATOM     23  H   UNL     1     -14.693 -22.145  22.669  1.00  0.00     0.293 HD
ENDBRANCH   6  22
TORSDOF 4
ENDMDL
MODEL 9
REMARK VINA RESULT:    -5.985      3.154      4.108
REMARK INTER + INTRA:          -7.142
REMARK INTER:                  -6.842
REMARK INTRA:                  -0.300
REMARK UNBOUND:                -0.282
REMARK SMILES O=C1C[C@@H](c2ccc(O)cc2)Oc2cc(O)cc(O)c21
REMARK SMILES IDX 3 1 4 2 12 3 13 4 14 5 15 6 17 7 18 8 20 9 2 10 1 11 5 12
REMARK SMILES IDX 6 13 11 14 7 15 10 16 8 17 9 18 19 20 16 22
REMARK H PARENT 9 19 19 21 16 23
REMARK Flexibility Score: inf
ROOT
ATOM      1  C   UNL     1      -7.877 -15.250  19.423  1.00  0.00     0.131 C 
ATOM      2  C   UNL     1      -6.716 -15.106  20.418  1.00  0.00     0.211 C 
ATOM      3  O   UNL     1      -6.837 -13.886  21.158  1.00  0.00    -0.484 OA
ATOM      4  C   UNL     1      -8.069 -13.396  21.612  1.00  0.00     0.138 A 
ATOM      5  C   UNL     1      -8.081 -12.365  22.553  1.00  0.00     0.093 A 
ATOM      6  C   UNL     1      -9.291 -11.865  23.036  1.00  0.00     0.123 A 
ATOM      7  C   UNL     1     -10.498 -12.381  22.553  1.00  0.00     0.093 A 
ATOM      8  C   UNL     1     -10.510 -13.389  21.580  1.00  0.00     0.133 A 
ATOM      9  C   UNL     1      -9.280 -13.932  21.122  1.00  0.00     0.102 A 
ATOM     10  C   UNL     1      -9.174 -15.046  20.149  1.00  0.00     0.174 C 
ATOM     11  O   UNL     1     -10.121 -15.854  19.958  1.00  0.00    -0.294 OA
ENDROOT
BRANCH   2  12
ATOM     12  C   UNL     1      -5.390 -15.146  19.700  1.00  0.00    -0.007 A 
ATOM     13  C   UNL     1      -4.630 -16.329  19.666  1.00  0.00     0.011 A 
ATOM     14  C   UNL     1      -4.871 -13.982  19.106  1.00  0.00     0.011 A 
ATOM     15  C   UNL     1      -3.387 -16.352  19.027  1.00  0.00     0.046 A 
ATOM     16  C   UNL     1      -3.627 -14.009  18.467  1.00  0.00     0.046 A 
ATOM     17  C   UNL     1      -2.884 -15.192  18.424  1.00  0.00     0.115 A 
BRANCH  17  18
ATOM     18  O   UNL     1      -1.646 -15.204  17.784  1.00  0.00    -0.508 OA
ATOM     19  H   UNL     1      -1.486 -15.759  16.952  1.00  0.00     0.293 HD
ENDBRANCH  17  18
ENDBRANCH   2  12
BRANCH   8  20
ATOM     20  O   UNL     1     -11.752 -13.785  21.081  1.00  0.00    -0.507 OA
ATOM     21  H   UNL     1     -12.410 -13.159  20.639  1.00  0.00     0.293 HD
ENDBRANCH   8  20
BRANCH   6  22
ATOM     22  O   UNL     1      -9.283 -10.850  23.990  1.00  0.00    -0.508 OA
ATOM     23  H   UNL     1      -9.379 -11.052  24.979  1.00  0.00     0.293 HD
ENDBRANCH   6  22
TORSDOF 4
ENDMDL
