MODEL 1
REMARK VINA RESULT:    -5.248      0.000      0.000
REMARK INTER + INTRA:          -9.465
REMARK INTER:                  -8.317
REMARK INTRA:                  -1.148
REMARK UNBOUND:                -1.148
REMARK SMILES CCCCCCCCCCCC(=O)[O-]
REMARK SMILES IDX 7 1 8 2 9 3 10 4 11 5 12 6 13 7 14 8 6 9 5 10 4 11 3 12 2 13
REMARK SMILES IDX 1 14
REMARK H PARENT
REMARK Flexibility Score: inf
ROOT
ATOM      1  C   UNL     1      -4.008   7.773  -8.266  1.00  0.00     0.000 C 
ENDROOT
BRANCH   1   2
ATOM      2  C   UNL     1      -3.734   8.758  -7.122  1.00  0.00     0.000 C 
BRANCH   2   3
ATOM      3  C   UNL     1      -4.417  10.108  -7.382  1.00  0.00     0.000 C 
BRANCH   3   4
ATOM      4  C   UNL     1      -4.897  10.264  -8.836  1.00  0.00     0.006 C 
BRANCH   4   5
ATOM      5  C   UNL     1      -5.262  11.704  -9.231  1.00  0.00     0.053 C 
BRANCH   5   6
ATOM      6  C   UNL     1      -6.693  12.023  -8.927  1.00  0.00     0.041 C 
ATOM      7  O   UNL     1      -7.618  11.323  -9.418  1.00  0.00    -0.550 OA
ATOM      8  O   UNL     1      -7.006  13.075  -8.074  1.00  0.00    -0.550 OA
ENDBRANCH   5   6
ENDBRANCH   4   5
ENDBRANCH   3   4
ENDBRANCH   2   3
ENDBRANCH   1   2
BRANCH   1   9
ATOM      9  C   UNL     1      -5.022   6.702  -7.838  1.00  0.00     0.000 C 
BRANCH   9  10
ATOM     10  C   UNL     1      -5.864   6.169  -9.012  1.00  0.00    -0.000 C 
BRANCH  10  11
ATOM     11  C   UNL     1      -7.326   6.651  -9.040  1.00  0.00    -0.000 C 
BRANCH  11  12
ATOM     12  C   UNL     1      -7.531   7.893  -9.924  1.00  0.00    -0.000 C 
BRANCH  12  13
ATOM     13  C   UNL     1      -6.475   8.006 -11.035  1.00  0.00    -0.003 C 
ATOM     14  C   UNL     1      -6.640   9.266 -11.885  1.00  0.00     0.004 C 
ENDBRANCH  12  13
ENDBRANCH  11  12
ENDBRANCH  10  11
ENDBRANCH   9  10
ENDBRANCH   1   9
TORSDOF 10
ENDMDL
MODEL 2
REMARK VINA RESULT:    -5.092      2.689      5.154
REMARK INTER + INTRA:          -9.216
REMARK INTER:                  -7.776
REMARK INTRA:                  -1.441
REMARK UNBOUND:                -1.148
REMARK SMILES CCCCCCCCCCCC(=O)[O-]
REMARK SMILES IDX 7 1 8 2 9 3 10 4 11 5 12 6 13 7 14 8 6 9 5 10 4 11 3 12 2 13
REMARK SMILES IDX 1 14
REMARK H PARENT
REMARK Flexibility Score: inf
ROOT
ATOM      1  C   UNL     1      -6.529   9.385 -11.125  1.00  0.00     0.000 C 
ENDROOT
BRANCH   1   2
ATOM      2  C   UNL     1      -6.529   7.895 -10.757  1.00  0.00     0.000 C 
BRANCH   2   3
ATOM      3  C   UNL     1      -7.670   7.570  -9.782  1.00  0.00     0.000 C 
BRANCH   3   4
ATOM      4  C   UNL     1      -7.180   6.873  -8.500  1.00  0.00     0.006 C 
BRANCH   4   5
ATOM      5  C   UNL     1      -7.635   7.550  -7.198  1.00  0.00     0.053 C 
BRANCH   5   6
ATOM      6  C   UNL     1      -8.689   6.754  -6.491  1.00  0.00     0.041 C 
ATOM      7  O   UNL     1      -9.689   6.322  -7.124  1.00  0.00    -0.550 OA
ATOM      8  O   UNL     1      -8.552   6.461  -5.140  1.00  0.00    -0.550 OA
ENDBRANCH   5   6
ENDBRANCH   4   5
ENDBRANCH   3   4
ENDBRANCH   2   3
ENDBRANCH   1   2
BRANCH   1   9
ATOM      9  C   UNL     1      -7.464  10.180 -10.201  1.00  0.00     0.000 C 
BRANCH   9  10
ATOM     10  C   UNL     1      -6.719  11.225  -9.349  1.00  0.00    -0.000 C 
BRANCH  10  11
ATOM     11  C   UNL     1      -5.220  10.946  -9.134  1.00  0.00    -0.000 C 
BRANCH  11  12
ATOM     12  C   UNL     1      -4.943  10.096  -7.882  1.00  0.00    -0.000 C 
BRANCH  12  13
ATOM     13  C   UNL     1      -4.082   8.861  -8.188  1.00  0.00    -0.003 C 
ATOM     14  C   UNL     1      -3.303   8.363  -6.970  1.00  0.00     0.004 C 
ENDBRANCH  12  13
ENDBRANCH  11  12
ENDBRANCH  10  11
ENDBRANCH   9  10
ENDBRANCH   1   9
TORSDOF 10
ENDMDL
MODEL 3
REMARK VINA RESULT:    -5.071      1.534      3.796
REMARK INTER + INTRA:          -9.183
REMARK INTER:                  -7.896
REMARK INTRA:                  -1.287
REMARK UNBOUND:                -1.148
REMARK SMILES CCCCCCCCCCCC(=O)[O-]
REMARK SMILES IDX 7 1 8 2 9 3 10 4 11 5 12 6 13 7 14 8 6 9 5 10 4 11 3 12 2 13
REMARK SMILES IDX 1 14
REMARK H PARENT
REMARK Flexibility Score: inf
ROOT
ATOM      1  C   UNL     1      -5.110   6.667  -7.345  1.00  0.00     0.000 C 
ENDROOT
BRANCH   1   2
ATOM      2  C   UNL     1      -5.602   6.058  -8.665  1.00  0.00     0.000 C 
BRANCH   2   3
ATOM      3  C   UNL     1      -7.130   6.158  -8.780  1.00  0.00     0.000 C 
BRANCH   3   4
ATOM      4  C   UNL     1      -7.589   7.388  -9.583  1.00  0.00     0.006 C 
BRANCH   4   5
ATOM      5  C   UNL     1      -6.603   7.836 -10.675  1.00  0.00     0.053 C 
BRANCH   5   6
ATOM      6  C   UNL     1      -7.007   9.139 -11.293  1.00  0.00     0.041 C 
ATOM      7  O   UNL     1      -6.258   9.699 -12.138  1.00  0.00    -0.550 OA
ATOM      8  O   UNL     1      -8.224   9.720 -10.962  1.00  0.00    -0.550 OA
ENDBRANCH   5   6
ENDBRANCH   4   5
ENDBRANCH   3   4
ENDBRANCH   2   3
ENDBRANCH   1   2
BRANCH   1   9
ATOM      9  C   UNL     1      -3.826   7.482  -7.560  1.00  0.00     0.000 C 
BRANCH   9  10
ATOM     10  C   UNL     1      -4.045   8.725  -8.443  1.00  0.00    -0.000 C 
BRANCH  10  11
ATOM     11  C   UNL     1      -4.546   9.977  -7.698  1.00  0.00    -0.000 C 
BRANCH  11  12
ATOM     12  C   UNL     1      -6.062  10.191  -7.839  1.00  0.00    -0.000 C 
BRANCH  12  13
ATOM     13  C   UNL     1      -6.406  11.497  -8.571  1.00  0.00    -0.003 C 
ATOM     14  C   UNL     1      -5.253  12.019  -9.429  1.00  0.00     0.004 C 
ENDBRANCH  12  13
ENDBRANCH  11  12
ENDBRANCH  10  11
ENDBRANCH   9  10
ENDBRANCH   1   9
TORSDOF 10
ENDMDL
MODEL 4
REMARK VINA RESULT:    -5.065      1.080      3.542
REMARK INTER + INTRA:          -9.174
REMARK INTER:                  -8.040
REMARK INTRA:                  -1.134
REMARK UNBOUND:                -1.148
REMARK SMILES CCCCCCCCCCCC(=O)[O-]
REMARK SMILES IDX 7 1 8 2 9 3 10 4 11 5 12 6 13 7 14 8 6 9 5 10 4 11 3 12 2 13
REMARK SMILES IDX 1 14
REMARK H PARENT
REMARK Flexibility Score: inf
ROOT
ATOM      1  C   UNL     1      -7.665   8.075  -9.877  1.00  0.00     0.000 C 
ENDROOT
BRANCH   1   2
ATOM      2  C   UNL     1      -6.601   8.262 -10.967  1.00  0.00     0.000 C 
BRANCH   2   3
ATOM      3  C   UNL     1      -6.290   9.750 -11.183  1.00  0.00     0.000 C 
BRANCH   3   4
ATOM      4  C   UNL     1      -4.986  10.194 -10.496  1.00  0.00     0.006 C 
BRANCH   4   5
ATOM      5  C   UNL     1      -5.135  11.430  -9.595  1.00  0.00     0.053 C 
BRANCH   5   6
ATOM      6  C   UNL     1      -6.273  11.289  -8.632  1.00  0.00     0.041 C 
ATOM      7  O   UNL     1      -6.225  10.426  -7.716  1.00  0.00    -0.550 OA
ATOM      8  O   UNL     1      -7.374  12.132  -8.727  1.00  0.00    -0.550 OA
ENDBRANCH   5   6
ENDBRANCH   4   5
ENDBRANCH   3   4
ENDBRANCH   2   3
ENDBRANCH   1   2
BRANCH   1   9
ATOM      9  C   UNL     1      -7.373   6.827  -9.031  1.00  0.00     0.000 C 
BRANCH   9  10
ATOM     10  C   UNL     1      -5.910   6.358  -9.138  1.00  0.00    -0.000 C 
BRANCH  10  11
ATOM     11  C   UNL     1      -5.010   6.748  -7.951  1.00  0.00    -0.000 C 
BRANCH  11  12
ATOM     12  C   UNL     1      -3.962   7.813  -8.317  1.00  0.00    -0.000 C 
BRANCH  12  13
ATOM     13  C   UNL     1      -3.257   8.395  -7.082  1.00  0.00    -0.003 C 
ATOM     14  C   UNL     1      -2.503   7.337  -6.276  1.00  0.00     0.004 C 
ENDBRANCH  12  13
ENDBRANCH  11  12
ENDBRANCH  10  11
ENDBRANCH   9  10
ENDBRANCH   1   9
TORSDOF 10
ENDMDL
MODEL 5
REMARK VINA RESULT:    -5.040      2.841      4.368
REMARK INTER + INTRA:          -9.134
REMARK INTER:                  -7.834
REMARK INTRA:                  -1.299
REMARK UNBOUND:                -1.148
REMARK SMILES CCCCCCCCCCCC(=O)[O-]
REMARK SMILES IDX 7 1 8 2 9 3 10 4 11 5 12 6 13 7 14 8 6 9 5 10 4 11 3 12 2 13
REMARK SMILES IDX 1 14
REMARK H PARENT
REMARK Flexibility Score: inf
ROOT
ATOM      1  C   UNL     1      -7.049  10.460 -10.239  1.00  0.00     0.000 C 
ENDROOT
BRANCH   1   2
ATOM      2  C   UNL     1      -5.785  10.869  -9.471  1.00  0.00     0.000 C 
BRANCH   2   3
ATOM      3  C   UNL     1      -5.838  10.369  -8.020  1.00  0.00     0.000 C 
BRANCH   3   4
ATOM      4  C   UNL     1      -4.459   9.942  -7.485  1.00  0.00     0.006 C 
BRANCH   4   5
ATOM      5  C   UNL     1      -3.936   8.619  -8.067  1.00  0.00     0.053 C 
BRANCH   5   6
ATOM      6  C   UNL     1      -3.433   7.697  -6.998  1.00  0.00     0.041 C 
ATOM      7  O   UNL     1      -4.090   6.668  -6.686  1.00  0.00    -0.550 OA
ATOM      8  O   UNL     1      -2.221   7.956  -6.369  1.00  0.00    -0.550 OA
ENDBRANCH   5   6
ENDBRANCH   4   5
ENDBRANCH   3   4
ENDBRANCH   2   3
ENDBRANCH   1   2
BRANCH   1   9
ATOM      9  C   UNL     1      -6.729   9.388 -11.292  1.00  0.00     0.000 C 
BRANCH   9  10
ATOM     10  C   UNL     1      -6.528   7.989 -10.682  1.00  0.00    -0.000 C 
BRANCH  10  11
ATOM     11  C   UNL     1      -7.671   7.501  -9.772  1.00  0.00    -0.000 C 
BRANCH  11  12
ATOM     12  C   UNL     1      -7.174   6.661  -8.583  1.00  0.00    -0.000 C 
BRANCH  12  13
ATOM     13  C   UNL     1      -7.516   7.301  -7.228  1.00  0.00    -0.003 C 
ATOM     14  C   UNL     1      -8.767   6.699  -6.587  1.00  0.00     0.004 C 
ENDBRANCH  12  13
ENDBRANCH  11  12
ENDBRANCH  10  11
ENDBRANCH   9  10
ENDBRANCH   1   9
TORSDOF 10
ENDMDL
MODEL 6
REMARK VINA RESULT:    -5.037      2.345      4.397
REMARK INTER + INTRA:          -9.130
REMARK INTER:                  -8.235
REMARK INTRA:                  -0.895
REMARK UNBOUND:                -1.148
REMARK SMILES CCCCCCCCCCCC(=O)[O-]
REMARK SMILES IDX 7 1 8 2 9 3 10 4 11 5 12 6 13 7 14 8 6 9 5 10 4 11 3 12 2 13
REMARK SMILES IDX 1 14
REMARK H PARENT
REMARK Flexibility Score: inf
ROOT
ATOM      1  C   UNL     1      -7.620   7.660  -9.646  1.00  0.00     0.000 C 
ENDROOT
BRANCH   1   2
ATOM      2  C   UNL     1      -7.151   6.414  -8.884  1.00  0.00     0.000 C 
BRANCH   2   3
ATOM      3  C   UNL     1      -5.651   6.168  -9.101  1.00  0.00     0.000 C 
BRANCH   3   4
ATOM      4  C   UNL     1      -4.781   6.750  -7.973  1.00  0.00     0.006 C 
BRANCH   4   5
ATOM      5  C   UNL     1      -3.955   7.980  -8.381  1.00  0.00     0.053 C 
BRANCH   5   6
ATOM      6  C   UNL     1      -3.386   8.693  -7.192  1.00  0.00     0.041 C 
ATOM      7  O   UNL     1      -3.838   9.818  -6.851  1.00  0.00    -0.550 OA
ATOM      8  O   UNL     1      -2.377   8.100  -6.443  1.00  0.00    -0.550 OA
ENDBRANCH   5   6
ENDBRANCH   4   5
ENDBRANCH   3   4
ENDBRANCH   2   3
ENDBRANCH   1   2
BRANCH   1   9
ATOM      9  C   UNL     1      -6.666   7.988 -10.804  1.00  0.00     0.000 C 
BRANCH   9  10
ATOM     10  C   UNL     1      -6.729   9.465 -11.235  1.00  0.00    -0.000 C 
BRANCH  10  11
ATOM     11  C   UNL     1      -7.849  10.291 -10.576  1.00  0.00    -0.000 C 
BRANCH  11  12
ATOM     12  C   UNL     1      -7.350  11.152  -9.404  1.00  0.00    -0.000 C 
BRANCH  12  13
ATOM     13  C   UNL     1      -5.817  11.152  -9.285  1.00  0.00    -0.003 C 
ATOM     14  C   UNL     1      -5.215  12.554  -9.377  1.00  0.00     0.004 C 
ENDBRANCH  12  13
ENDBRANCH  11  12
ENDBRANCH  10  11
ENDBRANCH   9  10
ENDBRANCH   1   9
TORSDOF 10
ENDMDL
MODEL 7
REMARK VINA RESULT:    -4.966      2.715      4.392
REMARK INTER + INTRA:          -9.017
REMARK INTER:                  -7.609
REMARK INTRA:                  -1.408
REMARK UNBOUND:                -1.148
REMARK SMILES CCCCCCCCCCCC(=O)[O-]
REMARK SMILES IDX 7 1 8 2 9 3 10 4 11 5 12 6 13 7 14 8 6 9 5 10 4 11 3 12 2 13
REMARK SMILES IDX 1 14
REMARK H PARENT
REMARK Flexibility Score: inf
ROOT
ATOM      1  C   UNL     1      -3.965   8.033  -8.417  1.00  0.00     0.000 C 
ENDROOT
BRANCH   1   2
ATOM      2  C   UNL     1      -5.064   7.091  -7.907  1.00  0.00     0.000 C 
BRANCH   2   3
ATOM      3  C   UNL     1      -5.994   6.662  -9.051  1.00  0.00     0.000 C 
BRANCH   3   4
ATOM      4  C   UNL     1      -7.444   6.431  -8.587  1.00  0.00     0.006 C 
BRANCH   4   5
ATOM      5  C   UNL     1      -7.888   7.335  -7.425  1.00  0.00     0.053 C 
BRANCH   5   6
ATOM      6  C   UNL     1      -8.889   6.658  -6.540  1.00  0.00     0.041 C 
ATOM      7  O   UNL     1      -8.679   6.563  -5.301  1.00  0.00    -0.550 OA
ATOM      8  O   UNL     1     -10.070   6.162  -7.078  1.00  0.00    -0.550 OA
ENDBRANCH   5   6
ENDBRANCH   4   5
ENDBRANCH   3   4
ENDBRANCH   2   3
ENDBRANCH   1   2
BRANCH   1   9
ATOM      9  C   UNL     1      -4.047   9.400  -7.722  1.00  0.00     0.000 C 
BRANCH   9  10
ATOM     10  C   UNL     1      -5.402  10.099  -7.931  1.00  0.00    -0.000 C 
BRANCH  10  11
ATOM     11  C   UNL     1      -5.583  10.780  -9.300  1.00  0.00    -0.000 C 
BRANCH  11  12
ATOM     12  C   UNL     1      -7.059  10.907  -9.716  1.00  0.00    -0.000 C 
BRANCH  12  13
ATOM     13  C   UNL     1      -7.541   9.708 -10.548  1.00  0.00    -0.003 C 
ATOM     14  C   UNL     1      -6.560   9.322 -11.656  1.00  0.00     0.004 C 
ENDBRANCH  12  13
ENDBRANCH  11  12
ENDBRANCH  10  11
ENDBRANCH   9  10
ENDBRANCH   1   9
TORSDOF 10
ENDMDL
MODEL 8
REMARK VINA RESULT:    -4.889      1.113      3.290
REMARK INTER + INTRA:          -8.894
REMARK INTER:                  -7.511
REMARK INTRA:                  -1.383
REMARK UNBOUND:                -1.148
REMARK SMILES CCCCCCCCCCCC(=O)[O-]
REMARK SMILES IDX 7 1 8 2 9 3 10 4 11 5 12 6 13 7 14 8 6 9 5 10 4 11 3 12 2 13
REMARK SMILES IDX 1 14
REMARK H PARENT
REMARK Flexibility Score: inf
ROOT
ATOM      1  C   UNL     1      -7.351   7.210  -8.516  1.00  0.00     0.000 C 
ENDROOT
BRANCH   1   2
ATOM      2  C   UNL     1      -7.714   8.206  -9.625  1.00  0.00     0.000 C 
BRANCH   2   3
ATOM      3  C   UNL     1      -6.496   8.512 -10.509  1.00  0.00     0.000 C 
BRANCH   3   4
ATOM      4  C   UNL     1      -6.223  10.021 -10.647  1.00  0.00     0.006 C 
BRANCH   4   5
ATOM      5  C   UNL     1      -7.171  10.913  -9.830  1.00  0.00     0.053 C 
BRANCH   5   6
ATOM      6  C   UNL     1      -6.444  12.041  -9.163  1.00  0.00     0.041 C 
ATOM      7  O   UNL     1      -7.019  12.732  -8.281  1.00  0.00    -0.550 OA
ATOM      8  O   UNL     1      -5.121  12.307  -9.492  1.00  0.00    -0.550 OA
ENDBRANCH   5   6
ENDBRANCH   4   5
ENDBRANCH   3   4
ENDBRANCH   2   3
ENDBRANCH   1   2
BRANCH   1   9
ATOM      9  C   UNL     1      -6.655   5.970  -9.095  1.00  0.00     0.000 C 
BRANCH   9  10
ATOM     10  C   UNL     1      -5.279   5.700  -8.457  1.00  0.00    -0.000 C 
BRANCH  10  11
ATOM     11  C   UNL     1      -5.061   6.346  -7.076  1.00  0.00    -0.000 C 
BRANCH  11  12
ATOM     12  C   UNL     1      -3.777   7.191  -7.006  1.00  0.00    -0.000 C 
BRANCH  12  13
ATOM     13  C   UNL     1      -3.831   8.420  -7.926  1.00  0.00    -0.003 C 
ATOM     14  C   UNL     1      -4.423   9.651  -7.239  1.00  0.00     0.004 C 
ENDBRANCH  12  13
ENDBRANCH  11  12
ENDBRANCH  10  11
ENDBRANCH   9  10
ENDBRANCH   1   9
TORSDOF 10
ENDMDL
MODEL 9
REMARK VINA RESULT:    -4.859      2.598      5.454
REMARK INTER + INTRA:          -8.848
REMARK INTER:                  -7.688
REMARK INTRA:                  -1.160
REMARK UNBOUND:                -1.148
REMARK SMILES CCCCCCCCCCCC(=O)[O-]
REMARK SMILES IDX 7 1 8 2 9 3 10 4 11 5 12 6 13 7 14 8 6 9 5 10 4 11 3 12 2 13
REMARK SMILES IDX 1 14
REMARK H PARENT
REMARK Flexibility Score: inf
ROOT
ATOM      1  C   UNL     1      -7.494  10.232  -9.905  1.00  0.00     0.000 C 
ENDROOT
BRANCH   1   2
ATOM      2  C   UNL     1      -6.847   9.475 -11.072  1.00  0.00     0.000 C 
BRANCH   2   3
ATOM      3  C   UNL     1      -6.664   7.989 -10.729  1.00  0.00     0.000 C 
BRANCH   3   4
ATOM      4  C   UNL     1      -7.244   7.618  -9.352  1.00  0.00     0.006 C 
BRANCH   4   5
ATOM      5  C   UNL     1      -7.286   6.107  -9.070  1.00  0.00     0.053 C 
BRANCH   5   6
ATOM      6  C   UNL     1      -8.671   5.552  -9.198  1.00  0.00     0.041 C 
ATOM      7  O   UNL     1      -8.873   4.315  -9.065  1.00  0.00    -0.550 OA
ATOM      8  O   UNL     1      -9.744   6.403  -9.433  1.00  0.00    -0.550 OA
ENDBRANCH   5   6
ENDBRANCH   4   5
ENDBRANCH   3   4
ENDBRANCH   2   3
ENDBRANCH   1   2
BRANCH   1   9
ATOM      9  C   UNL     1      -6.610  11.404  -9.453  1.00  0.00     0.000 C 
BRANCH   9  10
ATOM     10  C   UNL     1      -5.130  11.013  -9.293  1.00  0.00    -0.000 C 
BRANCH  10  11
ATOM     11  C   UNL     1      -4.805  10.174  -8.043  1.00  0.00    -0.000 C 
BRANCH  11  12
ATOM     12  C   UNL     1      -3.962   8.927  -8.361  1.00  0.00    -0.000 C 
BRANCH  12  13
ATOM     13  C   UNL     1      -3.409   8.253  -7.095  1.00  0.00    -0.003 C 
ATOM     14  C   UNL     1      -4.042   6.888  -6.825  1.00  0.00     0.004 C 
ENDBRANCH  12  13
ENDBRANCH  11  12
ENDBRANCH  10  11
ENDBRANCH   9  10
ENDBRANCH   1   9
TORSDOF 10
ENDMDL
