MODEL 1
REMARK VINA RESULT:    -3.074      0.000      0.000
REMARK INTER + INTRA:          -3.722
REMARK INTER:                  -3.613
REMARK INTRA:                  -0.109
REMARK UNBOUND:                -0.109
REMARK SMILES O=C([O-])CCC(=O)[O-]
REMARK SMILES IDX 4 1 2 2 1 3 3 4 5 5 6 6 7 7 8 8
REMARK H PARENT
REMARK Flexibility Score: inf
ROOT
ATOM      1  C   UNL     1      80.141  65.975   2.948  1.00  0.00     0.059 C 
ENDROOT
BRANCH   1   2
ATOM      2  C   UNL     1      81.240  65.210   2.276  1.00  0.00     0.042 C 
ATOM      3  O   UNL     1      82.275  65.806   1.875  1.00  0.00    -0.550 OA
ATOM      4  O   UNL     1      81.104  63.845   2.057  1.00  0.00    -0.550 OA
ENDBRANCH   1   2
BRANCH   1   5
ATOM      5  C   UNL     1      79.539  65.187   4.117  1.00  0.00     0.059 C 
BRANCH   5   6
ATOM      6  C   UNL     1      78.063  65.002   3.956  1.00  0.00     0.042 C 
ATOM      7  O   UNL     1      77.592  64.581   2.867  1.00  0.00    -0.550 OA
ATOM      8  O   UNL     1      77.208  65.256   5.021  1.00  0.00    -0.550 OA
ENDBRANCH   5   6
ENDBRANCH   1   5
TORSDOF 3
ENDMDL
MODEL 2
REMARK VINA RESULT:    -3.061      0.188      4.036
REMARK INTER + INTRA:          -3.707
REMARK INTER:                  -3.590
REMARK INTRA:                  -0.117
REMARK UNBOUND:                -0.109
REMARK SMILES O=C([O-])CCC(=O)[O-]
REMARK SMILES IDX 4 1 2 2 1 3 3 4 5 5 6 6 7 7 8 8
REMARK H PARENT
REMARK Flexibility Score: inf
ROOT
ATOM      1  C   UNL     1      79.488  65.146   4.088  1.00  0.00     0.059 C 
ENDROOT
BRANCH   1   2
ATOM      2  C   UNL     1      78.016  65.040   3.837  1.00  0.00     0.042 C 
ATOM      3  O   UNL     1      77.590  64.555   2.754  1.00  0.00    -0.550 OA
ATOM      4  O   UNL     1      77.113  65.514   4.781  1.00  0.00    -0.550 OA
ENDBRANCH   1   2
BRANCH   1   5
ATOM      5  C   UNL     1      80.198  65.912   2.966  1.00  0.00     0.059 C 
BRANCH   5   6
ATOM      6  C   UNL     1      81.230  65.066   2.287  1.00  0.00     0.042 C 
ATOM      7  O   UNL     1      82.309  65.580   1.891  1.00  0.00    -0.550 OA
ATOM      8  O   UNL     1      81.018  63.702   2.128  1.00  0.00    -0.550 OA
ENDBRANCH   5   6
ENDBRANCH   1   5
TORSDOF 3
ENDMDL
MODEL 3
REMARK VINA RESULT:    -3.054      0.142      1.154
REMARK INTER + INTRA:          -3.698
REMARK INTER:                  -3.596
REMARK INTRA:                  -0.102
REMARK UNBOUND:                -0.109
REMARK SMILES O=C([O-])CCC(=O)[O-]
REMARK SMILES IDX 4 1 2 2 1 3 3 4 5 5 6 6 7 7 8 8
REMARK H PARENT
REMARK Flexibility Score: inf
ROOT
ATOM      1  C   UNL     1      79.983  65.960   2.879  1.00  0.00     0.059 C 
ENDROOT
BRANCH   1   2
ATOM      2  C   UNL     1      81.113  65.194   2.264  1.00  0.00     0.042 C 
ATOM      3  O   UNL     1      81.032  63.943   2.129  1.00  0.00    -0.550 OA
ATOM      4  O   UNL     1      82.272  65.854   1.875  1.00  0.00    -0.550 OA
ENDBRANCH   1   2
BRANCH   1   5
ATOM      5  C   UNL     1      79.404  65.231   4.096  1.00  0.00     0.059 C 
BRANCH   5   6
ATOM      6  C   UNL     1      77.922  65.051   3.978  1.00  0.00     0.042 C 
ATOM      7  O   UNL     1      77.419  64.626   2.904  1.00  0.00    -0.550 OA
ATOM      8  O   UNL     1      77.099  65.312   5.067  1.00  0.00    -0.550 OA
ENDBRANCH   5   6
ENDBRANCH   1   5
TORSDOF 3
ENDMDL
MODEL 4
REMARK VINA RESULT:    -3.025      1.245      4.144
REMARK INTER + INTRA:          -3.665
REMARK INTER:                  -3.549
REMARK INTRA:                  -0.116
REMARK UNBOUND:                -0.109
REMARK SMILES O=C([O-])CCC(=O)[O-]
REMARK SMILES IDX 4 1 2 2 1 3 3 4 5 5 6 6 7 7 8 8
REMARK H PARENT
REMARK Flexibility Score: inf
ROOT
ATOM      1  C   UNL     1      78.426  65.167   3.506  1.00  0.00     0.059 C 
ENDROOT
BRANCH   1   2
ATOM      2  C   UNL     1      77.701  64.737   4.745  1.00  0.00     0.042 C 
ATOM      3  O   UNL     1      78.091  63.728   5.390  1.00  0.00    -0.550 OA
ATOM      4  O   UNL     1      76.572  65.428   5.165  1.00  0.00    -0.550 OA
ENDBRANCH   1   2
BRANCH   1   5
ATOM      5  C   UNL     1      79.886  65.525   3.803  1.00  0.00     0.059 C 
BRANCH   5   6
ATOM      6  C   UNL     1      80.834  64.669   3.021  1.00  0.00     0.042 C 
ATOM      7  O   UNL     1      81.901  65.159   2.567  1.00  0.00    -0.550 OA
ATOM      8  O   UNL     1      80.559  63.321   2.828  1.00  0.00    -0.550 OA
ENDBRANCH   5   6
ENDBRANCH   1   5
TORSDOF 3
ENDMDL
MODEL 5
REMARK VINA RESULT:    -3.019      1.287      1.794
REMARK INTER + INTRA:          -3.657
REMARK INTER:                  -3.535
REMARK INTRA:                  -0.122
REMARK UNBOUND:                -0.109
REMARK SMILES O=C([O-])CCC(=O)[O-]
REMARK SMILES IDX 4 1 2 2 1 3 3 4 5 5 6 6 7 7 8 8
REMARK H PARENT
REMARK Flexibility Score: inf
ROOT
ATOM      1  C   UNL     1      79.839  65.512   3.772  1.00  0.00     0.059 C 
ENDROOT
BRANCH   1   2
ATOM      2  C   UNL     1      80.801  64.587   3.092  1.00  0.00     0.042 C 
ATOM      3  O   UNL     1      80.623  63.340   3.140  1.00  0.00    -0.550 OA
ATOM      4  O   UNL     1      81.915  65.099   2.439  1.00  0.00    -0.550 OA
ENDBRANCH   1   2
BRANCH   1   5
ATOM      5  C   UNL     1      78.385  65.107   3.509  1.00  0.00     0.059 C 
BRANCH   5   6
ATOM      6  C   UNL     1      77.677  64.738   4.775  1.00  0.00     0.042 C 
ATOM      7  O   UNL     1      78.084  63.770   5.470  1.00  0.00    -0.550 OA
ATOM      8  O   UNL     1      76.590  65.487   5.210  1.00  0.00    -0.550 OA
ENDBRANCH   5   6
ENDBRANCH   1   5
TORSDOF 3
ENDMDL
MODEL 6
REMARK VINA RESULT:    -2.993      1.610      4.036
REMARK INTER + INTRA:          -3.627
REMARK INTER:                  -3.504
REMARK INTRA:                  -0.123
REMARK UNBOUND:                -0.109
REMARK SMILES O=C([O-])CCC(=O)[O-]
REMARK SMILES IDX 4 1 2 2 1 3 3 4 5 5 6 6 7 7 8 8
REMARK H PARENT
REMARK Flexibility Score: inf
ROOT
ATOM      1  C   UNL     1      80.382  63.990   4.782  1.00  0.00     0.059 C 
ENDROOT
BRANCH   1   2
ATOM      2  C   UNL     1      79.083  63.253   4.893  1.00  0.00     0.042 C 
ATOM      3  O   UNL     1      78.500  63.158   6.006  1.00  0.00    -0.550 OA
ATOM      4  O   UNL     1      78.535  62.636   3.775  1.00  0.00    -0.550 OA
ENDBRANCH   1   2
BRANCH   1   5
ATOM      5  C   UNL     1      80.294  65.138   3.771  1.00  0.00     0.059 C 
BRANCH   5   6
ATOM      6  C   UNL     1      81.190  64.908   2.594  1.00  0.00     0.042 C 
ATOM      7  O   UNL     1      81.117  63.832   1.944  1.00  0.00    -0.550 OA
ATOM      8  O   UNL     1      82.077  65.898   2.189  1.00  0.00    -0.550 OA
ENDBRANCH   5   6
ENDBRANCH   1   5
TORSDOF 3
ENDMDL
MODEL 7
REMARK VINA RESULT:    -2.992      1.741      2.228
REMARK INTER + INTRA:          -3.626
REMARK INTER:                  -3.507
REMARK INTRA:                  -0.119
REMARK UNBOUND:                -0.109
REMARK SMILES O=C([O-])CCC(=O)[O-]
REMARK SMILES IDX 4 1 2 2 1 3 3 4 5 5 6 6 7 7 8 8
REMARK H PARENT
REMARK Flexibility Score: inf
ROOT
ATOM      1  C   UNL     1      80.745  63.961   2.977  1.00  0.00     0.059 C 
ENDROOT
BRANCH   1   2
ATOM      2  C   UNL     1      81.108  65.363   2.594  1.00  0.00     0.042 C 
ATOM      3  O   UNL     1      80.335  66.318   2.875  1.00  0.00    -0.550 OA
ATOM      4  O   UNL     1      82.280  65.611   1.890  1.00  0.00    -0.550 OA
ENDBRANCH   1   2
BRANCH   1   5
ATOM      5  C   UNL     1      80.593  63.814   4.495  1.00  0.00     0.059 C 
BRANCH   5   6
ATOM      6  C   UNL     1      79.171  63.553   4.885  1.00  0.00     0.042 C 
ATOM      7  O   UNL     1      78.885  63.252   6.073  1.00  0.00    -0.550 OA
ATOM      8  O   UNL     1      78.156  63.684   3.945  1.00  0.00    -0.550 OA
ENDBRANCH   5   6
ENDBRANCH   1   5
TORSDOF 3
ENDMDL
MODEL 8
REMARK VINA RESULT:    -2.986      2.191      4.315
REMARK INTER + INTRA:          -3.619
REMARK INTER:                  -3.505
REMARK INTRA:                  -0.114
REMARK UNBOUND:                -0.109
REMARK SMILES O=C([O-])CCC(=O)[O-]
REMARK SMILES IDX 4 1 2 2 1 3 3 4 5 5 6 6 7 7 8 8
REMARK H PARENT
REMARK Flexibility Score: inf
ROOT
ATOM      1  C   UNL     1      77.636  65.304   3.611  1.00  0.00     0.059 C 
ENDROOT
BRANCH   1   2
ATOM      2  C   UNL     1      76.768  65.686   4.770  1.00  0.00     0.042 C 
ATOM      3  O   UNL     1      76.835  65.045   5.853  1.00  0.00    -0.550 OA
ATOM      4  O   UNL     1      75.854  66.725   4.642  1.00  0.00    -0.550 OA
ENDBRANCH   1   2
BRANCH   1   5
ATOM      5  C   UNL     1      79.043  64.904   4.069  1.00  0.00     0.059 C 
BRANCH   5   6
ATOM      6  C   UNL     1      79.296  63.443   3.863  1.00  0.00     0.042 C 
ATOM      7  O   UNL     1      78.351  62.675   3.542  1.00  0.00    -0.550 OA
ATOM      8  O   UNL     1      80.583  62.934   3.986  1.00  0.00    -0.550 OA
ENDBRANCH   5   6
ENDBRANCH   1   5
TORSDOF 3
ENDMDL
MODEL 9
REMARK VINA RESULT:    -2.984      2.379      3.839
REMARK INTER + INTRA:          -3.617
REMARK INTER:                  -3.501
REMARK INTRA:                  -0.116
REMARK UNBOUND:                -0.109
REMARK SMILES O=C([O-])CCC(=O)[O-]
REMARK SMILES IDX 4 1 2 2 1 3 3 4 5 5 6 6 7 7 8 8
REMARK H PARENT
REMARK Flexibility Score: inf
ROOT
ATOM      1  C   UNL     1      79.563  63.052   4.195  1.00  0.00     0.059 C 
ENDROOT
BRANCH   1   2
ATOM      2  C   UNL     1      78.883  62.676   5.476  1.00  0.00     0.042 C 
ATOM      3  O   UNL     1      78.688  63.543   6.369  1.00  0.00    -0.550 OA
ATOM      4  O   UNL     1      78.502  61.359   5.701  1.00  0.00    -0.550 OA
ENDBRANCH   1   2
BRANCH   1   5
ATOM      5  C   UNL     1      80.366  64.349   4.343  1.00  0.00     0.059 C 
BRANCH   5   6
ATOM      6  C   UNL     1      79.793  65.450   3.506  1.00  0.00     0.042 C 
ATOM      7  O   UNL     1      80.556  66.265   2.923  1.00  0.00    -0.550 OA
ATOM      8  O   UNL     1      78.418  65.553   3.336  1.00  0.00    -0.550 OA
ENDBRANCH   5   6
ENDBRANCH   1   5
TORSDOF 3
ENDMDL
