MODEL 1
REMARK VINA RESULT:    -3.779      0.000      0.000
REMARK INTER + INTRA:          -6.570
REMARK INTER:                  -5.546
REMARK INTRA:                  -1.024
REMARK UNBOUND:                -1.024
REMARK SMILES CCCOC(=O)c1ccccc1C(=O)OCCC
REMARK SMILES IDX 7 1 8 2 9 3 10 4 11 5 12 6 5 7 6 8 4 9 3 10 2 11 1 12 13 13
REMARK SMILES IDX 14 14 15 15 16 16 17 17 18 18
REMARK H PARENT
REMARK Flexibility Score: inf
ROOT
ATOM      1  C   UNL     1      27.893  26.341  27.169  1.00  0.00     0.074 A 
ATOM      2  C   UNL     1      28.650  25.868  26.078  1.00  0.00     0.016 A 
ATOM      3  C   UNL     1      28.210  24.780  25.324  1.00  0.00     0.001 A 
ATOM      4  C   UNL     1      27.011  24.147  25.643  1.00  0.00     0.001 A 
ATOM      5  C   UNL     1      26.256  24.586  26.732  1.00  0.00     0.016 A 
ATOM      6  C   UNL     1      26.692  25.666  27.520  1.00  0.00     0.074 A 
ENDROOT
BRANCH   1   7
ATOM      7  C   UNL     1      28.346  27.573  27.853  1.00  0.00     0.339 C 
ATOM      8  O   UNL     1      29.125  27.490  28.843  1.00  0.00    -0.246 OA
BRANCH   7   9
ATOM      9  O   UNL     1      27.951  28.827  27.370  1.00  0.00    -0.462 OA
BRANCH   9  10
ATOM     10  C   UNL     1      28.835  29.735  26.717  1.00  0.00     0.233 C 
BRANCH  10  11
ATOM     11  C   UNL     1      28.825  29.521  25.199  1.00  0.00     0.038 C 
ATOM     12  C   UNL     1      27.405  29.390  24.654  1.00  0.00     0.007 C 
ENDBRANCH  10  11
ENDBRANCH   9  10
ENDBRANCH   7   9
ENDBRANCH   1   7
BRANCH   6  13
ATOM     13  C   UNL     1      25.902  26.007  28.724  1.00  0.00     0.339 C 
ATOM     14  O   UNL     1      26.269  25.604  29.862  1.00  0.00    -0.246 OA
BRANCH  13  15
ATOM     15  O   UNL     1      24.716  26.734  28.585  1.00  0.00    -0.462 OA
BRANCH  15  16
ATOM     16  C   UNL     1      24.663  28.152  28.715  1.00  0.00     0.233 C 
BRANCH  16  17
ATOM     17  C   UNL     1      23.244  28.649  28.441  1.00  0.00     0.038 C 
ATOM     18  C   UNL     1      22.275  27.494  28.200  1.00  0.00     0.007 C 
ENDBRANCH  16  17
ENDBRANCH  15  16
ENDBRANCH  13  15
ENDBRANCH   6  13
TORSDOF 8
ENDMDL
MODEL 2
REMARK VINA RESULT:    -3.703      2.096      2.321
REMARK INTER + INTRA:          -6.459
REMARK INTER:                  -5.814
REMARK INTRA:                  -0.645
REMARK UNBOUND:                -1.024
REMARK SMILES CCCOC(=O)c1ccccc1C(=O)OCCC
REMARK SMILES IDX 7 1 8 2 9 3 10 4 11 5 12 6 5 7 6 8 4 9 3 10 2 11 1 12 13 13
REMARK SMILES IDX 14 14 15 15 16 16 17 17 18 18
REMARK H PARENT
REMARK Flexibility Score: inf
ROOT
ATOM      1  C   UNL     1      27.764  27.093  28.537  1.00  0.00     0.074 A 
ATOM      2  C   UNL     1      28.675  26.028  28.678  1.00  0.00     0.016 A 
ATOM      3  C   UNL     1      28.311  24.865  29.356  1.00  0.00     0.001 A 
ATOM      4  C   UNL     1      27.035  24.743  29.902  1.00  0.00     0.001 A 
ATOM      5  C   UNL     1      26.124  25.794  29.791  1.00  0.00     0.016 A 
ATOM      6  C   UNL     1      26.477  26.985  29.133  1.00  0.00     0.074 A 
ENDROOT
BRANCH   1   7
ATOM      7  C   UNL     1      28.164  28.250  27.703  1.00  0.00     0.339 C 
ATOM      8  O   UNL     1      28.756  29.230  28.232  1.00  0.00    -0.246 OA
BRANCH   7   9
ATOM      9  O   UNL     1      27.928  28.230  26.322  1.00  0.00    -0.462 OA
BRANCH   9  10
ATOM     10  C   UNL     1      28.768  28.880  25.370  1.00  0.00     0.233 C 
BRANCH  10  11
ATOM     11  C   UNL     1      28.110  30.154  24.830  1.00  0.00     0.038 C 
ATOM     12  C   UNL     1      27.016  29.841  23.812  1.00  0.00     0.007 C 
ENDBRANCH  10  11
ENDBRANCH   9  10
ENDBRANCH   7   9
ENDBRANCH   1   7
BRANCH   6  13
ATOM     13  C   UNL     1      25.504  28.101  29.149  1.00  0.00     0.339 C 
ATOM     14  O   UNL     1      25.586  29.005  30.025  1.00  0.00    -0.246 OA
BRANCH  13  15
ATOM     15  O   UNL     1      24.460  28.115  28.219  1.00  0.00    -0.462 OA
BRANCH  15  16
ATOM     16  C   UNL     1      23.089  28.180  28.601  1.00  0.00     0.233 C 
BRANCH  16  17
ATOM     17  C   UNL     1      22.321  27.008  27.994  1.00  0.00     0.038 C 
ATOM     18  C   UNL     1      20.961  26.816  28.662  1.00  0.00     0.007 C 
ENDBRANCH  16  17
ENDBRANCH  15  16
ENDBRANCH  13  15
ENDBRANCH   6  13
TORSDOF 8
ENDMDL
MODEL 3
REMARK VINA RESULT:    -3.610      0.438      4.144
REMARK INTER + INTRA:          -6.322
REMARK INTER:                  -5.485
REMARK INTRA:                  -0.837
REMARK UNBOUND:                -1.024
REMARK SMILES CCCOC(=O)c1ccccc1C(=O)OCCC
REMARK SMILES IDX 7 1 8 2 9 3 10 4 11 5 12 6 5 7 6 8 4 9 3 10 2 11 1 12 13 13
REMARK SMILES IDX 14 14 15 15 16 16 17 17 18 18
REMARK H PARENT
REMARK Flexibility Score: inf
ROOT
ATOM      1  C   UNL     1      26.614  25.306  27.290  1.00  0.00     0.074 A 
ATOM      2  C   UNL     1      26.206  24.299  26.394  1.00  0.00     0.016 A 
ATOM      3  C   UNL     1      27.017  23.927  25.321  1.00  0.00     0.001 A 
ATOM      4  C   UNL     1      28.246  24.552  25.124  1.00  0.00     0.001 A 
ATOM      5  C   UNL     1      28.661  25.567  25.987  1.00  0.00     0.016 A 
ATOM      6  C   UNL     1      27.849  25.974  27.061  1.00  0.00     0.074 A 
ENDROOT
BRANCH   1   7
ATOM      7  C   UNL     1      25.772  25.570  28.478  1.00  0.00     0.339 C 
ATOM      8  O   UNL     1      26.061  25.036  29.584  1.00  0.00    -0.246 OA
BRANCH   7   9
ATOM      9  O   UNL     1      24.686  26.451  28.383  1.00  0.00    -0.462 OA
BRANCH   9  10
ATOM     10  C   UNL     1      24.807  27.867  28.505  1.00  0.00     0.233 C 
BRANCH  10  11
ATOM     11  C   UNL     1      23.429  28.537  28.560  1.00  0.00     0.038 C 
ATOM     12  C   UNL     1      22.317  27.583  28.131  1.00  0.00     0.007 C 
ENDBRANCH  10  11
ENDBRANCH   9  10
ENDBRANCH   7   9
ENDBRANCH   1   7
BRANCH   6  13
ATOM     13  C   UNL     1      28.298  27.130  27.869  1.00  0.00     0.339 C 
ATOM     14  O   UNL     1      28.991  26.952  28.908  1.00  0.00    -0.246 OA
BRANCH  13  15
ATOM     15  O   UNL     1      27.901  28.420  27.502  1.00  0.00    -0.462 OA
BRANCH  15  16
ATOM     16  C   UNL     1      28.833  29.461  27.222  1.00  0.00     0.233 C 
BRANCH  16  17
ATOM     17  C   UNL     1      28.869  29.743  25.721  1.00  0.00     0.038 C 
ATOM     18  C   UNL     1      27.563  29.341  25.038  1.00  0.00     0.007 C 
ENDBRANCH  16  17
ENDBRANCH  15  16
ENDBRANCH  13  15
ENDBRANCH   6  13
TORSDOF 8
ENDMDL
MODEL 4
REMARK VINA RESULT:    -3.488      1.643      2.729
REMARK INTER + INTRA:          -6.143
REMARK INTER:                  -4.943
REMARK INTRA:                  -1.200
REMARK UNBOUND:                -1.024
REMARK SMILES CCCOC(=O)c1ccccc1C(=O)OCCC
REMARK SMILES IDX 7 1 8 2 9 3 10 4 11 5 12 6 5 7 6 8 4 9 3 10 2 11 1 12 13 13
REMARK SMILES IDX 14 14 15 15 16 16 17 17 18 18
REMARK H PARENT
REMARK Flexibility Score: inf
ROOT
ATOM      1  C   UNL     1      27.938  26.894  28.734  1.00  0.00     0.074 A 
ATOM      2  C   UNL     1      28.771  25.773  28.921  1.00  0.00     0.016 A 
ATOM      3  C   UNL     1      28.280  24.613  29.520  1.00  0.00     0.001 A 
ATOM      4  C   UNL     1      26.953  24.550  29.941  1.00  0.00     0.001 A 
ATOM      5  C   UNL     1      26.117  25.656  29.785  1.00  0.00     0.016 A 
ATOM      6  C   UNL     1      26.597  26.844  29.205  1.00  0.00     0.074 A 
ENDROOT
BRANCH   1   7
ATOM      7  C   UNL     1      28.478  28.049  27.982  1.00  0.00     0.339 C 
ATOM      8  O   UNL     1      28.833  29.090  28.602  1.00  0.00    -0.246 OA
BRANCH   7   9
ATOM      9  O   UNL     1      28.641  27.966  26.593  1.00  0.00    -0.462 OA
BRANCH   9  10
ATOM     10  C   UNL     1      27.687  27.361  25.723  1.00  0.00     0.233 C 
BRANCH  10  11
ATOM     11  C   UNL     1      28.068  25.911  25.405  1.00  0.00     0.038 C 
ATOM     12  C   UNL     1      26.948  24.938  25.761  1.00  0.00     0.007 C 
ENDBRANCH  10  11
ENDBRANCH   9  10
ENDBRANCH   7   9
ENDBRANCH   1   7
BRANCH   6  13
ATOM     13  C   UNL     1      25.691  28.014  29.172  1.00  0.00     0.339 C 
ATOM     14  O   UNL     1      25.692  28.848  30.119  1.00  0.00    -0.246 OA
BRANCH  13  15
ATOM     15  O   UNL     1      24.795  28.159  28.108  1.00  0.00    -0.462 OA
BRANCH  15  16
ATOM     16  C   UNL     1      23.382  28.177  28.289  1.00  0.00     0.233 C 
BRANCH  16  17
ATOM     17  C   UNL     1      22.834  26.751  28.274  1.00  0.00     0.038 C 
ATOM     18  C   UNL     1      21.318  26.729  28.091  1.00  0.00     0.007 C 
ENDBRANCH  16  17
ENDBRANCH  15  16
ENDBRANCH  13  15
ENDBRANCH   6  13
TORSDOF 8
ENDMDL
MODEL 5
REMARK VINA RESULT:    -3.444      1.989      4.491
REMARK INTER + INTRA:          -6.078
REMARK INTER:                  -5.385
REMARK INTRA:                  -0.693
REMARK UNBOUND:                -1.024
REMARK SMILES CCCOC(=O)c1ccccc1C(=O)OCCC
REMARK SMILES IDX 7 1 8 2 9 3 10 4 11 5 12 6 5 7 6 8 4 9 3 10 2 11 1 12 13 13
REMARK SMILES IDX 14 14 15 15 16 16 17 17 18 18
REMARK H PARENT
REMARK Flexibility Score: inf
ROOT
ATOM      1  C   UNL     1      26.723  25.499  28.706  1.00  0.00     0.074 A 
ATOM      2  C   UNL     1      26.871  24.880  29.962  1.00  0.00     0.016 A 
ATOM      3  C   UNL     1      28.051  24.215  30.295  1.00  0.00     0.001 A 
ATOM      4  C   UNL     1      29.103  24.159  29.383  1.00  0.00     0.001 A 
ATOM      5  C   UNL     1      28.971  24.748  28.125  1.00  0.00     0.016 A 
ATOM      6  C   UNL     1      27.781  25.402  27.759  1.00  0.00     0.074 A 
ENDROOT
BRANCH   1   7
ATOM      7  C   UNL     1      25.499  26.293  28.456  1.00  0.00     0.339 C 
ATOM      8  O   UNL     1      24.396  25.707  28.280  1.00  0.00    -0.246 OA
BRANCH   7   9
ATOM      9  O   UNL     1      25.560  27.693  28.465  1.00  0.00    -0.462 OA
BRANCH   9  10
ATOM     10  C   UNL     1      26.228  28.446  29.474  1.00  0.00     0.233 C 
BRANCH  10  11
ATOM     11  C   UNL     1      25.226  29.191  30.363  1.00  0.00     0.038 C 
ATOM     12  C   UNL     1      23.916  29.470  29.631  1.00  0.00     0.007 C 
ENDBRANCH  10  11
ENDBRANCH   9  10
ENDBRANCH   7   9
ENDBRANCH   1   7
BRANCH   6  13
ATOM     13  C   UNL     1      27.666  25.906  26.373  1.00  0.00     0.339 C 
ATOM     14  O   UNL     1      26.964  25.288  25.526  1.00  0.00    -0.246 OA
BRANCH  13  15
ATOM     15  O   UNL     1      28.386  27.043  25.993  1.00  0.00    -0.462 OA
BRANCH  15  16
ATOM     16  C   UNL     1      27.906  28.366  26.209  1.00  0.00     0.233 C 
BRANCH  16  17
ATOM     17  C   UNL     1      28.366  29.283  25.076  1.00  0.00     0.038 C 
ATOM     18  C   UNL     1      27.202  29.712  24.186  1.00  0.00     0.007 C 
ENDBRANCH  16  17
ENDBRANCH  15  16
ENDBRANCH  13  15
ENDBRANCH   6  13
TORSDOF 8
ENDMDL
MODEL 6
REMARK VINA RESULT:    -3.267      2.128      2.823
REMARK INTER + INTRA:          -5.818
REMARK INTER:                  -5.181
REMARK INTRA:                  -0.638
REMARK UNBOUND:                -1.024
REMARK SMILES CCCOC(=O)c1ccccc1C(=O)OCCC
REMARK SMILES IDX 7 1 8 2 9 3 10 4 11 5 12 6 5 7 6 8 4 9 3 10 2 11 1 12 13 13
REMARK SMILES IDX 14 14 15 15 16 16 17 17 18 18
REMARK H PARENT
REMARK Flexibility Score: inf
ROOT
ATOM      1  C   UNL     1      27.721  25.173  27.649  1.00  0.00     0.074 A 
ATOM      2  C   UNL     1      28.937  24.567  28.019  1.00  0.00     0.016 A 
ATOM      3  C   UNL     1      29.125  24.076  29.311  1.00  0.00     0.001 A 
ATOM      4  C   UNL     1      28.104  24.179  30.254  1.00  0.00     0.001 A 
ATOM      5  C   UNL     1      26.899  24.795  29.915  1.00  0.00     0.016 A 
ATOM      6  C   UNL     1      26.697  25.318  28.625  1.00  0.00     0.074 A 
ENDROOT
BRANCH   1   7
ATOM      7  C   UNL     1      27.536  25.563  26.233  1.00  0.00     0.339 C 
ATOM      8  O   UNL     1      26.760  24.895  25.496  1.00  0.00    -0.246 OA
BRANCH   7   9
ATOM      9  O   UNL     1      28.182  26.700  25.730  1.00  0.00    -0.462 OA
BRANCH   9  10
ATOM     10  C   UNL     1      28.105  27.985  26.343  1.00  0.00     0.233 C 
BRANCH  10  11
ATOM     11  C   UNL     1      28.479  29.093  25.352  1.00  0.00     0.038 C 
ATOM     12  C   UNL     1      27.297  29.488  24.470  1.00  0.00     0.007 C 
ENDBRANCH  10  11
ENDBRANCH   9  10
ENDBRANCH   7   9
ENDBRANCH   1   7
BRANCH   6  13
ATOM     13  C   UNL     1      25.440  26.057  28.367  1.00  0.00     0.339 C 
ATOM     14  O   UNL     1      24.400  25.439  28.007  1.00  0.00    -0.246 OA
BRANCH  13  15
ATOM     15  O   UNL     1      25.429  27.451  28.472  1.00  0.00    -0.462 OA
BRANCH  15  16
ATOM     16  C   UNL     1      26.162  28.154  29.470  1.00  0.00     0.233 C 
BRANCH  16  17
ATOM     17  C   UNL     1      25.274  29.210  30.126  1.00  0.00     0.038 C 
ATOM     18  C   UNL     1      25.334  29.134  31.650  1.00  0.00     0.007 C 
ENDBRANCH  16  17
ENDBRANCH  15  16
ENDBRANCH  13  15
ENDBRANCH   6  13
TORSDOF 8
ENDMDL
MODEL 7
REMARK VINA RESULT:    -3.143      1.888      4.095
REMARK INTER + INTRA:          -5.637
REMARK INTER:                  -5.038
REMARK INTRA:                  -0.599
REMARK UNBOUND:                -1.024
REMARK SMILES CCCOC(=O)c1ccccc1C(=O)OCCC
REMARK SMILES IDX 7 1 8 2 9 3 10 4 11 5 12 6 5 7 6 8 4 9 3 10 2 11 1 12 13 13
REMARK SMILES IDX 14 14 15 15 16 16 17 17 18 18
REMARK H PARENT
REMARK Flexibility Score: inf
ROOT
ATOM      1  C   UNL     1      26.662  25.800  27.378  1.00  0.00     0.074 A 
ATOM      2  C   UNL     1      27.687  25.443  26.480  1.00  0.00     0.016 A 
ATOM      3  C   UNL     1      28.609  26.392  26.038  1.00  0.00     0.001 A 
ATOM      4  C   UNL     1      28.525  27.710  26.483  1.00  0.00     0.001 A 
ATOM      5  C   UNL     1      27.506  28.089  27.357  1.00  0.00     0.016 A 
ATOM      6  C   UNL     1      26.551  27.154  27.797  1.00  0.00     0.074 A 
ENDROOT
BRANCH   1   7
ATOM      7  C   UNL     1      25.791  24.726  27.908  1.00  0.00     0.339 C 
ATOM      8  O   UNL     1      24.680  24.493  27.359  1.00  0.00    -0.246 OA
BRANCH   7   9
ATOM      9  O   UNL     1      26.225  23.941  28.984  1.00  0.00    -0.462 OA
BRANCH   9  10
ATOM     10  C   UNL     1      26.905  24.469  30.121  1.00  0.00     0.233 C 
BRANCH  10  11
ATOM     11  C   UNL     1      28.353  23.971  30.180  1.00  0.00     0.038 C 
ATOM     12  C   UNL     1      29.124  24.604  31.336  1.00  0.00     0.007 C 
ENDBRANCH  10  11
ENDBRANCH   9  10
ENDBRANCH   7   9
ENDBRANCH   1   7
BRANCH   6  13
ATOM     13  C   UNL     1      25.433  27.647  28.632  1.00  0.00     0.339 C 
ATOM     14  O   UNL     1      25.662  28.206  29.739  1.00  0.00    -0.246 OA
BRANCH  13  15
ATOM     15  O   UNL     1      24.116  27.441  28.208  1.00  0.00    -0.462 OA
BRANCH  15  16
ATOM     16  C   UNL     1      23.069  28.370  28.469  1.00  0.00     0.233 C 
BRANCH  16  17
ATOM     17  C   UNL     1      21.763  27.625  28.740  1.00  0.00     0.038 C 
ATOM     18  C   UNL     1      21.595  26.422  27.814  1.00  0.00     0.007 C 
ENDBRANCH  16  17
ENDBRANCH  15  16
ENDBRANCH  13  15
ENDBRANCH   6  13
TORSDOF 8
ENDMDL
MODEL 8
REMARK VINA RESULT:    -2.736      2.199      3.982
REMARK INTER + INTRA:          -5.039
REMARK INTER:                  -4.486
REMARK INTRA:                  -0.553
REMARK UNBOUND:                -1.024
REMARK SMILES CCCOC(=O)c1ccccc1C(=O)OCCC
REMARK SMILES IDX 7 1 8 2 9 3 10 4 11 5 12 6 5 7 6 8 4 9 3 10 2 11 1 12 13 13
REMARK SMILES IDX 14 14 15 15 16 16 17 17 18 18
REMARK H PARENT
REMARK Flexibility Score: inf
ROOT
ATOM      1  C   UNL     1      26.888  27.147  27.974  1.00  0.00     0.074 A 
ATOM      2  C   UNL     1      26.034  28.160  28.450  1.00  0.00     0.016 A 
ATOM      3  C   UNL     1      24.693  27.892  28.724  1.00  0.00     0.001 A 
ATOM      4  C   UNL     1      24.182  26.611  28.528  1.00  0.00     0.001 A 
ATOM      5  C   UNL     1      25.005  25.597  28.037  1.00  0.00     0.016 A 
ATOM      6  C   UNL     1      26.354  25.850  27.732  1.00  0.00     0.074 A 
ENDROOT
BRANCH   1   7
ATOM      7  C   UNL     1      28.327  27.459  27.820  1.00  0.00     0.339 C 
ATOM      8  O   UNL     1      28.927  28.111  28.718  1.00  0.00    -0.246 OA
BRANCH   7   9
ATOM      9  O   UNL     1      29.029  26.986  26.703  1.00  0.00    -0.462 OA
BRANCH   9  10
ATOM     10  C   UNL     1      28.970  27.601  25.418  1.00  0.00     0.233 C 
BRANCH  10  11
ATOM     11  C   UNL     1      28.697  29.104  25.535  1.00  0.00     0.038 C 
ATOM     12  C   UNL     1      27.524  29.537  24.660  1.00  0.00     0.007 C 
ENDBRANCH  10  11
ENDBRANCH   9  10
ENDBRANCH   7   9
ENDBRANCH   1   7
BRANCH   6  13
ATOM     13  C   UNL     1      27.140  24.762  27.110  1.00  0.00     0.339 C 
ATOM     14  O   UNL     1      27.106  24.584  25.861  1.00  0.00    -0.246 OA
BRANCH  13  15
ATOM     15  O   UNL     1      27.879  23.896  27.923  1.00  0.00    -0.462 OA
BRANCH  15  16
ATOM     16  C   UNL     1      27.750  23.875  29.342  1.00  0.00     0.233 C 
BRANCH  16  17
ATOM     17  C   UNL     1      29.125  24.011  29.994  1.00  0.00     0.038 C 
ATOM     18  C   UNL     1      29.030  24.611  31.396  1.00  0.00     0.007 C 
ENDBRANCH  16  17
ENDBRANCH  15  16
ENDBRANCH  13  15
ENDBRANCH   6  13
TORSDOF 8
ENDMDL
