MODEL 1
REMARK VINA RESULT:    -2.347      0.000      0.000
REMARK INTER + INTRA:          -3.024
REMARK INTER:                  -2.964
REMARK INTRA:                  -0.060
REMARK UNBOUND:                -0.060
REMARK SMILES CSCC[C@@H]([NH3+])C(=O)[O-]
REMARK SMILES IDX 4 1 5 2 6 3 7 7 8 8 9 9 3 10 2 11 1 12
REMARK H PARENT 6 4 6 5 6 6
REMARK Flexibility Score: inf
ROOT
ATOM      1  C   UNL     1     -35.744  65.320 -44.885  1.00  0.00     0.082 C 
ENDROOT
BRANCH   1   2
ATOM      2  C   UNL     1     -34.921  64.204 -44.206  1.00  0.00     0.228 C 
BRANCH   2   3
ATOM      3  N   UNL     1     -35.135  62.901 -44.851  1.00  0.00    -0.350 N 
ATOM      4  H   UNL     1     -35.987  62.939 -45.458  1.00  0.00     0.345 HD
ATOM      5  H   UNL     1     -35.259  62.147 -44.136  1.00  0.00     0.345 HD
ATOM      6  H   UNL     1     -34.322  62.666 -45.465  1.00  0.00     0.345 HD
ENDBRANCH   2   3
BRANCH   2   7
ATOM      7  C   UNL     1     -33.460  64.563 -44.244  1.00  0.00     0.099 C 
ATOM      8  O   UNL     1     -33.092  65.743 -44.004  1.00  0.00    -0.544 OA
ATOM      9  O   UNL     1     -32.510  63.601 -44.566  1.00  0.00    -0.544 OA
ENDBRANCH   2   7
ENDBRANCH   1   2
BRANCH   1  10
ATOM     10  C   UNL     1     -37.006  64.787 -45.575  1.00  0.00     0.076 C 
BRANCH  10  11
ATOM     11  S   UNL     1     -37.249  65.612 -47.189  1.00  0.00    -0.165 SA
ATOM     12  C   UNL     1     -38.486  64.432 -47.822  1.00  0.00     0.085 C 
ENDBRANCH  10  11
ENDBRANCH   1  10
TORSDOF 5
ENDMDL
MODEL 2
REMARK VINA RESULT:    -2.328      1.122      1.573
REMARK INTER + INTRA:          -3.001
REMARK INTER:                  -2.811
REMARK INTRA:                  -0.190
REMARK UNBOUND:                -0.060
REMARK SMILES CSCC[C@@H]([NH3+])C(=O)[O-]
REMARK SMILES IDX 4 1 5 2 6 3 7 7 8 8 9 9 3 10 2 11 1 12
REMARK H PARENT 6 4 6 5 6 6
REMARK Flexibility Score: inf
ROOT
ATOM      1  C   UNL     1     -35.408  64.856 -43.370  1.00  0.00     0.082 C 
ENDROOT
BRANCH   1   2
ATOM      2  C   UNL     1     -34.426  63.744 -43.796  1.00  0.00     0.228 C 
BRANCH   2   3
ATOM      3  N   UNL     1     -34.988  62.900 -44.859  1.00  0.00    -0.350 N 
ATOM      4  H   UNL     1     -35.191  63.481 -45.706  1.00  0.00     0.345 HD
ATOM      5  H   UNL     1     -35.872  62.440 -44.541  1.00  0.00     0.345 HD
ATOM      6  H   UNL     1     -34.297  62.167 -45.140  1.00  0.00     0.345 HD
ENDBRANCH   2   3
BRANCH   2   7
ATOM      7  C   UNL     1     -33.136  64.366 -44.262  1.00  0.00     0.099 C 
ATOM      8  O   UNL     1     -32.094  63.665 -44.360  1.00  0.00    -0.544 OA
ATOM      9  O   UNL     1     -33.081  65.721 -44.565  1.00  0.00    -0.544 OA
ENDBRANCH   2   7
ENDBRANCH   1   2
BRANCH   1  10
ATOM     10  C   UNL     1     -36.694  64.860 -44.205  1.00  0.00     0.076 C 
BRANCH  10  11
ATOM     11  S   UNL     1     -36.625  66.169 -45.480  1.00  0.00    -0.165 SA
ATOM     12  C   UNL     1     -37.234  65.132 -46.850  1.00  0.00     0.085 C 
ENDBRANCH  10  11
ENDBRANCH   1  10
TORSDOF 5
ENDMDL
MODEL 3
REMARK VINA RESULT:    -2.317     10.736     12.248
REMARK INTER + INTRA:          -2.987
REMARK INTER:                  -2.934
REMARK INTRA:                  -0.053
REMARK UNBOUND:                -0.060
REMARK SMILES CSCC[C@@H]([NH3+])C(=O)[O-]
REMARK SMILES IDX 4 1 5 2 6 3 7 7 8 8 9 9 3 10 2 11 1 12
REMARK H PARENT 6 4 6 5 6 6
REMARK Flexibility Score: inf
ROOT
ATOM      1  C   UNL     1     -24.250  59.813 -46.729  1.00  0.00     0.082 C 
ENDROOT
BRANCH   1   2
ATOM      2  C   UNL     1     -25.440  60.793 -46.819  1.00  0.00     0.228 C 
BRANCH   2   3
ATOM      3  N   UNL     1     -26.570  60.210 -47.555  1.00  0.00    -0.350 N 
ATOM      4  H   UNL     1     -26.229  59.773 -48.443  1.00  0.00     0.345 HD
ATOM      5  H   UNL     1     -27.281  60.942 -47.787  1.00  0.00     0.345 HD
ATOM      6  H   UNL     1     -27.020  59.456 -46.987  1.00  0.00     0.345 HD
ENDBRANCH   2   3
BRANCH   2   7
ATOM      7  C   UNL     1     -25.876  61.182 -45.432  1.00  0.00     0.099 C 
ATOM      8  O   UNL     1     -25.069  61.102 -44.468  1.00  0.00    -0.544 OA
ATOM      9  O   UNL     1     -27.177  61.613 -45.201  1.00  0.00    -0.544 OA
ENDBRANCH   2   7
ENDBRANCH   1   2
BRANCH   1  10
ATOM     10  C   UNL     1     -23.634  59.504 -48.098  1.00  0.00     0.076 C 
BRANCH  10  11
ATOM     11  S   UNL     1     -22.675  57.948 -48.032  1.00  0.00    -0.165 SA
ATOM     12  C   UNL     1     -21.949  58.242 -46.386  1.00  0.00     0.085 C 
ENDBRANCH  10  11
ENDBRANCH   1  10
TORSDOF 5
ENDMDL
MODEL 4
REMARK VINA RESULT:    -2.288      2.698      2.875
REMARK INTER + INTRA:          -2.950
REMARK INTER:                  -2.701
REMARK INTRA:                  -0.249
REMARK UNBOUND:                -0.060
REMARK SMILES CSCC[C@@H]([NH3+])C(=O)[O-]
REMARK SMILES IDX 4 1 5 2 6 3 7 7 8 8 9 9 3 10 2 11 1 12
REMARK H PARENT 6 4 6 5 6 6
REMARK Flexibility Score: inf
ROOT
ATOM      1  C   UNL     1     -33.853  66.041 -44.362  1.00  0.00     0.082 C 
ENDROOT
BRANCH   1   2
ATOM      2  C   UNL     1     -32.779  65.515 -43.385  1.00  0.00     0.228 C 
BRANCH   2   3
ATOM      3  N   UNL     1     -33.369  65.074 -42.114  1.00  0.00    -0.350 N 
ATOM      4  H   UNL     1     -32.965  64.149 -41.836  1.00  0.00     0.345 HD
ATOM      5  H   UNL     1     -34.408  64.981 -42.198  1.00  0.00     0.345 HD
ATOM      6  H   UNL     1     -33.142  65.757 -41.355  1.00  0.00     0.345 HD
ENDBRANCH   2   3
BRANCH   2   7
ATOM      7  C   UNL     1     -32.030  64.377 -44.027  1.00  0.00     0.099 C 
ATOM      8  O   UNL     1     -30.774  64.330 -43.963  1.00  0.00    -0.544 OA
ATOM      9  O   UNL     1     -32.720  63.384 -44.712  1.00  0.00    -0.544 OA
ENDBRANCH   2   7
ENDBRANCH   1   2
BRANCH   1  10
ATOM     10  C   UNL     1     -35.280  65.819 -43.846  1.00  0.00     0.076 C 
BRANCH  10  11
ATOM     11  S   UNL     1     -36.167  64.628 -44.913  1.00  0.00    -0.165 SA
ATOM     12  C   UNL     1     -36.106  63.237 -43.737  1.00  0.00     0.085 C 
ENDBRANCH  10  11
ENDBRANCH   1  10
TORSDOF 5
ENDMDL
MODEL 5
REMARK VINA RESULT:    -2.214     10.786     12.353
REMARK INTER + INTRA:          -2.856
REMARK INTER:                  -2.748
REMARK INTRA:                  -0.108
REMARK UNBOUND:                -0.060
REMARK SMILES CSCC[C@@H]([NH3+])C(=O)[O-]
REMARK SMILES IDX 4 1 5 2 6 3 7 7 8 8 9 9 3 10 2 11 1 12
REMARK H PARENT 6 4 6 5 6 6
REMARK Flexibility Score: inf
ROOT
ATOM      1  C   UNL     1     -24.640  59.869 -46.711  1.00  0.00     0.082 C 
ENDROOT
BRANCH   1   2
ATOM      2  C   UNL     1     -25.047  60.762 -45.519  1.00  0.00     0.228 C 
BRANCH   2   3
ATOM      3  N   UNL     1     -24.040  61.796 -45.245  1.00  0.00    -0.350 N 
ATOM      4  H   UNL     1     -23.393  61.472 -44.488  1.00  0.00     0.345 HD
ATOM      5  H   UNL     1     -24.495  62.689 -44.945  1.00  0.00     0.345 HD
ATOM      6  H   UNL     1     -23.462  61.971 -46.098  1.00  0.00     0.345 HD
ENDBRANCH   2   3
BRANCH   2   7
ATOM      7  C   UNL     1     -26.379  61.404 -45.805  1.00  0.00     0.099 C 
ATOM      8  O   UNL     1     -27.144  61.724 -44.857  1.00  0.00    -0.544 OA
ATOM      9  O   UNL     1     -26.781  61.629 -47.116  1.00  0.00    -0.544 OA
ENDBRANCH   2   7
ENDBRANCH   1   2
BRANCH   1  10
ATOM     10  C   UNL     1     -23.143  59.955 -47.029  1.00  0.00     0.076 C 
BRANCH  10  11
ATOM     11  S   UNL     1     -22.361  58.308 -46.877  1.00  0.00    -0.165 SA
ATOM     12  C   UNL     1     -21.402  58.689 -45.375  1.00  0.00     0.085 C 
ENDBRANCH  10  11
ENDBRANCH   1  10
TORSDOF 5
ENDMDL
MODEL 6
REMARK VINA RESULT:    -2.209      9.820     10.174
REMARK INTER + INTRA:          -2.850
REMARK INTER:                  -2.764
REMARK INTRA:                  -0.086
REMARK UNBOUND:                -0.060
REMARK SMILES CSCC[C@@H]([NH3+])C(=O)[O-]
REMARK SMILES IDX 4 1 5 2 6 3 7 7 8 8 9 9 3 10 2 11 1 12
REMARK H PARENT 6 4 6 5 6 6
REMARK Flexibility Score: inf
ROOT
ATOM      1  C   UNL     1     -25.963  61.696 -47.939  1.00  0.00     0.082 C 
ENDROOT
BRANCH   1   2
ATOM      2  C   UNL     1     -26.065  60.641 -46.816  1.00  0.00     0.228 C 
BRANCH   2   3
ATOM      3  N   UNL     1     -25.009  59.626 -46.926  1.00  0.00    -0.350 N 
ATOM      4  H   UNL     1     -25.435  58.687 -47.107  1.00  0.00     0.345 HD
ATOM      5  H   UNL     1     -24.444  59.579 -46.047  1.00  0.00     0.345 HD
ATOM      6  H   UNL     1     -24.380  59.846 -47.732  1.00  0.00     0.345 HD
ENDBRANCH   2   3
BRANCH   2   7
ATOM      7  C   UNL     1     -25.984  61.325 -45.477  1.00  0.00     0.099 C 
ATOM      8  O   UNL     1     -24.886  61.389 -44.864  1.00  0.00    -0.544 OA
ATOM      9  O   UNL     1     -27.125  61.869 -44.899  1.00  0.00    -0.544 OA
ENDBRANCH   2   7
ENDBRANCH   1   2
BRANCH   1  10
ATOM     10  C   UNL     1     -27.121  61.606 -48.941  1.00  0.00     0.076 C 
BRANCH  10  11
ATOM     11  S   UNL     1     -26.747  60.378 -50.242  1.00  0.00    -0.165 SA
ATOM     12  C   UNL     1     -27.500  61.315 -51.612  1.00  0.00     0.085 C 
ENDBRANCH  10  11
ENDBRANCH   1  10
TORSDOF 5
ENDMDL
MODEL 7
REMARK VINA RESULT:    -2.201      9.760     10.187
REMARK INTER + INTRA:          -2.840
REMARK INTER:                  -2.649
REMARK INTRA:                  -0.191
REMARK UNBOUND:                -0.060
REMARK SMILES CSCC[C@@H]([NH3+])C(=O)[O-]
REMARK SMILES IDX 4 1 5 2 6 3 7 7 8 8 9 9 3 10 2 11 1 12
REMARK H PARENT 6 4 6 5 6 6
REMARK Flexibility Score: inf
ROOT
ATOM      1  C   UNL     1     -26.734  61.141 -48.033  1.00  0.00     0.082 C 
ENDROOT
BRANCH   1   2
ATOM      2  C   UNL     1     -26.233  60.385 -46.784  1.00  0.00     0.228 C 
BRANCH   2   3
ATOM      3  N   UNL     1     -24.925  59.758 -47.016  1.00  0.00    -0.350 N 
ATOM      4  H   UNL     1     -25.034  58.926 -47.642  1.00  0.00     0.345 HD
ATOM      5  H   UNL     1     -24.493  59.451 -46.114  1.00  0.00     0.345 HD
ATOM      6  H   UNL     1     -24.283  60.429 -47.497  1.00  0.00     0.345 HD
ENDBRANCH   2   3
BRANCH   2   7
ATOM      7  C   UNL     1     -26.147  61.337 -45.621  1.00  0.00     0.099 C 
ATOM      8  O   UNL     1     -25.025  61.718 -45.195  1.00  0.00    -0.544 OA
ATOM      9  O   UNL     1     -27.305  61.785 -44.996  1.00  0.00    -0.544 OA
ENDBRANCH   2   7
ENDBRANCH   1   2
BRANCH   1  10
ATOM     10  C   UNL     1     -25.663  62.055 -48.640  1.00  0.00     0.076 C 
BRANCH  10  11
ATOM     11  S   UNL     1     -26.375  63.687 -49.056  1.00  0.00    -0.165 SA
ATOM     12  C   UNL     1     -25.843  64.523 -47.526  1.00  0.00     0.085 C 
ENDBRANCH  10  11
ENDBRANCH   1  10
TORSDOF 5
ENDMDL
MODEL 8
REMARK VINA RESULT:    -2.172     11.272     11.732
REMARK INTER + INTRA:          -2.803
REMARK INTER:                  -2.720
REMARK INTRA:                  -0.083
REMARK UNBOUND:                -0.060
REMARK SMILES CSCC[C@@H]([NH3+])C(=O)[O-]
REMARK SMILES IDX 4 1 5 2 6 3 7 7 8 8 9 9 3 10 2 11 1 12
REMARK H PARENT 6 4 6 5 6 6
REMARK Flexibility Score: inf
ROOT
ATOM      1  C   UNL     1     -28.251  59.717 -52.236  1.00  0.00     0.082 C 
ENDROOT
BRANCH   1   2
ATOM      2  C   UNL     1     -26.960  59.103 -51.655  1.00  0.00     0.228 C 
BRANCH   2   3
ATOM      3  N   UNL     1     -26.746  59.508 -50.259  1.00  0.00    -0.350 N 
ATOM      4  H   UNL     1     -26.009  58.906 -49.822  1.00  0.00     0.345 HD
ATOM      5  H   UNL     1     -27.629  59.420 -49.706  1.00  0.00     0.345 HD
ATOM      6  H   UNL     1     -26.408  60.497 -50.218  1.00  0.00     0.345 HD
ENDBRANCH   2   3
BRANCH   2   7
ATOM      7  C   UNL     1     -27.030  57.602 -51.750  1.00  0.00     0.099 C 
ATOM      8  O   UNL     1     -26.010  56.904 -51.509  1.00  0.00    -0.544 OA
ATOM      9  O   UNL     1     -28.214  56.979 -52.125  1.00  0.00    -0.544 OA
ENDBRANCH   2   7
ENDBRANCH   1   2
BRANCH   1  10
ATOM     10  C   UNL     1     -27.998  61.036 -52.977  1.00  0.00     0.076 C 
BRANCH  10  11
ATOM     11  S   UNL     1     -29.476  61.526 -53.934  1.00  0.00    -0.165 SA
ATOM     12  C   UNL     1     -30.420  59.997 -53.625  1.00  0.00     0.085 C 
ENDBRANCH  10  11
ENDBRANCH   1  10
TORSDOF 5
ENDMDL
MODEL 9
REMARK VINA RESULT:    -2.152     11.015     11.514
REMARK INTER + INTRA:          -2.778
REMARK INTER:                  -2.669
REMARK INTRA:                  -0.109
REMARK UNBOUND:                -0.060
REMARK SMILES CSCC[C@@H]([NH3+])C(=O)[O-]
REMARK SMILES IDX 4 1 5 2 6 3 7 7 8 8 9 9 3 10 2 11 1 12
REMARK H PARENT 6 4 6 5 6 6
REMARK Flexibility Score: inf
ROOT
ATOM      1  C   UNL     1     -29.888  59.639 -53.291  1.00  0.00     0.082 C 
ENDROOT
BRANCH   1   2
ATOM      2  C   UNL     1     -28.608  58.817 -53.555  1.00  0.00     0.228 C 
BRANCH   2   3
ATOM      3  N   UNL     1     -27.476  59.677 -53.926  1.00  0.00    -0.350 N 
ATOM      4  H   UNL     1     -26.805  59.143 -54.527  1.00  0.00     0.345 HD
ATOM      5  H   UNL     1     -26.973  60.019 -53.075  1.00  0.00     0.345 HD
ATOM      6  H   UNL     1     -27.812  60.495 -54.483  1.00  0.00     0.345 HD
ENDBRANCH   2   3
BRANCH   2   7
ATOM      7  C   UNL     1     -28.264  58.015 -52.328  1.00  0.00     0.099 C 
ATOM      8  O   UNL     1     -27.559  58.522 -51.417  1.00  0.00    -0.544 OA
ATOM      9  O   UNL     1     -28.706  56.703 -52.203  1.00  0.00    -0.544 OA
ENDBRANCH   2   7
ENDBRANCH   1   2
BRANCH   1  10
ATOM     10  C   UNL     1     -30.329  60.454 -54.513  1.00  0.00     0.076 C 
BRANCH  10  11
ATOM     11  S   UNL     1     -31.012  62.069 -53.992  1.00  0.00    -0.165 SA
ATOM     12  C   UNL     1     -29.465  62.705 -53.268  1.00  0.00     0.085 C 
ENDBRANCH  10  11
ENDBRANCH   1  10
TORSDOF 5
ENDMDL
