MODEL 1
REMARK VINA RESULT:    -1.952      0.000      0.000
REMARK INTER + INTRA:          -1.952
REMARK INTER:                  -1.952
REMARK INTRA:                   0.000
REMARK UNBOUND:                 0.000
REMARK SMILES CC(=O)[O-]
REMARK SMILES IDX 1 1 2 2 3 3 4 4
REMARK H PARENT
REMARK Flexibility Score: inf
ROOT
ATOM      1  C   UNL     1     -95.284  -5.086   9.408  1.00  0.00     0.063 C 
ATOM      2  C   UNL     1     -96.541  -4.316   9.182  1.00  0.00     0.038 C 
ATOM      3  O   UNL     1     -97.055  -4.269   8.035  1.00  0.00    -0.550 OA
ATOM      4  O   UNL     1     -97.118  -3.603  10.227  1.00  0.00    -0.550 OA
ENDROOT
TORSDOF 0
ENDMDL
MODEL 2
REMARK VINA RESULT:    -1.938      1.595      2.274
REMARK INTER + INTRA:          -1.938
REMARK INTER:                  -1.938
REMARK INTRA:                   0.000
REMARK UNBOUND:                 0.000
REMARK SMILES CC(=O)[O-]
REMARK SMILES IDX 1 1 2 2 3 3 4 4
REMARK H PARENT
REMARK Flexibility Score: inf
ROOT
ATOM      1  C   UNL     1     -97.072  -4.216  10.367  1.00  0.00     0.063 C 
ATOM      2  C   UNL     1     -96.011  -4.688   9.433  1.00  0.00     0.038 C 
ATOM      3  O   UNL     1     -94.888  -5.041   9.879  1.00  0.00    -0.550 OA
ATOM      4  O   UNL     1     -96.239  -4.688   8.062  1.00  0.00    -0.550 OA
ENDROOT
TORSDOF 0
ENDMDL
MODEL 3
REMARK VINA RESULT:    -1.937      0.189      1.629
REMARK INTER + INTRA:          -1.937
REMARK INTER:                  -1.937
REMARK INTRA:                   0.000
REMARK UNBOUND:                 0.000
REMARK SMILES CC(=O)[O-]
REMARK SMILES IDX 1 1 2 2 3 3 4 4
REMARK H PARENT
REMARK Flexibility Score: inf
ROOT
ATOM      1  C   UNL     1     -95.441  -5.052   9.522  1.00  0.00     0.063 C 
ATOM      2  C   UNL     1     -96.597  -4.156   9.235  1.00  0.00     0.038 C 
ATOM      3  O   UNL     1     -97.168  -3.541  10.173  1.00  0.00    -0.550 OA
ATOM      4  O   UNL     1     -97.082  -4.039   7.937  1.00  0.00    -0.550 OA
ENDROOT
TORSDOF 0
ENDMDL
MODEL 4
REMARK VINA RESULT:    -1.897      1.266      2.070
REMARK INTER + INTRA:          -1.897
REMARK INTER:                  -1.897
REMARK INTRA:                   0.000
REMARK UNBOUND:                 0.000
REMARK SMILES CC(=O)[O-]
REMARK SMILES IDX 1 1 2 2 3 3 4 4
REMARK H PARENT
REMARK Flexibility Score: inf
ROOT
ATOM      1  C   UNL     1     -94.875  -5.339   9.704  1.00  0.00     0.063 C 
ATOM      2  C   UNL     1     -95.687  -4.877   8.542  1.00  0.00     0.038 C 
ATOM      3  O   UNL     1     -96.700  -4.153   8.727  1.00  0.00    -0.550 OA
ATOM      4  O   UNL     1     -95.360  -5.288   7.256  1.00  0.00    -0.550 OA
ENDROOT
TORSDOF 0
ENDMDL
MODEL 5
REMARK VINA RESULT:    -1.813      8.513      9.082
REMARK INTER + INTRA:          -1.813
REMARK INTER:                  -1.813
REMARK INTRA:                   0.000
REMARK UNBOUND:                 0.000
REMARK SMILES CC(=O)[O-]
REMARK SMILES IDX 1 1 2 2 3 3 4 4
REMARK H PARENT
REMARK Flexibility Score: inf
ROOT
ATOM      1  C   UNL     1    -103.973   0.884  11.768  1.00  0.00     0.063 C 
ATOM      2  C   UNL     1    -103.761  -0.469  12.358  1.00  0.00     0.038 C 
ATOM      3  O   UNL     1    -103.647  -0.603  13.604  1.00  0.00    -0.550 OA
ATOM      4  O   UNL     1    -103.634  -1.577  11.530  1.00  0.00    -0.550 OA
ENDROOT
TORSDOF 0
ENDMDL
MODEL 6
REMARK VINA RESULT:    -1.728      9.049      9.263
REMARK INTER + INTRA:          -1.728
REMARK INTER:                  -1.728
REMARK INTRA:                   0.000
REMARK UNBOUND:                 0.000
REMARK SMILES CC(=O)[O-]
REMARK SMILES IDX 1 1 2 2 3 3 4 4
REMARK H PARENT
REMARK Flexibility Score: inf
ROOT
ATOM      1  C   UNL     1    -103.760  -0.678  13.111  1.00  0.00     0.063 C 
ATOM      2  C   UNL     1    -104.048   0.046  11.840  1.00  0.00     0.038 C 
ATOM      3  O   UNL     1    -103.860   1.288  11.764  1.00  0.00    -0.550 OA
ATOM      4  O   UNL     1    -104.575  -0.639  10.752  1.00  0.00    -0.550 OA
ENDROOT
TORSDOF 0
ENDMDL
MODEL 7
REMARK VINA RESULT:    -1.717      9.975     10.224
REMARK INTER + INTRA:          -1.717
REMARK INTER:                  -1.717
REMARK INTRA:                   0.000
REMARK UNBOUND:                 0.000
REMARK SMILES CC(=O)[O-]
REMARK SMILES IDX 1 1 2 2 3 3 4 4
REMARK H PARENT
REMARK Flexibility Score: inf
ROOT
ATOM      1  C   UNL     1    -103.931   0.904  11.751  1.00  0.00     0.063 C 
ATOM      2  C   UNL     1    -105.257   0.223  11.726  1.00  0.00     0.038 C 
ATOM      3  O   UNL     1    -106.104   0.523  10.845  1.00  0.00    -0.550 OA
ATOM      4  O   UNL     1    -105.581  -0.705  12.708  1.00  0.00    -0.550 OA
ENDROOT
TORSDOF 0
ENDMDL
MODEL 8
REMARK VINA RESULT:    -1.704      2.186      3.009
REMARK INTER + INTRA:          -1.704
REMARK INTER:                  -1.704
REMARK INTRA:                   0.000
REMARK UNBOUND:                 0.000
REMARK SMILES CC(=O)[O-]
REMARK SMILES IDX 1 1 2 2 3 3 4 4
REMARK H PARENT
REMARK Flexibility Score: inf
ROOT
ATOM      1  C   UNL     1     -97.197  -4.588   7.109  1.00  0.00     0.063 C 
ATOM      2  C   UNL     1     -95.873  -5.027   7.637  1.00  0.00     0.038 C 
ATOM      3  O   UNL     1     -95.614  -4.920   8.863  1.00  0.00    -0.550 OA
ATOM      4  O   UNL     1     -94.901  -5.506   6.766  1.00  0.00    -0.550 OA
ENDROOT
TORSDOF 0
ENDMDL
MODEL 9
REMARK VINA RESULT:    -1.619     11.262     11.905
REMARK INTER + INTRA:          -1.619
REMARK INTER:                  -1.619
REMARK INTRA:                   0.000
REMARK UNBOUND:                 0.000
REMARK SMILES CC(=O)[O-]
REMARK SMILES IDX 1 1 2 2 3 3 4 4
REMARK H PARENT
REMARK Flexibility Score: inf
ROOT
ATOM      1  C   UNL     1    -104.022  -0.875  -0.877  1.00  0.00     0.063 C 
ATOM      2  C   UNL     1    -103.043  -0.644   0.224  1.00  0.00     0.038 C 
ATOM      3  O   UNL     1    -102.764   0.529   0.585  1.00  0.00    -0.550 OA
ATOM      4  O   UNL     1    -102.397  -1.721   0.817  1.00  0.00    -0.550 OA
ENDROOT
TORSDOF 0
ENDMDL
