MODEL 1
REMARK VINA RESULT:    -3.954      0.000      0.000
REMARK INTER + INTRA:          -4.209
REMARK INTER:                  -4.185
REMARK INTRA:                  -0.024
REMARK UNBOUND:                -0.024
REMARK SMILES O=C([O-])c1cccnc1
REMARK SMILES IDX 4 1 5 2 9 3 6 4 8 5 7 6 2 7 1 8 3 9
REMARK H PARENT
REMARK Flexibility Score: inf
ROOT
ATOM      1  C   UNL     1      27.807   9.874  26.044  1.00  0.00     0.016 A 
ATOM      2  C   UNL     1      26.448   9.540  26.169  1.00  0.00     0.013 A 
ATOM      3  C   UNL     1      28.140  11.185  25.659  1.00  0.00     0.120 A 
ATOM      4  C   UNL     1      25.465  10.498  25.911  1.00  0.00     0.021 A 
ATOM      5  N   UNL     1      27.162  12.099  25.414  1.00  0.00    -0.264 NA
ATOM      6  C   UNL     1      25.845  11.785  25.531  1.00  0.00     0.111 A 
ENDROOT
BRANCH   1   7
ATOM      7  C   UNL     1      28.857   8.870  26.314  1.00  0.00     0.073 C 
ATOM      8  O   UNL     1      28.573   7.644  26.372  1.00  0.00    -0.545 OA
ATOM      9  O   UNL     1      30.176   9.266  26.510  1.00  0.00    -0.545 OA
ENDBRANCH   1   7
TORSDOF 1
ENDMDL
MODEL 2
REMARK VINA RESULT:    -3.911     15.458     16.021
REMARK INTER + INTRA:          -4.164
REMARK INTER:                  -4.147
REMARK INTRA:                  -0.017
REMARK UNBOUND:                -0.024
REMARK SMILES O=C([O-])c1cccnc1
REMARK SMILES IDX 4 1 5 2 9 3 6 4 8 5 7 6 2 7 1 8 3 9
REMARK H PARENT
REMARK Flexibility Score: inf
ROOT
ATOM      1  C   UNL     1      28.593  -5.609  27.454  1.00  0.00     0.016 A 
ATOM      2  C   UNL     1      27.314  -5.073  27.229  1.00  0.00     0.013 A 
ATOM      3  C   UNL     1      28.804  -6.366  28.621  1.00  0.00     0.120 A 
ATOM      4  C   UNL     1      26.290  -5.293  28.152  1.00  0.00     0.021 A 
ATOM      5  N   UNL     1      27.789  -6.565  29.503  1.00  0.00    -0.264 NA
ATOM      6  C   UNL     1      26.548  -6.049  29.295  1.00  0.00     0.111 A 
ENDROOT
BRANCH   1   7
ATOM      7  C   UNL     1      29.686  -5.383  26.485  1.00  0.00     0.073 C 
ATOM      8  O   UNL     1      29.690  -5.976  25.374  1.00  0.00    -0.545 OA
ATOM      9  O   UNL     1      30.727  -4.512  26.789  1.00  0.00    -0.545 OA
ENDBRANCH   1   7
TORSDOF 1
ENDMDL
MODEL 3
REMARK VINA RESULT:    -3.863     15.800     16.696
REMARK INTER + INTRA:          -4.112
REMARK INTER:                  -4.091
REMARK INTRA:                  -0.021
REMARK UNBOUND:                -0.024
REMARK SMILES O=C([O-])c1cccnc1
REMARK SMILES IDX 4 1 5 2 9 3 6 4 8 5 7 6 2 7 1 8 3 9
REMARK H PARENT
REMARK Flexibility Score: inf
ROOT
ATOM      1  C   UNL     1      27.464  -6.259  29.361  1.00  0.00     0.016 A 
ATOM      2  C   UNL     1      26.471  -5.444  28.793  1.00  0.00     0.013 A 
ATOM      3  C   UNL     1      28.645  -6.482  28.630  1.00  0.00     0.120 A 
ATOM      4  C   UNL     1      26.666  -4.878  27.532  1.00  0.00     0.021 A 
ATOM      5  N   UNL     1      28.809  -5.918  27.403  1.00  0.00    -0.264 NA
ATOM      6  C   UNL     1      27.854  -5.129  26.844  1.00  0.00     0.111 A 
ENDROOT
BRANCH   1   7
ATOM      7  C   UNL     1      27.270  -6.863  30.696  1.00  0.00     0.073 C 
ATOM      8  O   UNL     1      26.640  -6.245  31.595  1.00  0.00    -0.545 OA
ATOM      9  O   UNL     1      27.783  -8.125  30.978  1.00  0.00    -0.545 OA
ENDBRANCH   1   7
TORSDOF 1
ENDMDL
MODEL 4
REMARK VINA RESULT:    -3.843     15.787     16.774
REMARK INTER + INTRA:          -4.091
REMARK INTER:                  -4.070
REMARK INTRA:                  -0.021
REMARK UNBOUND:                -0.024
REMARK SMILES O=C([O-])c1cccnc1
REMARK SMILES IDX 4 1 5 2 9 3 6 4 8 5 7 6 2 7 1 8 3 9
REMARK H PARENT
REMARK Flexibility Score: inf
ROOT
ATOM      1  C   UNL     1      27.497  -5.953  28.689  1.00  0.00     0.016 A 
ATOM      2  C   UNL     1      26.626  -5.788  29.779  1.00  0.00     0.013 A 
ATOM      3  C   UNL     1      28.685  -6.679  28.887  1.00  0.00     0.120 A 
ATOM      4  C   UNL     1      26.949  -6.335  31.022  1.00  0.00     0.021 A 
ATOM      5  N   UNL     1      28.975  -7.202  30.109  1.00  0.00    -0.264 NA
ATOM      6  C   UNL     1      28.140  -7.046  31.170  1.00  0.00     0.111 A 
ENDROOT
BRANCH   1   7
ATOM      7  C   UNL     1      27.167  -5.379  27.367  1.00  0.00     0.073 C 
ATOM      8  O   UNL     1      26.569  -4.273  27.279  1.00  0.00    -0.545 OA
ATOM      9  O   UNL     1      27.512  -6.054  26.201  1.00  0.00    -0.545 OA
ENDBRANCH   1   7
TORSDOF 1
ENDMDL
MODEL 5
REMARK VINA RESULT:    -3.547      3.520      5.198
REMARK INTER + INTRA:          -3.778
REMARK INTER:                  -3.759
REMARK INTRA:                  -0.019
REMARK UNBOUND:                -0.024
REMARK SMILES O=C([O-])c1cccnc1
REMARK SMILES IDX 4 1 5 2 9 3 6 4 8 5 7 6 2 7 1 8 3 9
REMARK H PARENT
REMARK Flexibility Score: inf
ROOT
ATOM      1  C   UNL     1      30.558   8.384  26.931  1.00  0.00     0.016 A 
ATOM      2  C   UNL     1      30.571   7.419  27.951  1.00  0.00     0.013 A 
ATOM      3  C   UNL     1      31.786   8.787  26.376  1.00  0.00     0.120 A 
ATOM      4  C   UNL     1      31.782   6.884  28.394  1.00  0.00     0.021 A 
ATOM      5  N   UNL     1      32.952   8.249  26.827  1.00  0.00    -0.264 NA
ATOM      6  C   UNL     1      32.975   7.316  27.814  1.00  0.00     0.111 A 
ENDROOT
BRANCH   1   7
ATOM      7  C   UNL     1      29.282   8.959  26.453  1.00  0.00     0.073 C 
ATOM      8  O   UNL     1      28.322   8.209  26.132  1.00  0.00    -0.545 OA
ATOM      9  O   UNL     1      29.126  10.337  26.349  1.00  0.00    -0.545 OA
ENDBRANCH   1   7
TORSDOF 1
ENDMDL
MODEL 6
REMARK VINA RESULT:    -3.529      2.452      3.499
REMARK INTER + INTRA:          -3.759
REMARK INTER:                  -3.740
REMARK INTRA:                  -0.019
REMARK UNBOUND:                -0.024
REMARK SMILES O=C([O-])c1cccnc1
REMARK SMILES IDX 4 1 5 2 9 3 6 4 8 5 7 6 2 7 1 8 3 9
REMARK H PARENT
REMARK Flexibility Score: inf
ROOT
ATOM      1  C   UNL     1      27.653  10.160  26.336  1.00  0.00     0.016 A 
ATOM      2  C   UNL     1      28.481   9.053  26.086  1.00  0.00     0.013 A 
ATOM      3  C   UNL     1      28.171  11.224  27.096  1.00  0.00     0.120 A 
ATOM      4  C   UNL     1      29.784   9.025  26.588  1.00  0.00     0.021 A 
ATOM      5  N   UNL     1      29.444  11.171  27.574  1.00  0.00    -0.264 NA
ATOM      6  C   UNL     1      30.252  10.104  27.338  1.00  0.00     0.111 A 
ENDROOT
BRANCH   1   7
ATOM      7  C   UNL     1      26.273  10.202  25.810  1.00  0.00     0.073 C 
ATOM      8  O   UNL     1      25.471   9.257  26.036  1.00  0.00    -0.545 OA
ATOM      9  O   UNL     1      25.840  11.288  25.056  1.00  0.00    -0.545 OA
ENDBRANCH   1   7
TORSDOF 1
ENDMDL
MODEL 7
REMARK VINA RESULT:    -3.509      1.847      2.506
REMARK INTER + INTRA:          -3.738
REMARK INTER:                  -3.721
REMARK INTRA:                  -0.017
REMARK UNBOUND:                -0.024
REMARK SMILES O=C([O-])c1cccnc1
REMARK SMILES IDX 4 1 5 2 9 3 6 4 8 5 7 6 2 7 1 8 3 9
REMARK H PARENT
REMARK Flexibility Score: inf
ROOT
ATOM      1  C   UNL     1      29.620   9.219  26.921  1.00  0.00     0.016 A 
ATOM      2  C   UNL     1      28.492   9.068  26.098  1.00  0.00     0.013 A 
ATOM      3  C   UNL     1      29.693  10.350  27.754  1.00  0.00     0.120 A 
ATOM      4  C   UNL     1      27.478  10.027  26.116  1.00  0.00     0.021 A 
ATOM      5  N   UNL     1      28.690  11.269  27.752  1.00  0.00    -0.264 NA
ATOM      6  C   UNL     1      27.596  11.133  26.958  1.00  0.00     0.111 A 
ENDROOT
BRANCH   1   7
ATOM      7  C   UNL     1      30.701   8.210  26.911  1.00  0.00     0.073 C 
ATOM      8  O   UNL     1      31.818   8.473  26.392  1.00  0.00    -0.545 OA
ATOM      9  O   UNL     1      30.497   6.955  27.475  1.00  0.00    -0.545 OA
ENDBRANCH   1   7
TORSDOF 1
ENDMDL
MODEL 8
REMARK VINA RESULT:    -3.457      3.341      5.105
REMARK INTER + INTRA:          -3.683
REMARK INTER:                  -3.660
REMARK INTRA:                  -0.023
REMARK UNBOUND:                -0.024
REMARK SMILES O=C([O-])c1cccnc1
REMARK SMILES IDX 4 1 5 2 9 3 6 4 8 5 7 6 2 7 1 8 3 9
REMARK H PARENT
REMARK Flexibility Score: inf
ROOT
ATOM      1  C   UNL     1      30.411   8.578  26.937  1.00  0.00     0.016 A 
ATOM      2  C   UNL     1      30.556   7.297  27.494  1.00  0.00     0.013 A 
ATOM      3  C   UNL     1      31.518   9.446  26.960  1.00  0.00     0.120 A 
ATOM      4  C   UNL     1      31.774   6.910  28.054  1.00  0.00     0.021 A 
ATOM      5  N   UNL     1      32.694   9.044  27.513  1.00  0.00    -0.264 NA
ATOM      6  C   UNL     1      32.843   7.806  28.055  1.00  0.00     0.111 A 
ENDROOT
BRANCH   1   7
ATOM      7  C   UNL     1      29.126   9.000  26.340  1.00  0.00     0.073 C 
ATOM      8  O   UNL     1      28.920  10.208  26.048  1.00  0.00    -0.545 OA
ATOM      9  O   UNL     1      28.125   8.066  26.094  1.00  0.00    -0.545 OA
ENDBRANCH   1   7
TORSDOF 1
ENDMDL
MODEL 9
REMARK VINA RESULT:    -3.437     15.262     16.083
REMARK INTER + INTRA:          -3.662
REMARK INTER:                  -3.640
REMARK INTRA:                  -0.021
REMARK UNBOUND:                -0.024
REMARK SMILES O=C([O-])c1cccnc1
REMARK SMILES IDX 4 1 5 2 9 3 6 4 8 5 7 6 2 7 1 8 3 9
REMARK H PARENT
REMARK Flexibility Score: inf
ROOT
ATOM      1  C   UNL     1      28.882  -5.800  27.565  1.00  0.00     0.016 A 
ATOM      2  C   UNL     1      28.613  -6.436  28.788  1.00  0.00     0.013 A 
ATOM      3  C   UNL     1      27.852  -5.063  26.955  1.00  0.00     0.120 A 
ATOM      4  C   UNL     1      27.348  -6.331  29.370  1.00  0.00     0.021 A 
ATOM      5  N   UNL     1      26.628  -4.976  27.543  1.00  0.00    -0.264 NA
ATOM      6  C   UNL     1      26.358  -5.589  28.725  1.00  0.00     0.111 A 
ENDROOT
BRANCH   1   7
ATOM      7  C   UNL     1      30.218  -5.904  26.939  1.00  0.00     0.073 C 
ATOM      8  O   UNL     1      30.905  -6.952  27.065  1.00  0.00    -0.545 OA
ATOM      9  O   UNL     1      30.734  -4.842  26.204  1.00  0.00    -0.545 OA
ENDBRANCH   1   7
TORSDOF 1
ENDMDL
