MODEL 1
REMARK VINA RESULT:    -7.580      0.000      0.000
REMARK INTER + INTRA:         -12.540
REMARK INTER:                 -11.125
REMARK INTRA:                  -1.415
REMARK UNBOUND:                -1.415
REMARK SMILES O=c1c(O[C@@H]2O[C@H](CO)[C@@H](O)[C@@H](O)[C@H]2O)c(-c2ccc(O)c(O)c2)oc2cc(O)cc(O)c12
REMARK SMILES IDX 4 1 3 2 16 3 25 4 2 5 26 6 1 7 33 8 27 9 31 10 28 11 30 12
REMARK SMILES IDX 17 13 18 14 19 15 20 16 24 17 22 18 21 19 23 21 32 23 29 25
REMARK SMILES IDX 5 27 14 28 6 29 12 30 7 31 10 32 15 33 13 35 8 37 9 38 11 40
REMARK H PARENT 21 20 23 22 32 24 29 26 15 34 13 36 9 39 11 41
REMARK Flexibility Score: inf
ROOT
ATOM      1  O   UNL     1     -37.447   5.335  82.279  1.00  0.00    -0.454 OA
ENDROOT
BRANCH   1   2
ATOM      2  C   UNL     1     -38.158   4.843  81.177  1.00  0.00     0.214 A 
ATOM      3  C   UNL     1     -37.603   4.843  79.879  1.00  0.00     0.180 A 
ATOM      4  O   UNL     1     -38.329   4.408  78.853  1.00  0.00    -0.452 OA
ATOM      5  C   UNL     1     -39.450   4.344  81.360  1.00  0.00     0.239 A 
ATOM      6  C   UNL     1     -39.567   3.946  78.978  1.00  0.00     0.146 A 
ATOM      7  O   UNL     1     -39.943   4.328  82.521  1.00  0.00    -0.285 OA
ATOM      8  C   UNL     1     -40.189   3.890  80.249  1.00  0.00     0.111 A 
ATOM      9  C   UNL     1     -40.250   3.508  77.840  1.00  0.00     0.094 A 
ATOM     10  C   UNL     1     -41.513   3.397  80.348  1.00  0.00     0.134 A 
ATOM     11  C   UNL     1     -41.557   3.023  77.943  1.00  0.00     0.123 A 
ATOM     12  C   UNL     1     -42.184   2.969  79.194  1.00  0.00     0.093 A 
BRANCH   3  13
ATOM     13  C   UNL     1     -36.221   5.305  79.610  1.00  0.00     0.025 A 
ATOM     14  C   UNL     1     -35.168   4.390  79.439  1.00  0.00     0.016 A 
ATOM     15  C   UNL     1     -33.871   4.842  79.186  1.00  0.00     0.051 A 
ATOM     16  C   UNL     1     -33.610   6.211  79.073  1.00  0.00     0.157 A 
ATOM     17  C   UNL     1     -35.960   6.677  79.470  1.00  0.00     0.062 A 
ATOM     18  C   UNL     1     -34.660   7.135  79.207  1.00  0.00     0.158 A 
BRANCH  16  19
ATOM     19  O   UNL     1     -32.304   6.639  78.832  1.00  0.00    -0.504 OA
ATOM     20  H   UNL     1     -31.754   7.121  79.533  1.00  0.00     0.293 HD
ENDBRANCH  16  19
BRANCH  18  21
ATOM     21  O   UNL     1     -34.411   8.502  79.085  1.00  0.00    -0.504 OA
ATOM     22  H   UNL     1     -34.309   8.946  78.179  1.00  0.00     0.293 HD
ENDBRANCH  18  21
ENDBRANCH   3  13
BRANCH  10  23
ATOM     23  O   UNL     1     -42.165   3.337  81.582  1.00  0.00    -0.507 OA
ATOM     24  H   UNL     1     -42.251   2.468  82.096  1.00  0.00     0.293 HD
ENDBRANCH  10  23
BRANCH  11  25
ATOM     25  O   UNL     1     -42.227   2.598  76.796  1.00  0.00    -0.508 OA
ATOM     26  H   UNL     1     -41.851   1.871  76.200  1.00  0.00     0.293 HD
ENDBRANCH  11  25
ENDBRANCH   1   2
BRANCH   1  27
ATOM     27  C   UNL     1     -37.097   4.519  83.401  1.00  0.00     0.339 C 
ATOM     28  C   UNL     1     -35.952   3.541  83.066  1.00  0.00     0.214 C 
ATOM     29  O   UNL     1     -36.789   5.337  84.520  1.00  0.00    -0.332 OA
ATOM     30  C   UNL     1     -34.605   4.278  82.837  1.00  0.00     0.180 C 
ATOM     31  C   UNL     1     -35.528   6.004  84.456  1.00  0.00     0.179 C 
ATOM     32  C   UNL     1     -34.699   5.782  83.160  1.00  0.00     0.177 C 
BRANCH  28  33
ATOM     33  O   UNL     1     -35.833   2.617  84.121  1.00  0.00    -0.384 OA
ATOM     34  H   UNL     1     -36.640   2.036  84.107  1.00  0.00     0.211 HD
ENDBRANCH  28  33
BRANCH  30  35
ATOM     35  O   UNL     1     -33.584   3.693  83.612  1.00  0.00    -0.387 OA
ATOM     36  H   UNL     1     -33.626   2.712  83.464  1.00  0.00     0.211 HD
ENDBRANCH  30  35
BRANCH  31  37
ATOM     37  C   UNL     1     -35.750   7.503  84.716  1.00  0.00     0.191 C 
BRANCH  37  38
ATOM     38  O   UNL     1     -35.711   8.218  83.508  1.00  0.00    -0.394 OA
ATOM     39  H   UNL     1     -34.915   8.814  83.550  1.00  0.00     0.210 HD
ENDBRANCH  37  38
ENDBRANCH  31  37
BRANCH  32  40
ATOM     40  O   UNL     1     -33.414   6.331  83.319  1.00  0.00    -0.387 OA
ATOM     41  H   UNL     1     -32.977   5.833  84.056  1.00  0.00     0.211 HD
ENDBRANCH  32  40
ENDBRANCH   1  27
TORSDOF 12
ENDMDL
MODEL 2
REMARK VINA RESULT:    -6.880      1.248      1.937
REMARK INTER + INTRA:         -11.513
REMARK INTER:                 -10.003
REMARK INTRA:                  -1.510
REMARK UNBOUND:                -1.415
REMARK SMILES O=c1c(O[C@@H]2O[C@H](CO)[C@@H](O)[C@@H](O)[C@H]2O)c(-c2ccc(O)c(O)c2)oc2cc(O)cc(O)c12
REMARK SMILES IDX 4 1 3 2 16 3 25 4 2 5 26 6 1 7 33 8 27 9 31 10 28 11 30 12
REMARK SMILES IDX 17 13 18 14 19 15 20 16 24 17 22 18 21 19 23 21 32 23 29 25
REMARK SMILES IDX 5 27 14 28 6 29 12 30 7 31 10 32 15 33 13 35 8 37 9 38 11 40
REMARK H PARENT 21 20 23 22 32 24 29 26 15 34 13 36 9 39 11 41
REMARK Flexibility Score: inf
ROOT
ATOM      1  O   UNL     1     -37.964   5.349  81.730  1.00  0.00    -0.454 OA
ENDROOT
BRANCH   1   2
ATOM      2  C   UNL     1     -38.647   4.787  80.644  1.00  0.00     0.214 A 
ATOM      3  C   UNL     1     -38.051   4.685  79.368  1.00  0.00     0.180 A 
ATOM      4  O   UNL     1     -38.750   4.185  78.353  1.00  0.00    -0.452 OA
ATOM      5  C   UNL     1     -39.952   4.319  80.819  1.00  0.00     0.239 A 
ATOM      6  C   UNL     1     -39.999   3.749  78.470  1.00  0.00     0.146 A 
ATOM      7  O   UNL     1     -40.482   4.394  81.961  1.00  0.00    -0.285 OA
ATOM      8  C   UNL     1     -40.662   3.794  79.720  1.00  0.00     0.111 A 
ATOM      9  C   UNL     1     -40.652   3.237  77.345  1.00  0.00     0.094 A 
ATOM     10  C   UNL     1     -41.996   3.327  79.812  1.00  0.00     0.134 A 
ATOM     11  C   UNL     1     -41.968   2.778  77.440  1.00  0.00     0.123 A 
ATOM     12  C   UNL     1     -42.635   2.823  78.670  1.00  0.00     0.093 A 
BRANCH   3  13
ATOM     13  C   UNL     1     -36.654   5.109  79.111  1.00  0.00     0.025 A 
ATOM     14  C   UNL     1     -35.573   4.253  79.382  1.00  0.00     0.016 A 
ATOM     15  C   UNL     1     -34.263   4.668  79.136  1.00  0.00     0.051 A 
ATOM     16  C   UNL     1     -34.013   5.930  78.590  1.00  0.00     0.157 A 
ATOM     17  C   UNL     1     -36.402   6.365  78.539  1.00  0.00     0.062 A 
ATOM     18  C   UNL     1     -35.087   6.782  78.281  1.00  0.00     0.158 A 
BRANCH  16  19
ATOM     19  O   UNL     1     -32.695   6.327  78.363  1.00  0.00    -0.504 OA
ATOM     20  H   UNL     1     -31.902   5.797  78.706  1.00  0.00     0.293 HD
ENDBRANCH  16  19
BRANCH  18  21
ATOM     21  O   UNL     1     -34.849   8.040  77.726  1.00  0.00    -0.504 OA
ATOM     22  H   UNL     1     -35.039   8.235  76.749  1.00  0.00     0.293 HD
ENDBRANCH  18  21
ENDBRANCH   3  13
BRANCH  10  23
ATOM     23  O   UNL     1     -42.687   3.365  81.025  1.00  0.00    -0.507 OA
ATOM     24  H   UNL     1     -43.444   4.019  81.184  1.00  0.00     0.293 HD
ENDBRANCH  10  23
BRANCH  11  25
ATOM     25  O   UNL     1     -42.607   2.279  76.306  1.00  0.00    -0.508 OA
ATOM     26  H   UNL     1     -42.092   2.043  75.466  1.00  0.00     0.293 HD
ENDBRANCH  11  25
ENDBRANCH   1   2
BRANCH   1  27
ATOM     27  C   UNL     1     -37.146   4.576  82.613  1.00  0.00     0.339 C 
ATOM     28  C   UNL     1     -35.745   5.197  82.789  1.00  0.00     0.214 C 
ATOM     29  O   UNL     1     -37.809   4.395  83.855  1.00  0.00    -0.332 OA
ATOM     30  C   UNL     1     -35.797   6.538  83.571  1.00  0.00     0.180 C 
ATOM     31  C   UNL     1     -37.846   5.547  84.699  1.00  0.00     0.179 C 
ATOM     32  C   UNL     1     -37.204   6.839  84.122  1.00  0.00     0.177 C 
BRANCH  28  33
ATOM     33  O   UNL     1     -34.928   4.268  83.462  1.00  0.00    -0.384 OA
ATOM     34  H   UNL     1     -35.292   4.156  84.380  1.00  0.00     0.211 HD
ENDBRANCH  28  33
BRANCH  30  35
ATOM     35  O   UNL     1     -34.868   6.527  84.631  1.00  0.00    -0.387 OA
ATOM     36  H   UNL     1     -34.365   5.673  84.574  1.00  0.00     0.211 HD
ENDBRANCH  30  35
BRANCH  31  37
ATOM     37  C   UNL     1     -39.301   5.799  85.125  1.00  0.00     0.191 C 
BRANCH  37  38
ATOM     38  O   UNL     1     -40.094   4.676  84.838  1.00  0.00    -0.394 OA
ATOM     39  H   UNL     1     -40.580   4.443  85.675  1.00  0.00     0.210 HD
ENDBRANCH  37  38
ENDBRANCH  31  37
BRANCH  32  40
ATOM     40  O   UNL     1     -37.137   7.824  85.125  1.00  0.00    -0.387 OA
ATOM     41  H   UNL     1     -37.365   7.379  85.981  1.00  0.00     0.211 HD
ENDBRANCH  32  40
ENDBRANCH   1  27
TORSDOF 12
ENDMDL
MODEL 3
REMARK VINA RESULT:    -6.842      2.018      6.617
REMARK INTER + INTRA:         -11.456
REMARK INTER:                 -11.190
REMARK INTRA:                  -0.266
REMARK UNBOUND:                -1.415
REMARK SMILES O=c1c(O[C@@H]2O[C@H](CO)[C@@H](O)[C@@H](O)[C@H]2O)c(-c2ccc(O)c(O)c2)oc2cc(O)cc(O)c12
REMARK SMILES IDX 4 1 3 2 16 3 25 4 2 5 26 6 1 7 33 8 27 9 31 10 28 11 30 12
REMARK SMILES IDX 17 13 18 14 19 15 20 16 24 17 22 18 21 19 23 21 32 23 29 25
REMARK SMILES IDX 5 27 14 28 6 29 12 30 7 31 10 32 15 33 13 35 8 37 9 38 11 40
REMARK H PARENT 21 20 23 22 32 24 29 26 15 34 13 36 9 39 11 41
REMARK Flexibility Score: inf
ROOT
ATOM      1  O   UNL     1     -38.001   3.010  81.706  1.00  0.00    -0.454 OA
ENDROOT
BRANCH   1   2
ATOM      2  C   UNL     1     -37.386   3.863  80.781  1.00  0.00     0.214 A 
ATOM      3  C   UNL     1     -38.035   4.253  79.589  1.00  0.00     0.180 A 
ATOM      4  O   UNL     1     -37.399   5.029  78.716  1.00  0.00    -0.452 OA
ATOM      5  C   UNL     1     -36.098   4.341  81.036  1.00  0.00     0.239 A 
ATOM      6  C   UNL     1     -36.167   5.487  78.908  1.00  0.00     0.146 A 
ATOM      7  O   UNL     1     -35.521   4.008  82.107  1.00  0.00    -0.285 OA
ATOM      8  C   UNL     1     -35.455   5.163  80.088  1.00  0.00     0.111 A 
ATOM      9  C   UNL     1     -35.582   6.299  77.933  1.00  0.00     0.094 A 
ATOM     10  C   UNL     1     -34.141   5.662  80.260  1.00  0.00     0.134 A 
ATOM     11  C   UNL     1     -34.285   6.789  78.108  1.00  0.00     0.123 A 
ATOM     12  C   UNL     1     -33.569   6.470  79.268  1.00  0.00     0.093 A 
BRANCH   3  13
ATOM     13  C   UNL     1     -39.420   3.834  79.270  1.00  0.00     0.025 A 
ATOM     14  C   UNL     1     -39.733   3.233  78.039  1.00  0.00     0.016 A 
ATOM     15  C   UNL     1     -41.043   2.845  77.752  1.00  0.00     0.051 A 
ATOM     16  C   UNL     1     -42.055   3.025  78.700  1.00  0.00     0.157 A 
ATOM     17  C   UNL     1     -40.433   3.990  80.228  1.00  0.00     0.062 A 
ATOM     18  C   UNL     1     -41.750   3.593  79.949  1.00  0.00     0.158 A 
BRANCH  16  19
ATOM     19  O   UNL     1     -43.360   2.640  78.387  1.00  0.00    -0.504 OA
ATOM     20  H   UNL     1     -44.167   3.192  78.655  1.00  0.00     0.293 HD
ENDBRANCH  16  19
BRANCH  18  21
ATOM     21  O   UNL     1     -42.751   3.767  80.905  1.00  0.00    -0.504 OA
ATOM     22  H   UNL     1     -42.741   4.550  81.549  1.00  0.00     0.293 HD
ENDBRANCH  18  21
ENDBRANCH   3  13
BRANCH  10  23
ATOM     23  O   UNL     1     -33.402   5.355  81.405  1.00  0.00    -0.507 OA
ATOM     24  H   UNL     1     -33.783   4.778  82.145  1.00  0.00     0.293 HD
ENDBRANCH  10  23
BRANCH  11  25
ATOM     25  O   UNL     1     -33.713   7.592  77.121  1.00  0.00    -0.508 OA
ATOM     26  H   UNL     1     -33.659   8.598  77.219  1.00  0.00     0.293 HD
ENDBRANCH  11  25
ENDBRANCH   1   2
BRANCH   1  27
ATOM     27  C   UNL     1     -37.807   3.132  83.118  1.00  0.00     0.339 C 
ATOM     28  C   UNL     1     -38.625   4.298  83.712  1.00  0.00     0.214 C 
ATOM     29  O   UNL     1     -38.097   1.898  83.757  1.00  0.00    -0.332 OA
ATOM     30  C   UNL     1     -40.152   4.017  83.671  1.00  0.00     0.180 C 
ATOM     31  C   UNL     1     -39.485   1.573  83.851  1.00  0.00     0.179 C 
ATOM     32  C   UNL     1     -40.471   2.584  83.203  1.00  0.00     0.177 C 
BRANCH  28  33
ATOM     33  O   UNL     1     -38.201   4.510  85.038  1.00  0.00    -0.384 OA
ATOM     34  H   UNL     1     -38.914   4.170  85.641  1.00  0.00     0.211 HD
ENDBRANCH  28  33
BRANCH  30  35
ATOM     35  O   UNL     1     -40.728   4.238  84.938  1.00  0.00    -0.387 OA
ATOM     36  H   UNL     1     -41.013   5.189  84.971  1.00  0.00     0.211 HD
ENDBRANCH  30  35
BRANCH  31  37
ATOM     37  C   UNL     1     -39.699   0.158  83.288  1.00  0.00     0.191 C 
BRANCH  37  38
ATOM     38  O   UNL     1     -38.610  -0.666  83.616  1.00  0.00    -0.394 OA
ATOM     39  H   UNL     1     -37.808  -0.079  83.667  1.00  0.00     0.210 HD
ENDBRANCH  37  38
ENDBRANCH  31  37
BRANCH  32  40
ATOM     40  O   UNL     1     -41.793   2.240  83.541  1.00  0.00    -0.387 OA
ATOM     41  H   UNL     1     -42.255   2.009  82.695  1.00  0.00     0.211 HD
ENDBRANCH  32  40
ENDBRANCH   1  27
TORSDOF 12
ENDMDL
MODEL 4
REMARK VINA RESULT:    -6.800      1.904      6.107
REMARK INTER + INTRA:         -11.395
REMARK INTER:                  -9.794
REMARK INTRA:                  -1.601
REMARK UNBOUND:                -1.415
REMARK SMILES O=c1c(O[C@@H]2O[C@H](CO)[C@@H](O)[C@@H](O)[C@H]2O)c(-c2ccc(O)c(O)c2)oc2cc(O)cc(O)c12
REMARK SMILES IDX 4 1 3 2 16 3 25 4 2 5 26 6 1 7 33 8 27 9 31 10 28 11 30 12
REMARK SMILES IDX 17 13 18 14 19 15 20 16 24 17 22 18 21 19 23 21 32 23 29 25
REMARK SMILES IDX 5 27 14 28 6 29 12 30 7 31 10 32 15 33 13 35 8 37 9 38 11 40
REMARK H PARENT 21 20 23 22 32 24 29 26 15 34 13 36 9 39 11 41
REMARK Flexibility Score: inf
ROOT
ATOM      1  O   UNL     1     -36.559   4.983  81.624  1.00  0.00    -0.454 OA
ENDROOT
BRANCH   1   2
ATOM      2  C   UNL     1     -36.145   5.849  80.604  1.00  0.00     0.214 A 
ATOM      3  C   UNL     1     -36.711   5.794  79.312  1.00  0.00     0.180 A 
ATOM      4  O   UNL     1     -36.257   6.604  78.359  1.00  0.00    -0.452 OA
ATOM      5  C   UNL     1     -35.144   6.789  80.864  1.00  0.00     0.239 A 
ATOM      6  C   UNL     1     -35.294   7.496  78.557  1.00  0.00     0.146 A 
ATOM      7  O   UNL     1     -34.647   6.852  82.022  1.00  0.00    -0.285 OA
ATOM      8  C   UNL     1     -34.689   7.632  79.830  1.00  0.00     0.111 A 
ATOM      9  C   UNL     1     -34.886   8.306  77.494  1.00  0.00     0.094 A 
ATOM     10  C   UNL     1     -33.660   8.589  80.007  1.00  0.00     0.134 A 
ATOM     11  C   UNL     1     -33.870   9.249  77.673  1.00  0.00     0.123 A 
ATOM     12  C   UNL     1     -33.261   9.388  78.926  1.00  0.00     0.093 A 
BRANCH   3  13
ATOM     13  C   UNL     1     -37.812   4.863  78.970  1.00  0.00     0.025 A 
ATOM     14  C   UNL     1     -39.138   5.315  78.860  1.00  0.00     0.016 A 
ATOM     15  C   UNL     1     -40.165   4.425  78.538  1.00  0.00     0.051 A 
ATOM     16  C   UNL     1     -39.881   3.078  78.293  1.00  0.00     0.157 A 
ATOM     17  C   UNL     1     -37.527   3.516  78.698  1.00  0.00     0.062 A 
ATOM     18  C   UNL     1     -38.554   2.621  78.365  1.00  0.00     0.158 A 
BRANCH  16  19
ATOM     19  O   UNL     1     -40.925   2.205  77.985  1.00  0.00    -0.504 OA
ATOM     20  H   UNL     1     -41.022   1.778  77.071  1.00  0.00     0.293 HD
ENDBRANCH  16  19
BRANCH  18  21
ATOM     21  O   UNL     1     -38.260   1.280  78.113  1.00  0.00    -0.504 OA
ATOM     22  H   UNL     1     -38.512   0.836  77.237  1.00  0.00     0.293 HD
ENDBRANCH  18  21
ENDBRANCH   3  13
BRANCH  10  23
ATOM     23  O   UNL     1     -33.032   8.746  81.245  1.00  0.00    -0.507 OA
ATOM     24  H   UNL     1     -32.791   7.949  81.822  1.00  0.00     0.293 HD
ENDBRANCH  10  23
BRANCH  11  25
ATOM     25  O   UNL     1     -33.469  10.043  76.599  1.00  0.00    -0.508 OA
ATOM     26  H   UNL     1     -33.767   9.845  75.651  1.00  0.00     0.293 HD
ENDBRANCH  11  25
ENDBRANCH   1   2
BRANCH   1  27
ATOM     27  C   UNL     1     -37.701   5.245  82.445  1.00  0.00     0.339 C 
ATOM     28  C   UNL     1     -38.702   4.072  82.428  1.00  0.00     0.214 C 
ATOM     29  O   UNL     1     -37.288   5.574  83.762  1.00  0.00    -0.332 OA
ATOM     30  C   UNL     1     -38.137   2.814  83.143  1.00  0.00     0.180 C 
ATOM     31  C   UNL     1     -36.822   4.474  84.546  1.00  0.00     0.179 C 
ATOM     32  C   UNL     1     -36.789   3.092  83.836  1.00  0.00     0.177 C 
BRANCH  28  33
ATOM     33  O   UNL     1     -39.894   4.494  83.047  1.00  0.00    -0.384 OA
ATOM     34  H   UNL     1     -40.537   4.736  82.329  1.00  0.00     0.211 HD
ENDBRANCH  28  33
BRANCH  30  35
ATOM     35  O   UNL     1     -39.062   2.327  84.088  1.00  0.00    -0.387 OA
ATOM     36  H   UNL     1     -38.632   1.564  84.555  1.00  0.00     0.211 HD
ENDBRANCH  30  35
BRANCH  31  37
ATOM     37  C   UNL     1     -35.443   4.829  85.124  1.00  0.00     0.191 C 
BRANCH  37  38
ATOM     38  O   UNL     1     -34.435   4.121  84.448  1.00  0.00    -0.394 OA
ATOM     39  H   UNL     1     -34.677   4.125  83.482  1.00  0.00     0.210 HD
ENDBRANCH  37  38
ENDBRANCH  31  37
BRANCH  32  40
ATOM     40  O   UNL     1     -36.503   2.084  84.775  1.00  0.00    -0.387 OA
ATOM     41  H   UNL     1     -37.197   2.141  85.480  1.00  0.00     0.211 HD
ENDBRANCH  32  40
ENDBRANCH   1  27
TORSDOF 12
ENDMDL
MODEL 5
REMARK VINA RESULT:    -6.713      1.425      2.697
REMARK INTER + INTRA:         -11.266
REMARK INTER:                  -9.676
REMARK INTRA:                  -1.590
REMARK UNBOUND:                -1.415
REMARK SMILES O=c1c(O[C@@H]2O[C@H](CO)[C@@H](O)[C@@H](O)[C@H]2O)c(-c2ccc(O)c(O)c2)oc2cc(O)cc(O)c12
REMARK SMILES IDX 4 1 3 2 16 3 25 4 2 5 26 6 1 7 33 8 27 9 31 10 28 11 30 12
REMARK SMILES IDX 17 13 18 14 19 15 20 16 24 17 22 18 21 19 23 21 32 23 29 25
REMARK SMILES IDX 5 27 14 28 6 29 12 30 7 31 10 32 15 33 13 35 8 37 9 38 11 40
REMARK H PARENT 21 20 23 22 32 24 29 26 15 34 13 36 9 39 11 41
REMARK Flexibility Score: inf
ROOT
ATOM      1  O   UNL     1     -37.901   5.599  81.643  1.00  0.00    -0.454 OA
ENDROOT
BRANCH   1   2
ATOM      2  C   UNL     1     -38.611   4.989  80.602  1.00  0.00     0.214 A 
ATOM      3  C   UNL     1     -38.074   4.889  79.300  1.00  0.00     0.180 A 
ATOM      4  O   UNL     1     -38.800   4.342  78.328  1.00  0.00    -0.452 OA
ATOM      5  C   UNL     1     -39.884   4.469  80.849  1.00  0.00     0.239 A 
ATOM      6  C   UNL     1     -40.022   3.856  78.515  1.00  0.00     0.146 A 
ATOM      7  O   UNL     1     -40.360   4.542  82.015  1.00  0.00    -0.285 OA
ATOM      8  C   UNL     1     -40.624   3.895  79.796  1.00  0.00     0.111 A 
ATOM      9  C   UNL     1     -40.706   3.297  77.432  1.00  0.00     0.094 A 
ATOM     10  C   UNL     1     -41.930   3.373  79.961  1.00  0.00     0.134 A 
ATOM     11  C   UNL     1     -41.995   2.784  77.600  1.00  0.00     0.123 A 
ATOM     12  C   UNL     1     -42.602   2.823  78.860  1.00  0.00     0.093 A 
BRANCH   3  13
ATOM     13  C   UNL     1     -36.712   5.367  78.967  1.00  0.00     0.025 A 
ATOM     14  C   UNL     1     -36.509   6.612  78.346  1.00  0.00     0.016 A 
ATOM     15  C   UNL     1     -35.219   7.047  78.039  1.00  0.00     0.051 A 
ATOM     16  C   UNL     1     -34.111   6.262  78.371  1.00  0.00     0.157 A 
ATOM     17  C   UNL     1     -35.596   4.593  79.322  1.00  0.00     0.062 A 
ATOM     18  C   UNL     1     -34.297   5.032  79.024  1.00  0.00     0.158 A 
BRANCH  16  19
ATOM     19  O   UNL     1     -32.831   6.713  78.043  1.00  0.00    -0.504 OA
ATOM     20  H   UNL     1     -32.055   6.661  78.693  1.00  0.00     0.293 HD
ENDBRANCH  16  19
BRANCH  18  21
ATOM     21  O   UNL     1     -33.197   4.246  79.368  1.00  0.00    -0.504 OA
ATOM     22  H   UNL     1     -32.392   4.637  79.843  1.00  0.00     0.293 HD
ENDBRANCH  18  21
ENDBRANCH   3  13
BRANCH  10  23
ATOM     23  O   UNL     1     -42.563   3.404  81.206  1.00  0.00    -0.507 OA
ATOM     24  H   UNL     1     -42.753   4.277  81.683  1.00  0.00     0.293 HD
ENDBRANCH  10  23
BRANCH  11  25
ATOM     25  O   UNL     1     -42.667   2.238  76.506  1.00  0.00    -0.508 OA
ATOM     26  H   UNL     1     -42.387   1.355  76.097  1.00  0.00     0.293 HD
ENDBRANCH  11  25
ENDBRANCH   1   2
BRANCH   1  27
ATOM     27  C   UNL     1     -37.740   7.016  81.745  1.00  0.00     0.339 C 
ATOM     28  C   UNL     1     -38.396   7.579  83.023  1.00  0.00     0.214 C 
ATOM     29  O   UNL     1     -36.366   7.358  81.657  1.00  0.00    -0.332 OA
ATOM     30  C   UNL     1     -37.648   7.129  84.307  1.00  0.00     0.180 C 
ATOM     31  C   UNL     1     -35.590   7.063  82.820  1.00  0.00     0.179 C 
ATOM     32  C   UNL     1     -36.344   6.372  83.989  1.00  0.00     0.177 C 
BRANCH  28  33
ATOM     33  O   UNL     1     -38.415   8.984  82.933  1.00  0.00    -0.384 OA
ATOM     34  H   UNL     1     -37.548   9.320  83.285  1.00  0.00     0.211 HD
ENDBRANCH  28  33
BRANCH  30  35
ATOM     35  O   UNL     1     -37.360   8.240  85.125  1.00  0.00    -0.387 OA
ATOM     36  H   UNL     1     -37.448   7.943  86.068  1.00  0.00     0.211 HD
ENDBRANCH  30  35
BRANCH  31  37
ATOM     37  C   UNL     1     -34.360   6.243  82.397  1.00  0.00     0.191 C 
BRANCH  37  38
ATOM     38  O   UNL     1     -34.576   4.878  82.645  1.00  0.00    -0.394 OA
ATOM     39  H   UNL     1     -33.719   4.410  82.456  1.00  0.00     0.210 HD
ENDBRANCH  37  38
ENDBRANCH  31  37
BRANCH  32  40
ATOM     40  O   UNL     1     -35.515   6.323  85.125  1.00  0.00    -0.387 OA
ATOM     41  H   UNL     1     -35.290   5.370  85.276  1.00  0.00     0.211 HD
ENDBRANCH  32  40
ENDBRANCH   1  27
TORSDOF 12
ENDMDL
MODEL 6
REMARK VINA RESULT:    -6.343      1.681      2.357
REMARK INTER + INTRA:         -10.725
REMARK INTER:                  -9.730
REMARK INTRA:                  -0.994
REMARK UNBOUND:                -1.415
REMARK SMILES O=c1c(O[C@@H]2O[C@H](CO)[C@@H](O)[C@@H](O)[C@H]2O)c(-c2ccc(O)c(O)c2)oc2cc(O)cc(O)c12
REMARK SMILES IDX 4 1 3 2 16 3 25 4 2 5 26 6 1 7 33 8 27 9 31 10 28 11 30 12
REMARK SMILES IDX 17 13 18 14 19 15 20 16 24 17 22 18 21 19 23 21 32 23 29 25
REMARK SMILES IDX 5 27 14 28 6 29 12 30 7 31 10 32 15 33 13 35 8 37 9 38 11 40
REMARK H PARENT 21 20 23 22 32 24 29 26 15 34 13 36 9 39 11 41
REMARK Flexibility Score: inf
ROOT
ATOM      1  O   UNL     1     -37.679   5.270  82.132  1.00  0.00    -0.454 OA
ENDROOT
BRANCH   1   2
ATOM      2  C   UNL     1     -38.378   4.767  81.028  1.00  0.00     0.214 A 
ATOM      3  C   UNL     1     -37.790   4.701  79.747  1.00  0.00     0.180 A 
ATOM      4  O   UNL     1     -38.503   4.257  78.716  1.00  0.00    -0.452 OA
ATOM      5  C   UNL     1     -39.693   4.320  81.191  1.00  0.00     0.239 A 
ATOM      6  C   UNL     1     -39.761   3.844  78.822  1.00  0.00     0.146 A 
ATOM      7  O   UNL     1     -40.217   4.362  82.338  1.00  0.00    -0.285 OA
ATOM      8  C   UNL     1     -40.419   3.855  80.076  1.00  0.00     0.111 A 
ATOM      9  C   UNL     1     -40.429   3.392  77.681  1.00  0.00     0.094 A 
ATOM     10  C   UNL     1     -41.762   3.414  80.155  1.00  0.00     0.134 A 
ATOM     11  C   UNL     1     -41.755   2.958  77.764  1.00  0.00     0.123 A 
ATOM     12  C   UNL     1     -42.417   2.970  78.998  1.00  0.00     0.093 A 
BRANCH   3  13
ATOM     13  C   UNL     1     -36.385   5.104  79.500  1.00  0.00     0.025 A 
ATOM     14  C   UNL     1     -35.316   4.424  80.109  1.00  0.00     0.016 A 
ATOM     15  C   UNL     1     -33.998   4.816  79.867  1.00  0.00     0.051 A 
ATOM     16  C   UNL     1     -33.726   5.874  78.994  1.00  0.00     0.157 A 
ATOM     17  C   UNL     1     -36.107   6.148  78.605  1.00  0.00     0.062 A 
ATOM     18  C   UNL     1     -34.783   6.539  78.352  1.00  0.00     0.158 A 
BRANCH  16  19
ATOM     19  O   UNL     1     -32.401   6.256  78.777  1.00  0.00    -0.504 OA
ATOM     20  H   UNL     1     -32.141   7.209  78.552  1.00  0.00     0.293 HD
ENDBRANCH  16  19
BRANCH  18  21
ATOM     21  O   UNL     1     -34.520   7.589  77.471  1.00  0.00    -0.504 OA
ATOM     22  H   UNL     1     -35.168   7.837  76.731  1.00  0.00     0.293 HD
ENDBRANCH  18  21
ENDBRANCH   3  13
BRANCH  10  23
ATOM     23  O   UNL     1     -42.448   3.420  81.372  1.00  0.00    -0.507 OA
ATOM     24  H   UNL     1     -42.766   2.561  81.806  1.00  0.00     0.293 HD
ENDBRANCH  10  23
BRANCH  11  25
ATOM     25  O   UNL     1     -42.410   2.518  76.614  1.00  0.00    -0.508 OA
ATOM     26  H   UNL     1     -42.388   1.546  76.328  1.00  0.00     0.293 HD
ENDBRANCH  11  25
ENDBRANCH   1   2
BRANCH   1  27
ATOM     27  C   UNL     1     -38.227   6.259  83.009  1.00  0.00     0.339 C 
ATOM     28  C   UNL     1     -37.247   6.627  84.143  1.00  0.00     0.214 C 
ATOM     29  O   UNL     1     -38.633   7.397  82.266  1.00  0.00    -0.332 OA
ATOM     30  C   UNL     1     -36.005   7.393  83.613  1.00  0.00     0.180 C 
ATOM     31  C   UNL     1     -37.570   8.227  81.794  1.00  0.00     0.179 C 
ATOM     32  C   UNL     1     -36.129   7.744  82.117  1.00  0.00     0.177 C 
BRANCH  28  33
ATOM     33  O   UNL     1     -37.936   7.406  85.092  1.00  0.00    -0.384 OA
ATOM     34  H   UNL     1     -38.878   7.490  84.786  1.00  0.00     0.211 HD
ENDBRANCH  28  33
BRANCH  30  35
ATOM     35  O   UNL     1     -35.797   8.571  84.357  1.00  0.00    -0.387 OA
ATOM     36  H   UNL     1     -35.008   8.417  84.939  1.00  0.00     0.211 HD
ENDBRANCH  30  35
BRANCH  31  37
ATOM     37  C   UNL     1     -37.750   8.447  80.283  1.00  0.00     0.191 C 
BRANCH  37  38
ATOM     38  O   UNL     1     -36.954   9.520  79.850  1.00  0.00    -0.394 OA
ATOM     39  H   UNL     1     -37.089   9.602  78.867  1.00  0.00     0.210 HD
ENDBRANCH  37  38
ENDBRANCH  31  37
BRANCH  32  40
ATOM     40  O   UNL     1     -35.204   8.746  81.770  1.00  0.00    -0.387 OA
ATOM     41  H   UNL     1     -34.661   8.929  82.578  1.00  0.00     0.211 HD
ENDBRANCH  32  40
ENDBRANCH   1  27
TORSDOF 12
ENDMDL
MODEL 7
REMARK VINA RESULT:    -6.323      2.138      6.348
REMARK INTER + INTRA:         -10.695
REMARK INTER:                  -9.483
REMARK INTRA:                  -1.212
REMARK UNBOUND:                -1.415
REMARK SMILES O=c1c(O[C@@H]2O[C@H](CO)[C@@H](O)[C@@H](O)[C@H]2O)c(-c2ccc(O)c(O)c2)oc2cc(O)cc(O)c12
REMARK SMILES IDX 4 1 3 2 16 3 25 4 2 5 26 6 1 7 33 8 27 9 31 10 28 11 30 12
REMARK SMILES IDX 17 13 18 14 19 15 20 16 24 17 22 18 21 19 23 21 32 23 29 25
REMARK SMILES IDX 5 27 14 28 6 29 12 30 7 31 10 32 15 33 13 35 8 37 9 38 11 40
REMARK H PARENT 21 20 23 22 32 24 29 26 15 34 13 36 9 39 11 41
REMARK Flexibility Score: inf
ROOT
ATOM      1  O   UNL     1     -38.894   5.243  80.436  1.00  0.00    -0.454 OA
ENDROOT
BRANCH   1   2
ATOM      2  C   UNL     1     -37.975   6.073  79.782  1.00  0.00     0.214 A 
ATOM      3  C   UNL     1     -36.696   6.330  80.320  1.00  0.00     0.180 A 
ATOM      4  O   UNL     1     -35.870   7.160  79.689  1.00  0.00    -0.452 OA
ATOM      5  C   UNL     1     -38.328   6.668  78.567  1.00  0.00     0.239 A 
ATOM      6  C   UNL     1     -36.174   7.763  78.545  1.00  0.00     0.146 A 
ATOM      7  O   UNL     1     -39.465   6.427  78.075  1.00  0.00    -0.285 OA
ATOM      8  C   UNL     1     -37.427   7.541  77.926  1.00  0.00     0.111 A 
ATOM      9  C   UNL     1     -35.238   8.617  77.955  1.00  0.00     0.094 A 
ATOM     10  C   UNL     1     -37.723   8.203  76.709  1.00  0.00     0.134 A 
ATOM     11  C   UNL     1     -35.535   9.269  76.755  1.00  0.00     0.123 A 
ATOM     12  C   UNL     1     -36.773   9.061  76.137  1.00  0.00     0.093 A 
BRANCH   3  13
ATOM     13  C   UNL     1     -36.224   5.697  81.575  1.00  0.00     0.025 A 
ATOM     14  C   UNL     1     -36.802   6.020  82.814  1.00  0.00     0.016 A 
ATOM     15  C   UNL     1     -36.346   5.416  83.987  1.00  0.00     0.051 A 
ATOM     16  C   UNL     1     -35.326   4.460  83.938  1.00  0.00     0.157 A 
ATOM     17  C   UNL     1     -35.219   4.719  81.526  1.00  0.00     0.062 A 
ATOM     18  C   UNL     1     -34.764   4.102  82.701  1.00  0.00     0.158 A 
BRANCH  16  19
ATOM     19  O   UNL     1     -34.879   3.878  85.125  1.00  0.00    -0.504 OA
ATOM     20  H   UNL     1     -34.228   4.345  85.746  1.00  0.00     0.293 HD
ENDBRANCH  16  19
BRANCH  18  21
ATOM     21  O   UNL     1     -33.753   3.142  82.641  1.00  0.00    -0.504 OA
ATOM     22  H   UNL     1     -33.688   2.486  81.871  1.00  0.00     0.293 HD
ENDBRANCH  18  21
ENDBRANCH   3  13
BRANCH  10  23
ATOM     23  O   UNL     1     -38.953   8.018  76.073  1.00  0.00    -0.507 OA
ATOM     24  H   UNL     1     -39.028   7.983  75.063  1.00  0.00     0.293 HD
ENDBRANCH  10  23
BRANCH  11  25
ATOM     25  O   UNL     1     -34.593  10.125  76.184  1.00  0.00    -0.508 OA
ATOM     26  H   UNL     1     -33.695   9.786  75.860  1.00  0.00     0.293 HD
ENDBRANCH  11  25
ENDBRANCH   1   2
BRANCH   1  27
ATOM     27  C   UNL     1     -38.713   3.828  80.551  1.00  0.00     0.339 C 
ATOM     28  C   UNL     1     -39.121   3.309  81.946  1.00  0.00     0.214 C 
ATOM     29  O   UNL     1     -39.410   3.162  79.510  1.00  0.00    -0.332 OA
ATOM     30  C   UNL     1     -40.653   3.406  82.178  1.00  0.00     0.180 C 
ATOM     31  C   UNL     1     -40.830   3.118  79.660  1.00  0.00     0.179 C 
ATOM     32  C   UNL     1     -41.410   3.840  80.907  1.00  0.00     0.177 C 
BRANCH  28  33
ATOM     33  O   UNL     1     -38.690   1.974  82.067  1.00  0.00    -0.384 OA
ATOM     34  H   UNL     1     -37.696   1.977  82.063  1.00  0.00     0.211 HD
ENDBRANCH  28  33
BRANCH  30  35
ATOM     35  O   UNL     1     -41.162   2.173  82.632  1.00  0.00    -0.387 OA
ATOM     36  H   UNL     1     -42.058   2.055  82.222  1.00  0.00     0.211 HD
ENDBRANCH  30  35
BRANCH  31  37
ATOM     37  C   UNL     1     -41.479   3.642  78.369  1.00  0.00     0.191 C 
BRANCH  37  38
ATOM     38  O   UNL     1     -42.848   3.327  78.349  1.00  0.00    -0.394 OA
ATOM     39  H   UNL     1     -43.181   3.544  77.437  1.00  0.00     0.210 HD
ENDBRANCH  37  38
ENDBRANCH  31  37
BRANCH  32  40
ATOM     40  O   UNL     1     -42.781   3.548  81.029  1.00  0.00    -0.387 OA
ATOM     41  H   UNL     1     -43.069   3.152  80.168  1.00  0.00     0.211 HD
ENDBRANCH  32  40
ENDBRANCH   1  27
TORSDOF 12
ENDMDL
MODEL 8
REMARK VINA RESULT:    -6.291      2.362      6.653
REMARK INTER + INTRA:         -10.648
REMARK INTER:                  -9.250
REMARK INTRA:                  -1.398
REMARK UNBOUND:                -1.415
REMARK SMILES O=c1c(O[C@@H]2O[C@H](CO)[C@@H](O)[C@@H](O)[C@H]2O)c(-c2ccc(O)c(O)c2)oc2cc(O)cc(O)c12
REMARK SMILES IDX 4 1 3 2 16 3 25 4 2 5 26 6 1 7 33 8 27 9 31 10 28 11 30 12
REMARK SMILES IDX 17 13 18 14 19 15 20 16 24 17 22 18 21 19 23 21 32 23 29 25
REMARK SMILES IDX 5 27 14 28 6 29 12 30 7 31 10 32 15 33 13 35 8 37 9 38 11 40
REMARK H PARENT 21 20 23 22 32 24 29 26 15 34 13 36 9 39 11 41
REMARK Flexibility Score: inf
ROOT
ATOM      1  O   UNL     1     -38.252   5.010  81.367  1.00  0.00    -0.454 OA
ENDROOT
BRANCH   1   2
ATOM      2  C   UNL     1     -37.066   5.729  81.560  1.00  0.00     0.214 A 
ATOM      3  C   UNL     1     -36.575   6.622  80.583  1.00  0.00     0.180 A 
ATOM      4  O   UNL     1     -35.421   7.252  80.786  1.00  0.00    -0.452 OA
ATOM      5  C   UNL     1     -36.343   5.559  82.743  1.00  0.00     0.239 A 
ATOM      6  C   UNL     1     -34.692   7.103  81.886  1.00  0.00     0.146 A 
ATOM      7  O   UNL     1     -36.786   4.774  83.626  1.00  0.00    -0.285 OA
ATOM      8  C   UNL     1     -35.124   6.244  82.925  1.00  0.00     0.111 A 
ATOM      9  C   UNL     1     -33.493   7.810  82.010  1.00  0.00     0.094 A 
ATOM     10  C   UNL     1     -34.321   6.103  84.083  1.00  0.00     0.134 A 
ATOM     11  C   UNL     1     -32.703   7.667  83.154  1.00  0.00     0.123 A 
ATOM     12  C   UNL     1     -33.118   6.816  84.185  1.00  0.00     0.093 A 
BRANCH   3  13
ATOM     13  C   UNL     1     -37.308   6.899  79.325  1.00  0.00     0.025 A 
ATOM     14  C   UNL     1     -37.098   6.120  78.174  1.00  0.00     0.016 A 
ATOM     15  C   UNL     1     -37.795   6.394  76.996  1.00  0.00     0.051 A 
ATOM     16  C   UNL     1     -38.734   7.430  76.957  1.00  0.00     0.157 A 
ATOM     17  C   UNL     1     -38.269   7.921  79.289  1.00  0.00     0.062 A 
ATOM     18  C   UNL     1     -38.980   8.193  78.110  1.00  0.00     0.158 A 
BRANCH  16  19
ATOM     19  O   UNL     1     -39.411   7.692  75.765  1.00  0.00    -0.504 OA
ATOM     20  H   UNL     1     -38.945   7.687  74.865  1.00  0.00     0.293 HD
ENDBRANCH  16  19
BRANCH  18  21
ATOM     21  O   UNL     1     -39.922   9.222  78.084  1.00  0.00    -0.504 OA
ATOM     22  H   UNL     1     -40.778   9.145  77.546  1.00  0.00     0.293 HD
ENDBRANCH  18  21
ENDBRANCH   3  13
BRANCH  10  23
ATOM     23  O   UNL     1     -34.708   5.256  85.125  1.00  0.00    -0.507 OA
ATOM     24  H   UNL     1     -34.513   4.262  85.102  1.00  0.00     0.293 HD
ENDBRANCH  10  23
BRANCH  11  25
ATOM     25  O   UNL     1     -31.505   8.373  83.258  1.00  0.00    -0.508 OA
ATOM     26  H   UNL     1     -30.608   7.919  83.133  1.00  0.00     0.293 HD
ENDBRANCH  11  25
ENDBRANCH   1   2
BRANCH   1  27
ATOM     27  C   UNL     1     -38.278   3.589  81.202  1.00  0.00     0.339 C 
ATOM     28  C   UNL     1     -38.993   2.887  82.375  1.00  0.00     0.214 C 
ATOM     29  O   UNL     1     -38.856   3.256  79.949  1.00  0.00    -0.332 OA
ATOM     30  C   UNL     1     -40.517   3.186  82.390  1.00  0.00     0.180 C 
ATOM     31  C   UNL     1     -40.274   3.415  79.872  1.00  0.00     0.179 C 
ATOM     32  C   UNL     1     -40.971   3.971  81.144  1.00  0.00     0.177 C 
BRANCH  28  33
ATOM     33  O   UNL     1     -38.766   1.502  82.270  1.00  0.00    -0.384 OA
ATOM     34  H   UNL     1     -38.592   1.297  81.313  1.00  0.00     0.211 HD
ENDBRANCH  28  33
BRANCH  30  35
ATOM     35  O   UNL     1     -41.253   1.989  82.487  1.00  0.00    -0.387 OA
ATOM     36  H   UNL     1     -40.752   1.293  81.989  1.00  0.00     0.211 HD
ENDBRANCH  30  35
BRANCH  31  37
ATOM     37  C   UNL     1     -40.607   4.274  78.642  1.00  0.00     0.191 C 
BRANCH  37  38
ATOM     38  O   UNL     1     -40.991   5.566  79.039  1.00  0.00    -0.394 OA
ATOM     39  H   UNL     1     -40.243   5.935  79.583  1.00  0.00     0.210 HD
ENDBRANCH  37  38
ENDBRANCH  31  37
BRANCH  32  40
ATOM     40  O   UNL     1     -42.368   3.888  80.994  1.00  0.00    -0.387 OA
ATOM     41  H   UNL     1     -42.567   4.079  80.043  1.00  0.00     0.211 HD
ENDBRANCH  32  40
ENDBRANCH   1  27
TORSDOF 12
ENDMDL
MODEL 9
REMARK VINA RESULT:    -6.129      2.520      4.988
REMARK INTER + INTRA:         -10.410
REMARK INTER:                  -8.950
REMARK INTRA:                  -1.459
REMARK UNBOUND:                -1.415
REMARK SMILES O=c1c(O[C@@H]2O[C@H](CO)[C@@H](O)[C@@H](O)[C@H]2O)c(-c2ccc(O)c(O)c2)oc2cc(O)cc(O)c12
REMARK SMILES IDX 4 1 3 2 16 3 25 4 2 5 26 6 1 7 33 8 27 9 31 10 28 11 30 12
REMARK SMILES IDX 17 13 18 14 19 15 20 16 24 17 22 18 21 19 23 21 32 23 29 25
REMARK SMILES IDX 5 27 14 28 6 29 12 30 7 31 10 32 15 33 13 35 8 37 9 38 11 40
REMARK H PARENT 21 20 23 22 32 24 29 26 15 34 13 36 9 39 11 41
REMARK Flexibility Score: inf
ROOT
ATOM      1  O   UNL     1     -38.643   6.185  79.398  1.00  0.00    -0.454 OA
ENDROOT
BRANCH   1   2
ATOM      2  C   UNL     1     -38.523   5.163  80.348  1.00  0.00     0.214 A 
ATOM      3  C   UNL     1     -37.263   4.658  80.737  1.00  0.00     0.180 A 
ATOM      4  O   UNL     1     -37.196   3.657  81.610  1.00  0.00    -0.452 OA
ATOM      5  C   UNL     1     -39.675   4.623  80.927  1.00  0.00     0.239 A 
ATOM      6  C   UNL     1     -38.265   3.100  82.167  1.00  0.00     0.146 A 
ATOM      7  O   UNL     1     -40.802   5.083  80.594  1.00  0.00    -0.285 OA
ATOM      8  C   UNL     1     -39.565   3.563  81.850  1.00  0.00     0.111 A 
ATOM      9  C   UNL     1     -38.093   2.053  83.077  1.00  0.00     0.094 A 
ATOM     10  C   UNL     1     -40.685   2.945  82.456  1.00  0.00     0.134 A 
ATOM     11  C   UNL     1     -39.202   1.446  83.672  1.00  0.00     0.123 A 
ATOM     12  C   UNL     1     -40.492   1.892  83.362  1.00  0.00     0.093 A 
BRANCH   3  13
ATOM     13  C   UNL     1     -35.993   5.212  80.211  1.00  0.00     0.025 A 
ATOM     14  C   UNL     1     -35.599   4.992  78.880  1.00  0.00     0.016 A 
ATOM     15  C   UNL     1     -34.399   5.519  78.400  1.00  0.00     0.051 A 
ATOM     16  C   UNL     1     -33.588   6.298  79.232  1.00  0.00     0.157 A 
ATOM     17  C   UNL     1     -35.190   6.014  81.035  1.00  0.00     0.062 A 
ATOM     18  C   UNL     1     -33.987   6.555  80.554  1.00  0.00     0.158 A 
BRANCH  16  19
ATOM     19  O   UNL     1     -32.387   6.805  78.733  1.00  0.00    -0.504 OA
ATOM     20  H   UNL     1     -32.221   7.799  78.628  1.00  0.00     0.293 HD
ENDBRANCH  16  19
BRANCH  18  21
ATOM     21  O   UNL     1     -33.189   7.338  81.388  1.00  0.00    -0.504 OA
ATOM     22  H   UNL     1     -33.580   7.849  82.172  1.00  0.00     0.293 HD
ENDBRANCH  18  21
ENDBRANCH   3  13
BRANCH  10  23
ATOM     23  O   UNL     1     -41.984   3.366  82.161  1.00  0.00    -0.507 OA
ATOM     24  H   UNL     1     -42.763   3.152  82.772  1.00  0.00     0.293 HD
ENDBRANCH  10  23
BRANCH  11  25
ATOM     25  O   UNL     1     -39.013   0.397  84.571  1.00  0.00    -0.508 OA
ATOM     26  H   UNL     1     -39.446   0.397  85.487  1.00  0.00     0.293 HD
ENDBRANCH  11  25
ENDBRANCH   1   2
BRANCH   1  27
ATOM     27  C   UNL     1     -39.146   7.485  79.719  1.00  0.00     0.339 C 
ATOM     28  C   UNL     1     -38.089   8.347  80.441  1.00  0.00     0.214 C 
ATOM     29  O   UNL     1     -39.640   8.118  78.549  1.00  0.00    -0.332 OA
ATOM     30  C   UNL     1     -36.914   8.735  79.502  1.00  0.00     0.180 C 
ATOM     31  C   UNL     1     -38.641   8.592  77.645  1.00  0.00     0.179 C 
ATOM     32  C   UNL     1     -37.166   8.308  78.043  1.00  0.00     0.177 C 
BRANCH  28  33
ATOM     33  O   UNL     1     -38.721   9.503  80.938  1.00  0.00    -0.384 OA
ATOM     34  H   UNL     1     -39.703   9.355  80.887  1.00  0.00     0.211 HD
ENDBRANCH  28  33
BRANCH  30  35
ATOM     35  O   UNL     1     -36.680  10.123  79.553  1.00  0.00    -0.387 OA
ATOM     36  H   UNL     1     -35.813  10.293  79.101  1.00  0.00     0.211 HD
ENDBRANCH  30  35
BRANCH  31  37
ATOM     37  C   UNL     1     -38.947   8.045  76.241  1.00  0.00     0.191 C 
BRANCH  37  38
ATOM     38  O   UNL     1     -38.445   6.740  76.107  1.00  0.00    -0.394 OA
ATOM     39  H   UNL     1     -39.169   6.121  76.393  1.00  0.00     0.210 HD
ENDBRANCH  37  38
ENDBRANCH  31  37
BRANCH  32  40
ATOM     40  O   UNL     1     -36.299   8.995  77.174  1.00  0.00    -0.387 OA
ATOM     41  H   UNL     1     -35.845   9.692  77.712  1.00  0.00     0.211 HD
ENDBRANCH  32  40
ENDBRANCH   1  27
TORSDOF 12
ENDMDL
