MODEL 1
REMARK VINA RESULT:    -4.138      0.000      0.000
REMARK INTER + INTRA:          -5.636
REMARK INTER:                  -5.468
REMARK INTRA:                  -0.168
REMARK UNBOUND:                -0.168
REMARK SMILES CCCCCCCO
REMARK SMILES IDX 5 1 4 2 3 3 2 4 1 5 6 6 7 7 8 8
REMARK H PARENT 8 9
REMARK Flexibility Score: inf
ROOT
ATOM      1  C   UNL     1      -5.020 -19.866 -12.631  1.00  0.00     0.002 C 
ENDROOT
BRANCH   1   2
ATOM      2  C   UNL     1      -6.027 -18.973 -13.374  1.00  0.00     0.000 C 
BRANCH   2   3
ATOM      3  C   UNL     1      -6.325 -19.475 -14.797  1.00  0.00    -0.000 C 
BRANCH   3   4
ATOM      4  C   UNL     1      -6.911 -18.378 -15.698  1.00  0.00    -0.003 C 
ATOM      5  C   UNL     1      -7.527 -17.228 -14.902  1.00  0.00     0.004 C 
ENDBRANCH   3   4
ENDBRANCH   2   3
ENDBRANCH   1   2
BRANCH   1   6
ATOM      6  C   UNL     1      -5.671 -20.675 -11.498  1.00  0.00     0.028 C 
BRANCH   6   7
ATOM      7  C   UNL     1      -5.885 -22.139 -11.898  1.00  0.00     0.156 C 
BRANCH   7   8
ATOM      8  O   UNL     1      -7.237 -22.393 -12.170  1.00  0.00    -0.396 OA
ATOM      9  H   UNL     1      -7.520 -21.728 -12.852  1.00  0.00     0.210 HD
ENDBRANCH   7   8
ENDBRANCH   6   7
ENDBRANCH   1   6
TORSDOF 6
ENDMDL
MODEL 2
REMARK VINA RESULT:    -4.027      2.382      4.677
REMARK INTER + INTRA:          -5.489
REMARK INTER:                  -5.350
REMARK INTRA:                  -0.138
REMARK UNBOUND:                -0.168
REMARK SMILES CCCCCCCO
REMARK SMILES IDX 5 1 4 2 3 3 2 4 1 5 6 6 7 7 8 8
REMARK H PARENT 8 9
REMARK Flexibility Score: inf
ROOT
ATOM      1  C   UNL     1      -6.317 -19.488 -14.672  1.00  0.00     0.002 C 
ENDROOT
BRANCH   1   2
ATOM      2  C   UNL     1      -6.032 -19.112 -13.210  1.00  0.00     0.000 C 
BRANCH   2   3
ATOM      3  C   UNL     1      -4.915 -19.966 -12.586  1.00  0.00    -0.000 C 
BRANCH   3   4
ATOM      4  C   UNL     1      -5.426 -20.867 -11.452  1.00  0.00    -0.003 C 
ATOM      5  C   UNL     1      -6.143 -22.114 -11.967  1.00  0.00     0.004 C 
ENDBRANCH   3   4
ENDBRANCH   2   3
ENDBRANCH   1   2
BRANCH   1   6
ATOM      6  C   UNL     1      -6.917 -18.323 -15.475  1.00  0.00     0.028 C 
BRANCH   6   7
ATOM      7  C   UNL     1      -7.755 -17.395 -14.588  1.00  0.00     0.156 C 
BRANCH   7   8
ATOM      8  O   UNL     1      -7.181 -16.117 -14.516  1.00  0.00    -0.396 OA
ATOM      9  H   UNL     1      -7.911 -15.468 -14.693  1.00  0.00     0.210 HD
ENDBRANCH   7   8
ENDBRANCH   6   7
ENDBRANCH   1   6
TORSDOF 6
ENDMDL
MODEL 3
REMARK VINA RESULT:    -3.849      3.402      4.441
REMARK INTER + INTRA:          -5.254
REMARK INTER:                  -5.101
REMARK INTRA:                  -0.153
REMARK UNBOUND:                -0.168
REMARK SMILES CCCCCCCO
REMARK SMILES IDX 5 1 4 2 3 3 2 4 1 5 6 6 7 7 8 8
REMARK H PARENT 8 9
REMARK Flexibility Score: inf
ROOT
ATOM      1  C   UNL     1      -2.665 -21.934 -11.843  1.00  0.00     0.002 C 
ENDROOT
BRANCH   1   2
ATOM      2  C   UNL     1      -3.916 -22.042 -10.957  1.00  0.00     0.000 C 
BRANCH   2   3
ATOM      3  C   UNL     1      -5.187 -21.541 -11.664  1.00  0.00    -0.000 C 
BRANCH   3   4
ATOM      4  C   UNL     1      -5.252 -20.008 -11.743  1.00  0.00    -0.003 C 
ATOM      5  C   UNL     1      -5.467 -19.499 -13.168  1.00  0.00     0.004 C 
ENDBRANCH   3   4
ENDBRANCH   2   3
ENDBRANCH   1   2
BRANCH   1   6
ATOM      6  C   UNL     1      -1.785 -23.192 -11.778  1.00  0.00     0.028 C 
BRANCH   6   7
ATOM      7  C   UNL     1      -2.549 -24.442 -12.229  1.00  0.00     0.156 C 
BRANCH   7   8
ATOM      8  O   UNL     1      -1.665 -25.479 -12.560  1.00  0.00    -0.396 OA
ATOM      9  H   UNL     1      -1.523 -26.008 -11.731  1.00  0.00     0.210 HD
ENDBRANCH   7   8
ENDBRANCH   6   7
ENDBRANCH   1   6
TORSDOF 6
ENDMDL
MODEL 4
REMARK VINA RESULT:    -3.766      3.857      4.667
REMARK INTER + INTRA:          -5.145
REMARK INTER:                  -5.015
REMARK INTRA:                  -0.130
REMARK UNBOUND:                -0.168
REMARK SMILES CCCCCCCO
REMARK SMILES IDX 5 1 4 2 3 3 2 4 1 5 6 6 7 7 8 8
REMARK H PARENT 8 9
REMARK Flexibility Score: inf
ROOT
ATOM      1  C   UNL     1      -2.745 -21.673 -11.866  1.00  0.00     0.002 C 
ENDROOT
BRANCH   1   2
ATOM      2  C   UNL     1      -4.090 -21.948 -11.178  1.00  0.00     0.000 C 
BRANCH   2   3
ATOM      3  C   UNL     1      -5.261 -21.212 -11.851  1.00  0.00    -0.000 C 
BRANCH   3   4
ATOM      4  C   UNL     1      -4.811 -19.946 -12.596  1.00  0.00    -0.003 C 
ATOM      5  C   UNL     1      -5.967 -19.226 -13.288  1.00  0.00     0.004 C 
ENDBRANCH   3   4
ENDBRANCH   2   3
ENDBRANCH   1   2
BRANCH   1   6
ATOM      6  C   UNL     1      -1.770 -22.856 -11.753  1.00  0.00     0.028 C 
BRANCH   6   7
ATOM      7  C   UNL     1      -0.337 -22.384 -11.478  1.00  0.00     0.156 C 
BRANCH   7   8
ATOM      8  O   UNL     1       0.388 -22.262 -12.672  1.00  0.00    -0.396 OA
ATOM      9  H   UNL     1       0.932 -21.435 -12.591  1.00  0.00     0.210 HD
ENDBRANCH   7   8
ENDBRANCH   6   7
ENDBRANCH   1   6
TORSDOF 6
ENDMDL
MODEL 5
REMARK VINA RESULT:    -3.725      2.867      5.283
REMARK INTER + INTRA:          -5.091
REMARK INTER:                  -4.893
REMARK INTRA:                  -0.198
REMARK UNBOUND:                -0.168
REMARK SMILES CCCCCCCO
REMARK SMILES IDX 5 1 4 2 3 3 2 4 1 5 6 6 7 7 8 8
REMARK H PARENT 8 9
REMARK Flexibility Score: inf
ROOT
ATOM      1  C   UNL     1      -4.811 -21.553 -11.476  1.00  0.00     0.002 C 
ENDROOT
BRANCH   1   2
ATOM      2  C   UNL     1      -3.553 -22.175 -10.850  1.00  0.00     0.000 C 
BRANCH   2   3
ATOM      3  C   UNL     1      -2.268 -21.807 -11.612  1.00  0.00    -0.000 C 
BRANCH   3   4
ATOM      4  C   UNL     1      -1.556 -23.037 -12.196  1.00  0.00    -0.003 C 
ATOM      5  C   UNL     1      -2.383 -24.315 -12.064  1.00  0.00     0.004 C 
ENDBRANCH   3   4
ENDBRANCH   2   3
ENDBRANCH   1   2
BRANCH   1   6
ATOM      6  C   UNL     1      -4.499 -20.293 -12.300  1.00  0.00     0.028 C 
BRANCH   6   7
ATOM      7  C   UNL     1      -5.779 -19.580 -12.750  1.00  0.00     0.156 C 
BRANCH   7   8
ATOM      8  O   UNL     1      -6.437 -20.313 -13.748  1.00  0.00    -0.396 OA
ATOM      9  H   UNL     1      -6.992 -19.666 -14.258  1.00  0.00     0.210 HD
ENDBRANCH   7   8
ENDBRANCH   6   7
ENDBRANCH   1   6
TORSDOF 6
ENDMDL
MODEL 6
REMARK VINA RESULT:    -3.635      2.747      5.183
REMARK INTER + INTRA:          -4.972
REMARK INTER:                  -4.817
REMARK INTRA:                  -0.154
REMARK UNBOUND:                -0.168
REMARK SMILES CCCCCCCO
REMARK SMILES IDX 5 1 4 2 3 3 2 4 1 5 6 6 7 7 8 8
REMARK H PARENT 8 9
REMARK Flexibility Score: inf
ROOT
ATOM      1  C   UNL     1      -4.146 -20.690 -12.017  1.00  0.00     0.002 C 
ENDROOT
BRANCH   1   2
ATOM      2  C   UNL     1      -3.519 -21.837 -11.210  1.00  0.00     0.000 C 
BRANCH   2   3
ATOM      3  C   UNL     1      -2.157 -22.281 -11.772  1.00  0.00    -0.000 C 
BRANCH   3   4
ATOM      4  C   UNL     1      -1.860 -23.762 -11.495  1.00  0.00    -0.003 C 
ATOM      5  C   UNL     1      -2.617 -24.701 -12.433  1.00  0.00     0.004 C 
ENDBRANCH   3   4
ENDBRANCH   2   3
ENDBRANCH   1   2
BRANCH   1   6
ATOM      6  C   UNL     1      -5.646 -20.902 -12.278  1.00  0.00     0.028 C 
BRANCH   6   7
ATOM      7  C   UNL     1      -6.235 -21.973 -11.353  1.00  0.00     0.156 C 
BRANCH   7   8
ATOM      8  O   UNL     1      -7.167 -22.768 -12.035  1.00  0.00    -0.396 OA
ATOM      9  H   UNL     1      -7.156 -22.470 -12.982  1.00  0.00     0.210 HD
ENDBRANCH   7   8
ENDBRANCH   6   7
ENDBRANCH   1   6
TORSDOF 6
ENDMDL
MODEL 7
REMARK VINA RESULT:    -3.623      2.477      4.900
REMARK INTER + INTRA:          -4.956
REMARK INTER:                  -4.840
REMARK INTRA:                  -0.115
REMARK UNBOUND:                -0.168
REMARK SMILES CCCCCCCO
REMARK SMILES IDX 5 1 4 2 3 3 2 4 1 5 6 6 7 7 8 8
REMARK H PARENT 8 9
REMARK Flexibility Score: inf
ROOT
ATOM      1  C   UNL     1      -5.203 -19.494 -12.905  1.00  0.00     0.002 C 
ENDROOT
BRANCH   1   2
ATOM      2  C   UNL     1      -5.707 -20.297 -11.695  1.00  0.00     0.000 C 
BRANCH   2   3
ATOM      3  C   UNL     1      -5.241 -21.763 -11.722  1.00  0.00    -0.000 C 
BRANCH   3   4
ATOM      4  C   UNL     1      -3.925 -21.976 -10.959  1.00  0.00    -0.003 C 
ATOM      5  C   UNL     1      -3.110 -23.147 -11.504  1.00  0.00     0.004 C 
ENDBRANCH   3   4
ENDBRANCH   2   3
ENDBRANCH   1   2
BRANCH   1   6
ATOM      6  C   UNL     1      -6.048 -19.733 -14.166  1.00  0.00     0.028 C 
BRANCH   6   7
ATOM      7  C   UNL     1      -7.036 -18.588 -14.411  1.00  0.00     0.156 C 
BRANCH   7   8
ATOM      8  O   UNL     1      -6.367 -17.428 -14.828  1.00  0.00    -0.396 OA
ATOM      9  H   UNL     1      -6.894 -16.658 -14.489  1.00  0.00     0.210 HD
ENDBRANCH   7   8
ENDBRANCH   6   7
ENDBRANCH   1   6
TORSDOF 6
ENDMDL
MODEL 8
REMARK VINA RESULT:    -3.522      3.245      5.303
REMARK INTER + INTRA:          -4.822
REMARK INTER:                  -4.743
REMARK INTRA:                  -0.079
REMARK UNBOUND:                -0.168
REMARK SMILES CCCCCCCO
REMARK SMILES IDX 5 1 4 2 3 3 2 4 1 5 6 6 7 7 8 8
REMARK H PARENT 8 9
REMARK Flexibility Score: inf
ROOT
ATOM      1  C   UNL     1      -8.140 -17.639 -14.886  1.00  0.00     0.002 C 
ENDROOT
BRANCH   1   2
ATOM      2  C   UNL     1      -6.844 -17.758 -14.070  1.00  0.00     0.000 C 
BRANCH   2   3
ATOM      3  C   UNL     1      -6.225 -19.164 -14.144  1.00  0.00    -0.000 C 
BRANCH   3   4
ATOM      4  C   UNL     1      -5.414 -19.518 -12.888  1.00  0.00    -0.003 C 
ATOM      5  C   UNL     1      -5.692 -20.935 -12.387  1.00  0.00     0.004 C 
ENDBRANCH   3   4
ENDBRANCH   2   3
ENDBRANCH   1   2
BRANCH   1   6
ATOM      6  C   UNL     1      -7.885 -17.647 -16.402  1.00  0.00     0.028 C 
BRANCH   6   7
ATOM      7  C   UNL     1      -9.193 -17.745 -17.195  1.00  0.00     0.156 C 
BRANCH   7   8
ATOM      8  O   UNL     1      -9.081 -17.091 -18.431  1.00  0.00    -0.396 OA
ATOM      9  H   UNL     1      -8.996 -17.800 -19.121  1.00  0.00     0.210 HD
ENDBRANCH   7   8
ENDBRANCH   6   7
ENDBRANCH   1   6
TORSDOF 6
ENDMDL
MODEL 9
REMARK VINA RESULT:    -3.458      2.962      5.164
REMARK INTER + INTRA:          -4.738
REMARK INTER:                  -4.542
REMARK INTRA:                  -0.196
REMARK UNBOUND:                -0.168
REMARK SMILES CCCCCCCO
REMARK SMILES IDX 5 1 4 2 3 3 2 4 1 5 6 6 7 7 8 8
REMARK H PARENT 8 9
REMARK Flexibility Score: inf
ROOT
ATOM      1  C   UNL     1      -4.096 -20.955 -11.903  1.00  0.00     0.002 C 
ENDROOT
BRANCH   1   2
ATOM      2  C   UNL     1      -3.679 -22.017 -10.873  1.00  0.00     0.000 C 
BRANCH   2   3
ATOM      3  C   UNL     1      -2.771 -23.102 -11.477  1.00  0.00    -0.000 C 
BRANCH   3   4
ATOM      4  C   UNL     1      -1.470 -22.526 -12.057  1.00  0.00    -0.003 C 
ATOM      5  C   UNL     1      -0.409 -22.271 -10.988  1.00  0.00     0.004 C 
ENDBRANCH   3   4
ENDBRANCH   2   3
ENDBRANCH   1   2
BRANCH   1   6
ATOM      6  C   UNL     1      -5.600 -20.996 -12.216  1.00  0.00     0.028 C 
BRANCH   6   7
ATOM      7  C   UNL     1      -6.346 -21.964 -11.291  1.00  0.00     0.156 C 
BRANCH   7   8
ATOM      8  O   UNL     1      -7.156 -22.840 -12.029  1.00  0.00    -0.396 OA
ATOM      9  H   UNL     1      -6.983 -22.648 -12.987  1.00  0.00     0.210 HD
ENDBRANCH   7   8
ENDBRANCH   6   7
ENDBRANCH   1   6
TORSDOF 6
ENDMDL
